MODEL 1
REMARK VINA RESULT:     -11.7      0.000      0.000
REMARK SMILES C[C@H](Oc1ccc(C(=O)NCc2ccccc2)cc1)C(=O)NCCCCNC(=O)c1ccc(-c2c3nc(c(-c4ccccc4)c4ccc([nH]4)c(-c4ccccc4)c4nc(c(-c5ccccc5)c5ccc2[nH]5)C=C4)C=C3)cc1
REMARK SMILES IDX 23 1 22 2 20 3 21 4 2 6 1 7 3 8 4 9 5 10 19 11 6 12 18 13
REMARK SMILES IDX 7 14 8 15 9 16 10 17 11 19 12 20 13 21 17 22 14 23 16 24
REMARK SMILES IDX 15 25 24 26 25 27 26 28 27 29 28 30 29 32 30 33 31 34 77 35
REMARK SMILES IDX 32 36 76 37 33 38 34 39 35 40 70 41 36 42 75 43 69 44 71 45
REMARK SMILES IDX 37 46 74 47 68 48 67 49 38 51 60 52 45 53 59 54 46 55 49 56
REMARK SMILES IDX 58 57 72 58 47 59 48 60 57 62 73 63 50 64 39 65 40 66 44 67
REMARK SMILES IDX 41 68 43 69 42 70 61 71 62 72 66 73 63 74 65 75 64 76 51 77
REMARK SMILES IDX 52 78 56 79 53 80 55 81 54 82
REMARK H PARENT 22 5 10 18 27 31 71 50 49 61
REMARK Flexibility Score: inf
ROOT
ATOM      1  C   UNL A   1      31.433  29.021  25.074  1.00  0.00     0.116 C 
ENDROOT
BRANCH   1   2
ATOM      2  N   UNL A   1      30.875  28.625  23.790  1.00  0.00    -0.353 N 
ATOM      3  C   UNL A   1      31.446  27.850  22.809  1.00  0.00     0.260 C 
ATOM      4  O   UNL A   1      30.774  27.580  21.810  1.00  0.00    -0.271 OA
ATOM      5  H   UNL A   1      29.967  28.956  23.598  1.00  0.00     0.163 HD
BRANCH   3   6
ATOM      6  C   UNL A   1      32.871  27.306  22.999  1.00  0.00     0.258 C 
ATOM      7  C   UNL A   1      33.828  28.169  22.166  1.00  0.00     0.064 C 
BRANCH   6   8
ATOM      8  O   UNL A   1      32.723  25.915  22.683  1.00  0.00    -0.481 OA
BRANCH   8   9
ATOM      9  C   UNL A   1      33.499  24.951  23.237  1.00  0.00     0.120 A 
ATOM     10  C   UNL A   1      33.829  23.727  22.673  1.00  0.00     0.047 A 
ATOM     11  C   UNL A   1      33.950  25.263  24.523  1.00  0.00     0.047 A 
ATOM     12  C   UNL A   1      34.550  22.794  23.429  1.00  0.00     0.017 A 
ATOM     13  C   UNL A   1      34.651  24.326  25.283  1.00  0.00     0.017 A 
ATOM     14  C   UNL A   1      34.972  23.086  24.739  1.00  0.00     0.040 A 
BRANCH  14  15
ATOM     15  C   UNL A   1      35.632  22.002  25.508  1.00  0.00     0.251 C 
ATOM     16  O   UNL A   1      36.809  22.155  25.842  1.00  0.00    -0.269 OA
ATOM     17  N   UNL A   1      35.012  20.844  25.882  1.00  0.00    -0.348 N 
ATOM     18  H   UNL A   1      35.622  20.198  26.306  1.00  0.00     0.164 HD
BRANCH  17  19
ATOM     19  C   UNL A   1      33.645  20.359  25.790  1.00  0.00     0.152 C 
BRANCH  19  20
ATOM     20  C   UNL A   1      33.528  19.280  24.740  1.00  0.00    -0.029 A 
ATOM     21  C   UNL A   1      32.480  19.278  23.809  1.00  0.00     0.005 A 
ATOM     22  C   UNL A   1      34.485  18.252  24.674  1.00  0.00     0.005 A 
ATOM     23  C   UNL A   1      32.408  18.292  22.820  1.00  0.00     0.000 A 
ATOM     24  C   UNL A   1      34.408  17.266  23.688  1.00  0.00     0.000 A 
ATOM     25  C   UNL A   1      33.373  17.290  22.758  1.00  0.00     0.000 A 
ENDBRANCH  19  20
ENDBRANCH  17  19
ENDBRANCH  14  15
ENDBRANCH   8   9
ENDBRANCH   6   8
ENDBRANCH   3   6
ENDBRANCH   1   2
BRANCH   1  26
ATOM     26  C   UNL A   1      31.495  27.864  26.064  1.00  0.00     0.023 C 
BRANCH  26  27
ATOM     27  C   UNL A   1      32.115  28.223  27.413  1.00  0.00     0.023 C 
BRANCH  27  28
ATOM     28  C   UNL A   1      33.516  28.822  27.340  1.00  0.00     0.116 C 
BRANCH  28  29
ATOM     29  N   UNL A   1      33.559  30.219  27.745  1.00  0.00    -0.352 N 
ATOM     30  C   UNL A   1      34.585  30.918  28.342  1.00  0.00     0.251 C 
ATOM     31  H   UNL A   1      32.741  30.737  27.566  1.00  0.00     0.163 HD
ATOM     32  O   UNL A   1      34.405  32.056  28.747  1.00  0.00    -0.269 OA
BRANCH  30  33
ATOM     33  C   UNL A   1      35.900  30.264  28.523  1.00  0.00     0.039 A 
ATOM     34  C   UNL A   1      36.807  30.273  27.461  1.00  0.00     0.014 A 
ATOM     35  C   UNL A   1      36.243  29.669  29.739  1.00  0.00     0.014 A 
ATOM     36  C   UNL A   1      38.089  29.750  27.645  1.00  0.00     0.010 A 
ATOM     37  C   UNL A   1      37.546  29.222  29.945  1.00  0.00     0.010 A 
ATOM     38  C   UNL A   1      38.483  29.260  28.901  1.00  0.00    -0.014 A 
BRANCH  38  39
ATOM     39  C   UNL A   1      39.871  28.792  29.144  1.00  0.00     0.031 A 
ATOM     40  C   UNL A   1      40.887  29.717  29.755  1.00  0.00     0.074 A 
ATOM     41  C   UNL A   1      40.235  27.554  28.757  1.00  0.00     0.049 A 
ATOM     42  N   UNL A   1      42.158  29.507  29.989  1.00  0.00    -0.248 NA
ATOM     43  C   UNL A   1      40.422  31.061  30.129  1.00  0.00     0.031 C 
ATOM     44  C   UNL A   1      39.358  26.571  28.115  1.00  0.00     0.029 A 
ATOM     45  N   UNL A   1      41.445  26.910  28.840  1.00  0.00    -0.354 N 
ATOM     46  C   UNL A   1      42.644  30.693  30.524  1.00  0.00     0.074 A 
ATOM     47  C   UNL A   1      41.547  31.635  30.530  1.00  0.00     0.031 C 
ATOM     48  C   UNL A   1      40.050  25.444  27.889  1.00  0.00     0.029 A 
ATOM     49  C   UNL A   1      41.430  25.636  28.326  1.00  0.00     0.049 A 
ATOM     50  H   UNL A   1      42.249  27.324  29.230  1.00  0.00     0.167 HD
ATOM     51  C   UNL A   1      43.885  30.969  30.990  1.00  0.00     0.031 A 
ATOM     52  C   UNL A   1      42.416  24.727  28.209  1.00  0.00     0.031 A 
ATOM     53  C   UNL A   1      44.978  30.033  30.987  1.00  0.00     0.049 A 
ATOM     54  C   UNL A   1      43.792  25.066  28.711  1.00  0.00     0.074 A 
ATOM     55  C   UNL A   1      46.260  30.203  31.482  1.00  0.00     0.029 A 
ATOM     56  N   UNL A   1      44.919  28.751  30.462  1.00  0.00    -0.354 N 
ATOM     57  N   UNL A   1      44.217  26.170  29.277  1.00  0.00    -0.248 NA
ATOM     58  C   UNL A   1      44.822  24.029  28.567  1.00  0.00     0.031 C 
ATOM     59  C   UNL A   1      46.993  29.045  31.204  1.00  0.00     0.029 A 
ATOM     60  C   UNL A   1      46.149  28.129  30.596  1.00  0.00     0.049 A 
ATOM     61  H   UNL A   1      44.121  28.344  30.053  1.00  0.00     0.167 HD
ATOM     62  C   UNL A   1      45.553  25.948  29.583  1.00  0.00     0.074 A 
ATOM     63  C   UNL A   1      45.864  24.599  29.156  1.00  0.00     0.031 C 
ATOM     64  C   UNL A   1      46.444  26.787  30.166  1.00  0.00     0.031 A 
BRANCH  51  65
ATOM     65  C   UNL A   1      44.128  32.348  31.538  1.00  0.00    -0.014 A 
ATOM     66  C   UNL A   1      43.926  32.637  32.898  1.00  0.00     0.009 A 
ATOM     67  C   UNL A   1      44.599  33.365  30.694  1.00  0.00     0.009 A 
ATOM     68  C   UNL A   1      44.154  33.923  33.391  1.00  0.00     0.001 A 
ATOM     69  C   UNL A   1      44.856  34.642  31.195  1.00  0.00     0.001 A 
ATOM     70  C   UNL A   1      44.624  34.922  32.541  1.00  0.00     0.000 A 
ENDBRANCH  51  65
BRANCH  52  71
ATOM     71  C   UNL A   1      42.139  23.401  27.597  1.00  0.00    -0.014 A 
ATOM     72  C   UNL A   1      42.406  23.170  26.238  1.00  0.00     0.009 A 
ATOM     73  C   UNL A   1      41.593  22.360  28.366  1.00  0.00     0.009 A 
ATOM     74  C   UNL A   1      42.104  21.936  25.656  1.00  0.00     0.001 A 
ATOM     75  C   UNL A   1      41.323  21.118  27.788  1.00  0.00     0.001 A 
ATOM     76  C   UNL A   1      41.568  20.910  26.433  1.00  0.00     0.000 A 
ENDBRANCH  52  71
BRANCH  64  77
ATOM     77  C   UNL A   1      47.830  26.257  30.414  1.00  0.00    -0.014 A 
ATOM     78  C   UNL A   1      48.205  25.749  31.667  1.00  0.00     0.009 A 
ATOM     79  C   UNL A   1      48.760  26.229  29.362  1.00  0.00     0.009 A 
ATOM     80  C   UNL A   1      49.497  25.258  31.871  1.00  0.00     0.001 A 
ATOM     81  C   UNL A   1      50.038  25.708  29.560  1.00  0.00     0.001 A 
ATOM     82  C   UNL A   1      50.409  25.231  30.816  1.00  0.00     0.000 A 
ENDBRANCH  64  77
ENDBRANCH  38  39
ENDBRANCH  30  33
ENDBRANCH  28  29
ENDBRANCH  27  28
ENDBRANCH  26  27
ENDBRANCH   1  26
TORSDOF 16
ENDMDL
MODEL 2
REMARK VINA RESULT:     -11.6      1.325      2.107
REMARK SMILES C[C@H](Oc1ccc(C(=O)NCc2ccccc2)cc1)C(=O)NCCCCNC(=O)c1ccc(-c2c3nc(c(-c4ccccc4)c4ccc([nH]4)c(-c4ccccc4)c4nc(c(-c5ccccc5)c5ccc2[nH]5)C=C4)C=C3)cc1
REMARK SMILES IDX 23 1 22 2 20 3 21 4 2 6 1 7 3 8 4 9 5 10 19 11 6 12 18 13
REMARK SMILES IDX 7 14 8 15 9 16 10 17 11 19 12 20 13 21 17 22 14 23 16 24
REMARK SMILES IDX 15 25 24 26 25 27 26 28 27 29 28 30 29 32 30 33 31 34 77 35
REMARK SMILES IDX 32 36 76 37 33 38 34 39 35 40 70 41 36 42 75 43 69 44 71 45
REMARK SMILES IDX 37 46 74 47 68 48 67 49 38 51 60 52 45 53 59 54 46 55 49 56
REMARK SMILES IDX 58 57 72 58 47 59 48 60 57 62 73 63 50 64 39 65 40 66 44 67
REMARK SMILES IDX 41 68 43 69 42 70 61 71 62 72 66 73 63 74 65 75 64 76 51 77
REMARK SMILES IDX 52 78 56 79 53 80 55 81 54 82
REMARK H PARENT 22 5 10 18 27 31 71 50 49 61
REMARK Flexibility Score: inf
ROOT
ATOM      1  C   UNL A   1      33.405  28.287  23.356  1.00  0.00     0.116 C 
ENDROOT
BRANCH   1   2
ATOM      2  N   UNL A   1      31.957  28.191  23.261  1.00  0.00    -0.353 N 
ATOM      3  C   UNL A   1      31.189  27.098  22.936  1.00  0.00     0.260 C 
ATOM      4  O   UNL A   1      29.962  27.213  22.969  1.00  0.00    -0.271 OA
ATOM      5  H   UNL A   1      31.460  29.019  23.454  1.00  0.00     0.163 HD
BRANCH   3   6
ATOM      6  C   UNL A   1      31.869  25.763  22.591  1.00  0.00     0.258 C 
ATOM      7  C   UNL A   1      32.357  25.837  21.137  1.00  0.00     0.064 C 
BRANCH   6   8
ATOM      8  O   UNL A   1      30.871  24.798  22.949  1.00  0.00    -0.481 OA
BRANCH   8   9
ATOM      9  C   UNL A   1      31.157  23.675  23.653  1.00  0.00     0.120 A 
ATOM     10  C   UNL A   1      30.823  23.419  24.975  1.00  0.00     0.047 A 
ATOM     11  C   UNL A   1      31.901  22.735  22.934  1.00  0.00     0.047 A 
ATOM     12  C   UNL A   1      31.296  22.253  25.590  1.00  0.00     0.017 A 
ATOM     13  C   UNL A   1      32.389  21.583  23.552  1.00  0.00     0.017 A 
ATOM     14  C   UNL A   1      32.079  21.321  24.883  1.00  0.00     0.040 A 
BRANCH  14  15
ATOM     15  C   UNL A   1      32.632  20.170  25.640  1.00  0.00     0.251 C 
ATOM     16  O   UNL A   1      32.232  19.039  25.357  1.00  0.00    -0.269 OA
ATOM     17  N   UNL A   1      33.568  20.284  26.628  1.00  0.00    -0.348 N 
ATOM     18  H   UNL A   1      33.754  19.432  27.084  1.00  0.00     0.164 HD
BRANCH  17  19
ATOM     19  C   UNL A   1      34.350  21.392  27.150  1.00  0.00     0.152 C 
BRANCH  19  20
ATOM     20  C   UNL A   1      35.169  22.034  26.055  1.00  0.00    -0.029 A 
ATOM     21  C   UNL A   1      34.961  23.368  25.675  1.00  0.00     0.005 A 
ATOM     22  C   UNL A   1      36.171  21.299  25.397  1.00  0.00     0.005 A 
ATOM     23  C   UNL A   1      35.754  23.959  24.687  1.00  0.00     0.000 A 
ATOM     24  C   UNL A   1      36.958  21.890  24.407  1.00  0.00     0.000 A 
ATOM     25  C   UNL A   1      36.753  23.221  24.056  1.00  0.00     0.000 A 
ENDBRANCH  19  20
ENDBRANCH  17  19
ENDBRANCH  14  15
ENDBRANCH   8   9
ENDBRANCH   6   8
ENDBRANCH   3   6
ENDBRANCH   1   2
BRANCH   1  26
ATOM     26  C   UNL A   1      33.908  28.099  24.783  1.00  0.00     0.023 C 
BRANCH  26  27
ATOM     27  C   UNL A   1      32.975  28.656  25.857  1.00  0.00     0.023 C 
BRANCH  27  28
ATOM     28  C   UNL A   1      33.598  28.798  27.242  1.00  0.00     0.116 C 
BRANCH  28  29
ATOM     29  N   UNL A   1      33.610  30.171  27.723  1.00  0.00    -0.352 N 
ATOM     30  C   UNL A   1      34.612  30.854  28.375  1.00  0.00     0.251 C 
ATOM     31  H   UNL A   1      32.785  30.683  27.559  1.00  0.00     0.163 HD
ATOM     32  O   UNL A   1      34.405  31.965  28.838  1.00  0.00    -0.269 OA
BRANCH  30  33
ATOM     33  C   UNL A   1      35.936  30.213  28.543  1.00  0.00     0.039 A 
ATOM     34  C   UNL A   1      36.837  30.244  27.477  1.00  0.00     0.014 A 
ATOM     35  C   UNL A   1      36.293  29.611  29.752  1.00  0.00     0.014 A 
ATOM     36  C   UNL A   1      38.127  29.735  27.649  1.00  0.00     0.010 A 
ATOM     37  C   UNL A   1      37.601  29.178  29.947  1.00  0.00     0.010 A 
ATOM     38  C   UNL A   1      38.532  29.237  28.898  1.00  0.00    -0.014 A 
BRANCH  38  39
ATOM     39  C   UNL A   1      39.927  28.783  29.130  1.00  0.00     0.031 A 
ATOM     40  C   UNL A   1      40.939  29.718  29.734  1.00  0.00     0.074 A 
ATOM     41  C   UNL A   1      40.301  27.549  28.738  1.00  0.00     0.049 A 
ATOM     42  N   UNL A   1      42.214  29.521  29.958  1.00  0.00    -0.248 NA
ATOM     43  C   UNL A   1      40.462  31.057  30.114  1.00  0.00     0.031 C 
ATOM     44  C   UNL A   1      39.429  26.559  28.103  1.00  0.00     0.029 A 
ATOM     45  N   UNL A   1      41.519  26.919  28.812  1.00  0.00    -0.354 N 
ATOM     46  C   UNL A   1      42.691  30.712  30.490  1.00  0.00     0.074 A 
ATOM     47  C   UNL A   1      41.585  31.642  30.506  1.00  0.00     0.031 C 
ATOM     48  C   UNL A   1      40.132  25.439  27.870  1.00  0.00     0.029 A 
ATOM     49  C   UNL A   1      41.513  25.645  28.296  1.00  0.00     0.049 A 
ATOM     50  H   UNL A   1      42.321  27.340  29.196  1.00  0.00     0.167 HD
ATOM     51  C   UNL A   1      43.933  31.000  30.948  1.00  0.00     0.031 A 
ATOM     52  C   UNL A   1      42.507  24.747  28.170  1.00  0.00     0.031 A 
ATOM     53  C   UNL A   1      45.036  30.075  30.935  1.00  0.00     0.049 A 
ATOM     54  C   UNL A   1      43.884  25.099  28.662  1.00  0.00     0.074 A 
ATOM     55  C   UNL A   1      46.320  30.258  31.420  1.00  0.00     0.029 A 
ATOM     56  N   UNL A   1      44.986  28.794  30.409  1.00  0.00    -0.354 N 
ATOM     57  N   UNL A   1      44.301  26.206  29.226  1.00  0.00    -0.248 NA
ATOM     58  C   UNL A   1      44.924  24.073  28.509  1.00  0.00     0.031 C 
ATOM     59  C   UNL A   1      47.062  29.108  31.135  1.00  0.00     0.029 A 
ATOM     60  C   UNL A   1      46.223  28.185  30.532  1.00  0.00     0.049 A 
ATOM     61  H   UNL A   1      44.188  28.379  30.006  1.00  0.00     0.167 HD
ATOM     62  C   UNL A   1      45.642  25.999  29.522  1.00  0.00     0.074 A 
ATOM     63  C   UNL A   1      45.963  24.654  29.091  1.00  0.00     0.031 C 
ATOM     64  C   UNL A   1      46.529  26.846  30.098  1.00  0.00     0.031 A 
BRANCH  51  65
ATOM     65  C   UNL A   1      44.166  32.381  31.496  1.00  0.00    -0.014 A 
ATOM     66  C   UNL A   1      43.977  32.665  32.858  1.00  0.00     0.009 A 
ATOM     67  C   UNL A   1      44.613  33.405  30.647  1.00  0.00     0.009 A 
ATOM     68  C   UNL A   1      44.195  33.952  33.351  1.00  0.00     0.001 A 
ATOM     69  C   UNL A   1      44.861  34.684  31.148  1.00  0.00     0.001 A 
ATOM     70  C   UNL A   1      44.643  34.959  32.497  1.00  0.00     0.000 A 
ENDBRANCH  51  65
BRANCH  52  71
ATOM     71  C   UNL A   1      42.240  23.418  27.559  1.00  0.00    -0.014 A 
ATOM     72  C   UNL A   1      42.492  23.193  26.197  1.00  0.00     0.009 A 
ATOM     73  C   UNL A   1      41.717  22.369  28.333  1.00  0.00     0.009 A 
ATOM     74  C   UNL A   1      42.199  21.957  25.616  1.00  0.00     0.001 A 
ATOM     75  C   UNL A   1      41.455  21.124  27.755  1.00  0.00     0.001 A 
ATOM     76  C   UNL A   1      41.685  20.923  26.396  1.00  0.00     0.000 A 
ENDBRANCH  52  71
BRANCH  64  77
ATOM     77  C   UNL A   1      47.922  26.330  30.335  1.00  0.00    -0.014 A 
ATOM     78  C   UNL A   1      48.297  25.777  31.569  1.00  0.00     0.009 A 
ATOM     79  C   UNL A   1      48.860  26.362  29.291  1.00  0.00     0.009 A 
ATOM     80  C   UNL A   1      49.596  25.300  31.762  1.00  0.00     0.001 A 
ATOM     81  C   UNL A   1      50.146  25.855  29.477  1.00  0.00     0.001 A 
ATOM     82  C   UNL A   1      50.516  25.334  30.715  1.00  0.00     0.000 A 
ENDBRANCH  64  77
ENDBRANCH  38  39
ENDBRANCH  30  33
ENDBRANCH  28  29
ENDBRANCH  27  28
ENDBRANCH  26  27
ENDBRANCH   1  26
TORSDOF 16
ENDMDL
MODEL 3
REMARK VINA RESULT:     -11.5      1.311      6.171
REMARK SMILES C[C@H](Oc1ccc(C(=O)NCc2ccccc2)cc1)C(=O)NCCCCNC(=O)c1ccc(-c2c3nc(c(-c4ccccc4)c4ccc([nH]4)c(-c4ccccc4)c4nc(c(-c5ccccc5)c5ccc2[nH]5)C=C4)C=C3)cc1
REMARK SMILES IDX 23 1 22 2 20 3 21 4 2 6 1 7 3 8 4 9 5 10 19 11 6 12 18 13
REMARK SMILES IDX 7 14 8 15 9 16 10 17 11 19 12 20 13 21 17 22 14 23 16 24
REMARK SMILES IDX 15 25 24 26 25 27 26 28 27 29 28 30 29 32 30 33 31 34 77 35
REMARK SMILES IDX 32 36 76 37 33 38 34 39 35 40 70 41 36 42 75 43 69 44 71 45
REMARK SMILES IDX 37 46 74 47 68 48 67 49 38 51 60 52 45 53 59 54 46 55 49 56
REMARK SMILES IDX 58 57 72 58 47 59 48 60 57 62 73 63 50 64 39 65 40 66 44 67
REMARK SMILES IDX 41 68 43 69 42 70 61 71 62 72 66 73 63 74 65 75 64 76 51 77
REMARK SMILES IDX 52 78 56 79 53 80 55 81 54 82
REMARK H PARENT 22 5 10 18 27 31 71 50 49 61
REMARK Flexibility Score: inf
ROOT
ATOM      1  C   UNL A   1      32.090  29.089  24.922  1.00  0.00     0.116 C 
ENDROOT
BRANCH   1   2
ATOM      2  N   UNL A   1      31.286  28.852  23.734  1.00  0.00    -0.353 N 
ATOM      3  C   UNL A   1      31.238  27.730  22.941  1.00  0.00     0.260 C 
ATOM      4  O   UNL A   1      30.437  27.709  22.003  1.00  0.00    -0.271 OA
ATOM      5  H   UNL A   1      30.698  29.593  23.460  1.00  0.00     0.163 HD
BRANCH   3   6
ATOM      6  C   UNL A   1      32.136  26.526  23.267  1.00  0.00     0.258 C 
ATOM      7  C   UNL A   1      33.437  26.669  22.464  1.00  0.00     0.064 C 
BRANCH   6   8
ATOM      8  O   UNL A   1      31.273  25.409  23.013  1.00  0.00    -0.481 OA
BRANCH   8   9
ATOM      9  C   UNL A   1      31.424  24.212  23.632  1.00  0.00     0.120 A 
ATOM     10  C   UNL A   1      30.879  23.835  24.851  1.00  0.00     0.047 A 
ATOM     11  C   UNL A   1      32.256  23.324  22.943  1.00  0.00     0.047 A 
ATOM     12  C   UNL A   1      31.227  22.597  25.406  1.00  0.00     0.017 A 
ATOM     13  C   UNL A   1      32.619  22.099  23.505  1.00  0.00     0.017 A 
ATOM     14  C   UNL A   1      32.096  21.716  24.737  1.00  0.00     0.040 A 
BRANCH  14  15
ATOM     15  C   UNL A   1      32.500  20.475  25.446  1.00  0.00     0.251 C 
ATOM     16  O   UNL A   1      32.036  19.402  25.056  1.00  0.00    -0.269 OA
ATOM     17  N   UNL A   1      33.368  20.448  26.500  1.00  0.00    -0.348 N 
ATOM     18  H   UNL A   1      33.453  19.555  26.907  1.00  0.00     0.164 HD
BRANCH  17  19
ATOM     19  C   UNL A   1      34.193  21.450  27.152  1.00  0.00     0.152 C 
BRANCH  19  20
ATOM     20  C   UNL A   1      35.168  22.062  26.174  1.00  0.00    -0.029 A 
ATOM     21  C   UNL A   1      36.111  21.277  25.496  1.00  0.00     0.005 A 
ATOM     22  C   UNL A   1      35.138  23.444  25.918  1.00  0.00     0.005 A 
ATOM     23  C   UNL A   1      36.981  21.854  24.565  1.00  0.00     0.000 A 
ATOM     24  C   UNL A   1      36.010  24.019  24.991  1.00  0.00     0.000 A 
ATOM     25  C   UNL A   1      36.928  23.223  24.311  1.00  0.00     0.000 A 
ENDBRANCH  19  20
ENDBRANCH  17  19
ENDBRANCH  14  15
ENDBRANCH   8   9
ENDBRANCH   6   8
ENDBRANCH   3   6
ENDBRANCH   1   2
BRANCH   1  26
ATOM     26  C   UNL A   1      31.417  28.580  26.192  1.00  0.00     0.023 C 
BRANCH  26  27
ATOM     27  C   UNL A   1      32.389  28.168  27.297  1.00  0.00     0.023 C 
BRANCH  27  28
ATOM     28  C   UNL A   1      33.747  28.862  27.252  1.00  0.00     0.116 C 
BRANCH  28  29
ATOM     29  N   UNL A   1      33.721  30.202  27.817  1.00  0.00    -0.352 N 
ATOM     30  C   UNL A   1      34.705  30.871  28.510  1.00  0.00     0.251 C 
ATOM     31  H   UNL A   1      32.883  30.701  27.684  1.00  0.00     0.163 HD
ATOM     32  O   UNL A   1      34.468  31.945  29.040  1.00  0.00    -0.269 OA
BRANCH  30  33
ATOM     33  C   UNL A   1      36.046  30.258  28.639  1.00  0.00     0.039 A 
ATOM     34  C   UNL A   1      36.913  30.302  27.544  1.00  0.00     0.014 A 
ATOM     35  C   UNL A   1      36.453  29.669  29.838  1.00  0.00     0.014 A 
ATOM     36  C   UNL A   1      38.217  29.820  27.678  1.00  0.00     0.010 A 
ATOM     37  C   UNL A   1      37.776  29.264  29.994  1.00  0.00     0.010 A 
ATOM     38  C   UNL A   1      38.672  29.336  28.916  1.00  0.00    -0.014 A 
BRANCH  38  39
ATOM     39  C   UNL A   1      40.082  28.912  29.105  1.00  0.00     0.031 A 
ATOM     40  C   UNL A   1      40.518  27.529  28.707  1.00  0.00     0.074 A 
ATOM     41  C   UNL A   1      40.958  29.750  29.694  1.00  0.00     0.049 A 
ATOM     42  N   UNL A   1      41.689  26.960  28.848  1.00  0.00    -0.248 NA
ATOM     43  C   UNL A   1      39.500  26.663  28.092  1.00  0.00     0.031 C 
ATOM     44  C   UNL A   1      40.655  31.103  30.165  1.00  0.00     0.029 A 
ATOM     45  N   UNL A   1      42.285  29.582  30.005  1.00  0.00    -0.354 N 
ATOM     46  C   UNL A   1      41.544  25.670  28.353  1.00  0.00     0.074 A 
ATOM     47  C   UNL A   1      40.161  25.522  27.959  1.00  0.00     0.031 C 
ATOM     48  C   UNL A   1      41.767  31.651  30.678  1.00  0.00     0.029 A 
ATOM     49  C   UNL A   1      42.851  30.675  30.615  1.00  0.00     0.049 A 
ATOM     50  H   UNL A   1      42.784  28.756  29.809  1.00  0.00     0.167 HD
ATOM     51  C   UNL A   1      42.482  24.703  28.216  1.00  0.00     0.031 A 
ATOM     52  C   UNL A   1      44.099  30.869  31.082  1.00  0.00     0.031 A 
ATOM     53  C   UNL A   1      43.859  24.849  28.605  1.00  0.00     0.049 A 
ATOM     54  C   UNL A   1      45.116  29.770  30.942  1.00  0.00     0.074 A 
ATOM     55  C   UNL A   1      44.896  23.942  28.463  1.00  0.00     0.029 A 
ATOM     56  N   UNL A   1      44.392  25.973  29.216  1.00  0.00    -0.354 N 
ATOM     57  N   UNL A   1      44.979  28.580  30.409  1.00  0.00    -0.248 NA
ATOM     58  C   UNL A   1      46.463  30.045  31.460  1.00  0.00     0.031 C 
ATOM     59  C   UNL A   1      46.043  24.496  29.039  1.00  0.00     0.029 A 
ATOM     60  C   UNL A   1      45.737  25.773  29.481  1.00  0.00     0.049 A 
ATOM     61  H   UNL A   1      43.889  26.793  29.430  1.00  0.00     0.167 HD
ATOM     62  C   UNL A   1      46.226  27.978  30.500  1.00  0.00     0.074 A 
ATOM     63  C   UNL A   1      47.112  28.940  31.122  1.00  0.00     0.031 C 
ATOM     64  C   UNL A   1      46.606  26.739  30.103  1.00  0.00     0.031 A 
BRANCH  51  65
ATOM     65  C   UNL A   1      42.042  23.392  27.624  1.00  0.00    -0.014 A 
ATOM     66  C   UNL A   1      41.512  22.371  28.429  1.00  0.00     0.009 A 
ATOM     67  C   UNL A   1      42.125  23.186  26.238  1.00  0.00     0.009 A 
ATOM     68  C   UNL A   1      41.110  21.159  27.865  1.00  0.00     0.001 A 
ATOM     69  C   UNL A   1      41.693  21.986  25.672  1.00  0.00     0.001 A 
ATOM     70  C   UNL A   1      41.195  20.970  26.487  1.00  0.00     0.000 A 
ENDBRANCH  51  65
BRANCH  52  71
ATOM     71  C   UNL A   1      44.465  32.161  31.721  1.00  0.00    -0.014 A 
ATOM     72  C   UNL A   1      44.978  33.218  30.955  1.00  0.00     0.009 A 
ATOM     73  C   UNL A   1      44.314  32.339  33.106  1.00  0.00     0.009 A 
ATOM     74  C   UNL A   1      45.362  34.414  31.565  1.00  0.00     0.001 A 
ATOM     75  C   UNL A   1      44.668  33.549  33.708  1.00  0.00     0.001 A 
ATOM     76  C   UNL A   1      45.202  34.580  32.940  1.00  0.00     0.000 A 
ENDBRANCH  52  71
BRANCH  64  77
ATOM     77  C   UNL A   1      48.051  26.366  30.292  1.00  0.00    -0.014 A 
ATOM     78  C   UNL A   1      49.009  26.622  29.298  1.00  0.00     0.009 A 
ATOM     79  C   UNL A   1      48.464  25.787  31.502  1.00  0.00     0.009 A 
ATOM     80  C   UNL A   1      50.345  26.272  29.501  1.00  0.00     0.001 A 
ATOM     81  C   UNL A   1      49.805  25.468  31.713  1.00  0.00     0.001 A 
ATOM     82  C   UNL A   1      50.743  25.701  30.709  1.00  0.00     0.000 A 
ENDBRANCH  64  77
ENDBRANCH  38  39
ENDBRANCH  30  33
ENDBRANCH  28  29
ENDBRANCH  27  28
ENDBRANCH  26  27
ENDBRANCH   1  26
TORSDOF 16
ENDMDL
