MODEL 1
REMARK VINA RESULT:      -9.5      0.000      0.000
REMARK SMILES CCCNC(=O)[C@H](C)[NH2+][C@H](C)[C@@H](C)C(=O)NCCCCNC(=O)c1ccc(-c2c3nc(c(-c4ccccc4)c4ccc([nH]4)c(-c4ccccc4)c4nc(c(-c5ccccc5)c5ccc2[nH]5)C=C4)C=C3)cc1
REMARK SMILES IDX 14 1 15 2 16 3 12 5 13 6 10 7 11 8 9 9 7 12 8 13 5 14 4 15
REMARK SMILES IDX 6 17 3 18 2 19 1 20 17 21 18 22 19 23 20 24 21 25 22 26
REMARK SMILES IDX 23 28 24 29 25 30 71 31 26 32 70 33 27 34 28 35 29 36 64 37
REMARK SMILES IDX 30 38 69 39 63 40 65 41 31 42 68 43 62 44 61 45 32 47 54 48
REMARK SMILES IDX 39 49 53 50 40 51 43 52 52 53 66 54 41 55 42 56 51 58 67 59
REMARK SMILES IDX 44 60 33 61 34 62 38 63 35 64 37 65 36 66 55 67 56 68 60 69
REMARK SMILES IDX 57 70 59 71 58 72 45 73 46 74 50 75 47 76 49 77 48 78
REMARK H PARENT 16 4 9 10 9 11 4 16 21 27 65 46 43 57
REMARK Flexibility Score: inf
ROOT
ATOM      1  C   UNL A   1      36.277  23.163  23.927  1.00  0.00     0.228 C 
ATOM      2  O   UNL A   1      36.235  23.087  22.693  1.00  0.00    -0.275 OA
ATOM      3  N   UNL A   1      37.505  23.356  24.479  1.00  0.00    -0.356 N 
ATOM      4  H   UNL A   1      38.253  23.270  23.846  1.00  0.00     0.163 HD
ENDROOT
BRANCH   1   5
ATOM      5  C   UNL A   1      34.992  23.117  24.753  1.00  0.00     0.133 C 
ATOM      6  C   UNL A   1      34.431  21.692  24.618  1.00  0.00     0.024 C 
BRANCH   5   7
ATOM      7  C   UNL A   1      33.978  24.272  24.488  1.00  0.00     0.192 C 
ATOM      8  C   UNL A   1      34.213  25.456  25.443  1.00  0.00     0.076 C 
BRANCH   7   9
ATOM      9  N   UNL A   1      33.954  24.886  23.146  1.00  0.00    -0.333 N 
ATOM     10  H   UNL A   1      33.842  25.891  23.274  1.00  0.00     0.347 HD
ATOM     11  H   UNL A   1      34.832  24.591  22.714  1.00  0.00     0.347 HD
BRANCH   9  12
ATOM     12  C   UNL A   1      32.908  24.443  22.196  1.00  0.00     0.269 C 
ATOM     13  C   UNL A   1      31.686  24.047  23.021  1.00  0.00     0.086 C 
BRANCH  12  14
ATOM     14  C   UNL A   1      32.590  25.610  21.240  1.00  0.00     0.277 C 
ATOM     15  N   UNL A   1      31.625  26.500  21.635  1.00  0.00    -0.351 N 
ATOM     16  H   UNL A   1      30.706  26.382  21.301  1.00  0.00     0.163 HD
ATOM     17  O   UNL A   1      33.080  25.690  20.113  1.00  0.00    -0.268 OA
BRANCH  15  18
ATOM     18  C   UNL A   1      31.908  27.607  22.524  1.00  0.00     0.116 C 
BRANCH  18  19
ATOM     19  C   UNL A   1      30.962  27.629  23.729  1.00  0.00     0.018 C 
ATOM     20  C   UNL A   1      31.375  28.655  24.778  1.00  0.00     0.006 C 
ENDBRANCH  18  19
ENDBRANCH  15  18
ENDBRANCH  12  14
ENDBRANCH   9  12
ENDBRANCH   7   9
ENDBRANCH   5   7
ENDBRANCH   1   5
BRANCH   3  21
ATOM     21  C   UNL A   1      37.898  23.667  25.837  1.00  0.00     0.116 C 
BRANCH  21  22
ATOM     22  C   UNL A   1      38.922  22.678  26.393  1.00  0.00     0.023 C 
BRANCH  22  23
ATOM     23  C   UNL A   1      39.064  21.379  25.602  1.00  0.00     0.023 C 
BRANCH  23  24
ATOM     24  C   UNL A   1      39.447  20.157  26.426  1.00  0.00     0.116 C 
BRANCH  24  25
ATOM     25  N   UNL A   1      40.593  19.442  25.889  1.00  0.00    -0.352 N 
ATOM     26  C   UNL A   1      41.907  19.833  25.815  1.00  0.00     0.251 C 
ATOM     27  H   UNL A   1      40.399  18.548  25.524  1.00  0.00     0.163 HD
ATOM     28  O   UNL A   1      42.723  19.141  25.222  1.00  0.00    -0.269 OA
BRANCH  26  29
ATOM     29  C   UNL A   1      42.321  21.115  26.422  1.00  0.00     0.039 A 
ATOM     30  C   UNL A   1      42.676  22.166  25.575  1.00  0.00     0.014 A 
ATOM     31  C   UNL A   1      42.338  21.288  27.808  1.00  0.00     0.014 A 
ATOM     32  C   UNL A   1      42.985  23.412  26.118  1.00  0.00     0.010 A 
ATOM     33  C   UNL A   1      42.565  22.552  28.344  1.00  0.00     0.010 A 
ATOM     34  C   UNL A   1      42.893  23.627  27.504  1.00  0.00    -0.014 A 
BRANCH  34  35
ATOM     35  C   UNL A   1      43.115  24.977  28.075  1.00  0.00     0.031 A 
ATOM     36  C   UNL A   1      44.492  25.411  28.499  1.00  0.00     0.074 A 
ATOM     37  C   UNL A   1      42.063  25.802  28.250  1.00  0.00     0.049 A 
ATOM     38  N   UNL A   1      44.874  26.556  29.007  1.00  0.00    -0.248 NA
ATOM     39  C   UNL A   1      45.577  24.428  28.355  1.00  0.00     0.031 C 
ATOM     40  C   UNL A   1      40.671  25.477  27.930  1.00  0.00     0.029 A 
ATOM     41  N   UNL A   1      42.001  27.083  28.734  1.00  0.00    -0.354 N 
ATOM     42  C   UNL A   1      46.235  26.425  29.251  1.00  0.00     0.074 A 
ATOM     43  C   UNL A   1      46.603  25.075  28.887  1.00  0.00     0.031 C 
ATOM     44  C   UNL A   1      39.899  26.544  28.190  1.00  0.00     0.029 A 
ATOM     45  C   UNL A   1      40.733  27.611  28.732  1.00  0.00     0.049 A 
ATOM     46  H   UNL A   1      42.790  27.578  29.054  1.00  0.00     0.167 HD
ATOM     47  C   UNL A   1      47.105  27.352  29.716  1.00  0.00     0.031 A 
ATOM     48  C   UNL A   1      40.288  28.821  29.124  1.00  0.00     0.031 A 
ATOM     49  C   UNL A   1      46.738  28.698  30.072  1.00  0.00     0.049 A 
ATOM     50  C   UNL A   1      41.275  29.828  29.644  1.00  0.00     0.074 A 
ATOM     51  C   UNL A   1      47.557  29.731  30.493  1.00  0.00     0.029 A 
ATOM     52  N   UNL A   1      45.444  29.194  30.056  1.00  0.00    -0.354 N 
ATOM     53  N   UNL A   1      42.574  29.717  29.785  1.00  0.00    -0.248 NA
ATOM     54  C   UNL A   1      40.735  31.133  30.047  1.00  0.00     0.031 C 
ATOM     55  C   UNL A   1      46.750  30.834  30.792  1.00  0.00     0.029 A 
ATOM     56  C   UNL A   1      45.438  30.509  30.491  1.00  0.00     0.049 A 
ATOM     57  H   UNL A   1      44.647  28.688  29.777  1.00  0.00     0.167 HD
ATOM     58  C   UNL A   1      43.009  30.945  30.266  1.00  0.00     0.074 A 
ATOM     59  C   UNL A   1      41.838  31.793  30.368  1.00  0.00     0.031 C 
ATOM     60  C   UNL A   1      44.264  31.337  30.596  1.00  0.00     0.031 A 
BRANCH  47  61
ATOM     61  C   UNL A   1      48.542  26.943  29.877  1.00  0.00    -0.014 A 
ATOM     62  C   UNL A   1      49.000  26.332  31.055  1.00  0.00     0.009 A 
ATOM     63  C   UNL A   1      49.441  27.120  28.813  1.00  0.00     0.009 A 
ATOM     64  C   UNL A   1      50.335  25.936  31.176  1.00  0.00     0.001 A 
ATOM     65  C   UNL A   1      50.767  26.697  28.925  1.00  0.00     0.001 A 
ATOM     66  C   UNL A   1      51.214  26.112  30.109  1.00  0.00     0.000 A 
ENDBRANCH  47  61
BRANCH  48  67
ATOM     67  C   UNL A   1      38.841  29.152  29.035  1.00  0.00    -0.014 A 
ATOM     68  C   UNL A   1      38.281  29.600  27.828  1.00  0.00     0.009 A 
ATOM     69  C   UNL A   1      38.015  29.041  30.164  1.00  0.00     0.009 A 
ATOM     70  C   UNL A   1      36.933  29.963  27.766  1.00  0.00     0.001 A 
ATOM     71  C   UNL A   1      36.661  29.373  30.090  1.00  0.00     0.001 A 
ATOM     72  C   UNL A   1      36.124  29.845  28.893  1.00  0.00     0.000 A 
ENDBRANCH  48  67
BRANCH  60  73
ATOM     73  C   UNL A   1      44.437  32.753  31.071  1.00  0.00    -0.014 A 
ATOM     74  C   UNL A   1      44.691  33.800  30.171  1.00  0.00     0.009 A 
ATOM     75  C   UNL A   1      44.320  33.046  32.439  1.00  0.00     0.009 A 
ATOM     76  C   UNL A   1      44.866  35.105  30.638  1.00  0.00     0.001 A 
ATOM     77  C   UNL A   1      44.462  34.355  32.898  1.00  0.00     0.001 A 
ATOM     78  C   UNL A   1      44.747  35.381  32.000  1.00  0.00     0.000 A 
ENDBRANCH  60  73
ENDBRANCH  34  35
ENDBRANCH  26  29
ENDBRANCH  24  25
ENDBRANCH  23  24
ENDBRANCH  22  23
ENDBRANCH  21  22
ENDBRANCH   3  21
TORSDOF 17
ENDMDL
MODEL 2
REMARK VINA RESULT:      -9.2      1.782      3.339
REMARK SMILES CCCNC(=O)[C@H](C)[NH2+][C@H](C)[C@@H](C)C(=O)NCCCCNC(=O)c1ccc(-c2c3nc(c(-c4ccccc4)c4ccc([nH]4)c(-c4ccccc4)c4nc(c(-c5ccccc5)c5ccc2[nH]5)C=C4)C=C3)cc1
REMARK SMILES IDX 14 1 15 2 16 3 12 5 13 6 10 7 11 8 9 9 7 12 8 13 5 14 4 15
REMARK SMILES IDX 6 17 3 18 2 19 1 20 17 21 18 22 19 23 20 24 21 25 22 26
REMARK SMILES IDX 23 28 24 29 25 30 71 31 26 32 70 33 27 34 28 35 29 36 64 37
REMARK SMILES IDX 30 38 69 39 63 40 65 41 31 42 68 43 62 44 61 45 32 47 54 48
REMARK SMILES IDX 39 49 53 50 40 51 43 52 52 53 66 54 41 55 42 56 51 58 67 59
REMARK SMILES IDX 44 60 33 61 34 62 38 63 35 64 37 65 36 66 55 67 56 68 60 69
REMARK SMILES IDX 57 70 59 71 58 72 45 73 46 74 50 75 47 76 49 77 48 78
REMARK H PARENT 16 4 9 10 9 11 4 16 21 27 65 46 43 57
REMARK Flexibility Score: inf
ROOT
ATOM      1  C   UNL A   1      34.539  22.941  26.649  1.00  0.00     0.228 C 
ATOM      2  O   UNL A   1      33.971  22.407  27.609  1.00  0.00    -0.275 OA
ATOM      3  N   UNL A   1      35.896  22.870  26.633  1.00  0.00    -0.356 N 
ATOM      4  H   UNL A   1      36.295  22.526  27.465  1.00  0.00     0.163 HD
ENDROOT
BRANCH   1   5
ATOM      5  C   UNL A   1      33.727  23.571  25.516  1.00  0.00     0.133 C 
ATOM      6  C   UNL A   1      33.461  25.030  25.923  1.00  0.00     0.024 C 
BRANCH   5   7
ATOM      7  C   UNL A   1      32.480  22.760  25.049  1.00  0.00     0.192 C 
ATOM      8  C   UNL A   1      31.335  23.691  24.614  1.00  0.00     0.076 C 
BRANCH   7   9
ATOM      9  N   UNL A   1      32.639  21.825  23.917  1.00  0.00    -0.333 N 
ATOM     10  H   UNL A   1      32.038  22.156  23.163  1.00  0.00     0.347 HD
ATOM     11  H   UNL A   1      33.641  21.831  23.719  1.00  0.00     0.347 HD
BRANCH   9  12
ATOM     12  C   UNL A   1      32.316  20.397  24.144  1.00  0.00     0.269 C 
ATOM     13  C   UNL A   1      32.256  19.724  22.776  1.00  0.00     0.086 C 
BRANCH  12  14
ATOM     14  C   UNL A   1      33.419  19.781  25.029  1.00  0.00     0.277 C 
ATOM     15  N   UNL A   1      33.036  18.834  25.942  1.00  0.00    -0.351 N 
ATOM     16  H   UNL A   1      32.874  19.112  26.873  1.00  0.00     0.163 HD
ATOM     17  O   UNL A   1      34.579  20.195  25.017  1.00  0.00    -0.268 OA
BRANCH  15  18
ATOM     18  C   UNL A   1      32.861  17.442  25.588  1.00  0.00     0.116 C 
BRANCH  18  19
ATOM     19  C   UNL A   1      34.128  16.846  24.965  1.00  0.00     0.018 C 
ATOM     20  C   UNL A   1      33.934  16.457  23.504  1.00  0.00     0.006 C 
ENDBRANCH  18  19
ENDBRANCH  15  18
ENDBRANCH  12  14
ENDBRANCH   9  12
ENDBRANCH   7   9
ENDBRANCH   5   7
ENDBRANCH   1   5
BRANCH   3  21
ATOM     21  C   UNL A   1      36.855  23.213  25.605  1.00  0.00     0.116 C 
BRANCH  21  22
ATOM     22  C   UNL A   1      38.267  22.729  25.932  1.00  0.00     0.023 C 
BRANCH  22  23
ATOM     23  C   UNL A   1      38.646  21.379  25.325  1.00  0.00     0.023 C 
BRANCH  23  24
ATOM     24  C   UNL A   1      38.987  20.289  26.332  1.00  0.00     0.116 C 
BRANCH  24  25
ATOM     25  N   UNL A   1      40.113  19.465  25.921  1.00  0.00    -0.352 N 
ATOM     26  C   UNL A   1      41.456  19.749  25.946  1.00  0.00     0.251 C 
ATOM     27  H   UNL A   1      39.877  18.573  25.575  1.00  0.00     0.163 HD
ATOM     28  O   UNL A   1      42.258  18.970  25.450  1.00  0.00    -0.269 OA
BRANCH  26  29
ATOM     29  C   UNL A   1      41.921  21.020  26.537  1.00  0.00     0.039 A 
ATOM     30  C   UNL A   1      42.356  22.032  25.679  1.00  0.00     0.014 A 
ATOM     31  C   UNL A   1      41.908  21.223  27.920  1.00  0.00     0.014 A 
ATOM     32  C   UNL A   1      42.715  23.271  26.206  1.00  0.00     0.010 A 
ATOM     33  C   UNL A   1      42.187  22.485  28.435  1.00  0.00     0.010 A 
ATOM     34  C   UNL A   1      42.596  23.522  27.583  1.00  0.00    -0.014 A 
BRANCH  34  35
ATOM     35  C   UNL A   1      42.875  24.871  28.133  1.00  0.00     0.031 A 
ATOM     36  C   UNL A   1      44.271  25.259  28.534  1.00  0.00     0.074 A 
ATOM     37  C   UNL A   1      41.856  25.736  28.307  1.00  0.00     0.049 A 
ATOM     38  N   UNL A   1      44.701  26.397  29.021  1.00  0.00    -0.248 NA
ATOM     39  C   UNL A   1      45.318  24.235  28.391  1.00  0.00     0.031 C 
ATOM     40  C   UNL A   1      40.449  25.458  28.009  1.00  0.00     0.029 A 
ATOM     41  N   UNL A   1      41.846  27.025  28.775  1.00  0.00    -0.354 N 
ATOM     42  C   UNL A   1      46.059  26.219  29.251  1.00  0.00     0.074 A 
ATOM     43  C   UNL A   1      46.373  24.852  28.903  1.00  0.00     0.031 C 
ATOM     44  C   UNL A   1      39.720  26.556  28.262  1.00  0.00     0.029 A 
ATOM     45  C   UNL A   1      40.598  27.600  28.779  1.00  0.00     0.049 A 
ATOM     46  H   UNL A   1      42.657  27.495  29.078  1.00  0.00     0.167 HD
ATOM     47  C   UNL A   1      46.968  27.120  29.693  1.00  0.00     0.031 A 
ATOM     48  C   UNL A   1      40.203  28.830  29.160  1.00  0.00     0.031 A 
ATOM     49  C   UNL A   1      46.655  28.483  30.034  1.00  0.00     0.049 A 
ATOM     50  C   UNL A   1      41.232  29.807  29.654  1.00  0.00     0.074 A 
ATOM     51  C   UNL A   1      47.516  29.491  30.431  1.00  0.00     0.029 A 
ATOM     52  N   UNL A   1      45.380  29.026  30.026  1.00  0.00    -0.354 N 
ATOM     53  N   UNL A   1      42.528  29.651  29.781  1.00  0.00    -0.248 NA
ATOM     54  C   UNL A   1      40.745  31.137  30.044  1.00  0.00     0.031 C 
ATOM     55  C   UNL A   1      46.754  30.627  30.723  1.00  0.00     0.029 A 
ATOM     56  C   UNL A   1      45.427  30.346  30.442  1.00  0.00     0.049 A 
ATOM     57  H   UNL A   1      44.562  28.546  29.764  1.00  0.00     0.167 HD
ATOM     58  C   UNL A   1      43.013  30.868  30.239  1.00  0.00     0.074 A 
ATOM     59  C   UNL A   1      41.876  31.760  30.343  1.00  0.00     0.031 C 
ATOM     60  C   UNL A   1      44.286  31.218  30.549  1.00  0.00     0.031 A 
BRANCH  47  61
ATOM     61  C   UNL A   1      48.391  26.660  29.843  1.00  0.00    -0.014 A 
ATOM     62  C   UNL A   1      49.328  26.837  28.811  1.00  0.00     0.009 A 
ATOM     63  C   UNL A   1      48.818  26.091  31.053  1.00  0.00     0.009 A 
ATOM     64  C   UNL A   1      50.652  26.425  28.978  1.00  0.00     0.001 A 
ATOM     65  C   UNL A   1      50.149  25.707  31.228  1.00  0.00     0.001 A 
ATOM     66  C   UNL A   1      51.063  25.868  30.189  1.00  0.00     0.000 A 
ENDBRANCH  47  61
BRANCH  48  67
ATOM     67  C   UNL A   1      38.768  29.213  29.082  1.00  0.00    -0.014 A 
ATOM     68  C   UNL A   1      37.925  29.065  30.194  1.00  0.00     0.009 A 
ATOM     69  C   UNL A   1      38.229  29.710  27.885  1.00  0.00     0.009 A 
ATOM     70  C   UNL A   1      36.566  29.373  30.098  1.00  0.00     0.001 A 
ATOM     71  C   UNL A   1      36.877  30.049  27.802  1.00  0.00     0.001 A 
ATOM     72  C   UNL A   1      36.044  29.869  28.905  1.00  0.00     0.000 A 
ENDBRANCH  48  67
BRANCH  60  73
ATOM     73  C   UNL A   1      44.517  32.634  31.002  1.00  0.00    -0.014 A 
ATOM     74  C   UNL A   1      44.481  32.982  32.360  1.00  0.00     0.009 A 
ATOM     75  C   UNL A   1      44.799  33.629  30.052  1.00  0.00     0.009 A 
ATOM     76  C   UNL A   1      44.681  34.307  32.755  1.00  0.00     0.001 A 
ATOM     77  C   UNL A   1      45.033  34.944  30.452  1.00  0.00     0.001 A 
ATOM     78  C   UNL A   1      44.961  35.285  31.801  1.00  0.00     0.000 A 
ENDBRANCH  60  73
ENDBRANCH  34  35
ENDBRANCH  26  29
ENDBRANCH  24  25
ENDBRANCH  23  24
ENDBRANCH  22  23
ENDBRANCH  21  22
ENDBRANCH   3  21
TORSDOF 17
ENDMDL
MODEL 3
REMARK VINA RESULT:      -9.1      2.391      7.880
REMARK SMILES CCCNC(=O)[C@H](C)[NH2+][C@H](C)[C@@H](C)C(=O)NCCCCNC(=O)c1ccc(-c2c3nc(c(-c4ccccc4)c4ccc([nH]4)c(-c4ccccc4)c4nc(c(-c5ccccc5)c5ccc2[nH]5)C=C4)C=C3)cc1
REMARK SMILES IDX 14 1 15 2 16 3 12 5 13 6 10 7 11 8 9 9 7 12 8 13 5 14 4 15
REMARK SMILES IDX 6 17 3 18 2 19 1 20 17 21 18 22 19 23 20 24 21 25 22 26
REMARK SMILES IDX 23 28 24 29 25 30 71 31 26 32 70 33 27 34 28 35 29 36 64 37
REMARK SMILES IDX 30 38 69 39 63 40 65 41 31 42 68 43 62 44 61 45 32 47 54 48
REMARK SMILES IDX 39 49 53 50 40 51 43 52 52 53 66 54 41 55 42 56 51 58 67 59
REMARK SMILES IDX 44 60 33 61 34 62 38 63 35 64 37 65 36 66 55 67 56 68 60 69
REMARK SMILES IDX 57 70 59 71 58 72 45 73 46 74 50 75 47 76 49 77 48 78
REMARK H PARENT 16 4 9 10 9 11 4 16 21 27 65 46 43 57
REMARK Flexibility Score: inf
ROOT
ATOM      1  C   UNL A   1      31.464  24.935  24.142  1.00  0.00     0.228 C 
ATOM      2  O   UNL A   1      30.717  24.253  23.429  1.00  0.00    -0.275 OA
ATOM      3  N   UNL A   1      30.859  25.726  25.067  1.00  0.00    -0.356 N 
ATOM      4  H   UNL A   1      29.881  25.784  24.977  1.00  0.00     0.163 HD
ENDROOT
BRANCH   1   5
ATOM      5  C   UNL A   1      32.983  24.814  24.018  1.00  0.00     0.133 C 
ATOM      6  C   UNL A   1      33.421  25.833  22.953  1.00  0.00     0.024 C 
BRANCH   5   7
ATOM      7  C   UNL A   1      33.530  23.365  23.835  1.00  0.00     0.192 C 
ATOM      8  C   UNL A   1      35.026  23.372  23.470  1.00  0.00     0.076 C 
BRANCH   7   9
ATOM      9  N   UNL A   1      33.438  22.434  24.977  1.00  0.00    -0.333 N 
ATOM     10  H   UNL A   1      34.390  22.227  25.277  1.00  0.00     0.347 HD
ATOM     11  H   UNL A   1      32.856  22.923  25.659  1.00  0.00     0.347 HD
BRANCH   9  12
ATOM     12  C   UNL A   1      32.751  21.139  24.764  1.00  0.00     0.269 C 
ATOM     13  C   UNL A   1      32.306  21.096  23.305  1.00  0.00     0.086 C 
BRANCH  12  14
ATOM     14  C   UNL A   1      33.742  20.002  25.086  1.00  0.00     0.277 C 
ATOM     15  N   UNL A   1      33.249  18.907  25.746  1.00  0.00    -0.351 N 
ATOM     16  H   UNL A   1      33.352  18.857  26.724  1.00  0.00     0.163 HD
ATOM     17  O   UNL A   1      34.952  20.105  24.877  1.00  0.00    -0.268 OA
BRANCH  15  18
ATOM     18  C   UNL A   1      32.582  17.822  25.058  1.00  0.00     0.116 C 
BRANCH  18  19
ATOM     19  C   UNL A   1      33.567  16.737  24.612  1.00  0.00     0.018 C 
ATOM     20  C   UNL A   1      33.970  16.878  23.149  1.00  0.00     0.006 C 
ENDBRANCH  18  19
ENDBRANCH  15  18
ENDBRANCH  12  14
ENDBRANCH   9  12
ENDBRANCH   7   9
ENDBRANCH   5   7
ENDBRANCH   1   5
BRANCH   3  21
ATOM     21  C   UNL A   1      31.407  26.497  26.163  1.00  0.00     0.116 C 
BRANCH  21  22
ATOM     22  C   UNL A   1      31.598  27.971  25.807  1.00  0.00     0.023 C 
BRANCH  22  23
ATOM     23  C   UNL A   1      33.037  28.478  25.900  1.00  0.00     0.023 C 
BRANCH  23  24
ATOM     24  C   UNL A   1      33.566  28.670  27.315  1.00  0.00     0.116 C 
BRANCH  24  25
ATOM     25  N   UNL A   1      33.580  30.062  27.735  1.00  0.00    -0.352 N 
ATOM     26  C   UNL A   1      34.591  30.788  28.313  1.00  0.00     0.251 C 
ATOM     27  H   UNL A   1      32.741  30.556  27.581  1.00  0.00     0.163 HD
ATOM     28  O   UNL A   1      34.383  31.928  28.705  1.00  0.00    -0.269 OA
BRANCH  26  29
ATOM     29  C   UNL A   1      35.919  30.169  28.497  1.00  0.00     0.039 A 
ATOM     30  C   UNL A   1      36.822  30.205  27.432  1.00  0.00     0.014 A 
ATOM     31  C   UNL A   1      36.281  29.578  29.710  1.00  0.00     0.014 A 
ATOM     32  C   UNL A   1      38.112  29.707  27.608  1.00  0.00     0.010 A 
ATOM     33  C   UNL A   1      37.593  29.158  29.910  1.00  0.00     0.010 A 
ATOM     34  C   UNL A   1      38.521  29.217  28.859  1.00  0.00    -0.014 A 
BRANCH  34  35
ATOM     35  C   UNL A   1      39.923  28.786  29.080  1.00  0.00     0.031 A 
ATOM     36  C   UNL A   1      40.918  29.718  29.714  1.00  0.00     0.074 A 
ATOM     37  C   UNL A   1      40.309  27.561  28.670  1.00  0.00     0.049 A 
ATOM     38  N   UNL A   1      42.181  29.508  29.993  1.00  0.00    -0.248 NA
ATOM     39  C   UNL A   1      40.445  31.068  30.060  1.00  0.00     0.031 C 
ATOM     40  C   UNL A   1      39.452  26.585  27.993  1.00  0.00     0.029 A 
ATOM     41  N   UNL A   1      41.521  26.925  28.767  1.00  0.00    -0.354 N 
ATOM     42  C   UNL A   1      42.650  30.697  30.535  1.00  0.00     0.074 A 
ATOM     43  C   UNL A   1      41.557  31.642  30.497  1.00  0.00     0.031 C 
ATOM     44  C   UNL A   1      40.153  25.462  27.771  1.00  0.00     0.029 A 
ATOM     45  C   UNL A   1      41.517  25.652  28.252  1.00  0.00     0.049 A 
ATOM     46  H   UNL A   1      42.318  27.342  29.168  1.00  0.00     0.167 HD
ATOM     47  C   UNL A   1      43.877  30.972  31.039  1.00  0.00     0.031 A 
ATOM     48  C   UNL A   1      42.503  24.738  28.172  1.00  0.00     0.031 A 
ATOM     49  C   UNL A   1      44.963  30.028  31.082  1.00  0.00     0.049 A 
ATOM     50  C   UNL A   1      43.857  25.073  28.732  1.00  0.00     0.074 A 
ATOM     51  C   UNL A   1      46.224  30.191  31.629  1.00  0.00     0.029 A 
ATOM     52  N   UNL A   1      44.920  28.750  30.549  1.00  0.00    -0.354 N 
ATOM     53  N   UNL A   1      44.259  26.173  29.323  1.00  0.00    -0.248 NA
ATOM     54  C   UNL A   1      44.889  24.034  28.628  1.00  0.00     0.031 C 
ATOM     55  C   UNL A   1      46.964  29.033  31.373  1.00  0.00     0.029 A 
ATOM     56  C   UNL A   1      46.142  28.124  30.727  1.00  0.00     0.049 A 
ATOM     57  H   UNL A   1      44.137  28.346  30.111  1.00  0.00     0.167 HD
ATOM     58  C   UNL A   1      45.580  25.948  29.683  1.00  0.00     0.074 A 
ATOM     59  C   UNL A   1      45.903  24.598  29.267  1.00  0.00     0.031 C 
ATOM     60  C   UNL A   1      46.451  26.783  30.300  1.00  0.00     0.031 A 
BRANCH  47  61
ATOM     61  C   UNL A   1      44.116  32.354  31.579  1.00  0.00    -0.014 A 
ATOM     62  C   UNL A   1      44.580  33.391  30.754  1.00  0.00     0.009 A 
ATOM     63  C   UNL A   1      43.820  32.640  32.922  1.00  0.00     0.009 A 
ATOM     64  C   UNL A   1      44.773  34.675  31.269  1.00  0.00     0.001 A 
ATOM     65  C   UNL A   1      43.985  33.931  33.427  1.00  0.00     0.001 A 
ATOM     66  C   UNL A   1      44.468  34.945  32.603  1.00  0.00     0.000 A 
ENDBRANCH  47  61
BRANCH  48  67
ATOM     67  C   UNL A   1      42.248  23.414  27.544  1.00  0.00    -0.014 A 
ATOM     68  C   UNL A   1      41.707  22.357  28.293  1.00  0.00     0.009 A 
ATOM     69  C   UNL A   1      42.564  23.194  26.195  1.00  0.00     0.009 A 
ATOM     70  C   UNL A   1      41.522  21.100  27.712  1.00  0.00     0.001 A 
ATOM     71  C   UNL A   1      42.346  21.946  25.608  1.00  0.00     0.001 A 
ATOM     72  C   UNL A   1      41.837  20.896  26.371  1.00  0.00     0.000 A 
ENDBRANCH  48  67
BRANCH  60  73
ATOM     73  C   UNL A   1      47.827  26.248  30.589  1.00  0.00    -0.014 A 
ATOM     74  C   UNL A   1      48.163  25.738  31.852  1.00  0.00     0.009 A 
ATOM     75  C   UNL A   1      48.794  26.234  29.571  1.00  0.00     0.009 A 
ATOM     76  C   UNL A   1      49.453  25.263  32.101  1.00  0.00     0.001 A 
ATOM     77  C   UNL A   1      50.070  25.728  29.813  1.00  0.00     0.001 A 
ATOM     78  C   UNL A   1      50.403  25.255  31.081  1.00  0.00     0.000 A 
ENDBRANCH  60  73
ENDBRANCH  34  35
ENDBRANCH  26  29
ENDBRANCH  24  25
ENDBRANCH  23  24
ENDBRANCH  22  23
ENDBRANCH  21  22
ENDBRANCH   3  21
TORSDOF 17
ENDMDL
