MODEL 1
REMARK VINA RESULT:      -8.7      0.000      0.000
REMARK SMILES O=C(CCCC[C@@H]1CCSS1)NCCCCNC(=O)c1ccc(-c2c3nc(c(-c4ccccc4)c4ccc([nH]4)c(-c4ccccc4)c4nc(c(-c5ccccc5)c5ccc2[nH]5)C=C4)C=C3)cc1
REMARK SMILES IDX 13 1 12 2 1 3 2 4 3 6 4 7 5 8 6 9 7 10 8 11 11 12 9 13 10 14
REMARK SMILES IDX 14 15 15 16 16 17 17 18 18 19 19 21 20 22 21 23 67 24 22 25
REMARK SMILES IDX 66 26 23 27 24 28 25 29 60 30 26 31 65 32 59 33 61 34 27 35
REMARK SMILES IDX 64 36 58 37 57 38 28 40 50 41 35 42 49 43 36 44 39 45 48 46
REMARK SMILES IDX 62 47 37 48 38 49 47 51 63 52 40 53 29 54 30 55 34 56 31 57
REMARK SMILES IDX 33 58 32 59 51 60 52 61 56 62 53 63 55 64 54 65 41 66 42 67
REMARK SMILES IDX 46 68 43 69 45 70 44 71
REMARK H PARENT 12 5 17 20 61 39 39 50
REMARK Flexibility Score: inf
ROOT
ATOM      1  C   UNL A   1      43.410  18.762  25.768  1.00  0.00     0.116 C 
ENDROOT
BRANCH   1   2
ATOM      2  N   UNL A   1      44.563  19.627  25.624  1.00  0.00    -0.356 N 
ATOM      3  O   UNL A   1      44.562  19.669  23.327  1.00  0.00    -0.275 OA
ATOM      4  C   UNL A   1      45.044  20.022  24.397  1.00  0.00     0.219 C 
ATOM      5  H   UNL A   1      45.020  19.944  26.436  1.00  0.00     0.163 HD
BRANCH   4   6
ATOM      6  C   UNL A   1      46.241  20.949  24.479  1.00  0.00     0.100 C 
BRANCH   6   7
ATOM      7  C   UNL A   1      45.964  22.216  25.289  1.00  0.00     0.010 C 
BRANCH   7   8
ATOM      8  C   UNL A   1      44.948  23.193  24.688  1.00  0.00     0.002 C 
BRANCH   8   9
ATOM      9  C   UNL A   1      44.315  24.205  25.653  1.00  0.00     0.015 C 
BRANCH   9  10
ATOM     10  C   UNL A   1      45.175  25.459  25.893  1.00  0.00     0.059 C 
ATOM     11  C   UNL A   1      45.517  25.673  27.375  1.00  0.00     0.027 C 
ATOM     12  S   UNL A   1      44.261  26.956  25.375  1.00  0.00    -0.091 SA
ATOM     13  C   UNL A   1      46.112  27.060  27.586  1.00  0.00     0.083 C 
ATOM     14  S   UNL A   1      44.980  28.231  26.806  1.00  0.00    -0.094 SA
ENDBRANCH   9  10
ENDBRANCH   8   9
ENDBRANCH   7   8
ENDBRANCH   6   7
ENDBRANCH   4   6
ENDBRANCH   1   2
BRANCH   1  15
ATOM     15  C   UNL A   1      42.105  19.555  25.843  1.00  0.00     0.023 C 
BRANCH  15  16
ATOM     16  C   UNL A   1      42.089  20.702  26.859  1.00  0.00     0.023 C 
BRANCH  16  17
ATOM     17  C   UNL A   1      41.593  22.045  26.328  1.00  0.00     0.116 C 
BRANCH  17  18
ATOM     18  N   UNL A   1      40.210  21.995  25.883  1.00  0.00    -0.352 N 
ATOM     19  C   UNL A   1      39.181  22.874  26.107  1.00  0.00     0.251 C 
ATOM     20  H   UNL A   1      39.975  21.209  25.339  1.00  0.00     0.163 HD
ATOM     21  O   UNL A   1      38.034  22.567  25.772  1.00  0.00    -0.269 OA
BRANCH  19  22
ATOM     22  C   UNL A   1      39.420  24.176  26.767  1.00  0.00     0.039 A 
ATOM     23  C   UNL A   1      38.917  24.379  28.056  1.00  0.00     0.014 A 
ATOM     24  C   UNL A   1      40.109  25.207  26.121  1.00  0.00     0.014 A 
ATOM     25  C   UNL A   1      39.163  25.583  28.722  1.00  0.00     0.010 A 
ATOM     26  C   UNL A   1      40.411  26.382  26.810  1.00  0.00     0.010 A 
ATOM     27  C   UNL A   1      39.945  26.582  28.119  1.00  0.00    -0.014 A 
BRANCH  27  28
ATOM     28  C   UNL A   1      40.296  27.830  28.846  1.00  0.00     0.031 A 
ATOM     29  C   UNL A   1      41.617  27.956  29.556  1.00  0.00     0.074 A 
ATOM     30  C   UNL A   1      39.399  28.832  28.921  1.00  0.00     0.049 A 
ATOM     31  N   UNL A   1      42.068  28.942  30.290  1.00  0.00    -0.248 NA
ATOM     32  C   UNL A   1      42.543  26.819  29.442  1.00  0.00     0.031 C 
ATOM     33  C   UNL A   1      38.070  28.830  28.307  1.00  0.00     0.029 A 
ATOM     34  N   UNL A   1      39.467  30.047  29.558  1.00  0.00    -0.354 N 
ATOM     35  C   UNL A   1      43.316  28.536  30.744  1.00  0.00     0.074 A 
ATOM     36  C   UNL A   1      43.536  27.200  30.233  1.00  0.00     0.031 C 
ATOM     37  C   UNL A   1      37.458  29.994  28.576  1.00  0.00     0.029 A 
ATOM     38  C   UNL A   1      38.332  30.809  29.415  1.00  0.00     0.049 A 
ATOM     39  H   UNL A   1      40.254  30.343  30.069  1.00  0.00     0.167 HD
ATOM     40  C   UNL A   1      44.208  29.217  31.503  1.00  0.00     0.031 A 
ATOM     41  C   UNL A   1      38.024  32.022  29.907  1.00  0.00     0.031 A 
ATOM     42  C   UNL A   1      44.001  30.551  32.003  1.00  0.00     0.049 A 
ATOM     43  C   UNL A   1      39.024  32.749  30.763  1.00  0.00     0.074 A 
ATOM     44  C   UNL A   1      44.874  31.345  32.727  1.00  0.00     0.029 A 
ATOM     45  N   UNL A   1      42.839  31.287  31.832  1.00  0.00    -0.354 N 
ATOM     46  N   UNL A   1      40.227  32.378  31.125  1.00  0.00    -0.248 NA
ATOM     47  C   UNL A   1      38.622  34.069  31.272  1.00  0.00     0.031 C 
ATOM     48  C   UNL A   1      44.221  32.542  33.038  1.00  0.00     0.029 A 
ATOM     49  C   UNL A   1      42.963  32.515  32.460  1.00  0.00     0.049 A 
ATOM     50  H   UNL A   1      42.044  30.981  31.339  1.00  0.00     0.167 HD
ATOM     51  C   UNL A   1      40.737  33.429  31.877  1.00  0.00     0.074 A 
ATOM     52  C   UNL A   1      39.718  34.457  31.908  1.00  0.00     0.031 C 
ATOM     53  C   UNL A   1      41.943  33.532  32.485  1.00  0.00     0.031 A 
BRANCH  40  54
ATOM     54  C   UNL A   1      45.494  28.522  31.855  1.00  0.00    -0.014 A 
ATOM     55  C   UNL A   1      46.627  28.629  31.032  1.00  0.00     0.009 A 
ATOM     56  C   UNL A   1      45.587  27.785  33.045  1.00  0.00     0.009 A 
ATOM     57  C   UNL A   1      47.815  27.982  31.378  1.00  0.00     0.001 A 
ATOM     58  C   UNL A   1      46.784  27.163  33.402  1.00  0.00     0.001 A 
ATOM     59  C   UNL A   1      47.895  27.254  32.565  1.00  0.00     0.000 A 
ENDBRANCH  40  54
BRANCH  41  60
ATOM     60  C   UNL A   1      36.710  32.643  29.594  1.00  0.00    -0.014 A 
ATOM     61  C   UNL A   1      35.648  32.552  30.507  1.00  0.00     0.009 A 
ATOM     62  C   UNL A   1      36.507  33.316  28.380  1.00  0.00     0.009 A 
ATOM     63  C   UNL A   1      34.401  33.100  30.198  1.00  0.00     0.001 A 
ATOM     64  C   UNL A   1      35.267  33.887  28.086  1.00  0.00     0.001 A 
ATOM     65  C   UNL A   1      34.213  33.770  28.990  1.00  0.00     0.000 A 
ENDBRANCH  41  60
BRANCH  53  66
ATOM     66  C   UNL A   1      42.244  34.816  33.204  1.00  0.00    -0.014 A 
ATOM     67  C   UNL A   1      41.770  35.052  34.504  1.00  0.00     0.009 A 
ATOM     68  C   UNL A   1      43.044  35.787  32.584  1.00  0.00     0.009 A 
ATOM     69  C   UNL A   1      42.067  36.252  35.154  1.00  0.00     0.001 A 
ATOM     70  C   UNL A   1      43.362  36.973  33.248  1.00  0.00     0.001 A 
ATOM     71  C   UNL A   1      42.865  37.208  34.529  1.00  0.00     0.000 A 
ENDBRANCH  53  66
ENDBRANCH  27  28
ENDBRANCH  19  22
ENDBRANCH  17  18
ENDBRANCH  16  17
ENDBRANCH  15  16
ENDBRANCH   1  15
TORSDOF 15
ENDMDL
MODEL 2
REMARK VINA RESULT:      -8.6      5.376     10.690
REMARK SMILES O=C(CCCC[C@@H]1CCSS1)NCCCCNC(=O)c1ccc(-c2c3nc(c(-c4ccccc4)c4ccc([nH]4)c(-c4ccccc4)c4nc(c(-c5ccccc5)c5ccc2[nH]5)C=C4)C=C3)cc1
REMARK SMILES IDX 13 1 12 2 1 3 2 4 3 6 4 7 5 8 6 9 7 10 8 11 11 12 9 13 10 14
REMARK SMILES IDX 14 15 15 16 16 17 17 18 18 19 19 21 20 22 21 23 67 24 22 25
REMARK SMILES IDX 66 26 23 27 24 28 25 29 60 30 26 31 65 32 59 33 61 34 27 35
REMARK SMILES IDX 64 36 58 37 57 38 28 40 50 41 35 42 49 43 36 44 39 45 48 46
REMARK SMILES IDX 62 47 37 48 38 49 47 51 63 52 40 53 29 54 30 55 34 56 31 57
REMARK SMILES IDX 33 58 32 59 51 60 52 61 56 62 53 63 55 64 54 65 41 66 42 67
REMARK SMILES IDX 46 68 43 69 45 70 44 71
REMARK H PARENT 12 5 17 20 61 39 39 50
REMARK Flexibility Score: inf
ROOT
ATOM      1  C   UNL A   1      34.877  32.715  28.124  1.00  0.00     0.116 C 
ENDROOT
BRANCH   1   2
ATOM      2  N   UNL A   1      33.784  31.845  27.742  1.00  0.00    -0.356 N 
ATOM      3  O   UNL A   1      35.019  29.911  27.648  1.00  0.00    -0.275 OA
ATOM      4  C   UNL A   1      33.946  30.494  27.543  1.00  0.00     0.219 C 
ATOM      5  H   UNL A   1      32.889  32.237  27.621  1.00  0.00     0.163 HD
BRANCH   4   6
ATOM      6  C   UNL A   1      32.664  29.770  27.178  1.00  0.00     0.100 C 
BRANCH   6   7
ATOM      7  C   UNL A   1      31.833  30.515  26.132  1.00  0.00     0.010 C 
BRANCH   7   8
ATOM      8  C   UNL A   1      31.301  29.673  24.968  1.00  0.00     0.002 C 
BRANCH   8   9
ATOM      9  C   UNL A   1      32.350  29.033  24.048  1.00  0.00     0.015 C 
BRANCH   9  10
ATOM     10  C   UNL A   1      32.362  27.494  24.092  1.00  0.00     0.059 C 
ATOM     11  C   UNL A   1      33.719  26.921  24.523  1.00  0.00     0.027 C 
ATOM     12  S   UNL A   1      32.043  26.815  22.424  1.00  0.00    -0.091 SA
ATOM     13  C   UNL A   1      33.761  25.417  24.274  1.00  0.00     0.083 C 
ATOM     14  S   UNL A   1      33.245  25.164  22.562  1.00  0.00    -0.094 SA
ENDBRANCH   9  10
ENDBRANCH   8   9
ENDBRANCH   7   8
ENDBRANCH   6   7
ENDBRANCH   4   6
ENDBRANCH   1   2
BRANCH   1  15
ATOM     15  C   UNL A   1      34.493  33.648  29.271  1.00  0.00     0.023 C 
BRANCH  15  16
ATOM     16  C   UNL A   1      33.249  34.511  29.031  1.00  0.00     0.023 C 
BRANCH  16  17
ATOM     17  C   UNL A   1      33.336  35.948  29.538  1.00  0.00     0.116 C 
BRANCH  17  18
ATOM     18  N   UNL A   1      32.498  36.182  30.703  1.00  0.00    -0.352 N 
ATOM     19  C   UNL A   1      32.642  35.739  31.993  1.00  0.00     0.251 C 
ATOM     20  H   UNL A   1      31.707  36.744  30.541  1.00  0.00     0.163 HD
ATOM     21  O   UNL A   1      31.730  35.920  32.804  1.00  0.00    -0.269 OA
BRANCH  19  22
ATOM     22  C   UNL A   1      33.864  35.023  32.423  1.00  0.00     0.039 A 
ATOM     23  C   UNL A   1      33.741  33.721  32.917  1.00  0.00     0.014 A 
ATOM     24  C   UNL A   1      35.122  35.630  32.370  1.00  0.00     0.014 A 
ATOM     25  C   UNL A   1      34.882  33.004  33.290  1.00  0.00     0.010 A 
ATOM     26  C   UNL A   1      36.265  34.892  32.680  1.00  0.00     0.010 A 
ATOM     27  C   UNL A   1      36.158  33.571  33.140  1.00  0.00    -0.014 A 
BRANCH  27  28
ATOM     28  C   UNL A   1      37.388  32.792  33.443  1.00  0.00     0.031 A 
ATOM     29  C   UNL A   1      38.149  33.031  34.719  1.00  0.00     0.074 A 
ATOM     30  C   UNL A   1      37.858  31.911  32.539  1.00  0.00     0.049 A 
ATOM     31  N   UNL A   1      39.273  32.493  35.121  1.00  0.00    -0.248 NA
ATOM     32  C   UNL A   1      37.586  34.017  35.654  1.00  0.00     0.031 C 
ATOM     33  C   UNL A   1      37.237  31.605  31.249  1.00  0.00     0.029 A 
ATOM     34  N   UNL A   1      38.977  31.116  32.565  1.00  0.00    -0.354 N 
ATOM     35  C   UNL A   1      39.563  33.089  36.342  1.00  0.00     0.074 A 
ATOM     36  C   UNL A   1      38.517  34.057  36.597  1.00  0.00     0.031 C 
ATOM     37  C   UNL A   1      37.968  30.673  30.618  1.00  0.00     0.029 A 
ATOM     38  C   UNL A   1      39.131  30.345  31.438  1.00  0.00     0.049 A 
ATOM     39  H   UNL A   1      39.609  31.100  33.319  1.00  0.00     0.167 HD
ATOM     40  C   UNL A   1      40.595  32.845  37.184  1.00  0.00     0.031 A 
ATOM     41  C   UNL A   1      40.101  29.476  31.097  1.00  0.00     0.031 A 
ATOM     42  C   UNL A   1      41.631  31.874  36.943  1.00  0.00     0.049 A 
ATOM     43  C   UNL A   1      41.246  29.237  32.040  1.00  0.00     0.074 A 
ATOM     44  C   UNL A   1      42.682  31.513  37.769  1.00  0.00     0.029 A 
ATOM     45  N   UNL A   1      41.747  31.114  35.790  1.00  0.00    -0.354 N 
ATOM     46  N   UNL A   1      41.466  29.760  33.221  1.00  0.00    -0.248 NA
ATOM     47  C   UNL A   1      42.273  28.279  31.604  1.00  0.00     0.031 C 
ATOM     48  C   UNL A   1      43.464  30.570  37.094  1.00  0.00     0.029 A 
ATOM     49  C   UNL A   1      42.868  30.304  35.872  1.00  0.00     0.049 A 
ATOM     50  H   UNL A   1      41.126  31.145  35.027  1.00  0.00     0.167 HD
ATOM     51  C   UNL A   1      42.638  29.173  33.681  1.00  0.00     0.074 A 
ATOM     52  C   UNL A   1      43.074  28.245  32.659  1.00  0.00     0.031 C 
ATOM     53  C   UNL A   1      43.292  29.384  34.849  1.00  0.00     0.031 A 
BRANCH  40  54
ATOM     54  C   UNL A   1      40.665  33.654  38.450  1.00  0.00    -0.014 A 
ATOM     55  C   UNL A   1      40.051  33.209  39.632  1.00  0.00     0.009 A 
ATOM     56  C   UNL A   1      41.389  34.855  38.471  1.00  0.00     0.009 A 
ATOM     57  C   UNL A   1      40.132  33.971  40.800  1.00  0.00     0.001 A 
ATOM     58  C   UNL A   1      41.492  35.600  39.648  1.00  0.00     0.001 A 
ATOM     59  C   UNL A   1      40.857  35.163  40.808  1.00  0.00     0.000 A 
ENDBRANCH  40  54
BRANCH  41  60
ATOM     60  C   UNL A   1      40.030  28.750  29.801  1.00  0.00    -0.014 A 
ATOM     61  C   UNL A   1      39.442  27.478  29.733  1.00  0.00     0.009 A 
ATOM     62  C   UNL A   1      40.558  29.318  28.632  1.00  0.00     0.009 A 
ATOM     63  C   UNL A   1      39.409  26.777  28.525  1.00  0.00     0.001 A 
ATOM     64  C   UNL A   1      40.499  28.627  27.420  1.00  0.00     0.001 A 
ATOM     65  C   UNL A   1      39.934  27.354  27.369  1.00  0.00     0.000 A 
ENDBRANCH  41  60
BRANCH  53  66
ATOM     66  C   UNL A   1      44.530  28.569  35.102  1.00  0.00    -0.014 A 
ATOM     67  C   UNL A   1      44.460  27.310  35.718  1.00  0.00     0.009 A 
ATOM     68  C   UNL A   1      45.777  29.055  34.683  1.00  0.00     0.009 A 
ATOM     69  C   UNL A   1      45.623  26.568  35.937  1.00  0.00     0.001 A 
ATOM     70  C   UNL A   1      46.934  28.299  34.878  1.00  0.00     0.001 A 
ATOM     71  C   UNL A   1      46.857  27.060  35.513  1.00  0.00     0.000 A 
ENDBRANCH  53  66
ENDBRANCH  27  28
ENDBRANCH  19  22
ENDBRANCH  17  18
ENDBRANCH  16  17
ENDBRANCH  15  16
ENDBRANCH   1  15
TORSDOF 15
ENDMDL
MODEL 3
REMARK VINA RESULT:      -8.6      3.578      9.573
REMARK SMILES O=C(CCCC[C@@H]1CCSS1)NCCCCNC(=O)c1ccc(-c2c3nc(c(-c4ccccc4)c4ccc([nH]4)c(-c4ccccc4)c4nc(c(-c5ccccc5)c5ccc2[nH]5)C=C4)C=C3)cc1
REMARK SMILES IDX 13 1 12 2 1 3 2 4 3 6 4 7 5 8 6 9 7 10 8 11 11 12 9 13 10 14
REMARK SMILES IDX 14 15 15 16 16 17 17 18 18 19 19 21 20 22 21 23 67 24 22 25
REMARK SMILES IDX 66 26 23 27 24 28 25 29 60 30 26 31 65 32 59 33 61 34 27 35
REMARK SMILES IDX 64 36 58 37 57 38 28 40 50 41 35 42 49 43 36 44 39 45 48 46
REMARK SMILES IDX 62 47 37 48 38 49 47 51 63 52 40 53 29 54 30 55 34 56 31 57
REMARK SMILES IDX 33 58 32 59 51 60 52 61 56 62 53 63 55 64 54 65 41 66 42 67
REMARK SMILES IDX 46 68 43 69 45 70 44 71
REMARK H PARENT 12 5 17 20 61 39 39 50
REMARK Flexibility Score: inf
ROOT
ATOM      1  C   UNL A   1      36.552  31.530  32.916  1.00  0.00     0.116 C 
ENDROOT
BRANCH   1   2
ATOM      2  N   UNL A   1      37.941  31.334  33.278  1.00  0.00    -0.356 N 
ATOM      3  O   UNL A   1      37.883  29.038  33.271  1.00  0.00    -0.275 OA
ATOM      4  C   UNL A   1      38.501  30.086  33.418  1.00  0.00     0.219 C 
ATOM      5  H   UNL A   1      38.505  32.126  33.431  1.00  0.00     0.163 HD
BRANCH   4   6
ATOM      6  C   UNL A   1      39.975  30.114  33.774  1.00  0.00     0.100 C 
BRANCH   6   7
ATOM      7  C   UNL A   1      40.670  28.770  33.554  1.00  0.00     0.010 C 
BRANCH   7   8
ATOM      8  C   UNL A   1      42.199  28.775  33.655  1.00  0.00     0.002 C 
BRANCH   8   9
ATOM      9  C   UNL A   1      42.924  27.516  33.158  1.00  0.00     0.015 C 
BRANCH   9  10
ATOM     10  C   UNL A   1      43.736  26.793  34.247  1.00  0.00     0.059 C 
ATOM     11  C   UNL A   1      44.945  26.033  33.683  1.00  0.00     0.027 C 
ATOM     12  S   UNL A   1      42.698  25.533  35.071  1.00  0.00    -0.091 SA
ATOM     13  C   UNL A   1      45.534  25.113  34.747  1.00  0.00     0.083 C 
ATOM     14  S   UNL A   1      44.162  24.143  35.408  1.00  0.00    -0.094 SA
ENDBRANCH   9  10
ENDBRANCH   8   9
ENDBRANCH   7   8
ENDBRANCH   6   7
ENDBRANCH   4   6
ENDBRANCH   1   2
BRANCH   1  15
ATOM     15  C   UNL A   1      36.398  32.483  31.731  1.00  0.00     0.023 C 
BRANCH  15  16
ATOM     16  C   UNL A   1      35.012  32.503  31.077  1.00  0.00     0.023 C 
BRANCH  16  17
ATOM     17  C   UNL A   1      34.989  32.854  29.592  1.00  0.00     0.116 C 
BRANCH  17  18
ATOM     18  N   UNL A   1      34.206  31.914  28.807  1.00  0.00    -0.352 N 
ATOM     19  C   UNL A   1      34.582  30.736  28.214  1.00  0.00     0.251 C 
ATOM     20  H   UNL A   1      33.261  32.162  28.681  1.00  0.00     0.163 HD
ATOM     21  O   UNL A   1      33.799  30.160  27.453  1.00  0.00    -0.269 OA
BRANCH  19  22
ATOM     22  C   UNL A   1      35.922  30.155  28.452  1.00  0.00     0.039 A 
ATOM     23  C   UNL A   1      36.893  30.274  27.453  1.00  0.00     0.014 A 
ATOM     24  C   UNL A   1      36.222  29.472  29.634  1.00  0.00     0.014 A 
ATOM     25  C   UNL A   1      38.181  29.773  27.666  1.00  0.00     0.010 A 
ATOM     26  C   UNL A   1      37.524  29.031  29.873  1.00  0.00     0.010 A 
ATOM     27  C   UNL A   1      38.518  29.180  28.894  1.00  0.00    -0.014 A 
BRANCH  27  28
ATOM     28  C   UNL A   1      39.905  28.725  29.175  1.00  0.00     0.031 A 
ATOM     29  C   UNL A   1      40.888  29.642  29.851  1.00  0.00     0.074 A 
ATOM     30  C   UNL A   1      40.303  27.505  28.764  1.00  0.00     0.049 A 
ATOM     31  N   UNL A   1      42.155  29.439  30.120  1.00  0.00    -0.248 NA
ATOM     32  C   UNL A   1      40.391  30.964  30.261  1.00  0.00     0.031 C 
ATOM     33  C   UNL A   1      39.462  26.528  28.069  1.00  0.00     0.029 A 
ATOM     34  N   UNL A   1      41.522  26.882  28.864  1.00  0.00    -0.354 N 
ATOM     35  C   UNL A   1      42.609  30.613  30.707  1.00  0.00     0.074 A 
ATOM     36  C   UNL A   1      41.494  31.536  30.722  1.00  0.00     0.031 C 
ATOM     37  C   UNL A   1      40.182  25.421  27.827  1.00  0.00     0.029 A 
ATOM     38  C   UNL A   1      41.545  25.624  28.311  1.00  0.00     0.049 A 
ATOM     39  H   UNL A   1      42.305  27.296  29.291  1.00  0.00     0.167 HD
ATOM     40  C   UNL A   1      43.837  30.895  31.205  1.00  0.00     0.031 A 
ATOM     41  C   UNL A   1      42.549  24.735  28.198  1.00  0.00     0.031 A 
ATOM     42  C   UNL A   1      44.946  29.977  31.205  1.00  0.00     0.049 A 
ATOM     43  C   UNL A   1      43.907  25.079  28.741  1.00  0.00     0.074 A 
ATOM     44  C   UNL A   1      46.209  30.152  31.744  1.00  0.00     0.029 A 
ATOM     45  N   UNL A   1      44.925  28.713  30.637  1.00  0.00    -0.354 N 
ATOM     46  N   UNL A   1      44.299  26.168  29.355  1.00  0.00    -0.248 NA
ATOM     47  C   UNL A   1      44.960  24.065  28.581  1.00  0.00     0.031 C 
ATOM     48  C   UNL A   1      46.969  29.013  31.457  1.00  0.00     0.029 A 
ATOM     49  C   UNL A   1      46.161  28.108  30.789  1.00  0.00     0.049 A 
ATOM     50  H   UNL A   1      44.147  28.306  30.192  1.00  0.00     0.167 HD
ATOM     51  C   UNL A   1      45.634  25.958  29.680  1.00  0.00     0.074 A 
ATOM     52  C   UNL A   1      45.979  24.633  29.209  1.00  0.00     0.031 C 
ATOM     53  C   UNL A   1      46.494  26.789  30.317  1.00  0.00     0.031 A 
BRANCH  40  54
ATOM     54  C   UNL A   1      44.053  32.266  31.784  1.00  0.00    -0.014 A 
ATOM     55  C   UNL A   1      43.811  32.529  33.141  1.00  0.00     0.009 A 
ATOM     56  C   UNL A   1      44.546  33.297  30.970  1.00  0.00     0.009 A 
ATOM     57  C   UNL A   1      44.024  33.806  33.663  1.00  0.00     0.001 A 
ATOM     58  C   UNL A   1      44.786  34.566  31.501  1.00  0.00     0.001 A 
ATOM     59  C   UNL A   1      44.516  34.823  32.844  1.00  0.00     0.000 A 
ENDBRANCH  40  54
BRANCH  41  60
ATOM     60  C   UNL A   1      42.309  23.417  27.552  1.00  0.00    -0.014 A 
ATOM     61  C   UNL A   1      41.759  22.356  28.289  1.00  0.00     0.009 A 
ATOM     62  C   UNL A   1      42.638  23.209  26.205  1.00  0.00     0.009 A 
ATOM     63  C   UNL A   1      41.569  21.106  27.696  1.00  0.00     0.001 A 
ATOM     64  C   UNL A   1      42.421  21.966  25.607  1.00  0.00     0.001 A 
ATOM     65  C   UNL A   1      41.896  20.913  26.355  1.00  0.00     0.000 A 
ENDBRANCH  41  60
BRANCH  53  66
ATOM     66  C   UNL A   1      47.883  26.276  30.574  1.00  0.00    -0.014 A 
ATOM     67  C   UNL A   1      48.875  26.329  29.583  1.00  0.00     0.009 A 
ATOM     68  C   UNL A   1      48.210  25.767  31.840  1.00  0.00     0.009 A 
ATOM     69  C   UNL A   1      50.160  25.851  29.848  1.00  0.00     0.001 A 
ATOM     70  C   UNL A   1      49.503  25.316  32.109  1.00  0.00     0.001 A 
ATOM     71  C   UNL A   1      50.474  25.350  31.110  1.00  0.00     0.000 A 
ENDBRANCH  53  66
ENDBRANCH  27  28
ENDBRANCH  19  22
ENDBRANCH  17  18
ENDBRANCH  16  17
ENDBRANCH  15  16
ENDBRANCH   1  15
TORSDOF 15
ENDMDL
