MODEL 1
REMARK VINA RESULT:     -13.3      0.000      0.000
REMARK SMILES O=C(Cn1c(=O)[nH]c2ccccc2c1=O)NC[C@H]1CC[C@@H](C(=O)N2CCC(C(=O)NCCCCNC(=O)c3ccc(-c4c5nc(c(-c6ccccc6)c6ccc([nH]6)c(-c6ccccc6)c6nc(c(-c7ccccc7)c7ccc4[nH]7)C=C6)C=C5)cc3)CC2)CC1
REMARK SMILES IDX 31 1 30 2 28 3 29 4 27 6 22 7 23 8 24 9 25 10 87 11 26 12
REMARK SMILES IDX 86 13 21 14 18 15 19 16 89 17 20 18 88 19 17 20 16 21 1 22
REMARK SMILES IDX 2 23 3 25 4 26 5 27 14 28 6 29 7 30 13 31 15 32 8 33 12 35
REMARK SMILES IDX 9 36 11 37 10 38 32 39 33 40 34 41 35 42 36 43 37 45 38 46
REMARK SMILES IDX 39 47 85 48 40 49 84 50 41 51 42 52 43 53 78 54 44 55 83 56
REMARK SMILES IDX 77 57 79 58 45 59 82 60 76 61 75 62 46 64 68 65 53 66 67 67
REMARK SMILES IDX 54 68 57 69 66 70 80 71 55 72 56 73 65 75 81 76 58 77 47 78
REMARK SMILES IDX 48 79 52 80 49 81 51 82 50 83 69 84 70 85 74 86 71 87 73 88
REMARK SMILES IDX 72 89 59 90 60 91 64 92 61 93 63 94 62 95
REMARK H PARENT 30 5 16 24 7 34 35 44 79 63 57 74
REMARK Flexibility Score: inf
ROOT
ATOM      1  C   UNL A   1      31.424  29.558  25.680  1.00  0.00     0.116 C 
ENDROOT
BRANCH   1   2
ATOM      2  N   UNL A   1      31.697  29.166  24.304  1.00  0.00    -0.356 N 
ATOM      3  C   UNL A   1      31.705  27.929  23.725  1.00  0.00     0.223 C 
ATOM      4  O   UNL A   1      31.971  27.844  22.525  1.00  0.00    -0.275 OA
ATOM      5  H   UNL A   1      31.908  29.910  23.694  1.00  0.00     0.163 HD
BRANCH   3   6
ATOM      6  C   UNL A   1      31.379  26.689  24.544  1.00  0.00     0.082 C 
ATOM      7  C   UNL A   1      33.077  22.871  24.531  1.00  0.00     0.225 C 
ATOM      8  O   UNL A   1      33.183  22.545  23.342  1.00  0.00    -0.275 OA
ATOM      9  N   UNL A   1      32.329  23.980  24.869  1.00  0.00    -0.342 N 
ATOM     10  C   UNL A   1      31.049  24.178  24.210  1.00  0.00     0.120 C 
ATOM     11  C   UNL A   1      32.652  24.923  25.916  1.00  0.00     0.120 C 
ATOM     12  C   UNL A   1      30.897  25.562  23.622  1.00  0.00     0.035 C 
ATOM     13  C   UNL A   1      32.552  26.374  25.482  1.00  0.00     0.035 C 
BRANCH   7  14
ATOM     14  C   UNL A   1      33.523  21.862  25.615  1.00  0.00     0.078 C 
ATOM     15  C   UNL A   1      36.495  21.349  25.767  1.00  0.00     0.008 C 
ATOM     16  C   UNL A   1      35.856  22.691  26.132  1.00  0.00     0.006 C 
ATOM     17  C   UNL A   1      35.579  20.360  25.024  1.00  0.00     0.006 C 
ATOM     18  C   UNL A   1      34.428  22.560  26.631  1.00  0.00     0.014 C 
ATOM     19  C   UNL A   1      34.071  20.482  25.262  1.00  0.00     0.014 C 
BRANCH  15  20
ATOM     20  C   UNL A   1      37.768  21.624  24.948  1.00  0.00     0.119 C 
BRANCH  20  21
ATOM     21  N   UNL A   1      38.948  21.092  25.580  1.00  0.00    -0.354 N 
ATOM     22  O   UNL A   1      39.569  22.994  26.716  1.00  0.00    -0.273 OA
ATOM     23  C   UNL A   1      39.721  21.798  26.484  1.00  0.00     0.240 C 
ATOM     24  H   UNL A   1      39.219  20.171  25.357  1.00  0.00     0.163 HD
BRANCH  23  25
ATOM     25  C   UNL A   1      40.669  20.896  27.283  1.00  0.00     0.230 C 
BRANCH  25  26
ATOM     26  N   UNL A   1      41.972  20.930  26.629  1.00  0.00    -0.250 N 
ATOM     27  C   UNL A   1      42.381  19.834  25.892  1.00  0.00     0.329 A 
ATOM     28  C   UNL A   1      42.796  22.020  26.895  1.00  0.00     0.264 A 
ATOM     29  O   UNL A   1      41.755  18.780  25.814  1.00  0.00    -0.248 OA
ATOM     30  N   UNL A   1      43.586  19.944  25.250  1.00  0.00    -0.307 N 
ATOM     31  C   UNL A   1      43.966  22.185  26.022  1.00  0.00     0.064 A 
ATOM     32  O   UNL A   1      42.591  22.836  27.792  1.00  0.00    -0.268 OA
ATOM     33  C   UNL A   1      44.357  21.104  25.243  1.00  0.00     0.055 A 
ATOM     34  H   UNL A   1      43.927  19.157  24.766  1.00  0.00     0.171 HD
ATOM     35  C   UNL A   1      44.662  23.396  25.964  1.00  0.00     0.016 A 
ATOM     36  C   UNL A   1      45.495  21.196  24.446  1.00  0.00     0.027 A 
ATOM     37  C   UNL A   1      45.777  23.505  25.135  1.00  0.00     0.001 A 
ATOM     38  C   UNL A   1      46.202  22.401  24.391  1.00  0.00     0.002 A 
ENDBRANCH  25  26
ENDBRANCH  23  25
ENDBRANCH  20  21
ENDBRANCH  15  20
ENDBRANCH   7  14
ENDBRANCH   3   6
ENDBRANCH   1   2
BRANCH   1  39
ATOM     39  C   UNL A   1      32.498  30.487  26.240  1.00  0.00     0.023 C 
BRANCH  39  40
ATOM     40  C   UNL A   1      31.955  31.735  26.922  1.00  0.00     0.023 C 
BRANCH  40  41
ATOM     41  C   UNL A   1      33.018  32.724  27.375  1.00  0.00     0.116 C 
BRANCH  41  42
ATOM     42  N   UNL A   1      32.497  34.056  27.649  1.00  0.00    -0.352 N 
ATOM     43  C   UNL A   1      32.952  34.967  28.578  1.00  0.00     0.251 C 
ATOM     44  H   UNL A   1      31.728  34.340  27.105  1.00  0.00     0.163 HD
ATOM     45  O   UNL A   1      32.372  36.024  28.773  1.00  0.00    -0.269 OA
BRANCH  43  46
ATOM     46  C   UNL A   1      34.138  34.601  29.376  1.00  0.00     0.039 A 
ATOM     47  C   UNL A   1      35.410  34.706  28.810  1.00  0.00     0.014 A 
ATOM     48  C   UNL A   1      33.957  34.022  30.634  1.00  0.00     0.014 A 
ATOM     49  C   UNL A   1      36.477  34.063  29.422  1.00  0.00     0.010 A 
ATOM     50  C   UNL A   1      35.052  33.456  31.288  1.00  0.00     0.010 A 
ATOM     51  C   UNL A   1      36.308  33.420  30.661  1.00  0.00    -0.014 A 
BRANCH  51  52
ATOM     52  C   UNL A   1      37.459  32.710  31.273  1.00  0.00     0.031 A 
ATOM     53  C   UNL A   1      37.920  33.040  32.667  1.00  0.00     0.074 A 
ATOM     54  C   UNL A   1      38.050  31.715  30.584  1.00  0.00     0.049 A 
ATOM     55  N   UNL A   1      38.905  32.513  33.351  1.00  0.00    -0.248 NA
ATOM     56  C   UNL A   1      37.190  34.095  33.392  1.00  0.00     0.031 C 
ATOM     57  C   UNL A   1      37.675  31.289  29.234  1.00  0.00     0.029 A 
ATOM     58  N   UNL A   1      39.067  30.864  30.932  1.00  0.00    -0.354 N 
ATOM     59  C   UNL A   1      38.926  33.181  34.568  1.00  0.00     0.074 A 
ATOM     60  C   UNL A   1      37.870  34.167  34.530  1.00  0.00     0.031 C 
ATOM     61  C   UNL A   1      38.413  30.224  28.890  1.00  0.00     0.029 A 
ATOM     62  C   UNL A   1      39.359  29.937  29.962  1.00  0.00     0.049 A 
ATOM     63  H   UNL A   1      39.542  30.913  31.793  1.00  0.00     0.167 HD
ATOM     64  C   UNL A   1      39.749  32.983  35.626  1.00  0.00     0.031 A 
ATOM     65  C   UNL A   1      40.296  28.972  29.924  1.00  0.00     0.031 A 
ATOM     66  C   UNL A   1      40.786  31.986  35.671  1.00  0.00     0.049 A 
ATOM     67  C   UNL A   1      41.212  28.793  31.099  1.00  0.00     0.074 A 
ATOM     68  C   UNL A   1      41.664  31.710  36.705  1.00  0.00     0.029 A 
ATOM     69  N   UNL A   1      41.076  31.097  34.649  1.00  0.00    -0.354 N 
ATOM     70  N   UNL A   1      41.224  29.444  32.236  1.00  0.00    -0.248 NA
ATOM     71  C   UNL A   1      42.244  27.754  30.987  1.00  0.00     0.031 C 
ATOM     72  C   UNL A   1      42.516  30.684  36.291  1.00  0.00     0.029 A 
ATOM     73  C   UNL A   1      42.132  30.284  35.022  1.00  0.00     0.049 A 
ATOM     74  H   UNL A   1      40.603  31.051  33.786  1.00  0.00     0.167 HD
ATOM     75  C   UNL A   1      42.259  28.891  32.976  1.00  0.00     0.074 A 
ATOM     76  C   UNL A   1      42.835  27.835  32.171  1.00  0.00     0.031 C 
ATOM     77  C   UNL A   1      42.695  29.237  34.211  1.00  0.00     0.031 A 
BRANCH  64  78
ATOM     78  C   UNL A   1      39.581  33.857  36.836  1.00  0.00    -0.014 A 
ATOM     79  C   UNL A   1      40.312  35.052  36.937  1.00  0.00     0.009 A 
ATOM     80  C   UNL A   1      38.803  33.442  37.927  1.00  0.00     0.009 A 
ATOM     81  C   UNL A   1      40.284  35.803  38.112  1.00  0.00     0.001 A 
ATOM     82  C   UNL A   1      38.760  34.207  39.095  1.00  0.00     0.001 A 
ATOM     83  C   UNL A   1      39.509  35.380  39.191  1.00  0.00     0.000 A 
ENDBRANCH  64  78
BRANCH  65  84
ATOM     84  C   UNL A   1      40.413  28.119  28.714  1.00  0.00    -0.014 A 
ATOM     85  C   UNL A   1      39.815  26.847  28.683  1.00  0.00     0.009 A 
ATOM     86  C   UNL A   1      41.161  28.544  27.607  1.00  0.00     0.009 A 
ATOM     87  C   UNL A   1      39.984  26.009  27.580  1.00  0.00     0.001 A 
ATOM     88  C   UNL A   1      41.301  27.714  26.491  1.00  0.00     0.001 A 
ATOM     89  C   UNL A   1      40.723  26.446  26.482  1.00  0.00     0.000 A 
ENDBRANCH  65  84
BRANCH  77  90
ATOM     90  C   UNL A   1      43.850  28.468  34.783  1.00  0.00    -0.014 A 
ATOM     91  C   UNL A   1      45.165  28.857  34.483  1.00  0.00     0.009 A 
ATOM     92  C   UNL A   1      43.636  27.301  35.534  1.00  0.00     0.009 A 
ATOM     93  C   UNL A   1      46.245  28.085  34.912  1.00  0.00     0.001 A 
ATOM     94  C   UNL A   1      44.720  26.547  35.983  1.00  0.00     0.001 A 
ATOM     95  C   UNL A   1      46.022  26.933  35.665  1.00  0.00     0.000 A 
ENDBRANCH  77  90
ENDBRANCH  51  52
ENDBRANCH  43  46
ENDBRANCH  41  42
ENDBRANCH  40  41
ENDBRANCH  39  40
ENDBRANCH   1  39
TORSDOF 16
ENDMDL
MODEL 2
REMARK VINA RESULT:     -13.3      1.412      2.025
REMARK SMILES O=C(Cn1c(=O)[nH]c2ccccc2c1=O)NC[C@H]1CC[C@@H](C(=O)N2CCC(C(=O)NCCCCNC(=O)c3ccc(-c4c5nc(c(-c6ccccc6)c6ccc([nH]6)c(-c6ccccc6)c6nc(c(-c7ccccc7)c7ccc4[nH]7)C=C6)C=C5)cc3)CC2)CC1
REMARK SMILES IDX 31 1 30 2 28 3 29 4 27 6 22 7 23 8 24 9 25 10 87 11 26 12
REMARK SMILES IDX 86 13 21 14 18 15 19 16 89 17 20 18 88 19 17 20 16 21 1 22
REMARK SMILES IDX 2 23 3 25 4 26 5 27 14 28 6 29 7 30 13 31 15 32 8 33 12 35
REMARK SMILES IDX 9 36 11 37 10 38 32 39 33 40 34 41 35 42 36 43 37 45 38 46
REMARK SMILES IDX 39 47 85 48 40 49 84 50 41 51 42 52 43 53 78 54 44 55 83 56
REMARK SMILES IDX 77 57 79 58 45 59 82 60 76 61 75 62 46 64 68 65 53 66 67 67
REMARK SMILES IDX 54 68 57 69 66 70 80 71 55 72 56 73 65 75 81 76 58 77 47 78
REMARK SMILES IDX 48 79 52 80 49 81 51 82 50 83 69 84 70 85 74 86 71 87 73 88
REMARK SMILES IDX 72 89 59 90 60 91 64 92 61 93 63 94 62 95
REMARK H PARENT 30 5 16 24 7 34 35 44 79 63 57 74
REMARK Flexibility Score: inf
ROOT
ATOM      1  C   UNL A   1      31.902  28.884  27.282  1.00  0.00     0.116 C 
ENDROOT
BRANCH   1   2
ATOM      2  N   UNL A   1      31.093  28.419  26.164  1.00  0.00    -0.356 N 
ATOM      3  C   UNL A   1      31.401  27.551  25.156  1.00  0.00     0.223 C 
ATOM      4  O   UNL A   1      30.541  27.307  24.308  1.00  0.00    -0.275 OA
ATOM      5  H   UNL A   1      30.181  28.786  26.130  1.00  0.00     0.163 HD
BRANCH   3   6
ATOM      6  C   UNL A   1      32.770  26.891  25.092  1.00  0.00     0.082 C 
ATOM      7  C   UNL A   1      33.866  22.869  24.809  1.00  0.00     0.225 C 
ATOM      8  O   UNL A   1      33.172  22.264  25.636  1.00  0.00    -0.275 OA
ATOM      9  N   UNL A   1      33.906  24.248  24.832  1.00  0.00    -0.342 N 
ATOM     10  C   UNL A   1      34.020  24.914  26.119  1.00  0.00     0.120 C 
ATOM     11  C   UNL A   1      33.960  25.106  23.671  1.00  0.00     0.120 C 
ATOM     12  C   UNL A   1      32.980  25.993  26.317  1.00  0.00     0.035 C 
ATOM     13  C   UNL A   1      32.964  26.250  23.711  1.00  0.00     0.035 C 
BRANCH   7  14
ATOM     14  C   UNL A   1      34.895  22.065  23.980  1.00  0.00     0.078 C 
ATOM     15  C   UNL A   1      37.698  22.001  25.103  1.00  0.00     0.008 C 
ATOM     16  C   UNL A   1      36.506  21.322  25.784  1.00  0.00     0.006 C 
ATOM     17  C   UNL A   1      37.344  22.981  23.972  1.00  0.00     0.006 C 
ATOM     18  C   UNL A   1      35.424  20.893  24.810  1.00  0.00     0.014 C 
ATOM     19  C   UNL A   1      36.031  22.744  23.220  1.00  0.00     0.014 C 
BRANCH  15  20
ATOM     20  C   UNL A   1      38.537  22.705  26.185  1.00  0.00     0.119 C 
BRANCH  20  21
ATOM     21  N   UNL A   1      39.952  22.545  25.966  1.00  0.00    -0.354 N 
ATOM     22  O   UNL A   1      40.399  21.249  27.814  1.00  0.00    -0.273 OA
ATOM     23  C   UNL A   1      40.767  21.759  26.760  1.00  0.00     0.240 C 
ATOM     24  H   UNL A   1      40.361  23.021  25.208  1.00  0.00     0.163 HD
BRANCH  23  25
ATOM     25  C   UNL A   1      42.118  21.456  26.102  1.00  0.00     0.230 C 
BRANCH  25  26
ATOM     26  N   UNL A   1      42.927  22.668  26.168  1.00  0.00    -0.250 N 
ATOM     27  C   UNL A   1      43.398  23.226  24.994  1.00  0.00     0.329 A 
ATOM     28  C   UNL A   1      43.295  23.126  27.431  1.00  0.00     0.264 A 
ATOM     29  O   UNL A   1      43.255  22.721  23.883  1.00  0.00    -0.248 OA
ATOM     30  N   UNL A   1      44.100  24.396  25.111  1.00  0.00    -0.307 N 
ATOM     31  C   UNL A   1      43.855  24.483  27.498  1.00  0.00     0.064 A 
ATOM     32  O   UNL A   1      43.167  22.473  28.466  1.00  0.00    -0.268 OA
ATOM     33  C   UNL A   1      44.288  25.069  26.316  1.00  0.00     0.055 A 
ATOM     34  H   UNL A   1      44.495  24.783  24.297  1.00  0.00     0.171 HD
ATOM     35  C   UNL A   1      43.941  25.172  28.711  1.00  0.00     0.016 A 
ATOM     36  C   UNL A   1      44.880  26.330  26.341  1.00  0.00     0.027 A 
ATOM     37  C   UNL A   1      44.495  26.451  28.733  1.00  0.00     0.001 A 
ATOM     38  C   UNL A   1      44.979  27.021  27.552  1.00  0.00     0.002 A 
ENDBRANCH  25  26
ENDBRANCH  23  25
ENDBRANCH  20  21
ENDBRANCH  15  20
ENDBRANCH   7  14
ENDBRANCH   3   6
ENDBRANCH   1   2
BRANCH   1  39
ATOM     39  C   UNL A   1      32.815  30.043  26.893  1.00  0.00     0.023 C 
BRANCH  39  40
ATOM     40  C   UNL A   1      32.237  31.422  27.179  1.00  0.00     0.023 C 
BRANCH  40  41
ATOM     41  C   UNL A   1      33.273  32.527  27.318  1.00  0.00     0.116 C 
BRANCH  41  42
ATOM     42  N   UNL A   1      32.696  33.835  27.602  1.00  0.00    -0.352 N 
ATOM     43  C   UNL A   1      33.104  34.751  28.548  1.00  0.00     0.251 C 
ATOM     44  H   UNL A   1      31.923  34.095  27.053  1.00  0.00     0.163 HD
ATOM     45  O   UNL A   1      32.480  35.782  28.748  1.00  0.00    -0.269 OA
BRANCH  43  46
ATOM     46  C   UNL A   1      34.294  34.422  29.355  1.00  0.00     0.039 A 
ATOM     47  C   UNL A   1      35.567  34.690  28.850  1.00  0.00     0.014 A 
ATOM     48  C   UNL A   1      34.130  33.719  30.551  1.00  0.00     0.014 A 
ATOM     49  C   UNL A   1      36.670  34.093  29.443  1.00  0.00     0.010 A 
ATOM     50  C   UNL A   1      35.252  33.196  31.194  1.00  0.00     0.010 A 
ATOM     51  C   UNL A   1      36.524  33.329  30.615  1.00  0.00    -0.014 A 
BRANCH  51  52
ATOM     52  C   UNL A   1      37.717  32.672  31.206  1.00  0.00     0.031 A 
ATOM     53  C   UNL A   1      38.267  33.118  32.535  1.00  0.00     0.074 A 
ATOM     54  C   UNL A   1      38.266  31.622  30.565  1.00  0.00     0.049 A 
ATOM     55  N   UNL A   1      39.298  32.649  33.193  1.00  0.00    -0.248 NA
ATOM     56  C   UNL A   1      37.581  34.229  33.216  1.00  0.00     0.031 C 
ATOM     57  C   UNL A   1      37.805  31.085  29.283  1.00  0.00     0.029 A 
ATOM     58  N   UNL A   1      39.308  30.804  30.915  1.00  0.00    -0.354 N 
ATOM     59  C   UNL A   1      39.395  33.416  34.347  1.00  0.00     0.074 A 
ATOM     60  C   UNL A   1      38.334  34.396  34.296  1.00  0.00     0.031 C 
ATOM     61  C   UNL A   1      38.524  29.995  28.982  1.00  0.00     0.029 A 
ATOM     62  C   UNL A   1      39.540  29.798  30.009  1.00  0.00     0.049 A 
ATOM     63  H   UNL A   1      39.838  30.924  31.735  1.00  0.00     0.167 HD
ATOM     64  C   UNL A   1      40.287  33.307  35.360  1.00  0.00     0.031 A 
ATOM     65  C   UNL A   1      40.478  28.833  29.989  1.00  0.00     0.031 A 
ATOM     66  C   UNL A   1      41.330  32.317  35.420  1.00  0.00     0.049 A 
ATOM     67  C   UNL A   1      41.470  28.753  31.112  1.00  0.00     0.074 A 
ATOM     68  C   UNL A   1      42.276  32.129  36.412  1.00  0.00     0.029 A 
ATOM     69  N   UNL A   1      41.557  31.346  34.458  1.00  0.00    -0.354 N 
ATOM     70  N   UNL A   1      41.554  29.497  32.187  1.00  0.00    -0.248 NA
ATOM     71  C   UNL A   1      42.498  27.708  31.018  1.00  0.00     0.031 C 
ATOM     72  C   UNL A   1      43.105  31.071  36.030  1.00  0.00     0.029 A 
ATOM     73  C   UNL A   1      42.639  30.567  34.827  1.00  0.00     0.049 A 
ATOM     74  H   UNL A   1      41.029  31.228  33.636  1.00  0.00     0.167 HD
ATOM     75  C   UNL A   1      42.638  29.008  32.901  1.00  0.00     0.074 A 
ATOM     76  C   UNL A   1      43.165  27.887  32.151  1.00  0.00     0.031 C 
ATOM     77  C   UNL A   1      43.153  29.455  34.070  1.00  0.00     0.031 A 
BRANCH  64  78
ATOM     78  C   UNL A   1      40.195  34.280  36.502  1.00  0.00    -0.014 A 
ATOM     79  C   UNL A   1      39.315  34.023  37.565  1.00  0.00     0.009 A 
ATOM     80  C   UNL A   1      40.879  35.504  36.466  1.00  0.00     0.009 A 
ATOM     81  C   UNL A   1      39.105  34.980  38.558  1.00  0.00     0.001 A 
ATOM     82  C   UNL A   1      40.684  36.451  37.474  1.00  0.00     0.001 A 
ATOM     83  C   UNL A   1      39.789  36.193  38.512  1.00  0.00     0.000 A 
ENDBRANCH  64  78
BRANCH  65  84
ATOM     84  C   UNL A   1      40.519  27.882  28.850  1.00  0.00    -0.014 A 
ATOM     85  C   UNL A   1      39.924  26.614  28.964  1.00  0.00     0.009 A 
ATOM     86  C   UNL A   1      41.193  28.211  27.665  1.00  0.00     0.009 A 
ATOM     87  C   UNL A   1      40.024  25.686  27.926  1.00  0.00     0.001 A 
ATOM     88  C   UNL A   1      41.264  27.291  26.616  1.00  0.00     0.001 A 
ATOM     89  C   UNL A   1      40.689  26.028  26.750  1.00  0.00     0.000 A 
ENDBRANCH  65  84
BRANCH  77  90
ATOM     90  C   UNL A   1      44.348  28.736  34.628  1.00  0.00    -0.014 A 
ATOM     91  C   UNL A   1      44.165  27.671  35.524  1.00  0.00     0.009 A 
ATOM     92  C   UNL A   1      45.649  29.178  34.346  1.00  0.00     0.009 A 
ATOM     93  C   UNL A   1      45.263  27.069  36.138  1.00  0.00     0.001 A 
ATOM     94  C   UNL A   1      46.747  28.556  34.942  1.00  0.00     0.001 A 
ATOM     95  C   UNL A   1      46.553  27.509  35.844  1.00  0.00     0.000 A 
ENDBRANCH  77  90
ENDBRANCH  51  52
ENDBRANCH  43  46
ENDBRANCH  41  42
ENDBRANCH  40  41
ENDBRANCH  39  40
ENDBRANCH   1  39
TORSDOF 16
ENDMDL
MODEL 3
REMARK VINA RESULT:     -12.8      4.903     11.428
REMARK SMILES O=C(Cn1c(=O)[nH]c2ccccc2c1=O)NC[C@H]1CC[C@@H](C(=O)N2CCC(C(=O)NCCCCNC(=O)c3ccc(-c4c5nc(c(-c6ccccc6)c6ccc([nH]6)c(-c6ccccc6)c6nc(c(-c7ccccc7)c7ccc4[nH]7)C=C6)C=C5)cc3)CC2)CC1
REMARK SMILES IDX 31 1 30 2 28 3 29 4 27 6 22 7 23 8 24 9 25 10 87 11 26 12
REMARK SMILES IDX 86 13 21 14 18 15 19 16 89 17 20 18 88 19 17 20 16 21 1 22
REMARK SMILES IDX 2 23 3 25 4 26 5 27 14 28 6 29 7 30 13 31 15 32 8 33 12 35
REMARK SMILES IDX 9 36 11 37 10 38 32 39 33 40 34 41 35 42 36 43 37 45 38 46
REMARK SMILES IDX 39 47 85 48 40 49 84 50 41 51 42 52 43 53 78 54 44 55 83 56
REMARK SMILES IDX 77 57 79 58 45 59 82 60 76 61 75 62 46 64 68 65 53 66 67 67
REMARK SMILES IDX 54 68 57 69 66 70 80 71 55 72 56 73 65 75 81 76 58 77 47 78
REMARK SMILES IDX 48 79 52 80 49 81 51 82 50 83 69 84 70 85 74 86 71 87 73 88
REMARK SMILES IDX 72 89 59 90 60 91 64 92 61 93 63 94 62 95
REMARK H PARENT 30 5 16 24 7 34 35 44 79 63 57 74
REMARK Flexibility Score: inf
ROOT
ATOM      1  C   UNL A   1      39.900  21.822  26.234  1.00  0.00     0.116 C 
ENDROOT
BRANCH   1   2
ATOM      2  N   UNL A   1      38.935  21.226  25.319  1.00  0.00    -0.356 N 
ATOM      3  C   UNL A   1      37.601  21.469  25.166  1.00  0.00     0.223 C 
ATOM      4  O   UNL A   1      36.981  20.829  24.314  1.00  0.00    -0.275 OA
ATOM      5  H   UNL A   1      39.304  20.541  24.716  1.00  0.00     0.163 HD
BRANCH   3   6
ATOM      6  C   UNL A   1      36.900  22.516  26.019  1.00  0.00     0.082 C 
ATOM      7  C   UNL A   1      33.237  24.460  25.516  1.00  0.00     0.225 C 
ATOM      8  O   UNL A   1      33.198  24.823  24.333  1.00  0.00    -0.275 OA
ATOM      9  N   UNL A   1      34.423  24.001  26.050  1.00  0.00    -0.342 N 
ATOM     10  C   UNL A   1      35.646  24.723  25.738  1.00  0.00     0.120 C 
ATOM     11  C   UNL A   1      34.554  22.918  26.997  1.00  0.00     0.120 C 
ATOM     12  C   UNL A   1      36.748  23.822  25.230  1.00  0.00     0.035 C 
ATOM     13  C   UNL A   1      35.627  21.911  26.626  1.00  0.00     0.035 C 
BRANCH   7  14
ATOM     14  C   UNL A   1      32.045  24.818  26.435  1.00  0.00     0.078 C 
ATOM     15  C   UNL A   1      29.578  25.840  25.025  1.00  0.00     0.008 C 
ATOM     16  C   UNL A   1      30.087  24.403  24.890  1.00  0.00     0.006 C 
ATOM     17  C   UNL A   1      30.560  26.830  25.676  1.00  0.00     0.006 C 
ATOM     18  C   UNL A   1      30.852  23.919  26.108  1.00  0.00     0.014 C 
ATOM     19  C   UNL A   1      31.593  26.259  26.652  1.00  0.00     0.014 C 
BRANCH  15  20
ATOM     20  C   UNL A   1      29.154  26.338  23.632  1.00  0.00     0.119 C 
BRANCH  20  21
ATOM     21  N   UNL A   1      30.150  27.190  23.032  1.00  0.00    -0.354 N 
ATOM     22  O   UNL A   1      28.751  28.919  22.440  1.00  0.00    -0.273 OA
ATOM     23  C   UNL A   1      29.884  28.458  22.549  1.00  0.00     0.240 C 
ATOM     24  H   UNL A   1      31.071  26.850  22.965  1.00  0.00     0.163 HD
BRANCH  23  25
ATOM     25  C   UNL A   1      31.157  29.283  22.324  1.00  0.00     0.230 C 
BRANCH  25  26
ATOM     26  N   UNL A   1      32.047  29.043  23.454  1.00  0.00    -0.250 N 
ATOM     27  C   UNL A   1      33.022  28.069  23.345  1.00  0.00     0.329 A 
ATOM     28  C   UNL A   1      31.779  29.724  24.639  1.00  0.00     0.264 A 
ATOM     29  O   UNL A   1      33.143  27.316  22.382  1.00  0.00    -0.248 OA
ATOM     30  N   UNL A   1      33.868  27.928  24.413  1.00  0.00    -0.307 N 
ATOM     31  C   UNL A   1      32.832  29.696  25.664  1.00  0.00     0.064 A 
ATOM     32  O   UNL A   1      30.736  30.339  24.860  1.00  0.00    -0.268 OA
ATOM     33  C   UNL A   1      33.840  28.750  25.537  1.00  0.00     0.055 A 
ATOM     34  H   UNL A   1      34.534  27.203  24.385  1.00  0.00     0.171 HD
ATOM     35  C   UNL A   1      32.829  30.601  26.729  1.00  0.00     0.016 A 
ATOM     36  C   UNL A   1      34.826  28.650  26.516  1.00  0.00     0.027 A 
ATOM     37  C   UNL A   1      33.838  30.529  27.688  1.00  0.00     0.001 A 
ATOM     38  C   UNL A   1      34.824  29.544  27.590  1.00  0.00     0.002 A 
ENDBRANCH  25  26
ENDBRANCH  23  25
ENDBRANCH  20  21
ENDBRANCH  15  20
ENDBRANCH   7  14
ENDBRANCH   3   6
ENDBRANCH   1   2
BRANCH   1  39
ATOM     39  C   UNL A   1      40.725  20.770  26.970  1.00  0.00     0.023 C 
BRANCH  39  40
ATOM     40  C   UNL A   1      41.393  19.747  26.061  1.00  0.00     0.023 C 
BRANCH  40  41
ATOM     41  C   UNL A   1      42.907  19.679  26.190  1.00  0.00     0.116 C 
BRANCH  41  42
ATOM     42  N   UNL A   1      43.562  19.055  25.048  1.00  0.00    -0.352 N 
ATOM     43  C   UNL A   1      44.508  19.606  24.210  1.00  0.00     0.251 C 
ATOM     44  H   UNL A   1      43.296  18.129  24.850  1.00  0.00     0.163 HD
ATOM     45  O   UNL A   1      44.920  19.007  23.229  1.00  0.00    -0.269 OA
BRANCH  43  46
ATOM     46  C   UNL A   1      44.973  20.975  24.506  1.00  0.00     0.039 A 
ATOM     47  C   UNL A   1      45.665  21.229  25.692  1.00  0.00     0.014 A 
ATOM     48  C   UNL A   1      44.591  22.019  23.661  1.00  0.00     0.014 A 
ATOM     49  C   UNL A   1      45.808  22.539  26.124  1.00  0.00     0.010 A 
ATOM     50  C   UNL A   1      44.820  23.337  24.059  1.00  0.00     0.010 A 
ATOM     51  C   UNL A   1      45.376  23.608  25.319  1.00  0.00    -0.014 A 
BRANCH  51  52
ATOM     52  C   UNL A   1      45.510  24.997  25.824  1.00  0.00     0.031 A 
ATOM     53  C   UNL A   1      44.338  25.715  26.438  1.00  0.00     0.074 A 
ATOM     54  C   UNL A   1      46.719  25.590  25.784  1.00  0.00     0.049 A 
ATOM     55  N   UNL A   1      44.286  26.927  26.931  1.00  0.00    -0.248 NA
ATOM     56  C   UNL A   1      43.059  24.986  26.512  1.00  0.00     0.031 C 
ATOM     57  C   UNL A   1      47.934  24.986  25.234  1.00  0.00     0.029 A 
ATOM     58  N   UNL A   1      47.132  26.816  26.238  1.00  0.00    -0.354 N 
ATOM     59  C   UNL A   1      42.975  27.113  27.350  1.00  0.00     0.074 A 
ATOM     60  C   UNL A   1      42.253  25.900  27.039  1.00  0.00     0.031 C 
ATOM     61  C   UNL A   1      48.965  25.818  25.431  1.00  0.00     0.029 A 
ATOM     62  C   UNL A   1      48.475  27.041  26.055  1.00  0.00     0.049 A 
ATOM     63  H   UNL A   1      46.527  27.470  26.654  1.00  0.00     0.167 HD
ATOM     64  C   UNL A   1      42.426  28.198  27.948  1.00  0.00     0.031 A 
ATOM     65  C   UNL A   1      49.230  28.119  26.338  1.00  0.00     0.031 A 
ATOM     66  C   UNL A   1      43.151  29.397  28.276  1.00  0.00     0.049 A 
ATOM     67  C   UNL A   1      48.589  29.316  26.974  1.00  0.00     0.074 A 
ATOM     68  C   UNL A   1      42.676  30.544  28.888  1.00  0.00     0.029 A 
ATOM     69  N   UNL A   1      44.499  29.599  28.033  1.00  0.00    -0.354 N 
ATOM     70  N   UNL A   1      47.345  29.477  27.350  1.00  0.00    -0.248 NA
ATOM     71  C   UNL A   1      49.451  30.480  27.221  1.00  0.00     0.031 C 
ATOM     72  C   UNL A   1      43.727  31.459  28.975  1.00  0.00     0.029 A 
ATOM     73  C   UNL A   1      44.868  30.860  28.467  1.00  0.00     0.049 A 
ATOM     74  H   UNL A   1      45.104  28.946  27.614  1.00  0.00     0.167 HD
ATOM     75  C   UNL A   1      47.274  30.757  27.883  1.00  0.00     0.074 A 
ATOM     76  C   UNL A   1      48.606  31.319  27.806  1.00  0.00     0.031 C 
ATOM     77  C   UNL A   1      46.197  31.407  28.384  1.00  0.00     0.031 A 
BRANCH  64  78
ATOM     78  C   UNL A   1      40.964  28.161  28.291  1.00  0.00    -0.014 A 
ATOM     79  C   UNL A   1      40.039  28.820  27.465  1.00  0.00     0.009 A 
ATOM     80  C   UNL A   1      40.516  27.587  29.490  1.00  0.00     0.009 A 
ATOM     81  C   UNL A   1      38.700  28.924  27.843  1.00  0.00     0.001 A 
ATOM     82  C   UNL A   1      39.171  27.674  29.855  1.00  0.00     0.001 A 
ATOM     83  C   UNL A   1      38.267  28.352  29.038  1.00  0.00     0.000 A 
ENDBRANCH  64  78
BRANCH  65  84
ATOM     84  C   UNL A   1      50.676  28.103  25.997  1.00  0.00    -0.014 A 
ATOM     85  C   UNL A   1      51.105  28.479  24.712  1.00  0.00     0.009 A 
ATOM     86  C   UNL A   1      51.627  27.666  26.929  1.00  0.00     0.009 A 
ATOM     87  C   UNL A   1      52.452  28.394  24.360  1.00  0.00     0.001 A 
ATOM     88  C   UNL A   1      52.980  27.613  26.583  1.00  0.00     0.001 A 
ATOM     89  C   UNL A   1      53.390  27.966  25.298  1.00  0.00     0.000 A 
ENDBRANCH  65  84
BRANCH  77  90
ATOM     90  C   UNL A   1      46.402  32.803  28.898  1.00  0.00    -0.014 A 
ATOM     91  C   UNL A   1      46.285  33.893  28.021  1.00  0.00     0.009 A 
ATOM     92  C   UNL A   1      46.809  33.029  30.221  1.00  0.00     0.009 A 
ATOM     93  C   UNL A   1      46.585  35.184  28.456  1.00  0.00     0.001 A 
ATOM     94  C   UNL A   1      47.082  34.325  30.660  1.00  0.00     0.001 A 
ATOM     95  C   UNL A   1      46.979  35.399  29.776  1.00  0.00     0.000 A 
ENDBRANCH  77  90
ENDBRANCH  51  52
ENDBRANCH  43  46
ENDBRANCH  41  42
ENDBRANCH  40  41
ENDBRANCH  39  40
ENDBRANCH   1  39
TORSDOF 16
ENDMDL
