MODEL 1
REMARK VINA RESULT:     -11.6      0.000      0.000
REMARK SMILES O=C(NCCCCNC(=O)[C@@H]1C=C[C@@H](NS(=O)(=O)c2ccc(F)c(F)c2F)C1)c1ccc(-c2c3nc(c(-c4ccccc4)c4ccc([nH]4)c(-c4ccccc4)c4nc(c(-c5ccccc5)c5ccc2[nH]5)C=C4)C=C3)cc1
REMARK SMILES IDX 6 1 5 2 4 3 3 4 1 5 2 6 29 8 30 9 76 10 31 11 75 12 32 13
REMARK SMILES IDX 33 14 34 15 69 16 35 17 74 18 68 19 70 20 36 21 73 22 67 23
REMARK SMILES IDX 66 24 37 26 59 27 44 28 58 29 45 30 48 31 57 32 71 33 46 34
REMARK SMILES IDX 47 35 56 37 72 38 49 39 38 40 39 41 43 42 40 43 42 44 41 45
REMARK SMILES IDX 60 46 61 47 65 48 62 49 64 50 63 51 50 52 51 53 55 54 52 55
REMARK SMILES IDX 54 56 53 57 7 58 8 59 9 60 10 62 11 63 12 64 28 65 13 66
REMARK SMILES IDX 14 67 15 68 16 70 17 71 18 72 19 73 20 74 26 75 21 76 24 77
REMARK SMILES IDX 27 78 22 79 25 80 23 81
REMARK H PARENT 3 7 70 25 48 36 8 61 15 69
REMARK Flexibility Score: inf
ROOT
ATOM      1  C   UNL A   1      33.567  29.160  24.388  1.00  0.00     0.023 C 
ENDROOT
BRANCH   1   2
ATOM      2  C   UNL A   1      33.730  27.926  25.278  1.00  0.00     0.023 C 
BRANCH   2   3
ATOM      3  C   UNL A   1      34.003  28.234  26.744  1.00  0.00     0.116 C 
BRANCH   3   4
ATOM      4  N   UNL A   1      33.700  29.610  27.101  1.00  0.00    -0.352 N 
ATOM      5  O   UNL A   1      34.053  31.598  28.116  1.00  0.00    -0.269 OA
ATOM      6  C   UNL A   1      34.488  30.502  27.785  1.00  0.00     0.251 C 
ATOM      7  H   UNL A   1      32.819  29.944  26.818  1.00  0.00     0.163 HD
BRANCH   6   8
ATOM      8  C   UNL A   1      35.860  30.104  28.145  1.00  0.00     0.039 A 
ATOM      9  C   UNL A   1      36.894  30.203  27.210  1.00  0.00     0.014 A 
ATOM     10  C   UNL A   1      36.101  29.601  29.425  1.00  0.00     0.014 A 
ATOM     11  C   UNL A   1      38.150  29.696  27.519  1.00  0.00     0.010 A 
ATOM     12  C   UNL A   1      37.380  29.157  29.757  1.00  0.00     0.010 A 
ATOM     13  C   UNL A   1      38.406  29.183  28.799  1.00  0.00    -0.014 A 
BRANCH  13  14
ATOM     14  C   UNL A   1      39.772  28.738  29.157  1.00  0.00     0.031 A 
ATOM     15  C   UNL A   1      40.726  29.662  29.850  1.00  0.00     0.074 A 
ATOM     16  C   UNL A   1      40.152  27.495  28.812  1.00  0.00     0.049 A 
ATOM     17  N   UNL A   1      41.981  29.463  30.165  1.00  0.00    -0.248 NA
ATOM     18  C   UNL A   1      40.210  30.986  30.232  1.00  0.00     0.031 C 
ATOM     19  C   UNL A   1      39.307  26.512  28.129  1.00  0.00     0.029 A 
ATOM     20  N   UNL A   1      41.351  26.851  28.974  1.00  0.00    -0.354 N 
ATOM     21  C   UNL A   1      42.414  30.643  30.755  1.00  0.00     0.074 A 
ATOM     22  C   UNL A   1      41.293  31.559  30.740  1.00  0.00     0.031 C 
ATOM     23  C   UNL A   1      40.009  25.388  27.939  1.00  0.00     0.029 A 
ATOM     24  C   UNL A   1      41.368  25.593  28.424  1.00  0.00     0.049 A 
ATOM     25  H   UNL A   1      42.122  27.250  29.437  1.00  0.00     0.167 HD
ATOM     26  C   UNL A   1      43.638  30.933  31.259  1.00  0.00     0.031 A 
ATOM     27  C   UNL A   1      42.376  24.713  28.288  1.00  0.00     0.031 A 
ATOM     28  C   UNL A   1      44.748  30.016  31.259  1.00  0.00     0.049 A 
ATOM     29  C   UNL A   1      43.732  25.070  28.816  1.00  0.00     0.074 A 
ATOM     30  C   UNL A   1      46.015  30.195  31.787  1.00  0.00     0.029 A 
ATOM     31  N   UNL A   1      44.728  28.752  30.688  1.00  0.00    -0.354 N 
ATOM     32  N   UNL A   1      44.117  26.171  29.416  1.00  0.00    -0.248 NA
ATOM     33  C   UNL A   1      44.792  24.067  28.653  1.00  0.00     0.031 C 
ATOM     34  C   UNL A   1      46.778  29.063  31.484  1.00  0.00     0.029 A 
ATOM     35  C   UNL A   1      45.970  28.153  30.821  1.00  0.00     0.049 A 
ATOM     36  H   UNL A   1      43.946  28.340  30.254  1.00  0.00     0.167 HD
ATOM     37  C   UNL A   1      45.458  25.988  29.720  1.00  0.00     0.074 A 
ATOM     38  C   UNL A   1      45.817  24.665  29.247  1.00  0.00     0.031 C 
ATOM     39  C   UNL A   1      46.311  26.838  30.339  1.00  0.00     0.031 A 
BRANCH  26  40
ATOM     40  C   UNL A   1      43.848  32.317  31.810  1.00  0.00    -0.014 A 
ATOM     41  C   UNL A   1      44.294  33.371  30.998  1.00  0.00     0.009 A 
ATOM     42  C   UNL A   1      43.574  32.572  33.163  1.00  0.00     0.009 A 
ATOM     43  C   UNL A   1      44.505  34.642  31.540  1.00  0.00     0.001 A 
ATOM     44  C   UNL A   1      43.758  33.850  33.696  1.00  0.00     0.001 A 
ATOM     45  C   UNL A   1      44.235  34.881  32.888  1.00  0.00     0.000 A 
ENDBRANCH  26  40
BRANCH  27  46
ATOM     46  C   UNL A   1      42.121  23.427  27.593  1.00  0.00    -0.014 A 
ATOM     47  C   UNL A   1      42.429  23.274  26.234  1.00  0.00     0.009 A 
ATOM     48  C   UNL A   1      41.632  22.322  28.310  1.00  0.00     0.009 A 
ATOM     49  C   UNL A   1      42.245  22.040  25.605  1.00  0.00     0.001 A 
ATOM     50  C   UNL A   1      41.476  21.084  27.685  1.00  0.00     0.001 A 
ATOM     51  C   UNL A   1      41.778  20.945  26.333  1.00  0.00     0.000 A 
ENDBRANCH  27  46
BRANCH  39  52
ATOM     52  C   UNL A   1      47.714  26.356  30.570  1.00  0.00    -0.014 A 
ATOM     53  C   UNL A   1      48.706  26.505  29.591  1.00  0.00     0.009 A 
ATOM     54  C   UNL A   1      48.058  25.801  31.813  1.00  0.00     0.009 A 
ATOM     55  C   UNL A   1      50.016  26.089  29.846  1.00  0.00     0.001 A 
ATOM     56  C   UNL A   1      49.372  25.410  32.074  1.00  0.00     0.001 A 
ATOM     57  C   UNL A   1      50.348  25.550  31.089  1.00  0.00     0.000 A 
ENDBRANCH  39  52
ENDBRANCH  13  14
ENDBRANCH   6   8
ENDBRANCH   3   4
ENDBRANCH   2   3
ENDBRANCH   1   2
BRANCH   1  58
ATOM     58  C   UNL A   1      32.677  28.933  23.163  1.00  0.00     0.116 C 
BRANCH  58  59
ATOM     59  N   UNL A   1      33.263  27.950  22.280  1.00  0.00    -0.356 N 
ATOM     60  C   UNL A   1      32.819  26.714  21.929  1.00  0.00     0.226 C 
ATOM     61  H   UNL A   1      34.117  28.218  21.869  1.00  0.00     0.163 HD
ATOM     62  O   UNL A   1      33.603  26.021  21.272  1.00  0.00    -0.274 OA
BRANCH  60  63
ATOM     63  C   UNL A   1      31.377  26.236  22.214  1.00  0.00     0.103 C 
ATOM     64  C   UNL A   1      30.574  26.927  23.275  1.00  0.00    -0.016 C 
ATOM     65  C   UNL A   1      31.389  24.798  22.780  1.00  0.00     0.042 C 
ATOM     66  C   UNL A   1      30.529  26.234  24.415  1.00  0.00    -0.011 C 
ATOM     67  C   UNL A   1      31.264  24.946  24.308  1.00  0.00     0.093 C 
BRANCH  67  68
ATOM     68  N   UNL A   1      30.480  23.857  24.849  1.00  0.00    -0.204 NA
ATOM     69  H   UNL A   1      30.497  23.127  24.137  1.00  0.00     0.142 HD
BRANCH  68  70
ATOM     70  S   UNL A   1      30.805  23.089  26.286  1.00  0.00     0.244 S 
ATOM     71  O   UNL A   1      30.828  24.097  27.331  1.00  0.00    -0.207 OA
ATOM     72  O   UNL A   1      29.917  21.959  26.366  1.00  0.00    -0.207 OA
BRANCH  70  73
ATOM     73  C   UNL A   1      32.440  22.452  26.156  1.00  0.00     0.121 A 
ATOM     74  C   UNL A   1      33.477  23.091  26.856  1.00  0.00     0.028 A 
ATOM     75  C   UNL A   1      32.703  21.341  25.365  1.00  0.00     0.181 A 
ATOM     76  C   UNL A   1      34.781  22.607  26.753  1.00  0.00     0.044 A 
ATOM     77  C   UNL A   1      34.006  20.871  25.258  1.00  0.00     0.195 A 
ATOM     78  F   UNL A   1      31.726  20.721  24.689  1.00  0.00    -0.202 F 
ATOM     79  C   UNL A   1      35.038  21.499  25.950  1.00  0.00     0.161 A 
ATOM     80  F   UNL A   1      34.273  19.813  24.479  1.00  0.00    -0.200 F 
ATOM     81  F   UNL A   1      36.294  21.047  25.845  1.00  0.00    -0.204 F 
ENDBRANCH  70  73
ENDBRANCH  68  70
ENDBRANCH  67  68
ENDBRANCH  60  63
ENDBRANCH  58  59
ENDBRANCH   1  58
TORSDOF 14
ENDMDL
MODEL 2
REMARK VINA RESULT:     -11.6      3.160      7.411
REMARK SMILES O=C(NCCCCNC(=O)[C@@H]1C=C[C@@H](NS(=O)(=O)c2ccc(F)c(F)c2F)C1)c1ccc(-c2c3nc(c(-c4ccccc4)c4ccc([nH]4)c(-c4ccccc4)c4nc(c(-c5ccccc5)c5ccc2[nH]5)C=C4)C=C3)cc1
REMARK SMILES IDX 6 1 5 2 4 3 3 4 1 5 2 6 29 8 30 9 76 10 31 11 75 12 32 13
REMARK SMILES IDX 33 14 34 15 69 16 35 17 74 18 68 19 70 20 36 21 73 22 67 23
REMARK SMILES IDX 66 24 37 26 59 27 44 28 58 29 45 30 48 31 57 32 71 33 46 34
REMARK SMILES IDX 47 35 56 37 72 38 49 39 38 40 39 41 43 42 40 43 42 44 41 45
REMARK SMILES IDX 60 46 61 47 65 48 62 49 64 50 63 51 50 52 51 53 55 54 52 55
REMARK SMILES IDX 54 56 53 57 7 58 8 59 9 60 10 62 11 63 12 64 28 65 13 66
REMARK SMILES IDX 14 67 15 68 16 70 17 71 18 72 19 73 20 74 26 75 21 76 24 77
REMARK SMILES IDX 27 78 22 79 25 80 23 81
REMARK H PARENT 3 7 70 25 48 36 8 61 15 69
REMARK Flexibility Score: inf
ROOT
ATOM      1  C   UNL A   1      36.839  20.784  24.896  1.00  0.00     0.023 C 
ENDROOT
BRANCH   1   2
ATOM      2  C   UNL A   1      37.902  19.686  24.975  1.00  0.00     0.023 C 
BRANCH   2   3
ATOM      3  C   UNL A   1      39.111  20.035  25.832  1.00  0.00     0.116 C 
BRANCH   3   4
ATOM      4  N   UNL A   1      40.160  19.030  25.768  1.00  0.00    -0.352 N 
ATOM      5  O   UNL A   1      42.291  18.279  25.754  1.00  0.00    -0.269 OA
ATOM      6  C   UNL A   1      41.510  19.201  25.953  1.00  0.00     0.251 C 
ATOM      7  H   UNL A   1      39.867  18.113  25.566  1.00  0.00     0.163 HD
BRANCH   6   8
ATOM      8  C   UNL A   1      42.007  20.525  26.364  1.00  0.00     0.039 A 
ATOM      9  C   UNL A   1      42.124  20.848  27.720  1.00  0.00     0.014 A 
ATOM     10  C   UNL A   1      42.332  21.458  25.378  1.00  0.00     0.014 A 
ATOM     11  C   UNL A   1      42.461  22.143  28.090  1.00  0.00     0.010 A 
ATOM     12  C   UNL A   1      42.738  22.737  25.753  1.00  0.00     0.010 A 
ATOM     13  C   UNL A   1      42.785  23.093  27.110  1.00  0.00    -0.014 A 
BRANCH  13  14
ATOM     14  C   UNL A   1      43.243  24.442  27.512  1.00  0.00     0.031 A 
ATOM     15  C   UNL A   1      42.265  25.494  27.936  1.00  0.00     0.074 A 
ATOM     16  C   UNL A   1      44.559  24.717  27.450  1.00  0.00     0.049 A 
ATOM     17  N   UNL A   1      42.486  26.748  28.242  1.00  0.00    -0.248 NA
ATOM     18  C   UNL A   1      40.852  25.092  28.020  1.00  0.00     0.031 C 
ATOM     19  C   UNL A   1      45.601  23.770  27.045  1.00  0.00     0.029 A 
ATOM     20  N   UNL A   1      45.243  25.876  27.712  1.00  0.00    -0.354 N 
ATOM     21  C   UNL A   1      41.241  27.292  28.526  1.00  0.00     0.074 A 
ATOM     22  C   UNL A   1      40.266  26.238  28.341  1.00  0.00     0.031 C 
ATOM     23  C   UNL A   1      46.791  24.382  27.094  1.00  0.00     0.029 A 
ATOM     24  C   UNL A   1      46.590  25.777  27.468  1.00  0.00     0.049 A 
ATOM     25  H   UNL A   1      44.811  26.697  28.042  1.00  0.00     0.167 HD
ATOM     26  C   UNL A   1      40.942  28.558  28.904  1.00  0.00     0.031 A 
ATOM     27  C   UNL A   1      47.555  26.713  27.503  1.00  0.00     0.031 A 
ATOM     28  C   UNL A   1      41.920  29.602  29.075  1.00  0.00     0.049 A 
ATOM     29  C   UNL A   1      47.196  28.117  27.883  1.00  0.00     0.074 A 
ATOM     30  C   UNL A   1      41.726  30.904  29.501  1.00  0.00     0.029 A 
ATOM     31  N   UNL A   1      43.275  29.464  28.814  1.00  0.00    -0.354 N 
ATOM     32  N   UNL A   1      46.021  28.608  28.197  1.00  0.00    -0.248 NA
ATOM     33  C   UNL A   1      48.290  29.094  27.918  1.00  0.00     0.031 C 
ATOM     34  C   UNL A   1      42.954  31.570  29.440  1.00  0.00     0.029 A 
ATOM     35  C   UNL A   1      43.925  30.667  29.036  1.00  0.00     0.049 A 
ATOM     36  H   UNL A   1      43.711  28.632  28.516  1.00  0.00     0.167 HD
ATOM     37  C   UNL A   1      46.236  29.948  28.485  1.00  0.00     0.074 A 
ATOM     38  C   UNL A   1      47.656  30.189  28.319  1.00  0.00     0.031 C 
ATOM     39  C   UNL A   1      45.338  30.890  28.859  1.00  0.00     0.031 A 
BRANCH  26  40
ATOM     40  C   UNL A   1      39.490  28.893  29.111  1.00  0.00    -0.014 A 
ATOM     41  C   UNL A   1      38.695  29.396  28.070  1.00  0.00     0.009 A 
ATOM     42  C   UNL A   1      38.903  28.681  30.370  1.00  0.00     0.009 A 
ATOM     43  C   UNL A   1      37.354  29.722  28.295  1.00  0.00     0.001 A 
ATOM     44  C   UNL A   1      37.556  28.980  30.585  1.00  0.00     0.001 A 
ATOM     45  C   UNL A   1      36.786  29.512  29.552  1.00  0.00     0.000 A 
ENDBRANCH  26  40
BRANCH  27  46
ATOM     46  C   UNL A   1      48.941  26.333  27.134  1.00  0.00    -0.014 A 
ATOM     47  C   UNL A   1      49.392  26.463  25.813  1.00  0.00     0.009 A 
ATOM     48  C   UNL A   1      49.842  25.903  28.123  1.00  0.00     0.009 A 
ATOM     49  C   UNL A   1      50.718  26.163  25.489  1.00  0.00     0.001 A 
ATOM     50  C   UNL A   1      51.171  25.631  27.801  1.00  0.00     0.001 A 
ATOM     51  C   UNL A   1      51.607  25.757  26.484  1.00  0.00     0.000 A 
ENDBRANCH  27  46
BRANCH  39  52
ATOM     52  C   UNL A   1      45.864  32.267  29.144  1.00  0.00    -0.014 A 
ATOM     53  C   UNL A   1      46.388  32.601  30.401  1.00  0.00     0.009 A 
ATOM     54  C   UNL A   1      45.892  33.223  28.116  1.00  0.00     0.009 A 
ATOM     55  C   UNL A   1      46.914  33.875  30.629  1.00  0.00     0.001 A 
ATOM     56  C   UNL A   1      46.442  34.486  28.339  1.00  0.00     0.001 A 
ATOM     57  C   UNL A   1      46.947  34.812  29.596  1.00  0.00     0.000 A 
ENDBRANCH  39  52
ENDBRANCH  13  14
ENDBRANCH   6   8
ENDBRANCH   3   4
ENDBRANCH   2   3
ENDBRANCH   1   2
BRANCH   1  58
ATOM     58  C   UNL A   1      35.401  20.270  25.001  1.00  0.00     0.116 C 
BRANCH  58  59
ATOM     59  N   UNL A   1      34.772  20.756  26.209  1.00  0.00    -0.356 N 
ATOM     60  C   UNL A   1      33.590  21.407  26.378  1.00  0.00     0.226 C 
ATOM     61  H   UNL A   1      35.278  20.590  27.037  1.00  0.00     0.163 HD
ATOM     62  O   UNL A   1      33.369  21.845  27.512  1.00  0.00    -0.274 OA
BRANCH  60  63
ATOM     63  C   UNL A   1      32.519  21.490  25.267  1.00  0.00     0.103 C 
ATOM     64  C   UNL A   1      32.891  22.072  23.936  1.00  0.00    -0.016 C 
ATOM     65  C   UNL A   1      31.390  22.461  25.680  1.00  0.00     0.042 C 
ATOM     66  C   UNL A   1      32.465  23.329  23.791  1.00  0.00    -0.011 C 
ATOM     67  C   UNL A   1      31.708  23.797  24.982  1.00  0.00     0.093 C 
BRANCH  67  68
ATOM     68  N   UNL A   1      30.481  24.455  24.589  1.00  0.00    -0.204 NA
ATOM     69  H   UNL A   1      29.739  23.778  24.763  1.00  0.00     0.142 HD
BRANCH  68  70
ATOM     70  S   UNL A   1      29.939  25.889  25.229  1.00  0.00     0.244 S 
ATOM     71  O   UNL A   1      29.183  26.578  24.198  1.00  0.00    -0.207 OA
ATOM     72  O   UNL A   1      29.341  25.578  26.502  1.00  0.00    -0.207 OA
BRANCH  70  73
ATOM     73  C   UNL A   1      31.366  26.866  25.555  1.00  0.00     0.121 A 
ATOM     74  C   UNL A   1      31.587  27.332  26.861  1.00  0.00     0.028 A 
ATOM     75  C   UNL A   1      32.252  27.181  24.533  1.00  0.00     0.181 A 
ATOM     76  C   UNL A   1      32.707  28.119  27.134  1.00  0.00     0.044 A 
ATOM     77  C   UNL A   1      33.358  27.975  24.809  1.00  0.00     0.195 A 
ATOM     78  F   UNL A   1      32.054  26.747  23.282  1.00  0.00    -0.202 F 
ATOM     79  C   UNL A   1      33.585  28.439  26.101  1.00  0.00     0.161 A 
ATOM     80  F   UNL A   1      34.208  28.303  23.825  1.00  0.00    -0.200 F 
ATOM     81  F   UNL A   1      34.650  29.206  26.367  1.00  0.00    -0.204 F 
ENDBRANCH  70  73
ENDBRANCH  68  70
ENDBRANCH  67  68
ENDBRANCH  60  63
ENDBRANCH  58  59
ENDBRANCH   1  58
TORSDOF 14
ENDMDL
MODEL 3
REMARK VINA RESULT:     -11.6      3.140      7.759
REMARK SMILES O=C(NCCCCNC(=O)[C@@H]1C=C[C@@H](NS(=O)(=O)c2ccc(F)c(F)c2F)C1)c1ccc(-c2c3nc(c(-c4ccccc4)c4ccc([nH]4)c(-c4ccccc4)c4nc(c(-c5ccccc5)c5ccc2[nH]5)C=C4)C=C3)cc1
REMARK SMILES IDX 6 1 5 2 4 3 3 4 1 5 2 6 29 8 30 9 76 10 31 11 75 12 32 13
REMARK SMILES IDX 33 14 34 15 69 16 35 17 74 18 68 19 70 20 36 21 73 22 67 23
REMARK SMILES IDX 66 24 37 26 59 27 44 28 58 29 45 30 48 31 57 32 71 33 46 34
REMARK SMILES IDX 47 35 56 37 72 38 49 39 38 40 39 41 43 42 40 43 42 44 41 45
REMARK SMILES IDX 60 46 61 47 65 48 62 49 64 50 63 51 50 52 51 53 55 54 52 55
REMARK SMILES IDX 54 56 53 57 7 58 8 59 9 60 10 62 11 63 12 64 28 65 13 66
REMARK SMILES IDX 14 67 15 68 16 70 17 71 18 72 19 73 20 74 26 75 21 76 24 77
REMARK SMILES IDX 27 78 22 79 25 80 23 81
REMARK H PARENT 3 7 70 25 48 36 8 61 15 69
REMARK Flexibility Score: inf
ROOT
ATOM      1  C   UNL A   1      38.988  22.560  26.362  1.00  0.00     0.023 C 
ENDROOT
BRANCH   1   2
ATOM      2  C   UNL A   1      39.085  21.233  25.607  1.00  0.00     0.023 C 
BRANCH   2   3
ATOM      3  C   UNL A   1      39.531  20.051  26.456  1.00  0.00     0.116 C 
BRANCH   3   4
ATOM      4  N   UNL A   1      40.692  19.366  25.911  1.00  0.00    -0.352 N 
ATOM      5  O   UNL A   1      42.832  19.185  25.210  1.00  0.00    -0.269 OA
ATOM      6  C   UNL A   1      41.977  19.834  25.799  1.00  0.00     0.251 C 
ATOM      7  H   UNL A   1      40.536  18.453  25.579  1.00  0.00     0.163 HD
BRANCH   6   8
ATOM      8  C   UNL A   1      42.305  21.151  26.373  1.00  0.00     0.039 A 
ATOM      9  C   UNL A   1      42.293  21.342  27.758  1.00  0.00     0.014 A 
ATOM     10  C   UNL A   1      42.598  22.207  25.509  1.00  0.00     0.014 A 
ATOM     11  C   UNL A   1      42.468  22.619  28.277  1.00  0.00     0.010 A 
ATOM     12  C   UNL A   1      42.842  23.474  26.036  1.00  0.00     0.010 A 
ATOM     13  C   UNL A   1      42.758  23.691  27.420  1.00  0.00    -0.014 A 
BRANCH  13  14
ATOM     14  C   UNL A   1      43.044  25.030  27.984  1.00  0.00     0.031 A 
ATOM     15  C   UNL A   1      44.425  25.397  28.434  1.00  0.00     0.074 A 
ATOM     16  C   UNL A   1      42.027  25.900  28.119  1.00  0.00     0.049 A 
ATOM     17  N   UNL A   1      44.834  26.493  29.022  1.00  0.00    -0.248 NA
ATOM     18  C   UNL A   1      45.485  24.403  28.204  1.00  0.00     0.031 C 
ATOM     19  C   UNL A   1      40.640  25.646  27.720  1.00  0.00     0.029 A 
ATOM     20  N   UNL A   1      41.997  27.165  28.645  1.00  0.00    -0.354 N 
ATOM     21  C   UNL A   1      46.190  26.311  29.259  1.00  0.00     0.074 A 
ATOM     22  C   UNL A   1      46.532  24.994  28.766  1.00  0.00     0.031 C 
ATOM     23  C   UNL A   1      39.898  26.724  28.006  1.00  0.00     0.029 A 
ATOM     24  C   UNL A   1      40.740  27.714  28.665  1.00  0.00     0.049 A 
ATOM     25  H   UNL A   1      42.798  27.634  28.974  1.00  0.00     0.167 HD
ATOM     26  C   UNL A   1      47.066  27.167  29.838  1.00  0.00     0.031 A 
ATOM     27  C   UNL A   1      40.300  28.870  29.193  1.00  0.00     0.031 A 
ATOM     28  C   UNL A   1      46.712  28.472  30.333  1.00  0.00     0.049 A 
ATOM     29  C   UNL A   1      41.278  29.784  29.865  1.00  0.00     0.074 A 
ATOM     30  C   UNL A   1      47.534  29.434  30.894  1.00  0.00     0.029 A 
ATOM     31  N   UNL A   1      45.425  28.991  30.341  1.00  0.00    -0.354 N 
ATOM     32  N   UNL A   1      42.568  29.622  30.040  1.00  0.00    -0.248 NA
ATOM     33  C   UNL A   1      40.746  31.039  30.411  1.00  0.00     0.031 C 
ATOM     34  C   UNL A   1      46.735  30.510  31.294  1.00  0.00     0.029 A 
ATOM     35  C   UNL A   1      45.424  30.246  30.928  1.00  0.00     0.049 A 
ATOM     36  H   UNL A   1      44.630  28.534  29.981  1.00  0.00     0.167 HD
ATOM     37  C   UNL A   1      43.007  30.761  30.698  1.00  0.00     0.074 A 
ATOM     38  C   UNL A   1      41.847  31.611  30.882  1.00  0.00     0.031 C 
ATOM     39  C   UNL A   1      44.259  31.075  31.108  1.00  0.00     0.031 A 
BRANCH  26  40
ATOM     40  C   UNL A   1      48.484  26.694  30.008  1.00  0.00    -0.014 A 
ATOM     41  C   UNL A   1      48.881  25.943  31.125  1.00  0.00     0.009 A 
ATOM     42  C   UNL A   1      49.436  26.991  29.018  1.00  0.00     0.009 A 
ATOM     43  C   UNL A   1      50.210  25.537  31.271  1.00  0.00     0.001 A 
ATOM     44  C   UNL A   1      50.757  26.559  29.152  1.00  0.00     0.001 A 
ATOM     45  C   UNL A   1      51.146  25.844  30.283  1.00  0.00     0.000 A 
ENDBRANCH  26  40
BRANCH  27  46
ATOM     46  C   UNL A   1      38.853  29.193  29.118  1.00  0.00    -0.014 A 
ATOM     47  C   UNL A   1      38.012  28.969  30.216  1.00  0.00     0.009 A 
ATOM     48  C   UNL A   1      38.323  29.794  27.964  1.00  0.00     0.009 A 
ATOM     49  C   UNL A   1      36.665  29.336  30.157  1.00  0.00     0.001 A 
ATOM     50  C   UNL A   1      36.984  30.184  27.919  1.00  0.00     0.001 A 
ATOM     51  C   UNL A   1      36.155  29.950  29.013  1.00  0.00     0.000 A 
ENDBRANCH  27  46
BRANCH  39  52
ATOM     52  C   UNL A   1      44.452  32.408  31.772  1.00  0.00    -0.014 A 
ATOM     53  C   UNL A   1      44.367  32.547  33.164  1.00  0.00     0.009 A 
ATOM     54  C   UNL A   1      44.784  33.527  30.992  1.00  0.00     0.009 A 
ATOM     55  C   UNL A   1      44.594  33.789  33.763  1.00  0.00     0.001 A 
ATOM     56  C   UNL A   1      45.035  34.760  31.595  1.00  0.00     0.001 A 
ATOM     57  C   UNL A   1      44.935  34.890  32.978  1.00  0.00     0.000 A 
ENDBRANCH  39  52
ENDBRANCH  13  14
ENDBRANCH   6   8
ENDBRANCH   3   4
ENDBRANCH   2   3
ENDBRANCH   1   2
BRANCH   1  58
ATOM     58  C   UNL A   1      37.761  23.399  25.995  1.00  0.00     0.116 C 
BRANCH  58  59
ATOM     59  N   UNL A   1      37.552  23.401  24.565  1.00  0.00    -0.356 N 
ATOM     60  C   UNL A   1      36.441  23.097  23.843  1.00  0.00     0.226 C 
ATOM     61  H   UNL A   1      38.337  23.665  24.031  1.00  0.00     0.163 HD
ATOM     62  O   UNL A   1      36.589  23.034  22.618  1.00  0.00    -0.274 OA
BRANCH  60  63
ATOM     63  C   UNL A   1      35.042  22.961  24.486  1.00  0.00     0.103 C 
ATOM     64  C   UNL A   1      33.916  22.396  23.674  1.00  0.00    -0.016 C 
ATOM     65  C   UNL A   1      34.463  24.357  24.814  1.00  0.00     0.042 C 
ATOM     66  C   UNL A   1      33.095  23.341  23.210  1.00  0.00    -0.011 C 
ATOM     67  C   UNL A   1      33.507  24.698  23.656  1.00  0.00     0.093 C 
BRANCH  67  68
ATOM     68  N   UNL A   1      32.373  25.446  24.154  1.00  0.00    -0.204 NA
ATOM     69  H   UNL A   1      32.549  25.581  25.149  1.00  0.00     0.142 HD
BRANCH  68  70
ATOM     70  S   UNL A   1      31.901  26.931  23.577  1.00  0.00     0.244 S 
ATOM     71  O   UNL A   1      32.747  27.254  22.442  1.00  0.00    -0.207 OA
ATOM     72  O   UNL A   1      30.468  26.892  23.444  1.00  0.00    -0.207 OA
BRANCH  70  73
ATOM     73  C   UNL A   1      32.271  28.101  24.838  1.00  0.00     0.121 A 
ATOM     74  C   UNL A   1      33.192  27.753  25.839  1.00  0.00     0.028 A 
ATOM     75  C   UNL A   1      31.652  29.344  24.850  1.00  0.00     0.181 A 
ATOM     76  C   UNL A   1      33.487  28.663  26.855  1.00  0.00     0.044 A 
ATOM     77  C   UNL A   1      31.942  30.242  25.870  1.00  0.00     0.195 A 
ATOM     78  F   UNL A   1      30.770  29.691  23.904  1.00  0.00    -0.202 F 
ATOM     79  C   UNL A   1      32.854  29.904  26.865  1.00  0.00     0.161 A 
ATOM     80  F   UNL A   1      31.333  31.436  25.902  1.00  0.00    -0.200 F 
ATOM     81  F   UNL A   1      33.132  30.769  27.849  1.00  0.00    -0.204 F 
ENDBRANCH  70  73
ENDBRANCH  68  70
ENDBRANCH  67  68
ENDBRANCH  60  63
ENDBRANCH  58  59
ENDBRANCH   1  58
TORSDOF 14
ENDMDL
