MODEL 1
REMARK VINA RESULT:     -12.2      0.000      0.000
REMARK SMILES Cc1ccc(-c2cnnc(-n3nc(C)c4c3NC(=O)C[C@@H]4c3ccc(C(=O)NCCCCNC(=O)c4ccc(-c5c6nc(c(-c7ccccc7)c7ccc([nH]7)c(-c7ccccc7)c7nc(c(-c8ccccc8)c8ccc5[nH]8)C=C7)C=C6)cc4)cc3)n2)cc1
REMARK SMILES IDX 30 1 29 2 28 3 26 4 27 5 25 7 22 8 23 9 85 10 24 11 84 12
REMARK SMILES IDX 21 13 11 14 12 15 16 16 13 17 15 18 17 19 14 20 18 21 20 23
REMARK SMILES IDX 19 24 10 25 6 26 7 27 86 28 8 29 9 30 5 31 1 32 2 33 3 34
REMARK SMILES IDX 88 35 4 36 87 37 31 38 32 39 33 40 34 41 35 43 36 44 37 45
REMARK SMILES IDX 83 46 38 47 82 48 39 49 40 50 41 51 76 52 42 53 81 54 75 55
REMARK SMILES IDX 77 56 43 57 80 58 74 59 73 60 44 62 66 63 51 64 65 65 52 66
REMARK SMILES IDX 55 67 64 68 78 69 53 70 54 71 63 73 79 74 56 75 45 76 46 77
REMARK SMILES IDX 50 78 47 79 49 80 48 81 67 82 68 83 72 84 69 85 71 86 70 87
REMARK SMILES IDX 57 88 58 89 62 90 59 91 61 92 60 93
REMARK H PARENT 28 6 17 22 33 42 77 61 55 72
REMARK Flexibility Score: inf
ROOT
ATOM      1  C   UNL A   1      43.319  31.884  32.841  1.00  0.00     0.023 C 
ENDROOT
BRANCH   1   2
ATOM      2  C   UNL A   1      42.630  33.261  32.832  1.00  0.00     0.116 C 
BRANCH   2   3
ATOM      3  N   UNL A   1      42.735  33.971  34.102  1.00  0.00    -0.352 N 
ATOM      4  C   UNL A   1      41.786  34.310  35.041  1.00  0.00     0.251 C 
ATOM      5  O   UNL A   1      42.148  34.732  36.136  1.00  0.00    -0.269 OA
ATOM      6  H   UNL A   1      43.648  34.259  34.329  1.00  0.00     0.163 HD
BRANCH   4   7
ATOM      7  C   UNL A   1      40.339  34.125  34.781  1.00  0.00     0.039 A 
ATOM      8  C   UNL A   1      37.705  33.507  34.028  1.00  0.00    -0.040 A 
ATOM      9  C   UNL A   1      38.340  32.796  35.062  1.00  0.00     0.005 A 
ATOM     10  C   UNL A   1      38.337  34.655  33.540  1.00  0.00     0.005 A 
ATOM     11  C   UNL A   1      39.649  33.108  35.443  1.00  0.00     0.014 A 
ATOM     12  C   UNL A   1      39.644  34.949  33.906  1.00  0.00     0.014 A 
BRANCH   8  13
ATOM     13  C   UNL A   1      36.402  32.972  33.474  1.00  0.00     0.064 C 
ATOM     14  N   UNL A   1      35.610  33.443  29.972  1.00  0.00    -0.180 N 
ATOM     15  N   UNL A   1      36.855  32.936  29.750  1.00  0.00    -0.168 NA
ATOM     16  C   UNL A   1      35.548  33.898  31.279  1.00  0.00     0.143 A 
ATOM     17  C   UNL A   1      37.285  32.580  30.965  1.00  0.00     0.066 A 
ATOM     18  C   UNL A   1      36.406  33.065  31.978  1.00  0.00     0.026 A 
ATOM     19  N   UNL A   1      34.908  34.942  31.920  1.00  0.00    -0.310 N 
ATOM     20  C   UNL A   1      38.611  31.919  31.056  1.00  0.00     0.069 C 
ATOM     21  C   UNL A   1      34.974  35.001  33.356  1.00  0.00     0.226 C 
ATOM     22  H   UNL A   1      34.419  35.627  31.408  1.00  0.00     0.171 HD
ATOM     23  C   UNL A   1      35.176  33.677  34.054  1.00  0.00     0.113 C 
ATOM     24  O   UNL A   1      34.775  36.066  33.893  1.00  0.00    -0.275 OA
BRANCH  14  25
ATOM     25  C   UNL A   1      34.519  33.054  29.136  1.00  0.00     0.272 A 
ATOM     26  C   UNL A   1      33.455  31.668  27.668  1.00  0.00     0.095 A 
ATOM     27  C   UNL A   1      32.593  32.701  27.333  1.00  0.00     0.164 A 
ATOM     28  N   UNL A   1      34.487  31.839  28.544  1.00  0.00    -0.208 NA
ATOM     29  N   UNL A   1      32.692  33.899  27.919  1.00  0.00    -0.153 NA
ATOM     30  N   UNL A   1      33.640  34.057  28.864  1.00  0.00    -0.109 NA
BRANCH  26  31
ATOM     31  C   UNL A   1      33.200  30.309  27.175  1.00  0.00     0.002 A 
ATOM     32  C   UNL A   1      32.528  26.218  25.924  1.00  0.00     0.044 C 
ATOM     33  C   UNL A   1      32.768  27.625  26.383  1.00  0.00    -0.051 A 
ATOM     34  C   UNL A   1      31.686  28.464  26.670  1.00  0.00     0.004 A 
ATOM     35  C   UNL A   1      34.066  28.127  26.510  1.00  0.00     0.004 A 
ATOM     36  C   UNL A   1      31.899  29.789  27.064  1.00  0.00     0.011 A 
ATOM     37  C   UNL A   1      34.277  29.452  26.897  1.00  0.00     0.011 A 
ENDBRANCH  26  31
ENDBRANCH  14  25
ENDBRANCH   8  13
ENDBRANCH   4   7
ENDBRANCH   2   3
ENDBRANCH   1   2
BRANCH   1  38
ATOM     38  C   UNL A   1      44.704  31.842  32.199  1.00  0.00     0.023 C 
BRANCH  38  39
ATOM     39  C   UNL A   1      45.559  30.677  32.656  1.00  0.00     0.116 C 
BRANCH  39  40
ATOM     40  N   UNL A   1      46.945  31.005  32.955  1.00  0.00    -0.352 N 
ATOM     41  C   UNL A   1      48.107  30.583  32.329  1.00  0.00     0.251 C 
ATOM     42  H   UNL A   1      47.076  31.617  33.715  1.00  0.00     0.163 HD
ATOM     43  O   UNL A   1      49.192  30.866  32.831  1.00  0.00    -0.269 OA
BRANCH  41  44
ATOM     44  C   UNL A   1      48.062  29.980  30.967  1.00  0.00     0.039 A 
ATOM     45  C   UNL A   1      47.747  30.850  29.912  1.00  0.00     0.014 A 
ATOM     46  C   UNL A   1      47.908  28.612  30.800  1.00  0.00     0.014 A 
ATOM     47  C   UNL A   1      46.938  30.392  28.883  1.00  0.00     0.010 A 
ATOM     48  C   UNL A   1      46.977  28.185  29.895  1.00  0.00     0.010 A 
ATOM     49  C   UNL A   1      46.443  29.100  28.991  1.00  0.00    -0.014 A 
BRANCH  49  50
ATOM     50  C   UNL A   1      45.395  28.547  28.168  1.00  0.00     0.031 A 
ATOM     51  C   UNL A   1      44.085  28.397  28.804  1.00  0.00     0.074 A 
ATOM     52  C   UNL A   1      45.654  28.386  26.853  1.00  0.00     0.049 A 
ATOM     53  N   UNL A   1      43.186  27.562  28.437  1.00  0.00    -0.248 NA
ATOM     54  C   UNL A   1      43.713  29.161  29.997  1.00  0.00     0.031 C 
ATOM     55  C   UNL A   1      44.741  28.132  25.749  1.00  0.00     0.029 A 
ATOM     56  N   UNL A   1      46.918  28.237  26.286  1.00  0.00    -0.354 N 
ATOM     57  C   UNL A   1      42.028  27.919  29.094  1.00  0.00     0.074 A 
ATOM     58  C   UNL A   1      42.437  28.805  30.151  1.00  0.00     0.031 C 
ATOM     59  C   UNL A   1      45.437  27.592  24.728  1.00  0.00     0.029 A 
ATOM     60  C   UNL A   1      46.796  27.356  25.201  1.00  0.00     0.049 A 
ATOM     61  H   UNL A   1      47.746  28.672  26.590  1.00  0.00     0.167 HD
ATOM     62  C   UNL A   1      40.837  27.581  28.528  1.00  0.00     0.031 A 
ATOM     63  C   UNL A   1      47.382  26.123  25.294  1.00  0.00     0.031 A 
ATOM     64  C   UNL A   1      41.070  26.773  27.329  1.00  0.00     0.049 A 
ATOM     65  C   UNL A   1      46.341  25.031  25.442  1.00  0.00     0.074 A 
ATOM     66  C   UNL A   1      41.147  27.123  25.991  1.00  0.00     0.029 A 
ATOM     67  N   UNL A   1      41.704  25.541  27.454  1.00  0.00    -0.354 N 
ATOM     68  N   UNL A   1      45.146  25.220  25.937  1.00  0.00    -0.248 NA
ATOM     69  C   UNL A   1      46.551  23.660  24.987  1.00  0.00     0.031 C 
ATOM     70  C   UNL A   1      41.956  26.151  25.338  1.00  0.00     0.029 A 
ATOM     71  C   UNL A   1      42.332  25.197  26.269  1.00  0.00     0.049 A 
ATOM     72  H   UNL A   1      41.707  24.990  28.271  1.00  0.00     0.167 HD
ATOM     73  C   UNL A   1      44.419  24.067  25.818  1.00  0.00     0.074 A 
ATOM     74  C   UNL A   1      45.347  23.115  25.233  1.00  0.00     0.031 C 
ATOM     75  C   UNL A   1      43.104  23.964  26.172  1.00  0.00     0.031 A 
BRANCH  62  76
ATOM     76  C   UNL A   1      39.523  28.254  28.847  1.00  0.00    -0.014 A 
ATOM     77  C   UNL A   1      38.907  27.983  30.083  1.00  0.00     0.009 A 
ATOM     78  C   UNL A   1      38.807  29.100  27.980  1.00  0.00     0.009 A 
ATOM     79  C   UNL A   1      37.634  28.471  30.406  1.00  0.00     0.001 A 
ATOM     80  C   UNL A   1      37.524  29.576  28.288  1.00  0.00     0.001 A 
ATOM     81  C   UNL A   1      36.934  29.256  29.500  1.00  0.00     0.000 A 
ENDBRANCH  62  76
BRANCH  63  82
ATOM     82  C   UNL A   1      48.701  26.181  26.008  1.00  0.00    -0.014 A 
ATOM     83  C   UNL A   1      48.793  25.506  27.247  1.00  0.00     0.009 A 
ATOM     84  C   UNL A   1      49.888  26.452  25.312  1.00  0.00     0.009 A 
ATOM     85  C   UNL A   1      50.000  24.941  27.670  1.00  0.00     0.001 A 
ATOM     86  C   UNL A   1      51.103  25.914  25.765  1.00  0.00     0.001 A 
ATOM     87  C   UNL A   1      51.148  25.109  26.904  1.00  0.00     0.000 A 
ENDBRANCH  63  82
BRANCH  75  88
ATOM     88  C   UNL A   1      42.384  22.656  26.366  1.00  0.00    -0.014 A 
ATOM     89  C   UNL A   1      43.013  21.408  26.266  1.00  0.00     0.009 A 
ATOM     90  C   UNL A   1      41.046  22.662  26.815  1.00  0.00     0.009 A 
ATOM     91  C   UNL A   1      42.315  20.222  26.515  1.00  0.00     0.001 A 
ATOM     92  C   UNL A   1      40.367  21.485  27.131  1.00  0.00     0.001 A 
ATOM     93  C   UNL A   1      40.996  20.262  26.955  1.00  0.00     0.000 A 
ENDBRANCH  75  88
ENDBRANCH  49  50
ENDBRANCH  41  44
ENDBRANCH  39  40
ENDBRANCH  38  39
ENDBRANCH   1  38
TORSDOF 14
ENDMDL
MODEL 2
REMARK VINA RESULT:     -11.9      7.648     12.164
REMARK SMILES Cc1ccc(-c2cnnc(-n3nc(C)c4c3NC(=O)C[C@@H]4c3ccc(C(=O)NCCCCNC(=O)c4ccc(-c5c6nc(c(-c7ccccc7)c7ccc([nH]7)c(-c7ccccc7)c7nc(c(-c8ccccc8)c8ccc5[nH]8)C=C7)C=C6)cc4)cc3)n2)cc1
REMARK SMILES IDX 30 1 29 2 28 3 26 4 27 5 25 7 22 8 23 9 85 10 24 11 84 12
REMARK SMILES IDX 21 13 11 14 12 15 16 16 13 17 15 18 17 19 14 20 18 21 20 23
REMARK SMILES IDX 19 24 10 25 6 26 7 27 86 28 8 29 9 30 5 31 1 32 2 33 3 34
REMARK SMILES IDX 88 35 4 36 87 37 31 38 32 39 33 40 34 41 35 43 36 44 37 45
REMARK SMILES IDX 83 46 38 47 82 48 39 49 40 50 41 51 76 52 42 53 81 54 75 55
REMARK SMILES IDX 77 56 43 57 80 58 74 59 73 60 44 62 66 63 51 64 65 65 52 66
REMARK SMILES IDX 55 67 64 68 78 69 53 70 54 71 63 73 79 74 56 75 45 76 46 77
REMARK SMILES IDX 50 78 47 79 49 80 48 81 67 82 68 83 72 84 69 85 71 86 70 87
REMARK SMILES IDX 57 88 58 89 62 90 59 91 61 92 60 93
REMARK H PARENT 28 6 17 22 33 42 77 61 55 72
REMARK Flexibility Score: inf
ROOT
ATOM      1  C   UNL A   1      45.991  38.998  33.987  1.00  0.00     0.023 C 
ENDROOT
BRANCH   1   2
ATOM      2  C   UNL A   1      45.613  40.213  33.122  1.00  0.00     0.116 C 
BRANCH   2   3
ATOM      3  N   UNL A   1      44.377  40.864  33.545  1.00  0.00    -0.352 N 
ATOM      4  C   UNL A   1      43.149  40.982  32.932  1.00  0.00     0.251 C 
ATOM      5  O   UNL A   1      42.194  41.404  33.577  1.00  0.00    -0.269 OA
ATOM      6  H   UNL A   1      44.431  41.296  34.427  1.00  0.00     0.163 HD
BRANCH   4   7
ATOM      7  C   UNL A   1      42.942  40.558  31.527  1.00  0.00     0.039 A 
ATOM      8  C   UNL A   1      42.900  39.906  28.796  1.00  0.00    -0.040 A 
ATOM      9  C   UNL A   1      43.438  39.010  29.738  1.00  0.00     0.005 A 
ATOM     10  C   UNL A   1      42.203  41.019  29.276  1.00  0.00     0.005 A 
ATOM     11  C   UNL A   1      43.452  39.331  31.099  1.00  0.00     0.014 A 
ATOM     12  C   UNL A   1      42.236  41.344  30.625  1.00  0.00     0.014 A 
BRANCH   8  13
ATOM     13  C   UNL A   1      43.140  39.640  27.325  1.00  0.00     0.064 C 
ATOM     14  N   UNL A   1      44.529  42.248  25.232  1.00  0.00    -0.180 N 
ATOM     15  N   UNL A   1      45.479  42.350  26.204  1.00  0.00    -0.168 NA
ATOM     16  C   UNL A   1      43.419  41.616  25.769  1.00  0.00     0.143 A 
ATOM     17  C   UNL A   1      45.194  41.352  27.046  1.00  0.00     0.066 A 
ATOM     18  C   UNL A   1      43.936  40.761  26.727  1.00  0.00     0.026 A 
ATOM     19  N   UNL A   1      42.053  41.716  25.582  1.00  0.00    -0.310 N 
ATOM     20  C   UNL A   1      46.105  41.148  28.200  1.00  0.00     0.069 C 
ATOM     21  C   UNL A   1      41.205  40.757  26.238  1.00  0.00     0.226 C 
ATOM     22  H   UNL A   1      41.670  42.425  25.014  1.00  0.00     0.171 HD
ATOM     23  C   UNL A   1      41.845  39.422  26.542  1.00  0.00     0.113 C 
ATOM     24  O   UNL A   1      40.044  41.045  26.409  1.00  0.00    -0.275 OA
BRANCH  14  25
ATOM     25  C   UNL A   1      44.902  42.329  23.856  1.00  0.00     0.272 A 
ATOM     26  C   UNL A   1      44.489  42.665  21.637  1.00  0.00     0.095 A 
ATOM     27  C   UNL A   1      45.683  42.032  21.329  1.00  0.00     0.164 A 
ATOM     28  N   UNL A   1      44.037  42.777  22.920  1.00  0.00    -0.208 NA
ATOM     29  N   UNL A   1      46.487  41.570  22.293  1.00  0.00    -0.153 NA
ATOM     30  N   UNL A   1      46.107  41.764  23.571  1.00  0.00    -0.109 NA
BRANCH  26  31
ATOM     31  C   UNL A   1      43.728  43.349  20.586  1.00  0.00     0.002 A 
ATOM     32  C   UNL A   1      41.610  45.255  17.323  1.00  0.00     0.044 C 
ATOM     33  C   UNL A   1      42.357  44.579  18.434  1.00  0.00    -0.051 A 
ATOM     34  C   UNL A   1      41.726  43.603  19.212  1.00  0.00     0.004 A 
ATOM     35  C   UNL A   1      43.680  44.925  18.724  1.00  0.00     0.004 A 
ATOM     36  C   UNL A   1      42.403  42.993  20.273  1.00  0.00     0.011 A 
ATOM     37  C   UNL A   1      44.353  44.320  19.787  1.00  0.00     0.011 A 
ENDBRANCH  26  31
ENDBRANCH  14  25
ENDBRANCH   8  13
ENDBRANCH   4   7
ENDBRANCH   2   3
ENDBRANCH   1   2
BRANCH   1  38
ATOM     38  C   UNL A   1      45.524  37.645  33.452  1.00  0.00     0.023 C 
BRANCH  38  39
ATOM     39  C   UNL A   1      46.065  36.459  34.225  1.00  0.00     0.116 C 
BRANCH  39  40
ATOM     40  N   UNL A   1      46.404  35.296  33.417  1.00  0.00    -0.352 N 
ATOM     41  C   UNL A   1      45.816  34.042  33.383  1.00  0.00     0.251 C 
ATOM     42  H   UNL A   1      47.165  35.419  32.805  1.00  0.00     0.163 HD
ATOM     43  O   UNL A   1      46.350  33.150  32.729  1.00  0.00    -0.269 OA
BRANCH  41  44
ATOM     44  C   UNL A   1      44.456  33.824  33.952  1.00  0.00     0.039 A 
ATOM     45  C   UNL A   1      44.255  32.617  34.638  1.00  0.00     0.014 A 
ATOM     46  C   UNL A   1      43.364  34.533  33.475  1.00  0.00     0.014 A 
ATOM     47  C   UNL A   1      43.043  31.958  34.499  1.00  0.00     0.010 A 
ATOM     48  C   UNL A   1      42.229  33.830  33.184  1.00  0.00     0.010 A 
ATOM     49  C   UNL A   1      42.111  32.519  33.636  1.00  0.00    -0.014 A 
BRANCH  49  50
ATOM     50  C   UNL A   1      40.919  31.856  33.168  1.00  0.00     0.031 A 
ATOM     51  C   UNL A   1      40.925  31.424  31.770  1.00  0.00     0.074 A 
ATOM     52  C   UNL A   1      39.985  31.531  34.087  1.00  0.00     0.049 A 
ATOM     53  N   UNL A   1      39.877  31.240  31.057  1.00  0.00    -0.248 NA
ATOM     54  C   UNL A   1      42.172  31.237  31.024  1.00  0.00     0.031 C 
ATOM     55  C   UNL A   1      38.844  30.634  33.978  1.00  0.00     0.029 A 
ATOM     56  N   UNL A   1      39.803  32.156  35.319  1.00  0.00    -0.354 N 
ATOM     57  C   UNL A   1      40.289  30.587  29.915  1.00  0.00     0.074 A 
ATOM     58  C   UNL A   1      41.718  30.744  29.871  1.00  0.00     0.031 C 
ATOM     59  C   UNL A   1      37.948  30.955  34.933  1.00  0.00     0.029 A 
ATOM     60  C   UNL A   1      38.429  32.162  35.596  1.00  0.00     0.049 A 
ATOM     61  H   UNL A   1      40.513  32.526  35.892  1.00  0.00     0.167 HD
ATOM     62  C   UNL A   1      39.385  29.813  29.256  1.00  0.00     0.031 A 
ATOM     63  C   UNL A   1      37.769  33.361  35.597  1.00  0.00     0.031 A 
ATOM     64  C   UNL A   1      38.070  29.940  29.887  1.00  0.00     0.049 A 
ATOM     65  C   UNL A   1      36.853  33.485  34.397  1.00  0.00     0.074 A 
ATOM     66  C   UNL A   1      37.434  29.162  30.842  1.00  0.00     0.029 A 
ATOM     67  N   UNL A   1      37.443  31.183  29.907  1.00  0.00    -0.354 N 
ATOM     68  N   UNL A   1      37.030  32.843  33.271  1.00  0.00    -0.248 NA
ATOM     69  C   UNL A   1      35.638  34.294  34.398  1.00  0.00     0.031 C 
ATOM     70  C   UNL A   1      36.509  29.997  31.530  1.00  0.00     0.029 A 
ATOM     71  C   UNL A   1      36.558  31.263  30.967  1.00  0.00     0.049 A 
ATOM     72  H   UNL A   1      37.608  31.905  29.257  1.00  0.00     0.167 HD
ATOM     73  C   UNL A   1      35.967  33.081  32.442  1.00  0.00     0.074 A 
ATOM     74  C   UNL A   1      35.131  34.009  33.186  1.00  0.00     0.031 C 
ATOM     75  C   UNL A   1      35.816  32.491  31.220  1.00  0.00     0.031 A 
BRANCH  62  76
ATOM     76  C   UNL A   1      39.753  28.707  28.294  1.00  0.00    -0.014 A 
ATOM     77  C   UNL A   1      39.458  27.378  28.648  1.00  0.00     0.009 A 
ATOM     78  C   UNL A   1      40.434  28.878  27.075  1.00  0.00     0.009 A 
ATOM     79  C   UNL A   1      39.871  26.288  27.870  1.00  0.00     0.001 A 
ATOM     80  C   UNL A   1      40.869  27.792  26.300  1.00  0.00     0.001 A 
ATOM     81  C   UNL A   1      40.592  26.495  26.702  1.00  0.00     0.000 A 
ENDBRANCH  62  76
BRANCH  63  82
ATOM     82  C   UNL A   1      38.608  34.461  36.179  1.00  0.00    -0.014 A 
ATOM     83  C   UNL A   1      38.911  34.379  37.558  1.00  0.00     0.009 A 
ATOM     84  C   UNL A   1      39.438  35.245  35.366  1.00  0.00     0.009 A 
ATOM     85  C   UNL A   1      40.111  34.889  38.063  1.00  0.00     0.001 A 
ATOM     86  C   UNL A   1      40.622  35.787  35.889  1.00  0.00     0.001 A 
ATOM     87  C   UNL A   1      40.989  35.556  37.216  1.00  0.00     0.000 A 
ENDBRANCH  63  82
BRANCH  75  88
ATOM     88  C   UNL A   1      34.857  32.974  30.165  1.00  0.00    -0.014 A 
ATOM     89  C   UNL A   1      34.335  34.274  30.133  1.00  0.00     0.009 A 
ATOM     90  C   UNL A   1      34.568  32.145  29.060  1.00  0.00     0.009 A 
ATOM     91  C   UNL A   1      33.495  34.694  29.097  1.00  0.00     0.001 A 
ATOM     92  C   UNL A   1      33.787  32.582  27.991  1.00  0.00     0.001 A 
ATOM     93  C   UNL A   1      33.228  33.851  28.023  1.00  0.00     0.000 A 
ENDBRANCH  75  88
ENDBRANCH  49  50
ENDBRANCH  41  44
ENDBRANCH  39  40
ENDBRANCH  38  39
ENDBRANCH   1  38
TORSDOF 14
ENDMDL
MODEL 3
REMARK VINA RESULT:     -11.8      4.080      7.500
REMARK SMILES Cc1ccc(-c2cnnc(-n3nc(C)c4c3NC(=O)C[C@@H]4c3ccc(C(=O)NCCCCNC(=O)c4ccc(-c5c6nc(c(-c7ccccc7)c7ccc([nH]7)c(-c7ccccc7)c7nc(c(-c8ccccc8)c8ccc5[nH]8)C=C7)C=C6)cc4)cc3)n2)cc1
REMARK SMILES IDX 30 1 29 2 28 3 26 4 27 5 25 7 22 8 23 9 85 10 24 11 84 12
REMARK SMILES IDX 21 13 11 14 12 15 16 16 13 17 15 18 17 19 14 20 18 21 20 23
REMARK SMILES IDX 19 24 10 25 6 26 7 27 86 28 8 29 9 30 5 31 1 32 2 33 3 34
REMARK SMILES IDX 88 35 4 36 87 37 31 38 32 39 33 40 34 41 35 43 36 44 37 45
REMARK SMILES IDX 83 46 38 47 82 48 39 49 40 50 41 51 76 52 42 53 81 54 75 55
REMARK SMILES IDX 77 56 43 57 80 58 74 59 73 60 44 62 66 63 51 64 65 65 52 66
REMARK SMILES IDX 55 67 64 68 78 69 53 70 54 71 63 73 79 74 56 75 45 76 46 77
REMARK SMILES IDX 50 78 47 79 49 80 48 81 67 82 68 83 72 84 69 85 71 86 70 87
REMARK SMILES IDX 57 88 58 89 62 90 59 91 61 92 60 93
REMARK H PARENT 28 6 17 22 33 42 77 61 55 72
REMARK Flexibility Score: inf
ROOT
ATOM      1  C   UNL A   1      46.457  32.025  34.317  1.00  0.00     0.023 C 
ENDROOT
BRANCH   1   2
ATOM      2  C   UNL A   1      45.005  32.223  33.845  1.00  0.00     0.116 C 
BRANCH   2   3
ATOM      3  N   UNL A   1      44.869  32.277  32.393  1.00  0.00    -0.352 N 
ATOM      4  C   UNL A   1      43.880  32.792  31.585  1.00  0.00     0.251 C 
ATOM      5  O   UNL A   1      44.085  32.903  30.380  1.00  0.00    -0.269 OA
ATOM      6  H   UNL A   1      45.621  31.873  31.903  1.00  0.00     0.163 HD
BRANCH   4   7
ATOM      7  C   UNL A   1      42.593  33.267  32.146  1.00  0.00     0.039 A 
ATOM      8  C   UNL A   1      40.291  34.050  33.551  1.00  0.00    -0.040 A 
ATOM      9  C   UNL A   1      41.371  34.938  33.394  1.00  0.00     0.005 A 
ATOM     10  C   UNL A   1      40.309  32.862  32.814  1.00  0.00     0.005 A 
ATOM     11  C   UNL A   1      42.514  34.551  32.688  1.00  0.00     0.014 A 
ATOM     12  C   UNL A   1      41.454  32.474  32.131  1.00  0.00     0.014 A 
BRANCH   8  13
ATOM     13  C   UNL A   1      39.196  34.407  34.534  1.00  0.00     0.064 C 
ATOM     14  N   UNL A   1      38.446  32.168  37.278  1.00  0.00    -0.180 N 
ATOM     15  N   UNL A   1      39.788  32.203  37.511  1.00  0.00    -0.168 NA
ATOM     16  C   UNL A   1      38.216  32.571  35.973  1.00  0.00     0.143 A 
ATOM     17  C   UNL A   1      40.248  33.102  36.636  1.00  0.00     0.066 A 
ATOM     18  C   UNL A   1      39.234  33.470  35.703  1.00  0.00     0.026 A 
ATOM     19  N   UNL A   1      37.300  32.235  34.994  1.00  0.00    -0.310 N 
ATOM     20  C   UNL A   1      41.697  33.424  36.682  1.00  0.00     0.069 C 
ATOM     21  C   UNL A   1      37.292  33.003  33.777  1.00  0.00     0.226 C 
ATOM     22  H   UNL A   1      36.669  31.490  35.126  1.00  0.00     0.171 HD
ATOM     23  C   UNL A   1      37.807  34.418  33.897  1.00  0.00     0.113 C 
ATOM     24  O   UNL A   1      36.800  32.505  32.792  1.00  0.00    -0.275 OA
BRANCH  14  25
ATOM     25  C   UNL A   1      37.529  32.205  38.373  1.00  0.00     0.272 A 
ATOM     26  C   UNL A   1      36.766  31.575  40.429  1.00  0.00     0.095 A 
ATOM     27  C   UNL A   1      35.520  32.098  40.116  1.00  0.00     0.164 A 
ATOM     28  N   UNL A   1      37.795  31.564  39.533  1.00  0.00    -0.208 NA
ATOM     29  N   UNL A   1      35.297  32.688  38.937  1.00  0.00    -0.153 NA
ATOM     30  N   UNL A   1      36.331  32.779  38.077  1.00  0.00    -0.109 NA
BRANCH  26  31
ATOM     31  C   UNL A   1      37.051  31.125  41.796  1.00  0.00     0.002 A 
ATOM     32  C   UNL A   1      37.701  29.660  45.820  1.00  0.00     0.044 C 
ATOM     33  C   UNL A   1      37.455  30.149  44.424  1.00  0.00    -0.051 A 
ATOM     34  C   UNL A   1      38.300  29.754  43.383  1.00  0.00     0.004 A 
ATOM     35  C   UNL A   1      36.397  31.019  44.145  1.00  0.00     0.004 A 
ATOM     36  C   UNL A   1      38.100  30.234  42.084  1.00  0.00     0.011 A 
ATOM     37  C   UNL A   1      36.202  31.502  42.849  1.00  0.00     0.011 A 
ENDBRANCH  26  31
ENDBRANCH  14  25
ENDBRANCH   8  13
ENDBRANCH   4   7
ENDBRANCH   2   3
ENDBRANCH   1   2
BRANCH   1  38
ATOM     38  C   UNL A   1      46.663  30.916  35.347  1.00  0.00     0.023 C 
BRANCH  38  39
ATOM     39  C   UNL A   1      45.776  29.707  35.135  1.00  0.00     0.116 C 
BRANCH  39  40
ATOM     40  N   UNL A   1      45.397  28.996  36.347  1.00  0.00    -0.352 N 
ATOM     41  C   UNL A   1      44.136  28.715  36.849  1.00  0.00     0.251 C 
ATOM     42  H   UNL A   1      46.148  28.667  36.892  1.00  0.00     0.163 HD
ATOM     43  O   UNL A   1      44.036  28.224  37.971  1.00  0.00    -0.269 OA
BRANCH  41  44
ATOM     44  C   UNL A   1      42.932  28.807  35.976  1.00  0.00     0.039 A 
ATOM     45  C   UNL A   1      42.307  27.594  35.651  1.00  0.00     0.014 A 
ATOM     46  C   UNL A   1      42.704  29.929  35.195  1.00  0.00     0.014 A 
ATOM     47  C   UNL A   1      41.796  27.423  34.373  1.00  0.00     0.010 A 
ATOM     48  C   UNL A   1      42.366  29.732  33.886  1.00  0.00     0.010 A 
ATOM     49  C   UNL A   1      41.987  28.459  33.470  1.00  0.00    -0.014 A 
BRANCH  49  50
ATOM     50  C   UNL A   1      41.763  28.364  32.048  1.00  0.00     0.031 A 
ATOM     51  C   UNL A   1      40.387  28.572  31.594  1.00  0.00     0.074 A 
ATOM     52  C   UNL A   1      42.849  28.274  31.251  1.00  0.00     0.049 A 
ATOM     53  N   UNL A   1      39.901  28.114  30.501  1.00  0.00    -0.248 NA
ATOM     54  C   UNL A   1      39.401  29.279  32.414  1.00  0.00     0.031 C 
ATOM     55  C   UNL A   1      42.964  28.448  29.811  1.00  0.00     0.029 A 
ATOM     56  N   UNL A   1      44.099  27.792  31.631  1.00  0.00    -0.354 N 
ATOM     57  C   UNL A   1      38.691  28.748  30.314  1.00  0.00     0.074 A 
ATOM     58  C   UNL A   1      38.359  29.334  31.585  1.00  0.00     0.031 C 
ATOM     59  C   UNL A   1      44.085  27.829  29.388  1.00  0.00     0.029 A 
ATOM     60  C   UNL A   1      44.651  27.121  30.530  1.00  0.00     0.049 A 
ATOM     61  H   UNL A   1      44.521  27.904  32.514  1.00  0.00     0.167 HD
ATOM     62  C   UNL A   1      38.220  28.872  29.043  1.00  0.00     0.031 A 
ATOM     63  C   UNL A   1      44.802  25.763  30.604  1.00  0.00     0.031 A 
ATOM     64  C   UNL A   1      39.108  28.169  28.115  1.00  0.00     0.049 A 
ATOM     65  C   UNL A   1      43.814  25.052  29.700  1.00  0.00     0.074 A 
ATOM     66  C   UNL A   1      40.162  28.621  27.338  1.00  0.00     0.029 A 
ATOM     67  N   UNL A   1      39.270  26.793  28.242  1.00  0.00    -0.354 N 
ATOM     68  N   UNL A   1      42.668  25.558  29.325  1.00  0.00    -0.248 NA
ATOM     69  C   UNL A   1      44.074  23.744  29.105  1.00  0.00     0.031 C 
ATOM     70  C   UNL A   1      41.035  27.519  27.114  1.00  0.00     0.029 A 
ATOM     71  C   UNL A   1      40.490  26.398  27.720  1.00  0.00     0.049 A 
ATOM     72  H   UNL A   1      38.610  26.184  28.647  1.00  0.00     0.167 HD
ATOM     73  C   UNL A   1      42.077  24.718  28.421  1.00  0.00     0.074 A 
ATOM     74  C   UNL A   1      42.987  23.589  28.329  1.00  0.00     0.031 C 
ATOM     75  C   UNL A   1      40.904  25.002  27.782  1.00  0.00     0.031 A 
BRANCH  62  76
ATOM     76  C   UNL A   1      37.190  29.890  28.614  1.00  0.00    -0.014 A 
ATOM     77  C   UNL A   1      37.483  31.257  28.777  1.00  0.00     0.009 A 
ATOM     78  C   UNL A   1      35.910  29.595  28.111  1.00  0.00     0.009 A 
ATOM     79  C   UNL A   1      36.539  32.259  28.515  1.00  0.00     0.001 A 
ATOM     80  C   UNL A   1      34.952  30.591  27.867  1.00  0.00     0.001 A 
ATOM     81  C   UNL A   1      35.266  31.925  28.074  1.00  0.00     0.000 A 
ENDBRANCH  62  76
BRANCH  63  82
ATOM     82  C   UNL A   1      45.214  25.318  31.976  1.00  0.00    -0.014 A 
ATOM     83  C   UNL A   1      46.457  25.789  32.459  1.00  0.00     0.009 A 
ATOM     84  C   UNL A   1      44.265  24.881  32.911  1.00  0.00     0.009 A 
ATOM     85  C   UNL A   1      46.661  26.009  33.825  1.00  0.00     0.001 A 
ATOM     86  C   UNL A   1      44.493  25.069  34.282  1.00  0.00     0.001 A 
ATOM     87  C   UNL A   1      45.659  25.689  34.734  1.00  0.00     0.000 A 
ENDBRANCH  63  82
BRANCH  75  88
ATOM     88  C   UNL A   1      40.073  23.980  27.054  1.00  0.00    -0.014 A 
ATOM     89  C   UNL A   1      40.396  22.618  27.002  1.00  0.00     0.009 A 
ATOM     90  C   UNL A   1      38.825  24.359  26.514  1.00  0.00     0.009 A 
ATOM     91  C   UNL A   1      39.559  21.697  26.365  1.00  0.00     0.001 A 
ATOM     92  C   UNL A   1      37.955  23.433  25.939  1.00  0.00     0.001 A 
ATOM     93  C   UNL A   1      38.336  22.103  25.841  1.00  0.00     0.000 A 
ENDBRANCH  75  88
ENDBRANCH  49  50
ENDBRANCH  41  44
ENDBRANCH  39  40
ENDBRANCH  38  39
ENDBRANCH   1  38
TORSDOF 14
ENDMDL
