MODEL 1
REMARK VINA RESULT:     -10.3      0.000      0.000
REMARK SMILES C[C@H](C(=O)NCCCCNC(=O)c1ccc(-c2c3nc(c(-c4ccccc4)c4ccc([nH]4)c(-c4ccccc4)c4nc(c(-c5ccccc5)c5ccc2[nH]5)C=C4)C=C3)cc1)[C@@H](C)C(=O)[C@H]1CC[C@H](C)CC1
REMARK SMILES IDX 7 1 6 2 5 3 3 4 4 5 2 7 1 8 61 9 62 10 63 11 64 12 65 13
REMARK SMILES IDX 69 14 68 15 67 16 70 17 66 18 71 19 8 20 9 21 10 22 11 23
REMARK SMILES IDX 12 25 13 26 14 27 60 28 15 29 59 30 16 31 17 32 18 33 53 34
REMARK SMILES IDX 19 35 58 36 52 37 54 38 20 39 57 40 51 41 50 42 21 44 43 45
REMARK SMILES IDX 28 46 42 47 29 48 32 49 41 50 55 51 30 52 31 53 40 55 56 56
REMARK SMILES IDX 33 57 22 58 23 59 27 60 24 61 26 62 25 63 44 64 45 65 49 66
REMARK SMILES IDX 46 67 48 68 47 69 34 70 35 71 39 72 36 73 38 74 37 75
REMARK H PARENT 5 6 10 24 54 43 32 54
REMARK Flexibility Score: inf
ROOT
ATOM      1  C   UNL A   1      31.644  27.895  26.805  1.00  0.00     0.023 C 
ENDROOT
BRANCH   1   2
ATOM      2  C   UNL A   1      31.050  27.000  25.724  1.00  0.00     0.116 C 
BRANCH   2   3
ATOM      3  N   UNL A   1      30.300  25.898  26.288  1.00  0.00    -0.356 N 
ATOM      4  C   UNL A   1      30.687  24.628  26.587  1.00  0.00     0.223 C 
ATOM      5  O   UNL A   1      29.863  23.889  27.131  1.00  0.00    -0.275 OA
ATOM      6  H   UNL A   1      29.358  26.100  26.486  1.00  0.00     0.163 HD
BRANCH   4   7
ATOM      7  C   UNL A   1      32.062  24.098  26.189  1.00  0.00     0.085 C 
ATOM      8  C   UNL A   1      32.472  22.995  27.182  1.00  0.00     0.019 C 
BRANCH   7   9
ATOM      9  C   UNL A   1      32.331  23.857  24.659  1.00  0.00     0.065 C 
ATOM     10  C   UNL A   1      31.046  23.834  23.846  1.00  0.00     0.017 C 
BRANCH   9  11
ATOM     11  C   UNL A   1      33.607  24.512  24.081  1.00  0.00     0.139 C 
ATOM     12  O   UNL A   1      33.470  25.602  23.499  1.00  0.00    -0.299 OA
BRANCH  11  13
ATOM     13  C   UNL A   1      35.055  23.973  24.186  1.00  0.00     0.056 C 
ATOM     14  C   UNL A   1      38.656  21.972  25.824  1.00  0.00     0.007 C 
ATOM     15  C   UNL A   1      37.224  22.402  25.525  1.00  0.00    -0.014 C 
ATOM     16  C   UNL A   1      36.859  22.168  24.056  1.00  0.00     0.004 C 
ATOM     17  C   UNL A   1      37.004  23.875  25.867  1.00  0.00     0.004 C 
ATOM     18  C   UNL A   1      35.394  22.535  23.800  1.00  0.00     0.012 C 
ATOM     19  C   UNL A   1      35.557  24.289  25.616  1.00  0.00     0.012 C 
ENDBRANCH  11  13
ENDBRANCH   9  11
ENDBRANCH   7   9
ENDBRANCH   4   7
ENDBRANCH   2   3
ENDBRANCH   1   2
BRANCH   1  20
ATOM     20  C   UNL A   1      33.169  27.830  26.903  1.00  0.00     0.023 C 
BRANCH  20  21
ATOM     21  C   UNL A   1      33.911  29.009  26.277  1.00  0.00     0.116 C 
BRANCH  21  22
ATOM     22  N   UNL A   1      33.765  30.239  27.041  1.00  0.00    -0.352 N 
ATOM     23  C   UNL A   1      34.607  30.777  27.986  1.00  0.00     0.251 C 
ATOM     24  H   UNL A   1      32.952  30.760  26.854  1.00  0.00     0.163 HD
ATOM     25  O   UNL A   1      34.268  31.758  28.634  1.00  0.00    -0.269 OA
BRANCH  23  26
ATOM     26  C   UNL A   1      35.913  30.134  28.237  1.00  0.00     0.039 A 
ATOM     27  C   UNL A   1      36.907  30.221  27.260  1.00  0.00     0.014 A 
ATOM     28  C   UNL A   1      36.165  29.488  29.450  1.00  0.00     0.014 A 
ATOM     29  C   UNL A   1      38.183  29.724  27.531  1.00  0.00     0.010 A 
ATOM     30  C   UNL A   1      37.455  29.060  29.746  1.00  0.00     0.010 A 
ATOM     31  C   UNL A   1      38.477  29.177  28.791  1.00  0.00    -0.014 A 
BRANCH  31  32
ATOM     32  C   UNL A   1      39.851  28.735  29.136  1.00  0.00     0.031 A 
ATOM     33  C   UNL A   1      40.785  29.664  29.861  1.00  0.00     0.074 A 
ATOM     34  C   UNL A   1      40.284  27.525  28.732  1.00  0.00     0.049 A 
ATOM     35  N   UNL A   1      42.037  29.480  30.193  1.00  0.00    -0.248 NA
ATOM     36  C   UNL A   1      40.249  30.981  30.240  1.00  0.00     0.031 C 
ATOM     37  C   UNL A   1      39.494  26.548  27.978  1.00  0.00     0.029 A 
ATOM     38  N   UNL A   1      41.503  26.914  28.891  1.00  0.00    -0.354 N 
ATOM     39  C   UNL A   1      42.444  30.662  30.798  1.00  0.00     0.074 A 
ATOM     40  C   UNL A   1      41.321  31.572  30.747  1.00  0.00     0.031 C 
ATOM     41  C   UNL A   1      40.240  25.452  27.762  1.00  0.00     0.029 A 
ATOM     42  C   UNL A   1      41.569  25.663  28.326  1.00  0.00     0.049 A 
ATOM     43  H   UNL A   1      42.257  27.332  29.364  1.00  0.00     0.167 HD
ATOM     44  C   UNL A   1      43.638  30.959  31.361  1.00  0.00     0.031 A 
ATOM     45  C   UNL A   1      42.588  24.785  28.263  1.00  0.00     0.031 A 
ATOM     46  C   UNL A   1      44.751  30.052  31.426  1.00  0.00     0.049 A 
ATOM     47  C   UNL A   1      43.904  25.138  28.896  1.00  0.00     0.074 A 
ATOM     48  C   UNL A   1      45.980  30.237  32.035  1.00  0.00     0.029 A 
ATOM     49  N   UNL A   1      44.773  28.787  30.856  1.00  0.00    -0.354 N 
ATOM     50  N   UNL A   1      44.248  26.231  29.532  1.00  0.00    -0.248 NA
ATOM     51  C   UNL A   1      44.970  24.129  28.812  1.00  0.00     0.031 C 
ATOM     52  C   UNL A   1      46.764  29.104  31.792  1.00  0.00     0.029 A 
ATOM     53  C   UNL A   1      46.002  28.191  31.079  1.00  0.00     0.049 A 
ATOM     54  H   UNL A   1      44.024  28.376  30.367  1.00  0.00     0.167 HD
ATOM     55  C   UNL A   1      45.558  26.033  29.945  1.00  0.00     0.074 A 
ATOM     56  C   UNL A   1      45.942  24.709  29.504  1.00  0.00     0.031 C 
ATOM     57  C   UNL A   1      46.370  26.873  30.632  1.00  0.00     0.031 A 
BRANCH  44  58
ATOM     58  C   UNL A   1      43.803  32.333  31.949  1.00  0.00    -0.014 A 
ATOM     59  C   UNL A   1      43.519  32.586  33.300  1.00  0.00     0.009 A 
ATOM     60  C   UNL A   1      44.282  33.382  31.149  1.00  0.00     0.009 A 
ATOM     61  C   UNL A   1      43.676  33.869  33.829  1.00  0.00     0.001 A 
ATOM     62  C   UNL A   1      44.467  34.657  31.687  1.00  0.00     0.001 A 
ATOM     63  C   UNL A   1      44.154  34.902  33.023  1.00  0.00     0.000 A 
ENDBRANCH  44  58
BRANCH  45  64
ATOM     64  C   UNL A   1      42.399  23.476  27.586  1.00  0.00    -0.014 A 
ATOM     65  C   UNL A   1      41.938  22.363  28.307  1.00  0.00     0.009 A 
ATOM     66  C   UNL A   1      42.682  23.329  26.219  1.00  0.00     0.009 A 
ATOM     67  C   UNL A   1      41.787  21.124  27.677  1.00  0.00     0.001 A 
ATOM     68  C   UNL A   1      42.503  22.097  25.587  1.00  0.00     0.001 A 
ATOM     69  C   UNL A   1      42.065  20.995  26.317  1.00  0.00     0.000 A 
ENDBRANCH  45  64
BRANCH  57  70
ATOM     70  C   UNL A   1      47.744  26.373  30.977  1.00  0.00    -0.014 A 
ATOM     71  C   UNL A   1      48.828  26.559  30.106  1.00  0.00     0.009 A 
ATOM     72  C   UNL A   1      47.963  25.745  32.213  1.00  0.00     0.009 A 
ATOM     73  C   UNL A   1      50.099  26.095  30.453  1.00  0.00     0.001 A 
ATOM     74  C   UNL A   1      49.240  25.309  32.570  1.00  0.00     0.001 A 
ATOM     75  C   UNL A   1      50.305  25.477  31.687  1.00  0.00     0.000 A 
ENDBRANCH  57  70
ENDBRANCH  31  32
ENDBRANCH  23  26
ENDBRANCH  21  22
ENDBRANCH  20  21
ENDBRANCH   1  20
TORSDOF 14
ENDMDL
MODEL 2
REMARK VINA RESULT:     -10.3      1.346      2.159
REMARK SMILES C[C@H](C(=O)NCCCCNC(=O)c1ccc(-c2c3nc(c(-c4ccccc4)c4ccc([nH]4)c(-c4ccccc4)c4nc(c(-c5ccccc5)c5ccc2[nH]5)C=C4)C=C3)cc1)[C@@H](C)C(=O)[C@H]1CC[C@H](C)CC1
REMARK SMILES IDX 7 1 6 2 5 3 3 4 4 5 2 7 1 8 61 9 62 10 63 11 64 12 65 13
REMARK SMILES IDX 69 14 68 15 67 16 70 17 66 18 71 19 8 20 9 21 10 22 11 23
REMARK SMILES IDX 12 25 13 26 14 27 60 28 15 29 59 30 16 31 17 32 18 33 53 34
REMARK SMILES IDX 19 35 58 36 52 37 54 38 20 39 57 40 51 41 50 42 21 44 43 45
REMARK SMILES IDX 28 46 42 47 29 48 32 49 41 50 55 51 30 52 31 53 40 55 56 56
REMARK SMILES IDX 33 57 22 58 23 59 27 60 24 61 26 62 25 63 44 64 45 65 49 66
REMARK SMILES IDX 46 67 48 68 47 69 34 70 35 71 39 72 36 73 38 74 37 75
REMARK H PARENT 5 6 10 24 54 43 32 54
REMARK Flexibility Score: inf
ROOT
ATOM      1  C   UNL A   1      31.993  29.570  25.626  1.00  0.00     0.023 C 
ENDROOT
BRANCH   1   2
ATOM      2  C   UNL A   1      32.626  29.316  24.264  1.00  0.00     0.116 C 
BRANCH   2   3
ATOM      3  N   UNL A   1      31.629  29.153  23.227  1.00  0.00    -0.356 N 
ATOM      4  C   UNL A   1      30.865  28.077  22.898  1.00  0.00     0.223 C 
ATOM      5  O   UNL A   1      30.029  28.217  22.003  1.00  0.00    -0.275 OA
ATOM      6  H   UNL A   1      31.481  29.951  22.670  1.00  0.00     0.163 HD
BRANCH   4   7
ATOM      7  C   UNL A   1      31.087  26.713  23.547  1.00  0.00     0.085 C 
ATOM      8  C   UNL A   1      29.873  26.384  24.434  1.00  0.00     0.019 C 
BRANCH   7   9
ATOM      9  C   UNL A   1      31.678  25.568  22.645  1.00  0.00     0.065 C 
ATOM     10  C   UNL A   1      32.645  26.102  21.600  1.00  0.00     0.017 C 
BRANCH   9  11
ATOM     11  C   UNL A   1      31.959  24.222  23.352  1.00  0.00     0.139 C 
ATOM     12  O   UNL A   1      31.134  23.309  23.181  1.00  0.00    -0.299 OA
BRANCH  11  13
ATOM     13  C   UNL A   1      33.192  23.873  24.224  1.00  0.00     0.056 C 
ATOM     14  C   UNL A   1      37.413  23.263  25.432  1.00  0.00     0.007 C 
ATOM     15  C   UNL A   1      36.136  23.733  24.742  1.00  0.00    -0.014 C 
ATOM     16  C   UNL A   1      35.185  24.423  25.724  1.00  0.00     0.004 C 
ATOM     17  C   UNL A   1      35.408  22.569  24.072  1.00  0.00     0.004 C 
ATOM     18  C   UNL A   1      33.948  24.954  24.992  1.00  0.00     0.012 C 
ATOM     19  C   UNL A   1      34.159  23.051  23.338  1.00  0.00     0.012 C 
ENDBRANCH  11  13
ENDBRANCH   9  11
ENDBRANCH   7   9
ENDBRANCH   4   7
ENDBRANCH   2   3
ENDBRANCH   1   2
BRANCH   1  20
ATOM     20  C   UNL A   1      32.307  28.497  26.671  1.00  0.00     0.023 C 
BRANCH  20  21
ATOM     21  C   UNL A   1      33.479  28.813  27.595  1.00  0.00     0.116 C 
BRANCH  21  22
ATOM     22  N   UNL A   1      33.567  30.225  27.938  1.00  0.00    -0.352 N 
ATOM     23  C   UNL A   1      34.637  30.931  28.435  1.00  0.00     0.251 C 
ATOM     24  H   UNL A   1      32.746  30.748  27.793  1.00  0.00     0.163 HD
ATOM     25  O   UNL A   1      34.502  32.092  28.797  1.00  0.00    -0.269 OA
BRANCH  23  26
ATOM     26  C   UNL A   1      35.947  30.261  28.561  1.00  0.00     0.039 A 
ATOM     27  C   UNL A   1      36.801  30.235  27.456  1.00  0.00     0.014 A 
ATOM     28  C   UNL A   1      36.343  29.700  29.777  1.00  0.00     0.014 A 
ATOM     29  C   UNL A   1      38.088  29.712  27.594  1.00  0.00     0.010 A 
ATOM     30  C   UNL A   1      37.650  29.246  29.932  1.00  0.00     0.010 A 
ATOM     31  C   UNL A   1      38.535  29.252  28.843  1.00  0.00    -0.014 A 
BRANCH  31  32
ATOM     32  C   UNL A   1      39.931  28.785  29.036  1.00  0.00     0.031 A 
ATOM     33  C   UNL A   1      40.978  29.728  29.562  1.00  0.00     0.074 A 
ATOM     34  C   UNL A   1      40.274  27.535  28.670  1.00  0.00     0.049 A 
ATOM     35  N   UNL A   1      42.258  29.522  29.739  1.00  0.00    -0.248 NA
ATOM     36  C   UNL A   1      40.532  31.087  29.910  1.00  0.00     0.031 C 
ATOM     37  C   UNL A   1      39.364  26.537  28.100  1.00  0.00     0.029 A 
ATOM     38  N   UNL A   1      41.486  26.893  28.712  1.00  0.00    -0.354 N 
ATOM     39  C   UNL A   1      42.773  30.729  30.197  1.00  0.00     0.074 A 
ATOM     40  C   UNL A   1      41.678  31.673  30.227  1.00  0.00     0.031 C 
ATOM     41  C   UNL A   1      40.045  25.403  27.870  1.00  0.00     0.029 A 
ATOM     42  C   UNL A   1      41.443  25.604  28.237  1.00  0.00     0.049 A 
ATOM     43  H   UNL A   1      42.308  27.316  29.049  1.00  0.00     0.167 HD
ATOM     44  C   UNL A   1      44.039  31.021  30.575  1.00  0.00     0.031 A 
ATOM     45  C   UNL A   1      42.421  24.687  28.106  1.00  0.00     0.031 A 
ATOM     46  C   UNL A   1      45.126  30.080  30.560  1.00  0.00     0.049 A 
ATOM     47  C   UNL A   1      43.818  25.036  28.533  1.00  0.00     0.074 A 
ATOM     48  C   UNL A   1      46.430  30.262  30.987  1.00  0.00     0.029 A 
ATOM     49  N   UNL A   1      45.038  28.779  30.088  1.00  0.00    -0.354 N 
ATOM     50  N   UNL A   1      44.273  26.158  29.036  1.00  0.00    -0.248 NA
ATOM     51  C   UNL A   1      44.836  23.986  28.385  1.00  0.00     0.031 C 
ATOM     52  C   UNL A   1      47.144  29.088  30.728  1.00  0.00     0.029 A 
ATOM     53  C   UNL A   1      46.269  28.156  30.191  1.00  0.00     0.049 A 
ATOM     54  H   UNL A   1      44.220  28.362  29.733  1.00  0.00     0.167 HD
ATOM     55  C   UNL A   1      45.621  25.941  29.287  1.00  0.00     0.074 A 
ATOM     56  C   UNL A   1      45.907  24.576  28.898  1.00  0.00     0.031 C 
ATOM     57  C   UNL A   1      46.539  26.797  29.798  1.00  0.00     0.031 A 
BRANCH  44  58
ATOM     58  C   UNL A   1      44.318  32.425  31.034  1.00  0.00    -0.014 A 
ATOM     59  C   UNL A   1      44.706  33.423  30.127  1.00  0.00     0.009 A 
ATOM     60  C   UNL A   1      44.156  32.763  32.387  1.00  0.00     0.009 A 
ATOM     61  C   UNL A   1      44.962  34.723  30.570  1.00  0.00     0.001 A 
ATOM     62  C   UNL A   1      44.384  34.069  32.823  1.00  0.00     0.001 A 
ATOM     63  C   UNL A   1      44.796  35.045  31.917  1.00  0.00     0.000 A 
ENDBRANCH  44  58
BRANCH  45  64
ATOM     64  C   UNL A   1      42.108  23.342  27.558  1.00  0.00    -0.014 A 
ATOM     65  C   UNL A   1      42.387  23.038  26.216  1.00  0.00     0.009 A 
ATOM     66  C   UNL A   1      41.527  22.356  28.371  1.00  0.00     0.009 A 
ATOM     67  C   UNL A   1      42.067  21.782  25.694  1.00  0.00     0.001 A 
ATOM     68  C   UNL A   1      41.235  21.092  27.853  1.00  0.00     0.001 A 
ATOM     69  C   UNL A   1      41.496  20.809  26.514  1.00  0.00     0.000 A 
ENDBRANCH  45  64
BRANCH  57  70
ATOM     70  C   UNL A   1      47.933  26.272  29.995  1.00  0.00    -0.014 A 
ATOM     71  C   UNL A   1      48.365  25.799  31.243  1.00  0.00     0.009 A 
ATOM     72  C   UNL A   1      48.812  26.212  28.902  1.00  0.00     0.009 A 
ATOM     73  C   UNL A   1      49.662  25.305  31.399  1.00  0.00     0.001 A 
ATOM     74  C   UNL A   1      50.097  25.691  29.054  1.00  0.00     0.001 A 
ATOM     75  C   UNL A   1      50.524  25.245  30.305  1.00  0.00     0.000 A 
ENDBRANCH  57  70
ENDBRANCH  31  32
ENDBRANCH  23  26
ENDBRANCH  21  22
ENDBRANCH  20  21
ENDBRANCH   1  20
TORSDOF 14
ENDMDL
MODEL 3
REMARK VINA RESULT:     -10.2      3.199      5.441
REMARK SMILES C[C@H](C(=O)NCCCCNC(=O)c1ccc(-c2c3nc(c(-c4ccccc4)c4ccc([nH]4)c(-c4ccccc4)c4nc(c(-c5ccccc5)c5ccc2[nH]5)C=C4)C=C3)cc1)[C@@H](C)C(=O)[C@H]1CC[C@H](C)CC1
REMARK SMILES IDX 7 1 6 2 5 3 3 4 4 5 2 7 1 8 61 9 62 10 63 11 64 12 65 13
REMARK SMILES IDX 69 14 68 15 67 16 70 17 66 18 71 19 8 20 9 21 10 22 11 23
REMARK SMILES IDX 12 25 13 26 14 27 60 28 15 29 59 30 16 31 17 32 18 33 53 34
REMARK SMILES IDX 19 35 58 36 52 37 54 38 20 39 57 40 51 41 50 42 21 44 43 45
REMARK SMILES IDX 28 46 42 47 29 48 32 49 41 50 55 51 30 52 31 53 40 55 56 56
REMARK SMILES IDX 33 57 22 58 23 59 27 60 24 61 26 62 25 63 44 64 45 65 49 66
REMARK SMILES IDX 46 67 48 68 47 69 34 70 35 71 39 72 36 73 38 74 37 75
REMARK H PARENT 5 6 10 24 54 43 32 54
REMARK Flexibility Score: inf
ROOT
ATOM      1  C   UNL A   1      31.717  30.424  26.037  1.00  0.00     0.023 C 
ENDROOT
BRANCH   1   2
ATOM      2  C   UNL A   1      32.331  29.432  27.017  1.00  0.00     0.116 C 
BRANCH   2   3
ATOM      3  N   UNL A   1      31.497  28.262  27.194  1.00  0.00    -0.356 N 
ATOM      4  C   UNL A   1      31.358  27.152  26.419  1.00  0.00     0.223 C 
ATOM      5  O   UNL A   1      30.621  26.252  26.830  1.00  0.00    -0.275 OA
ATOM      6  H   UNL A   1      30.942  28.271  28.006  1.00  0.00     0.163 HD
BRANCH   4   7
ATOM      7  C   UNL A   1      32.015  27.050  25.045  1.00  0.00     0.085 C 
ATOM      8  C   UNL A   1      33.472  26.589  25.227  1.00  0.00     0.019 C 
BRANCH   7   9
ATOM      9  C   UNL A   1      31.172  26.405  23.884  1.00  0.00     0.065 C 
ATOM     10  C   UNL A   1      31.502  24.934  23.684  1.00  0.00     0.017 C 
BRANCH   9  11
ATOM     11  C   UNL A   1      29.715  26.903  23.744  1.00  0.00     0.139 C 
ATOM     12  O   UNL A   1      28.811  26.087  23.990  1.00  0.00    -0.299 OA
BRANCH  11  13
ATOM     13  C   UNL A   1      29.257  28.334  23.366  1.00  0.00     0.056 C 
ATOM     14  C   UNL A   1      28.098  31.833  20.903  1.00  0.00     0.007 C 
ATOM     15  C   UNL A   1      28.376  30.421  21.410  1.00  0.00    -0.014 C 
ATOM     16  C   UNL A   1      27.549  30.097  22.657  1.00  0.00     0.004 C 
ATOM     17  C   UNL A   1      29.858  30.227  21.726  1.00  0.00     0.004 C 
ATOM     18  C   UNL A   1      27.787  28.650  23.100  1.00  0.00     0.012 C 
ATOM     19  C   UNL A   1      30.141  28.798  22.183  1.00  0.00     0.012 C 
ENDBRANCH  11  13
ENDBRANCH   9  11
ENDBRANCH   7   9
ENDBRANCH   4   7
ENDBRANCH   2   3
ENDBRANCH   1   2
BRANCH   1  20
ATOM     20  C   UNL A   1      31.454  31.808  26.631  1.00  0.00     0.023 C 
BRANCH  20  21
ATOM     21  C   UNL A   1      32.680  32.512  27.208  1.00  0.00     0.116 C 
BRANCH  21  22
ATOM     22  N   UNL A   1      32.416  33.891  27.588  1.00  0.00    -0.352 N 
ATOM     23  C   UNL A   1      33.090  34.687  28.485  1.00  0.00     0.251 C 
ATOM     24  H   UNL A   1      31.648  34.314  27.143  1.00  0.00     0.163 HD
ATOM     25  O   UNL A   1      32.654  35.789  28.789  1.00  0.00    -0.269 OA
BRANCH  23  26
ATOM     26  C   UNL A   1      34.333  34.182  29.104  1.00  0.00     0.039 A 
ATOM     27  C   UNL A   1      34.256  33.523  30.333  1.00  0.00     0.014 A 
ATOM     28  C   UNL A   1      35.559  34.322  28.449  1.00  0.00     0.014 A 
ATOM     29  C   UNL A   1      35.403  32.937  30.871  1.00  0.00     0.010 A 
ATOM     30  C   UNL A   1      36.684  33.673  28.950  1.00  0.00     0.010 A 
ATOM     31  C   UNL A   1      36.615  32.972  30.164  1.00  0.00    -0.014 A 
BRANCH  31  32
ATOM     32  C   UNL A   1      37.821  32.269  30.669  1.00  0.00     0.031 A 
ATOM     33  C   UNL A   1      38.604  32.841  31.818  1.00  0.00     0.074 A 
ATOM     34  C   UNL A   1      38.254  31.156  30.047  1.00  0.00     0.049 A 
ATOM     35  N   UNL A   1      39.715  32.406  32.356  1.00  0.00    -0.248 NA
ATOM     36  C   UNL A   1      38.086  34.079  32.424  1.00  0.00     0.031 C 
ATOM     37  C   UNL A   1      37.613  30.525  28.890  1.00  0.00     0.029 A 
ATOM     38  N   UNL A   1      39.345  30.361  30.295  1.00  0.00    -0.354 N 
ATOM     39  C   UNL A   1      40.038  33.324  33.347  1.00  0.00     0.074 A 
ATOM     40  C   UNL A   1      39.033  34.364  33.305  1.00  0.00     0.031 C 
ATOM     41  C   UNL A   1      38.308  29.429  28.546  1.00  0.00     0.029 A 
ATOM     42  C   UNL A   1      39.462  29.300  29.429  1.00  0.00     0.049 A 
ATOM     43  H   UNL A   1      39.983  30.534  31.024  1.00  0.00     0.167 HD
ATOM     44  C   UNL A   1      41.068  33.297  34.224  1.00  0.00     0.031 A 
ATOM     45  C   UNL A   1      40.398  28.335  29.351  1.00  0.00     0.031 A 
ATOM     46  C   UNL A   1      42.060  32.258  34.277  1.00  0.00     0.049 A 
ATOM     47  C   UNL A   1      41.531  28.326  30.337  1.00  0.00     0.074 A 
ATOM     48  C   UNL A   1      43.103  32.107  35.174  1.00  0.00     0.029 A 
ATOM     49  N   UNL A   1      42.134  31.192  33.393  1.00  0.00    -0.354 N 
ATOM     50  N   UNL A   1      41.780  29.161  31.316  1.00  0.00    -0.248 NA
ATOM     51  C   UNL A   1      42.508  27.235  30.213  1.00  0.00     0.031 C 
ATOM     52  C   UNL A   1      43.839  30.977  34.802  1.00  0.00     0.029 A 
ATOM     53  C   UNL A   1      43.220  30.393  33.709  1.00  0.00     0.049 A 
ATOM     54  H   UNL A   1      41.507  31.028  32.653  1.00  0.00     0.167 HD
ATOM     55  C   UNL A   1      42.925  28.682  31.940  1.00  0.00     0.074 A 
ATOM     56  C   UNL A   1      43.311  27.476  31.240  1.00  0.00     0.031 C 
ATOM     57  C   UNL A   1      43.593  29.196  33.001  1.00  0.00     0.031 A 
BRANCH  44  58
ATOM     58  C   UNL A   1      41.177  34.437  35.199  1.00  0.00    -0.014 A 
ATOM     59  C   UNL A   1      41.977  35.557  34.923  1.00  0.00     0.009 A 
ATOM     60  C   UNL A   1      40.442  34.406  36.394  1.00  0.00     0.009 A 
ATOM     61  C   UNL A   1      42.067  36.606  35.841  1.00  0.00     0.001 A 
ATOM     62  C   UNL A   1      40.510  35.469  37.296  1.00  0.00     0.001 A 
ATOM     63  C   UNL A   1      41.330  36.563  37.024  1.00  0.00     0.000 A 
ENDBRANCH  44  58
BRANCH  45  64
ATOM     64  C   UNL A   1      40.293  27.283  28.307  1.00  0.00    -0.014 A 
ATOM     65  C   UNL A   1      39.569  26.105  28.554  1.00  0.00     0.009 A 
ATOM     66  C   UNL A   1      40.918  27.447  27.060  1.00  0.00     0.009 A 
ATOM     67  C   UNL A   1      39.495  25.103  27.582  1.00  0.00     0.001 A 
ATOM     68  C   UNL A   1      40.817  26.455  26.082  1.00  0.00     0.001 A 
ATOM     69  C   UNL A   1      40.114  25.282  26.346  1.00  0.00     0.000 A 
ENDBRANCH  45  64
BRANCH  57  70
ATOM     70  C   UNL A   1      44.795  28.437  33.490  1.00  0.00    -0.014 A 
ATOM     71  C   UNL A   1      44.685  27.465  34.495  1.00  0.00     0.009 A 
ATOM     72  C   UNL A   1      46.047  28.671  32.901  1.00  0.00     0.009 A 
ATOM     73  C   UNL A   1      45.814  26.764  34.923  1.00  0.00     0.001 A 
ATOM     74  C   UNL A   1      47.169  27.949  33.312  1.00  0.00     0.001 A 
ATOM     75  C   UNL A   1      47.053  27.002  34.329  1.00  0.00     0.000 A 
ENDBRANCH  57  70
ENDBRANCH  31  32
ENDBRANCH  23  26
ENDBRANCH  21  22
ENDBRANCH  20  21
ENDBRANCH   1  20
TORSDOF 14
ENDMDL
