MODEL 1
REMARK VINA RESULT:     -11.4      0.000      0.000
REMARK SMILES O=C(NCCCCNC(=O)C(Cl)(c1ccccc1)c1ccccc1)c1ccc(-c2c3nc(c(-c4ccccc4)c4ccc([nH]4)c(-c4ccccc4)c4nc(c(-c5ccccc5)c5ccc2[nH]5)C=C4)C=C3)cc1
REMARK SMILES IDX 5 1 4 2 3 3 1 4 2 5 25 7 26 8 72 9 27 10 71 11 28 12 29 13
REMARK SMILES IDX 30 14 65 15 31 16 70 17 64 18 66 19 32 20 69 21 63 22 62 23
REMARK SMILES IDX 33 25 55 26 40 27 54 28 41 29 44 30 53 31 67 32 42 33 43 34
REMARK SMILES IDX 52 36 68 37 45 38 34 39 35 40 39 41 36 42 38 43 37 44 56 45
REMARK SMILES IDX 57 46 61 47 58 48 60 49 59 50 46 51 47 52 51 53 48 54 50 55
REMARK SMILES IDX 49 56 6 57 7 58 8 59 9 60 10 62 11 63 12 64 13 65 14 66
REMARK SMILES IDX 18 67 15 68 17 69 16 70 19 71 20 72 24 73 21 74 23 75 22 76
REMARK H PARENT 3 6 66 24 44 35 8 61
REMARK Flexibility Score: inf
ROOT
ATOM      1  C   UNL A   1      37.943  19.639  24.794  1.00  0.00     0.023 C 
ENDROOT
BRANCH   1   2
ATOM      2  C   UNL A   1      39.045  19.995  25.783  1.00  0.00     0.116 C 
BRANCH   2   3
ATOM      3  N   UNL A   1      40.097  18.992  25.838  1.00  0.00    -0.352 N 
ATOM      4  O   UNL A   1      42.235  18.264  25.967  1.00  0.00    -0.269 OA
ATOM      5  C   UNL A   1      41.431  19.181  26.097  1.00  0.00     0.251 C 
ATOM      6  H   UNL A   1      39.818  18.064  25.669  1.00  0.00     0.163 HD
BRANCH   5   7
ATOM      7  C   UNL A   1      41.888  20.516  26.522  1.00  0.00     0.039 A 
ATOM      8  C   UNL A   1      42.355  21.430  25.573  1.00  0.00     0.014 A 
ATOM      9  C   UNL A   1      41.858  20.848  27.878  1.00  0.00     0.014 A 
ATOM     10  C   UNL A   1      42.883  22.645  25.991  1.00  0.00     0.010 A 
ATOM     11  C   UNL A   1      42.320  22.100  28.289  1.00  0.00     0.010 A 
ATOM     12  C   UNL A   1      42.840  23.002  27.348  1.00  0.00    -0.014 A 
BRANCH  12  13
ATOM     13  C   UNL A   1      43.210  24.381  27.744  1.00  0.00     0.031 A 
ATOM     14  C   UNL A   1      42.171  25.403  28.094  1.00  0.00     0.074 A 
ATOM     15  C   UNL A   1      44.519  24.697  27.758  1.00  0.00     0.049 A 
ATOM     16  N   UNL A   1      42.341  26.659  28.423  1.00  0.00    -0.248 NA
ATOM     17  C   UNL A   1      40.765  24.972  28.069  1.00  0.00     0.031 C 
ATOM     18  C   UNL A   1      45.612  23.779  27.418  1.00  0.00     0.029 A 
ATOM     19  N   UNL A   1      45.156  25.868  28.067  1.00  0.00    -0.354 N 
ATOM     20  C   UNL A   1      41.066  27.176  28.620  1.00  0.00     0.074 A 
ATOM     21  C   UNL A   1      40.131  26.100  28.368  1.00  0.00     0.031 C 
ATOM     22  C   UNL A   1      46.782  24.415  27.560  1.00  0.00     0.029 A 
ATOM     23  C   UNL A   1      46.522  25.799  27.932  1.00  0.00     0.049 A 
ATOM     24  H   UNL A   1      44.683  26.682  28.358  1.00  0.00     0.167 HD
ATOM     25  C   UNL A   1      40.719  28.434  28.976  1.00  0.00     0.031 A 
ATOM     26  C   UNL A   1      47.462  26.753  28.053  1.00  0.00     0.031 A 
ATOM     27  C   UNL A   1      41.662  29.493  29.231  1.00  0.00     0.049 A 
ATOM     28  C   UNL A   1      47.036  28.146  28.403  1.00  0.00     0.074 A 
ATOM     29  C   UNL A   1      41.409  30.782  29.671  1.00  0.00     0.029 A 
ATOM     30  N   UNL A   1      43.032  29.391  29.055  1.00  0.00    -0.354 N 
ATOM     31  N   UNL A   1      45.833  28.599  28.660  1.00  0.00    -0.248 NA
ATOM     32  C   UNL A   1      48.093  29.162  28.470  1.00  0.00     0.031 C 
ATOM     33  C   UNL A   1      42.621  31.478  29.698  1.00  0.00     0.029 A 
ATOM     34  C   UNL A   1      43.634  30.610  29.328  1.00  0.00     0.049 A 
ATOM     35  H   UNL A   1      43.508  28.576  28.777  1.00  0.00     0.167 HD
ATOM     36  C   UNL A   1      45.990  29.951  28.924  1.00  0.00     0.074 A 
ATOM     37  C   UNL A   1      47.406  30.238  28.826  1.00  0.00     0.031 C 
ATOM     38  C   UNL A   1      45.043  30.876  29.212  1.00  0.00     0.031 A 
BRANCH  25  39
ATOM     39  C   UNL A   1      39.257  28.764  29.085  1.00  0.00    -0.014 A 
ATOM     40  C   UNL A   1      38.563  28.623  30.296  1.00  0.00     0.009 A 
ATOM     41  C   UNL A   1      38.592  29.321  27.980  1.00  0.00     0.009 A 
ATOM     42  C   UNL A   1      37.228  29.021  30.393  1.00  0.00     0.001 A 
ATOM     43  C   UNL A   1      37.264  29.737  28.088  1.00  0.00     0.001 A 
ATOM     44  C   UNL A   1      36.581  29.585  29.292  1.00  0.00     0.000 A 
ENDBRANCH  25  39
BRANCH  26  45
ATOM     45  C   UNL A   1      48.885  26.431  27.778  1.00  0.00    -0.014 A 
ATOM     46  C   UNL A   1      49.745  26.034  28.811  1.00  0.00     0.009 A 
ATOM     47  C   UNL A   1      49.390  26.520  26.470  1.00  0.00     0.009 A 
ATOM     48  C   UNL A   1      51.088  25.759  28.544  1.00  0.00     0.001 A 
ATOM     49  C   UNL A   1      50.725  26.215  26.201  1.00  0.00     0.001 A 
ATOM     50  C   UNL A   1      51.575  25.845  27.240  1.00  0.00     0.000 A 
ENDBRANCH  26  45
BRANCH  38  51
ATOM     51  C   UNL A   1      45.516  32.280  29.442  1.00  0.00    -0.014 A 
ATOM     52  C   UNL A   1      45.910  32.706  30.721  1.00  0.00     0.009 A 
ATOM     53  C   UNL A   1      45.599  33.177  28.366  1.00  0.00     0.009 A 
ATOM     54  C   UNL A   1      46.353  34.014  30.921  1.00  0.00     0.001 A 
ATOM     55  C   UNL A   1      46.068  34.475  28.565  1.00  0.00     0.001 A 
ATOM     56  C   UNL A   1      46.437  34.894  29.843  1.00  0.00     0.000 A 
ENDBRANCH  38  51
ENDBRANCH  12  13
ENDBRANCH   5   7
ENDBRANCH   2   3
ENDBRANCH   1   2
BRANCH   1  57
ATOM     57  C   UNL A   1      36.628  20.388  25.010  1.00  0.00     0.023 C 
BRANCH  57  58
ATOM     58  C   UNL A   1      36.800  21.822  25.500  1.00  0.00     0.116 C 
BRANCH  58  59
ATOM     59  N   UNL A   1      35.899  22.118  26.603  1.00  0.00    -0.354 N 
ATOM     60  C   UNL A   1      34.717  22.822  26.626  1.00  0.00     0.250 C 
ATOM     61  H   UNL A   1      36.181  21.757  27.474  1.00  0.00     0.163 HD
ATOM     62  O   UNL A   1      34.171  22.887  27.734  1.00  0.00    -0.272 OA
BRANCH  60  63
ATOM     63  C   UNL A   1      34.086  23.445  25.321  1.00  0.00     0.173 C 
ATOM     64  Cl  UNL A   1      35.537  24.134  24.412  1.00  0.00    -0.098 Cl
BRANCH  63  65
ATOM     65  C   UNL A   1      33.395  22.388  24.418  1.00  0.00    -0.013 A 
ATOM     66  C   UNL A   1      33.010  22.713  23.103  1.00  0.00     0.006 A 
ATOM     67  C   UNL A   1      33.052  21.107  24.898  1.00  0.00     0.006 A 
ATOM     68  C   UNL A   1      32.360  21.782  22.290  1.00  0.00     0.000 A 
ATOM     69  C   UNL A   1      32.409  20.175  24.081  1.00  0.00     0.000 A 
ATOM     70  C   UNL A   1      32.068  20.512  22.775  1.00  0.00     0.000 A 
ENDBRANCH  63  65
BRANCH  63  71
ATOM     71  C   UNL A   1      33.083  24.583  25.660  1.00  0.00    -0.013 A 
ATOM     72  C   UNL A   1      33.572  25.885  25.898  1.00  0.00     0.006 A 
ATOM     73  C   UNL A   1      31.692  24.392  25.774  1.00  0.00     0.006 A 
ATOM     74  C   UNL A   1      32.723  26.926  26.283  1.00  0.00     0.000 A 
ATOM     75  C   UNL A   1      30.844  25.434  26.159  1.00  0.00     0.000 A 
ATOM     76  C   UNL A   1      31.359  26.696  26.424  1.00  0.00     0.000 A 
ENDBRANCH  63  71
ENDBRANCH  60  63
ENDBRANCH  58  59
ENDBRANCH  57  58
ENDBRANCH   1  57
TORSDOF 13
ENDMDL
MODEL 2
REMARK VINA RESULT:     -11.3      4.989      9.826
REMARK SMILES O=C(NCCCCNC(=O)C(Cl)(c1ccccc1)c1ccccc1)c1ccc(-c2c3nc(c(-c4ccccc4)c4ccc([nH]4)c(-c4ccccc4)c4nc(c(-c5ccccc5)c5ccc2[nH]5)C=C4)C=C3)cc1
REMARK SMILES IDX 5 1 4 2 3 3 1 4 2 5 25 7 26 8 72 9 27 10 71 11 28 12 29 13
REMARK SMILES IDX 30 14 65 15 31 16 70 17 64 18 66 19 32 20 69 21 63 22 62 23
REMARK SMILES IDX 33 25 55 26 40 27 54 28 41 29 44 30 53 31 67 32 42 33 43 34
REMARK SMILES IDX 52 36 68 37 45 38 34 39 35 40 39 41 36 42 38 43 37 44 56 45
REMARK SMILES IDX 57 46 61 47 58 48 60 49 59 50 46 51 47 52 51 53 48 54 50 55
REMARK SMILES IDX 49 56 6 57 7 58 8 59 9 60 10 62 11 63 12 64 13 65 14 66
REMARK SMILES IDX 18 67 15 68 17 69 16 70 19 71 20 72 24 73 21 74 23 75 22 76
REMARK H PARENT 3 6 66 24 44 35 8 61
REMARK Flexibility Score: inf
ROOT
ATOM      1  C   UNL A   1      31.294  32.007  26.516  1.00  0.00     0.023 C 
ENDROOT
BRANCH   1   2
ATOM      2  C   UNL A   1      32.501  32.614  27.220  1.00  0.00     0.116 C 
BRANCH   2   3
ATOM      3  N   UNL A   1      32.287  33.999  27.609  1.00  0.00    -0.352 N 
ATOM      4  O   UNL A   1      32.632  35.861  28.846  1.00  0.00    -0.269 OA
ATOM      5  C   UNL A   1      33.011  34.747  28.502  1.00  0.00     0.251 C 
ATOM      6  H   UNL A   1      31.530  34.457  27.177  1.00  0.00     0.163 HD
BRANCH   5   7
ATOM      7  C   UNL A   1      34.254  34.180  29.057  1.00  0.00     0.039 A 
ATOM      8  C   UNL A   1      34.214  33.429  30.235  1.00  0.00     0.014 A 
ATOM      9  C   UNL A   1      35.464  34.411  28.398  1.00  0.00     0.014 A 
ATOM     10  C   UNL A   1      35.400  32.988  30.809  1.00  0.00     0.010 A 
ATOM     11  C   UNL A   1      36.646  33.903  28.937  1.00  0.00     0.010 A 
ATOM     12  C   UNL A   1      36.621  33.194  30.148  1.00  0.00    -0.014 A 
BRANCH  12  13
ATOM     13  C   UNL A   1      37.842  32.535  30.666  1.00  0.00     0.031 A 
ATOM     14  C   UNL A   1      38.391  31.289  30.036  1.00  0.00     0.074 A 
ATOM     15  C   UNL A   1      38.438  33.081  31.743  1.00  0.00     0.049 A 
ATOM     16  N   UNL A   1      39.428  30.580  30.401  1.00  0.00    -0.248 NA
ATOM     17  C   UNL A   1      37.689  30.767  28.853  1.00  0.00     0.031 C 
ATOM     18  C   UNL A   1      37.976  34.285  32.443  1.00  0.00     0.029 A 
ATOM     19  N   UNL A   1      39.554  32.702  32.440  1.00  0.00    -0.354 N 
ATOM     20  C   UNL A   1      39.492  29.515  29.511  1.00  0.00     0.074 A 
ATOM     21  C   UNL A   1      38.384  29.666  28.591  1.00  0.00     0.031 C 
ATOM     22  C   UNL A   1      38.814  34.556  33.452  1.00  0.00     0.029 A 
ATOM     23  C   UNL A   1      39.828  33.513  33.515  1.00  0.00     0.049 A 
ATOM     24  H   UNL A   1      40.107  31.924  32.196  1.00  0.00     0.167 HD
ATOM     25  C   UNL A   1      40.394  28.506  29.475  1.00  0.00     0.031 A 
ATOM     26  C   UNL A   1      40.767  33.409  34.471  1.00  0.00     0.031 A 
ATOM     27  C   UNL A   1      41.496  28.372  30.393  1.00  0.00     0.049 A 
ATOM     28  C   UNL A   1      41.719  32.254  34.426  1.00  0.00     0.074 A 
ATOM     29  C   UNL A   1      42.507  27.426  30.389  1.00  0.00     0.029 A 
ATOM     30  N   UNL A   1      41.721  29.196  31.483  1.00  0.00    -0.354 N 
ATOM     31  N   UNL A   1      41.812  31.299  33.534  1.00  0.00    -0.248 NA
ATOM     32  C   UNL A   1      42.691  32.155  35.522  1.00  0.00     0.031 C 
ATOM     33  C   UNL A   1      43.307  27.640  31.516  1.00  0.00     0.029 A 
ATOM     34  C   UNL A   1      42.826  28.750  32.190  1.00  0.00     0.049 A 
ATOM     35  H   UNL A   1      41.178  29.982  31.721  1.00  0.00     0.167 HD
ATOM     36  C   UNL A   1      42.854  30.488  33.958  1.00  0.00     0.074 A 
ATOM     37  C   UNL A   1      43.382  31.081  35.171  1.00  0.00     0.031 C 
ATOM     38  C   UNL A   1      43.326  29.348  33.400  1.00  0.00     0.031 A 
BRANCH  25  39
ATOM     39  C   UNL A   1      40.224  27.438  28.431  1.00  0.00    -0.014 A 
ATOM     40  C   UNL A   1      40.820  27.549  27.167  1.00  0.00     0.009 A 
ATOM     41  C   UNL A   1      39.539  26.257  28.760  1.00  0.00     0.009 A 
ATOM     42  C   UNL A   1      40.722  26.502  26.247  1.00  0.00     0.001 A 
ATOM     43  C   UNL A   1      39.461  25.204  27.846  1.00  0.00     0.001 A 
ATOM     44  C   UNL A   1      40.050  25.328  26.590  1.00  0.00     0.000 A 
ENDBRANCH  25  39
BRANCH  26  45
ATOM     45  C   UNL A   1      40.805  34.393  35.583  1.00  0.00    -0.014 A 
ATOM     46  C   UNL A   1      40.047  34.193  36.745  1.00  0.00     0.009 A 
ATOM     47  C   UNL A   1      41.606  35.542  35.483  1.00  0.00     0.009 A 
ATOM     48  C   UNL A   1      40.070  35.139  37.773  1.00  0.00     0.001 A 
ATOM     49  C   UNL A   1      41.652  36.469  36.525  1.00  0.00     0.001 A 
ATOM     50  C   UNL A   1      40.875  36.272  37.664  1.00  0.00     0.000 A 
ENDBRANCH  26  45
BRANCH  38  51
ATOM     51  C   UNL A   1      44.470  28.674  34.098  1.00  0.00    -0.014 A 
ATOM     52  C   UNL A   1      44.239  27.680  35.062  1.00  0.00     0.009 A 
ATOM     53  C   UNL A   1      45.790  29.014  33.767  1.00  0.00     0.009 A 
ATOM     54  C   UNL A   1      45.312  27.058  35.700  1.00  0.00     0.001 A 
ATOM     55  C   UNL A   1      46.860  28.370  34.388  1.00  0.00     0.001 A 
ATOM     56  C   UNL A   1      46.620  27.399  35.359  1.00  0.00     0.000 A 
ENDBRANCH  38  51
ENDBRANCH  12  13
ENDBRANCH   5   7
ENDBRANCH   2   3
ENDBRANCH   1   2
BRANCH   1  57
ATOM     57  C   UNL A   1      31.546  30.637  25.887  1.00  0.00     0.023 C 
BRANCH  57  58
ATOM     58  C   UNL A   1      32.924  30.056  26.189  1.00  0.00     0.116 C 
BRANCH  58  59
ATOM     59  N   UNL A   1      33.610  29.656  24.970  1.00  0.00    -0.354 N 
ATOM     60  C   UNL A   1      33.692  28.428  24.354  1.00  0.00     0.250 C 
ATOM     61  H   UNL A   1      34.095  30.380  24.513  1.00  0.00     0.163 HD
ATOM     62  O   UNL A   1      34.350  28.414  23.307  1.00  0.00    -0.272 OA
BRANCH  60  63
ATOM     63  C   UNL A   1      32.951  27.155  24.920  1.00  0.00     0.173 C 
ATOM     64  Cl  UNL A   1      33.051  27.360  26.751  1.00  0.00    -0.098 Cl
BRANCH  63  65
ATOM     65  C   UNL A   1      31.454  27.094  24.511  1.00  0.00    -0.013 A 
ATOM     66  C   UNL A   1      30.590  26.151  25.100  1.00  0.00     0.006 A 
ATOM     67  C   UNL A   1      30.927  27.910  23.488  1.00  0.00     0.006 A 
ATOM     68  C   UNL A   1      29.249  26.064  24.720  1.00  0.00     0.000 A 
ATOM     69  C   UNL A   1      29.583  27.827  23.115  1.00  0.00     0.000 A 
ATOM     70  C   UNL A   1      28.744  26.907  23.736  1.00  0.00     0.000 A 
ENDBRANCH  63  65
BRANCH  63  71
ATOM     71  C   UNL A   1      33.666  25.843  24.492  1.00  0.00    -0.013 A 
ATOM     72  C   UNL A   1      34.634  25.274  25.348  1.00  0.00     0.006 A 
ATOM     73  C   UNL A   1      33.427  25.183  23.271  1.00  0.00     0.006 A 
ATOM     74  C   UNL A   1      35.361  24.140  24.978  1.00  0.00     0.000 A 
ATOM     75  C   UNL A   1      34.156  24.048  22.902  1.00  0.00     0.000 A 
ATOM     76  C   UNL A   1      35.129  23.534  23.748  1.00  0.00     0.000 A 
ENDBRANCH  63  71
ENDBRANCH  60  63
ENDBRANCH  58  59
ENDBRANCH  57  58
ENDBRANCH   1  57
TORSDOF 13
ENDMDL
MODEL 3
REMARK VINA RESULT:     -11.2      1.184      6.166
REMARK SMILES O=C(NCCCCNC(=O)C(Cl)(c1ccccc1)c1ccccc1)c1ccc(-c2c3nc(c(-c4ccccc4)c4ccc([nH]4)c(-c4ccccc4)c4nc(c(-c5ccccc5)c5ccc2[nH]5)C=C4)C=C3)cc1
REMARK SMILES IDX 5 1 4 2 3 3 1 4 2 5 25 7 26 8 72 9 27 10 71 11 28 12 29 13
REMARK SMILES IDX 30 14 65 15 31 16 70 17 64 18 66 19 32 20 69 21 63 22 62 23
REMARK SMILES IDX 33 25 55 26 40 27 54 28 41 29 44 30 53 31 67 32 42 33 43 34
REMARK SMILES IDX 52 36 68 37 45 38 34 39 35 40 39 41 36 42 38 43 37 44 56 45
REMARK SMILES IDX 57 46 61 47 58 48 60 49 59 50 46 51 47 52 51 53 48 54 50 55
REMARK SMILES IDX 49 56 6 57 7 58 8 59 9 60 10 62 11 63 12 64 13 65 14 66
REMARK SMILES IDX 18 67 15 68 17 69 16 70 19 71 20 72 24 73 21 74 23 75 22 76
REMARK H PARENT 3 6 66 24 44 35 8 61
REMARK Flexibility Score: inf
ROOT
ATOM      1  C   UNL A   1      37.875  19.436  24.964  1.00  0.00     0.023 C 
ENDROOT
BRANCH   1   2
ATOM      2  C   UNL A   1      39.064  20.098  25.648  1.00  0.00     0.116 C 
BRANCH   2   3
ATOM      3  N   UNL A   1      40.211  19.212  25.764  1.00  0.00    -0.352 N 
ATOM      4  O   UNL A   1      42.400  18.712  26.042  1.00  0.00    -0.269 OA
ATOM      5  C   UNL A   1      41.494  19.535  26.126  1.00  0.00     0.251 C 
ATOM      6  H   UNL A   1      40.046  18.263  25.559  1.00  0.00     0.163 HD
BRANCH   5   7
ATOM      7  C   UNL A   1      41.772  20.900  26.608  1.00  0.00     0.039 A 
ATOM      8  C   UNL A   1      41.586  21.216  27.957  1.00  0.00     0.014 A 
ATOM      9  C   UNL A   1      42.211  21.868  25.702  1.00  0.00     0.014 A 
ATOM     10  C   UNL A   1      41.747  22.528  28.383  1.00  0.00     0.010 A 
ATOM     11  C   UNL A   1      42.445  23.170  26.148  1.00  0.00     0.010 A 
ATOM     12  C   UNL A   1      42.209  23.507  27.490  1.00  0.00    -0.014 A 
BRANCH  12  13
ATOM     13  C   UNL A   1      42.577  24.844  28.011  1.00  0.00     0.031 A 
ATOM     14  C   UNL A   1      43.981  25.167  28.426  1.00  0.00     0.074 A 
ATOM     15  C   UNL A   1      41.599  25.763  28.121  1.00  0.00     0.049 A 
ATOM     16  N   UNL A   1      44.446  26.279  28.935  1.00  0.00    -0.248 NA
ATOM     17  C   UNL A   1      44.993  24.112  28.259  1.00  0.00     0.031 C 
ATOM     18  C   UNL A   1      40.193  25.546  27.759  1.00  0.00     0.029 A 
ATOM     19  N   UNL A   1      41.628  27.057  28.567  1.00  0.00    -0.354 N 
ATOM     20  C   UNL A   1      45.796  26.054  29.172  1.00  0.00     0.074 A 
ATOM     21  C   UNL A   1      46.077  24.696  28.758  1.00  0.00     0.031 C 
ATOM     22  C   UNL A   1      39.504  26.674  27.975  1.00  0.00     0.029 A 
ATOM     23  C   UNL A   1      40.397  27.668  28.554  1.00  0.00     0.049 A 
ATOM     24  H   UNL A   1      42.451  27.507  28.869  1.00  0.00     0.167 HD
ATOM     25  C   UNL A   1      46.709  26.908  29.690  1.00  0.00     0.031 A 
ATOM     26  C   UNL A   1      40.018  28.879  28.995  1.00  0.00     0.031 A 
ATOM     27  C   UNL A   1      46.417  28.261  30.092  1.00  0.00     0.049 A 
ATOM     28  C   UNL A   1      41.047  29.780  29.607  1.00  0.00     0.074 A 
ATOM     29  C   UNL A   1      47.293  29.227  30.558  1.00  0.00     0.029 A 
ATOM     30  N   UNL A   1      45.154  28.830  30.090  1.00  0.00    -0.354 N 
ATOM     31  N   UNL A   1      42.334  29.579  29.752  1.00  0.00    -0.248 NA
ATOM     32  C   UNL A   1      40.573  31.070  30.122  1.00  0.00     0.031 C 
ATOM     33  C   UNL A   1      46.549  30.360  30.899  1.00  0.00     0.029 A 
ATOM     34  C   UNL A   1      45.220  30.119  30.595  1.00  0.00     0.049 A 
ATOM     35  H   UNL A   1      44.334  28.387  29.777  1.00  0.00     0.167 HD
ATOM     36  C   UNL A   1      42.824  30.719  30.372  1.00  0.00     0.074 A 
ATOM     37  C   UNL A   1      41.702  31.619  30.547  1.00  0.00     0.031 C 
ATOM     38  C   UNL A   1      44.089  30.992  30.772  1.00  0.00     0.031 A 
BRANCH  25  39
ATOM     39  C   UNL A   1      48.113  26.411  29.891  1.00  0.00    -0.014 A 
ATOM     40  C   UNL A   1      48.506  25.789  31.084  1.00  0.00     0.009 A 
ATOM     41  C   UNL A   1      49.027  26.479  28.826  1.00  0.00     0.009 A 
ATOM     42  C   UNL A   1      49.791  25.256  31.211  1.00  0.00     0.001 A 
ATOM     43  C   UNL A   1      50.303  25.926  28.949  1.00  0.00     0.001 A 
ATOM     44  C   UNL A   1      50.686  25.318  30.142  1.00  0.00     0.000 A 
ENDBRANCH  25  39
BRANCH  26  45
ATOM     45  C   UNL A   1      38.589  29.277  28.932  1.00  0.00    -0.014 A 
ATOM     46  C   UNL A   1      37.749  29.121  30.044  1.00  0.00     0.009 A 
ATOM     47  C   UNL A   1      38.058  29.819  27.750  1.00  0.00     0.009 A 
ATOM     48  C   UNL A   1      36.400  29.474  29.964  1.00  0.00     0.001 A 
ATOM     49  C   UNL A   1      36.717  30.201  27.683  1.00  0.00     0.001 A 
ATOM     50  C   UNL A   1      35.888  30.018  28.786  1.00  0.00     0.000 A 
ENDBRANCH  26  45
BRANCH  38  51
ATOM     51  C   UNL A   1      44.319  32.318  31.433  1.00  0.00    -0.014 A 
ATOM     52  C   UNL A   1      44.618  33.459  30.671  1.00  0.00     0.009 A 
ATOM     53  C   UNL A   1      44.205  32.436  32.826  1.00  0.00     0.009 A 
ATOM     54  C   UNL A   1      44.825  34.689  31.298  1.00  0.00     0.001 A 
ATOM     55  C   UNL A   1      44.386  33.672  33.446  1.00  0.00     0.001 A 
ATOM     56  C   UNL A   1      44.703  34.795  32.682  1.00  0.00     0.000 A 
ENDBRANCH  38  51
ENDBRANCH  12  13
ENDBRANCH   5   7
ENDBRANCH   2   3
ENDBRANCH   1   2
BRANCH   1  57
ATOM     57  C   UNL A   1      36.598  20.277  24.950  1.00  0.00     0.023 C 
BRANCH  57  58
ATOM     58  C   UNL A   1      36.798  21.720  25.403  1.00  0.00     0.116 C 
BRANCH  58  59
ATOM     59  N   UNL A   1      35.926  22.051  26.519  1.00  0.00    -0.354 N 
ATOM     60  C   UNL A   1      34.794  22.832  26.568  1.00  0.00     0.250 C 
ATOM     61  H   UNL A   1      36.190  21.653  27.380  1.00  0.00     0.163 HD
ATOM     62  O   UNL A   1      34.263  22.909  27.682  1.00  0.00    -0.272 OA
BRANCH  60  63
ATOM     63  C   UNL A   1      34.198  23.524  25.282  1.00  0.00     0.173 C 
ATOM     64  Cl  UNL A   1      35.686  24.119  24.367  1.00  0.00    -0.098 Cl
BRANCH  63  65
ATOM     65  C   UNL A   1      33.419  22.539  24.369  1.00  0.00    -0.013 A 
ATOM     66  C   UNL A   1      33.055  21.263  24.841  1.00  0.00     0.006 A 
ATOM     67  C   UNL A   1      33.124  22.843  23.023  1.00  0.00     0.006 A 
ATOM     68  C   UNL A   1      32.381  20.355  24.021  1.00  0.00     0.000 A 
ATOM     69  C   UNL A   1      32.443  21.937  22.208  1.00  0.00     0.000 A 
ATOM     70  C   UNL A   1      32.068  20.695  22.710  1.00  0.00     0.000 A 
ENDBRANCH  63  65
BRANCH  63  71
ATOM     71  C   UNL A   1      33.287  24.728  25.653  1.00  0.00    -0.013 A 
ATOM     72  C   UNL A   1      33.866  26.002  25.833  1.00  0.00     0.006 A 
ATOM     73  C   UNL A   1      31.896  24.624  25.853  1.00  0.00     0.006 A 
ATOM     74  C   UNL A   1      33.105  27.100  26.243  1.00  0.00     0.000 A 
ATOM     75  C   UNL A   1      31.136  25.724  26.263  1.00  0.00     0.000 A 
ATOM     76  C   UNL A   1      31.741  26.957  26.469  1.00  0.00     0.000 A 
ENDBRANCH  63  71
ENDBRANCH  60  63
ENDBRANCH  58  59
ENDBRANCH  57  58
ENDBRANCH   1  57
TORSDOF 13
ENDMDL
