MODEL 1
REMARK VINA RESULT:     -12.1      0.000      0.000
REMARK SMILES CC(=O)n1cc2c3c(cccc31)C(=O)C[C@@H]2C(=O)NCCCCNC(=O)c1ccc(-c2c3nc(c(-c4ccccc4)c4ccc([nH]4)c(-c4ccccc4)c4nc(c(-c5ccccc5)c5ccc2[nH]5)C=C4)C=C3)cc1
REMARK SMILES IDX 22 1 21 2 20 3 19 4 17 5 18 6 16 8 4 9 5 10 12 11 6 12 7 13
REMARK SMILES IDX 11 14 8 15 10 16 15 17 9 18 13 19 14 20 2 21 1 22 3 23 23 24
REMARK SMILES IDX 24 25 25 26 26 28 27 29 28 30 74 31 29 32 73 33 30 34 31 35
REMARK SMILES IDX 32 36 67 37 33 38 72 39 66 40 68 41 34 42 71 43 65 44 64 45
REMARK SMILES IDX 35 47 57 48 42 49 56 50 43 51 46 52 55 53 69 54 44 55 45 56
REMARK SMILES IDX 54 58 70 59 47 60 36 61 37 62 41 63 38 64 40 65 39 66 58 67
REMARK SMILES IDX 59 68 63 69 60 70 62 71 61 72 48 73 49 74 53 75 50 76 52 77
REMARK SMILES IDX 51 78
REMARK H PARENT 19 7 24 27 68 46 46 57
REMARK Flexibility Score: inf
ROOT
ATOM      1  C   UNL A   1      34.164  31.170  27.667  1.00  0.00     0.023 C 
ENDROOT
BRANCH   1   2
ATOM      2  C   UNL A   1      34.900  29.881  27.280  1.00  0.00     0.023 C 
BRANCH   2   3
ATOM      3  C   UNL A   1      34.031  28.628  27.159  1.00  0.00     0.116 C 
BRANCH   3   4
ATOM      4  N   UNL A   1      33.782  28.262  25.774  1.00  0.00    -0.356 N 
ATOM      5  C   UNL A   1      33.422  27.067  25.218  1.00  0.00     0.228 C 
ATOM      6  O   UNL A   1      33.266  27.040  23.993  1.00  0.00    -0.274 OA
ATOM      7  H   UNL A   1      33.889  28.998  25.130  1.00  0.00     0.163 HD
BRANCH   5   8
ATOM      8  C   UNL A   1      33.211  25.802  26.055  1.00  0.00     0.118 C 
ATOM      9  N   UNL A   1      35.342  23.182  24.441  1.00  0.00    -0.287 N 
ATOM     10  C   UNL A   1      35.211  24.472  24.958  1.00  0.00     0.100 A 
ATOM     11  C   UNL A   1      34.149  22.498  24.710  1.00  0.00     0.057 A 
ATOM     12  C   UNL A   1      33.943  24.632  25.470  1.00  0.00    -0.008 A 
ATOM     13  C   UNL A   1      33.315  23.385  25.372  1.00  0.00     0.015 A 
ATOM     14  C   UNL A   1      33.718  21.181  24.466  1.00  0.00     0.027 A 
ATOM     15  C   UNL A   1      32.044  23.008  25.805  1.00  0.00     0.027 A 
ATOM     16  C   UNL A   1      32.443  20.804  24.925  1.00  0.00     0.003 A 
ATOM     17  C   UNL A   1      31.701  25.530  26.281  1.00  0.00     0.099 C 
ATOM     18  C   UNL A   1      31.609  21.702  25.597  1.00  0.00     0.012 A 
ATOM     19  C   UNL A   1      31.248  24.074  26.454  1.00  0.00     0.164 C 
ATOM     20  O   UNL A   1      30.203  23.785  27.031  1.00  0.00    -0.294 OA
BRANCH   9  21
ATOM     21  C   UNL A   1      36.457  22.648  23.759  1.00  0.00     0.227 C 
ATOM     22  C   UNL A   1      37.321  21.725  24.568  1.00  0.00     0.115 C 
ATOM     23  O   UNL A   1      36.646  22.907  22.584  1.00  0.00    -0.274 OA
ENDBRANCH   9  21
ENDBRANCH   5   8
ENDBRANCH   3   4
ENDBRANCH   2   3
ENDBRANCH   1   2
BRANCH   1  24
ATOM     24  C   UNL A   1      35.081  32.292  28.121  1.00  0.00     0.116 C 
BRANCH  24  25
ATOM     25  N   UNL A   1      34.849  32.683  29.510  1.00  0.00    -0.352 N 
ATOM     26  C   UNL A   1      35.364  32.106  30.653  1.00  0.00     0.251 C 
ATOM     27  H   UNL A   1      34.251  33.453  29.648  1.00  0.00     0.163 HD
ATOM     28  O   UNL A   1      34.825  32.267  31.741  1.00  0.00    -0.269 OA
BRANCH  26  29
ATOM     29  C   UNL A   1      36.604  31.319  30.549  1.00  0.00     0.039 A 
ATOM     30  C   UNL A   1      37.845  31.928  30.335  1.00  0.00     0.014 A 
ATOM     31  C   UNL A   1      36.493  29.932  30.629  1.00  0.00     0.014 A 
ATOM     32  C   UNL A   1      38.974  31.122  30.225  1.00  0.00     0.010 A 
ATOM     33  C   UNL A   1      37.614  29.155  30.688  1.00  0.00     0.010 A 
ATOM     34  C   UNL A   1      38.837  29.737  30.393  1.00  0.00    -0.014 A 
BRANCH  34  35
ATOM     35  C   UNL A   1      39.972  28.838  30.337  1.00  0.00     0.031 A 
ATOM     36  C   UNL A   1      40.613  28.609  31.652  1.00  0.00     0.074 A 
ATOM     37  C   UNL A   1      40.235  28.090  29.245  1.00  0.00     0.049 A 
ATOM     38  N   UNL A   1      41.757  29.051  32.051  1.00  0.00    -0.248 NA
ATOM     39  C   UNL A   1      39.823  27.948  32.705  1.00  0.00     0.031 C 
ATOM     40  C   UNL A   1      39.454  27.975  28.005  1.00  0.00     0.029 A 
ATOM     41  N   UNL A   1      41.226  27.183  29.055  1.00  0.00    -0.354 N 
ATOM     42  C   UNL A   1      41.923  28.549  33.335  1.00  0.00     0.074 A 
ATOM     43  C   UNL A   1      40.634  28.067  33.758  1.00  0.00     0.031 C 
ATOM     44  C   UNL A   1      39.883  26.907  27.292  1.00  0.00     0.029 A 
ATOM     45  C   UNL A   1      41.070  26.372  27.933  1.00  0.00     0.049 A 
ATOM     46  H   UNL A   1      41.998  27.104  29.662  1.00  0.00     0.167 HD
ATOM     47  C   UNL A   1      43.161  28.299  33.841  1.00  0.00     0.031 A 
ATOM     48  C   UNL A   1      41.871  25.332  27.592  1.00  0.00     0.031 A 
ATOM     49  C   UNL A   1      44.193  28.860  33.008  1.00  0.00     0.049 A 
ATOM     50  C   UNL A   1      43.157  25.557  28.287  1.00  0.00     0.074 A 
ATOM     51  C   UNL A   1      44.623  30.129  32.689  1.00  0.00     0.029 A 
ATOM     52  N   UNL A   1      44.638  28.020  32.017  1.00  0.00    -0.354 N 
ATOM     53  N   UNL A   1      43.946  26.560  28.032  1.00  0.00    -0.248 NA
ATOM     54  C   UNL A   1      43.409  24.861  29.540  1.00  0.00     0.031 C 
ATOM     55  C   UNL A   1      45.036  30.059  31.325  1.00  0.00     0.029 A 
ATOM     56  C   UNL A   1      44.903  28.742  30.883  1.00  0.00     0.049 A 
ATOM     57  H   UNL A   1      44.750  27.046  32.107  1.00  0.00     0.167 HD
ATOM     58  C   UNL A   1      44.493  26.889  29.258  1.00  0.00     0.074 A 
ATOM     59  C   UNL A   1      44.262  25.722  30.103  1.00  0.00     0.031 C 
ATOM     60  C   UNL A   1      44.813  28.182  29.550  1.00  0.00     0.031 A 
BRANCH  47  61
ATOM     61  C   UNL A   1      43.444  27.170  34.798  1.00  0.00    -0.014 A 
ATOM     62  C   UNL A   1      43.235  25.845  34.380  1.00  0.00     0.009 A 
ATOM     63  C   UNL A   1      43.665  27.372  36.175  1.00  0.00     0.009 A 
ATOM     64  C   UNL A   1      43.247  24.785  35.296  1.00  0.00     0.001 A 
ATOM     65  C   UNL A   1      43.717  26.314  37.085  1.00  0.00     0.001 A 
ATOM     66  C   UNL A   1      43.494  25.019  36.646  1.00  0.00     0.000 A 
ENDBRANCH  47  61
BRANCH  48  67
ATOM     67  C   UNL A   1      41.555  24.013  26.996  1.00  0.00    -0.014 A 
ATOM     68  C   UNL A   1      42.442  23.450  26.057  1.00  0.00     0.009 A 
ATOM     69  C   UNL A   1      40.619  23.160  27.601  1.00  0.00     0.009 A 
ATOM     70  C   UNL A   1      42.462  22.071  25.816  1.00  0.00     0.001 A 
ATOM     71  C   UNL A   1      40.634  21.781  27.351  1.00  0.00     0.001 A 
ATOM     72  C   UNL A   1      41.575  21.233  26.483  1.00  0.00     0.000 A 
ENDBRANCH  48  67
BRANCH  60  73
ATOM     73  C   UNL A   1      44.885  29.153  28.399  1.00  0.00    -0.014 A 
ATOM     74  C   UNL A   1      43.794  29.924  27.961  1.00  0.00     0.009 A 
ATOM     75  C   UNL A   1      46.144  29.393  27.833  1.00  0.00     0.009 A 
ATOM     76  C   UNL A   1      43.966  30.911  26.982  1.00  0.00     0.001 A 
ATOM     77  C   UNL A   1      46.318  30.388  26.870  1.00  0.00     0.001 A 
ATOM     78  C   UNL A   1      45.231  31.149  26.446  1.00  0.00     0.000 A 
ENDBRANCH  60  73
ENDBRANCH  34  35
ENDBRANCH  26  29
ENDBRANCH  24  25
ENDBRANCH   1  24
TORSDOF 12
ENDMDL
MODEL 2
REMARK VINA RESULT:     -11.9      2.346      7.965
REMARK SMILES CC(=O)n1cc2c3c(cccc31)C(=O)C[C@@H]2C(=O)NCCCCNC(=O)c1ccc(-c2c3nc(c(-c4ccccc4)c4ccc([nH]4)c(-c4ccccc4)c4nc(c(-c5ccccc5)c5ccc2[nH]5)C=C4)C=C3)cc1
REMARK SMILES IDX 22 1 21 2 20 3 19 4 17 5 18 6 16 8 4 9 5 10 12 11 6 12 7 13
REMARK SMILES IDX 11 14 8 15 10 16 15 17 9 18 13 19 14 20 2 21 1 22 3 23 23 24
REMARK SMILES IDX 24 25 25 26 26 28 27 29 28 30 74 31 29 32 73 33 30 34 31 35
REMARK SMILES IDX 32 36 67 37 33 38 72 39 66 40 68 41 34 42 71 43 65 44 64 45
REMARK SMILES IDX 35 47 57 48 42 49 56 50 43 51 46 52 55 53 69 54 44 55 45 56
REMARK SMILES IDX 54 58 70 59 47 60 36 61 37 62 41 63 38 64 40 65 39 66 58 67
REMARK SMILES IDX 59 68 63 69 60 70 62 71 61 72 48 73 49 74 53 75 50 76 52 77
REMARK SMILES IDX 51 78
REMARK H PARENT 19 7 24 27 68 46 46 57
REMARK Flexibility Score: inf
ROOT
ATOM      1  C   UNL A   1      39.024  22.024  26.093  1.00  0.00     0.023 C 
ENDROOT
BRANCH   1   2
ATOM      2  C   UNL A   1      38.224  23.327  26.213  1.00  0.00     0.023 C 
BRANCH   2   3
ATOM      3  C   UNL A   1      37.125  23.533  25.168  1.00  0.00     0.116 C 
BRANCH   3   4
ATOM      4  N   UNL A   1      35.797  23.301  25.713  1.00  0.00    -0.356 N 
ATOM      5  C   UNL A   1      34.603  23.905  25.441  1.00  0.00     0.228 C 
ATOM      6  O   UNL A   1      33.611  23.497  26.054  1.00  0.00    -0.274 OA
ATOM      7  H   UNL A   1      35.751  22.588  26.390  1.00  0.00     0.163 HD
BRANCH   5   8
ATOM      8  C   UNL A   1      34.470  25.039  24.419  1.00  0.00     0.118 C 
ATOM      9  N   UNL A   1      32.415  27.665  26.120  1.00  0.00    -0.287 N 
ATOM     10  C   UNL A   1      33.497  26.782  26.147  1.00  0.00     0.100 A 
ATOM     11  C   UNL A   1      31.871  27.623  24.830  1.00  0.00     0.057 A 
ATOM     12  C   UNL A   1      33.589  26.137  24.934  1.00  0.00    -0.008 A 
ATOM     13  C   UNL A   1      32.621  26.712  24.103  1.00  0.00     0.015 A 
ATOM     14  C   UNL A   1      30.812  28.310  24.210  1.00  0.00     0.027 A 
ATOM     15  C   UNL A   1      32.350  26.448  22.762  1.00  0.00     0.027 A 
ATOM     16  C   UNL A   1      30.560  28.054  22.849  1.00  0.00     0.003 A 
ATOM     17  C   UNL A   1      34.026  24.494  23.037  1.00  0.00     0.099 C 
ATOM     18  C   UNL A   1      31.323  27.137  22.122  1.00  0.00     0.012 A 
ATOM     19  C   UNL A   1      33.201  25.416  22.129  1.00  0.00     0.164 C 
ATOM     20  O   UNL A   1      33.160  25.258  20.912  1.00  0.00    -0.294 OA
BRANCH   9  21
ATOM     21  C   UNL A   1      31.936  28.455  27.188  1.00  0.00     0.227 C 
ATOM     22  C   UNL A   1      32.411  29.879  27.195  1.00  0.00     0.115 C 
ATOM     23  O   UNL A   1      31.158  27.989  28.000  1.00  0.00    -0.274 OA
ENDBRANCH   9  21
ENDBRANCH   5   8
ENDBRANCH   3   4
ENDBRANCH   2   3
ENDBRANCH   1   2
BRANCH   1  24
ATOM     24  C   UNL A   1      40.254  21.970  26.983  1.00  0.00     0.116 C 
BRANCH  24  25
ATOM     25  N   UNL A   1      41.502  22.009  26.224  1.00  0.00    -0.352 N 
ATOM     26  C   UNL A   1      42.233  23.117  25.845  1.00  0.00     0.251 C 
ATOM     27  H   UNL A   1      41.867  21.138  25.948  1.00  0.00     0.163 HD
ATOM     28  O   UNL A   1      43.033  23.061  24.920  1.00  0.00    -0.269 OA
BRANCH  26  29
ATOM     29  C   UNL A   1      42.062  24.368  26.603  1.00  0.00     0.039 A 
ATOM     30  C   UNL A   1      42.688  24.570  27.838  1.00  0.00     0.014 A 
ATOM     31  C   UNL A   1      41.214  25.334  26.066  1.00  0.00     0.014 A 
ATOM     32  C   UNL A   1      42.465  25.768  28.511  1.00  0.00     0.010 A 
ATOM     33  C   UNL A   1      41.127  26.570  26.640  1.00  0.00     0.010 A 
ATOM     34  C   UNL A   1      41.673  26.751  27.901  1.00  0.00    -0.014 A 
BRANCH  34  35
ATOM     35  C   UNL A   1      41.433  28.039  28.520  1.00  0.00     0.031 A 
ATOM     36  C   UNL A   1      42.441  29.064  28.166  1.00  0.00     0.074 A 
ATOM     37  C   UNL A   1      40.265  28.328  29.132  1.00  0.00     0.049 A 
ATOM     38  N   UNL A   1      43.360  29.552  28.928  1.00  0.00    -0.248 NA
ATOM     39  C   UNL A   1      42.545  29.479  26.756  1.00  0.00     0.031 C 
ATOM     40  C   UNL A   1      39.055  27.500  29.232  1.00  0.00     0.029 A 
ATOM     41  N   UNL A   1      39.878  29.490  29.717  1.00  0.00    -0.354 N 
ATOM     42  C   UNL A   1      44.028  30.490  28.152  1.00  0.00     0.074 A 
ATOM     43  C   UNL A   1      43.631  30.253  26.788  1.00  0.00     0.031 C 
ATOM     44  C   UNL A   1      38.015  28.259  29.652  1.00  0.00     0.029 A 
ATOM     45  C   UNL A   1      38.519  29.572  30.011  1.00  0.00     0.049 A 
ATOM     46  H   UNL A   1      40.508  30.218  29.920  1.00  0.00     0.167 HD
ATOM     47  C   UNL A   1      44.626  31.575  28.714  1.00  0.00     0.031 A 
ATOM     48  C   UNL A   1      37.882  30.664  30.501  1.00  0.00     0.031 A 
ATOM     49  C   UNL A   1      44.695  31.454  30.146  1.00  0.00     0.049 A 
ATOM     50  C   UNL A   1      38.924  31.502  31.132  1.00  0.00     0.074 A 
ATOM     51  C   UNL A   1      45.383  30.662  31.039  1.00  0.00     0.029 A 
ATOM     52  N   UNL A   1      43.600  31.953  30.809  1.00  0.00    -0.354 N 
ATOM     53  N   UNL A   1      39.606  31.134  32.178  1.00  0.00    -0.248 NA
ATOM     54  C   UNL A   1      39.477  32.618  30.381  1.00  0.00     0.031 C 
ATOM     55  C   UNL A   1      44.485  30.445  32.127  1.00  0.00     0.029 A 
ATOM     56  C   UNL A   1      43.311  31.161  31.888  1.00  0.00     0.049 A 
ATOM     57  H   UNL A   1      43.098  32.759  30.548  1.00  0.00     0.167 HD
ATOM     58  C   UNL A   1      40.865  31.667  31.972  1.00  0.00     0.074 A 
ATOM     59  C   UNL A   1      40.682  32.695  30.953  1.00  0.00     0.031 C 
ATOM     60  C   UNL A   1      41.975  31.021  32.431  1.00  0.00     0.031 A 
BRANCH  47  61
ATOM     61  C   UNL A   1      44.707  32.914  28.028  1.00  0.00    -0.014 A 
ATOM     62  C   UNL A   1      43.631  33.811  28.138  1.00  0.00     0.009 A 
ATOM     63  C   UNL A   1      45.694  33.224  27.071  1.00  0.00     0.009 A 
ATOM     64  C   UNL A   1      43.552  34.953  27.330  1.00  0.00     0.001 A 
ATOM     65  C   UNL A   1      45.639  34.382  26.291  1.00  0.00     0.001 A 
ATOM     66  C   UNL A   1      44.558  35.241  26.412  1.00  0.00     0.000 A 
ENDBRANCH  47  61
BRANCH  48  67
ATOM     67  C   UNL A   1      36.537  31.218  30.215  1.00  0.00    -0.014 A 
ATOM     68  C   UNL A   1      35.819  31.853  31.247  1.00  0.00     0.009 A 
ATOM     69  C   UNL A   1      36.129  31.458  28.894  1.00  0.00     0.009 A 
ATOM     70  C   UNL A   1      34.804  32.775  30.963  1.00  0.00     0.001 A 
ATOM     71  C   UNL A   1      35.106  32.373  28.611  1.00  0.00     0.001 A 
ATOM     72  C   UNL A   1      34.465  33.054  29.643  1.00  0.00     0.000 A 
ENDBRANCH  48  67
BRANCH  60  73
ATOM     73  C   UNL A   1      41.767  29.929  33.450  1.00  0.00    -0.014 A 
ATOM     74  C   UNL A   1      41.582  28.576  33.115  1.00  0.00     0.009 A 
ATOM     75  C   UNL A   1      41.906  30.271  34.802  1.00  0.00     0.009 A 
ATOM     76  C   UNL A   1      41.539  27.594  34.114  1.00  0.00     0.001 A 
ATOM     77  C   UNL A   1      41.881  29.290  35.794  1.00  0.00     0.001 A 
ATOM     78  C   UNL A   1      41.700  27.952  35.451  1.00  0.00     0.000 A 
ENDBRANCH  60  73
ENDBRANCH  34  35
ENDBRANCH  26  29
ENDBRANCH  24  25
ENDBRANCH   1  24
TORSDOF 12
ENDMDL
MODEL 3
REMARK VINA RESULT:     -11.8      2.750      7.603
REMARK SMILES CC(=O)n1cc2c3c(cccc31)C(=O)C[C@@H]2C(=O)NCCCCNC(=O)c1ccc(-c2c3nc(c(-c4ccccc4)c4ccc([nH]4)c(-c4ccccc4)c4nc(c(-c5ccccc5)c5ccc2[nH]5)C=C4)C=C3)cc1
REMARK SMILES IDX 22 1 21 2 20 3 19 4 17 5 18 6 16 8 4 9 5 10 12 11 6 12 7 13
REMARK SMILES IDX 11 14 8 15 10 16 15 17 9 18 13 19 14 20 2 21 1 22 3 23 23 24
REMARK SMILES IDX 24 25 25 26 26 28 27 29 28 30 74 31 29 32 73 33 30 34 31 35
REMARK SMILES IDX 32 36 67 37 33 38 72 39 66 40 68 41 34 42 71 43 65 44 64 45
REMARK SMILES IDX 35 47 57 48 42 49 56 50 43 51 46 52 55 53 69 54 44 55 45 56
REMARK SMILES IDX 54 58 70 59 47 60 36 61 37 62 41 63 38 64 40 65 39 66 58 67
REMARK SMILES IDX 59 68 63 69 60 70 62 71 61 72 48 73 49 74 53 75 50 76 52 77
REMARK SMILES IDX 51 78
REMARK H PARENT 19 7 24 27 68 46 46 57
REMARK Flexibility Score: inf
ROOT
ATOM      1  C   UNL A   1      37.887  19.594  24.657  1.00  0.00     0.023 C 
ENDROOT
BRANCH   1   2
ATOM      2  C   UNL A   1      36.406  19.775  25.012  1.00  0.00     0.023 C 
BRANCH   2   3
ATOM      3  C   UNL A   1      35.917  21.221  25.117  1.00  0.00     0.116 C 
BRANCH   3   4
ATOM      4  N   UNL A   1      35.403  21.534  26.441  1.00  0.00    -0.356 N 
ATOM      5  C   UNL A   1      34.120  21.643  26.897  1.00  0.00     0.228 C 
ATOM      6  O   UNL A   1      33.968  21.915  28.093  1.00  0.00    -0.274 OA
ATOM      7  H   UNL A   1      36.096  21.692  27.123  1.00  0.00     0.163 HD
BRANCH   5   8
ATOM      8  C   UNL A   1      32.905  21.437  25.988  1.00  0.00     0.118 C 
ATOM      9  N   UNL A   1      32.961  17.808  25.073  1.00  0.00    -0.287 N 
ATOM     10  C   UNL A   1      33.023  18.800  26.053  1.00  0.00     0.100 A 
ATOM     11  C   UNL A   1      32.658  18.436  23.859  1.00  0.00     0.057 A 
ATOM     12  C   UNL A   1      32.846  20.033  25.467  1.00  0.00    -0.008 A 
ATOM     13  C   UNL A   1      32.554  19.793  24.119  1.00  0.00     0.015 A 
ATOM     14  C   UNL A   1      32.437  17.955  22.555  1.00  0.00     0.027 A 
ATOM     15  C   UNL A   1      32.238  20.708  23.116  1.00  0.00     0.027 A 
ATOM     16  C   UNL A   1      32.097  18.883  21.553  1.00  0.00     0.003 A 
ATOM     17  C   UNL A   1      32.858  22.510  24.869  1.00  0.00     0.099 C 
ATOM     18  C   UNL A   1      31.989  20.249  21.825  1.00  0.00     0.012 A 
ATOM     19  C   UNL A   1      32.210  22.128  23.531  1.00  0.00     0.164 C 
ATOM     20  O   UNL A   1      31.759  22.975  22.766  1.00  0.00    -0.294 OA
BRANCH   9  21
ATOM     21  C   UNL A   1      33.172  16.422  25.251  1.00  0.00     0.227 C 
ATOM     22  C   UNL A   1      34.596  15.969  25.114  1.00  0.00     0.115 C 
ATOM     23  O   UNL A   1      32.244  15.688  25.537  1.00  0.00    -0.274 OA
ENDBRANCH   9  21
ENDBRANCH   5   8
ENDBRANCH   3   4
ENDBRANCH   2   3
ENDBRANCH   1   2
BRANCH   1  24
ATOM     24  C   UNL A   1      38.840  19.958  25.782  1.00  0.00     0.116 C 
BRANCH  24  25
ATOM     25  N   UNL A   1      40.024  19.102  25.816  1.00  0.00    -0.352 N 
ATOM     26  C   UNL A   1      41.346  19.483  25.930  1.00  0.00     0.251 C 
ATOM     27  H   UNL A   1      39.860  18.134  25.752  1.00  0.00     0.163 HD
ATOM     28  O   UNL A   1      42.252  18.737  25.580  1.00  0.00    -0.269 OA
BRANCH  26  29
ATOM     29  C   UNL A   1      41.654  20.797  26.519  1.00  0.00     0.039 A 
ATOM     30  C   UNL A   1      42.368  21.770  25.812  1.00  0.00     0.014 A 
ATOM     31  C   UNL A   1      41.244  21.025  27.831  1.00  0.00     0.014 A 
ATOM     32  C   UNL A   1      42.644  22.983  26.438  1.00  0.00     0.010 A 
ATOM     33  C   UNL A   1      41.366  22.267  28.384  1.00  0.00     0.010 A 
ATOM     34  C   UNL A   1      42.144  23.208  27.728  1.00  0.00    -0.014 A 
BRANCH  34  35
ATOM     35  C   UNL A   1      42.351  24.461  28.426  1.00  0.00     0.031 A 
ATOM     36  C   UNL A   1      41.316  25.479  28.136  1.00  0.00     0.074 A 
ATOM     37  C   UNL A   1      43.242  24.576  29.433  1.00  0.00     0.049 A 
ATOM     38  N   UNL A   1      41.451  26.551  27.432  1.00  0.00    -0.248 NA
ATOM     39  C   UNL A   1      39.928  25.195  28.540  1.00  0.00     0.031 C 
ATOM     40  C   UNL A   1      44.075  23.529  30.043  1.00  0.00     0.029 A 
ATOM     41  N   UNL A   1      43.520  25.659  30.202  1.00  0.00    -0.354 N 
ATOM     42  C   UNL A   1      40.216  27.184  27.476  1.00  0.00     0.074 A 
ATOM     43  C   UNL A   1      39.276  26.217  27.982  1.00  0.00     0.031 C 
ATOM     44  C   UNL A   1      44.598  23.981  31.207  1.00  0.00     0.029 A 
ATOM     45  C   UNL A   1      44.281  25.391  31.337  1.00  0.00     0.049 A 
ATOM     46  H   UNL A   1      43.209  26.565  29.975  1.00  0.00     0.167 HD
ATOM     47  C   UNL A   1      40.110  28.536  27.374  1.00  0.00     0.031 A 
ATOM     48  C   UNL A   1      44.598  26.286  32.305  1.00  0.00     0.031 A 
ATOM     49  C   UNL A   1      41.355  29.131  26.961  1.00  0.00     0.049 A 
ATOM     50  C   UNL A   1      44.458  27.625  31.691  1.00  0.00     0.074 A 
ATOM     51  C   UNL A   1      42.109  29.142  25.808  1.00  0.00     0.029 A 
ATOM     52  N   UNL A   1      42.193  29.465  27.996  1.00  0.00    -0.354 N 
ATOM     53  N   UNL A   1      45.208  28.051  30.717  1.00  0.00    -0.248 NA
ATOM     54  C   UNL A   1      43.231  28.374  31.915  1.00  0.00     0.031 C 
ATOM     55  C   UNL A   1      43.468  29.161  26.242  1.00  0.00     0.029 A 
ATOM     56  C   UNL A   1      43.492  29.224  27.637  1.00  0.00     0.049 A 
ATOM     57  H   UNL A   1      41.903  29.825  28.866  1.00  0.00     0.167 HD
ATOM     58  C   UNL A   1      44.362  28.826  29.945  1.00  0.00     0.074 A 
ATOM     59  C   UNL A   1      43.224  29.122  30.808  1.00  0.00     0.031 C 
ATOM     60  C   UNL A   1      44.530  28.900  28.594  1.00  0.00     0.031 A 
BRANCH  47  61
ATOM     61  C   UNL A   1      39.053  29.334  28.094  1.00  0.00    -0.014 A 
ATOM     62  C   UNL A   1      39.147  29.505  29.485  1.00  0.00     0.009 A 
ATOM     63  C   UNL A   1      37.835  29.707  27.491  1.00  0.00     0.009 A 
ATOM     64  C   UNL A   1      38.076  30.022  30.226  1.00  0.00     0.001 A 
ATOM     65  C   UNL A   1      36.780  30.259  28.220  1.00  0.00     0.001 A 
ATOM     66  C   UNL A   1      36.897  30.404  29.593  1.00  0.00     0.000 A 
ENDBRANCH  47  61
BRANCH  48  67
ATOM     67  C   UNL A   1      44.701  26.137  33.776  1.00  0.00    -0.014 A 
ATOM     68  C   UNL A   1      45.591  26.961  34.492  1.00  0.00     0.009 A 
ATOM     69  C   UNL A   1      43.694  25.480  34.500  1.00  0.00     0.009 A 
ATOM     70  C   UNL A   1      45.413  27.203  35.860  1.00  0.00     0.001 A 
ATOM     71  C   UNL A   1      43.523  25.716  35.871  1.00  0.00     0.001 A 
ATOM     72  C   UNL A   1      44.361  26.600  36.544  1.00  0.00     0.000 A 
ENDBRANCH  48  67
BRANCH  60  73
ATOM     73  C   UNL A   1      45.844  28.415  28.033  1.00  0.00    -0.014 A 
ATOM     74  C   UNL A   1      46.077  27.088  27.631  1.00  0.00     0.009 A 
ATOM     75  C   UNL A   1      46.830  29.376  27.774  1.00  0.00     0.009 A 
ATOM     76  C   UNL A   1      47.270  26.739  26.985  1.00  0.00     0.001 A 
ATOM     77  C   UNL A   1      48.011  29.030  27.115  1.00  0.00     0.001 A 
ATOM     78  C   UNL A   1      48.230  27.713  26.719  1.00  0.00     0.000 A 
ENDBRANCH  60  73
ENDBRANCH  34  35
ENDBRANCH  26  29
ENDBRANCH  24  25
ENDBRANCH   1  24
TORSDOF 12
ENDMDL
