MODEL 1
REMARK VINA RESULT:     -13.3      0.000      0.000
REMARK SMILES Cc1ccc(C(=O)NCCCCNC(=O)c2ccc(-c3c4nc(c(-c5ccccc5)c5ccc([nH]5)c(-c5ccccc5)c5nc(c(-c6ccccc6)c6ccc3[nH]6)C=C5)C=C4)cc2)cc1NC(=O)Cc1ccc2ccccc2c1
REMARK SMILES IDX 10 1 9 2 8 3 6 4 7 5 5 7 1 8 2 9 3 10 65 11 4 12 64 13 66 14
REMARK SMILES IDX 67 15 68 17 69 18 70 19 71 20 79 21 72 22 78 23 73 24 77 25
REMARK SMILES IDX 74 26 76 27 75 28 11 29 12 30 13 31 14 32 15 34 16 35 17 36
REMARK SMILES IDX 63 37 18 38 62 39 19 40 20 41 21 42 56 43 22 44 61 45 55 46
REMARK SMILES IDX 57 47 23 48 60 49 54 50 53 51 24 53 46 54 31 55 45 56 32 57
REMARK SMILES IDX 35 58 44 59 58 60 33 61 34 62 43 64 59 65 36 66 25 67 26 68
REMARK SMILES IDX 30 69 27 70 29 71 28 72 47 73 48 74 52 75 49 76 51 77 50 78
REMARK SMILES IDX 37 79 38 80 42 81 39 82 41 83 40 84
REMARK H PARENT 8 6 66 16 13 33 57 52 35 63
REMARK Flexibility Score: inf
ROOT
ATOM      1  C   UNL A   1      31.482  29.252  25.919  1.00  0.00     0.023 C 
ENDROOT
BRANCH   1   2
ATOM      2  C   UNL A   1      32.163  29.593  24.587  1.00  0.00     0.116 C 
BRANCH   2   3
ATOM      3  N   UNL A   1      31.318  29.663  23.418  1.00  0.00    -0.352 N 
ATOM      4  C   UNL A   1      30.611  28.703  22.726  1.00  0.00     0.251 C 
ATOM      5  O   UNL A   1      29.871  29.096  21.822  1.00  0.00    -0.269 OA
ATOM      6  H   UNL A   1      31.228  30.570  23.045  1.00  0.00     0.163 HD
BRANCH   4   7
ATOM      7  C   UNL A   1      30.748  27.227  22.943  1.00  0.00     0.041 A 
ATOM      8  C   UNL A   1      31.506  22.976  23.272  1.00  0.00     0.046 C 
ATOM      9  C   UNL A   1      31.202  24.453  23.256  1.00  0.00    -0.027 A 
ATOM     10  C   UNL A   1      31.731  25.166  22.158  1.00  0.00     0.006 A 
ATOM     11  C   UNL A   1      30.403  25.131  24.207  1.00  0.00     0.044 A 
ATOM     12  C   UNL A   1      31.537  26.538  22.024  1.00  0.00     0.014 A 
ATOM     13  C   UNL A   1      30.113  26.489  23.956  1.00  0.00     0.040 A 
BRANCH  11  14
ATOM     14  N   UNL A   1      29.957  24.426  25.366  1.00  0.00    -0.326 N 
ATOM     15  C   UNL A   1      30.536  24.064  26.573  1.00  0.00     0.228 C 
ATOM     16  H   UNL A   1      29.021  24.128  25.290  1.00  0.00     0.169 HD
ATOM     17  O   UNL A   1      29.868  23.383  27.351  1.00  0.00    -0.274 OA
BRANCH  15  18
ATOM     18  C   UNL A   1      31.939  24.511  26.867  1.00  0.00     0.135 C 
BRANCH  18  19
ATOM     19  C   UNL A   1      33.198  23.968  26.231  1.00  0.00    -0.038 A 
ATOM     20  C   UNL A   1      33.983  24.944  25.593  1.00  0.00     0.005 A 
ATOM     21  C   UNL A   1      33.684  22.659  26.237  1.00  0.00     0.013 A 
ATOM     22  C   UNL A   1      35.142  24.638  24.901  1.00  0.00     0.009 A 
ATOM     23  C   UNL A   1      34.913  22.337  25.594  1.00  0.00    -0.018 A 
ATOM     24  C   UNL A   1      35.621  23.342  24.894  1.00  0.00    -0.018 A 
ATOM     25  C   UNL A   1      35.495  21.058  25.641  1.00  0.00     0.009 A 
ATOM     26  C   UNL A   1      36.821  23.063  24.227  1.00  0.00     0.009 A 
ATOM     27  C   UNL A   1      36.725  20.797  25.020  1.00  0.00     0.001 A 
ATOM     28  C   UNL A   1      37.378  21.793  24.299  1.00  0.00     0.001 A 
ENDBRANCH  18  19
ENDBRANCH  15  18
ENDBRANCH  11  14
ENDBRANCH   4   7
ENDBRANCH   2   3
ENDBRANCH   1   2
BRANCH   1  29
ATOM     29  C   UNL A   1      32.391  29.067  27.136  1.00  0.00     0.023 C 
BRANCH  29  30
ATOM     30  C   UNL A   1      33.868  29.378  26.905  1.00  0.00     0.116 C 
BRANCH  30  31
ATOM     31  N   UNL A   1      34.312  30.750  27.119  1.00  0.00    -0.352 N 
ATOM     32  C   UNL A   1      35.459  31.220  27.764  1.00  0.00     0.251 C 
ATOM     33  H   UNL A   1      33.717  31.447  26.757  1.00  0.00     0.163 HD
ATOM     34  O   UNL A   1      35.623  32.412  27.914  1.00  0.00    -0.269 OA
BRANCH  32  35
ATOM     35  C   UNL A   1      36.550  30.274  28.153  1.00  0.00     0.039 A 
ATOM     36  C   UNL A   1      36.541  29.695  29.437  1.00  0.00     0.014 A 
ATOM     37  C   UNL A   1      37.631  30.041  27.318  1.00  0.00     0.014 A 
ATOM     38  C   UNL A   1      37.680  29.041  29.927  1.00  0.00     0.010 A 
ATOM     39  C   UNL A   1      38.793  29.523  27.837  1.00  0.00     0.010 A 
ATOM     40  C   UNL A   1      38.828  29.023  29.143  1.00  0.00    -0.014 A 
BRANCH  40  41
ATOM     41  C   UNL A   1      40.122  28.451  29.488  1.00  0.00     0.031 A 
ATOM     42  C   UNL A   1      40.468  27.101  28.978  1.00  0.00     0.074 A 
ATOM     43  C   UNL A   1      41.094  29.282  29.920  1.00  0.00     0.049 A 
ATOM     44  N   UNL A   1      41.568  26.478  29.235  1.00  0.00    -0.248 NA
ATOM     45  C   UNL A   1      39.550  26.312  28.152  1.00  0.00     0.031 C 
ATOM     46  C   UNL A   1      42.537  29.145  29.737  1.00  0.00     0.029 A 
ATOM     47  N   UNL A   1      40.973  30.327  30.817  1.00  0.00    -0.354 N 
ATOM     48  C   UNL A   1      41.653  25.429  28.349  1.00  0.00     0.074 A 
ATOM     49  C   UNL A   1      40.325  25.279  27.811  1.00  0.00     0.031 C 
ATOM     50  C   UNL A   1      43.170  29.913  30.638  1.00  0.00     0.029 A 
ATOM     51  C   UNL A   1      42.159  30.397  31.563  1.00  0.00     0.049 A 
ATOM     52  H   UNL A   1      40.192  30.917  30.916  1.00  0.00     0.167 HD
ATOM     53  C   UNL A   1      42.877  24.923  28.039  1.00  0.00     0.031 A 
ATOM     54  C   UNL A   1      42.160  30.104  32.902  1.00  0.00     0.031 A 
ATOM     55  C   UNL A   1      43.907  25.416  28.952  1.00  0.00     0.049 A 
ATOM     56  C   UNL A   1      43.025  28.923  33.285  1.00  0.00     0.074 A 
ATOM     57  C   UNL A   1      44.933  26.335  28.817  1.00  0.00     0.029 A 
ATOM     58  N   UNL A   1      43.788  25.147  30.310  1.00  0.00    -0.354 N 
ATOM     59  N   UNL A   1      43.419  28.006  32.448  1.00  0.00    -0.248 NA
ATOM     60  C   UNL A   1      43.459  28.655  34.654  1.00  0.00     0.031 C 
ATOM     61  C   UNL A   1      45.350  26.707  30.124  1.00  0.00     0.029 A 
ATOM     62  C   UNL A   1      44.614  25.976  31.041  1.00  0.00     0.049 A 
ATOM     63  H   UNL A   1      43.196  24.462  30.698  1.00  0.00     0.167 HD
ATOM     64  C   UNL A   1      44.111  27.040  33.124  1.00  0.00     0.074 A 
ATOM     65  C   UNL A   1      44.125  27.498  34.500  1.00  0.00     0.031 C 
ATOM     66  C   UNL A   1      44.595  25.930  32.496  1.00  0.00     0.031 A 
BRANCH  53  67
ATOM     67  C   UNL A   1      43.200  24.164  26.768  1.00  0.00    -0.014 A 
ATOM     68  C   UNL A   1      42.759  22.833  26.634  1.00  0.00     0.009 A 
ATOM     69  C   UNL A   1      44.024  24.639  25.732  1.00  0.00     0.009 A 
ATOM     70  C   UNL A   1      43.133  22.029  25.547  1.00  0.00     0.001 A 
ATOM     71  C   UNL A   1      44.380  23.851  24.628  1.00  0.00     0.001 A 
ATOM     72  C   UNL A   1      43.942  22.539  24.541  1.00  0.00     0.000 A 
ENDBRANCH  53  67
BRANCH  54  73
ATOM     73  C   UNL A   1      40.850  30.390  33.552  1.00  0.00    -0.014 A 
ATOM     74  C   UNL A   1      40.544  31.732  33.846  1.00  0.00     0.009 A 
ATOM     75  C   UNL A   1      39.805  29.458  33.452  1.00  0.00     0.009 A 
ATOM     76  C   UNL A   1      39.216  32.155  33.872  1.00  0.00     0.001 A 
ATOM     77  C   UNL A   1      38.476  29.889  33.499  1.00  0.00     0.001 A 
ATOM     78  C   UNL A   1      38.185  31.242  33.662  1.00  0.00     0.000 A 
ENDBRANCH  54  73
BRANCH  66  79
ATOM     79  C   UNL A   1      45.143  24.716  33.196  1.00  0.00    -0.014 A 
ATOM     80  C   UNL A   1      46.370  24.691  33.871  1.00  0.00     0.009 A 
ATOM     81  C   UNL A   1      44.331  23.566  33.302  1.00  0.00     0.009 A 
ATOM     82  C   UNL A   1      46.796  23.551  34.565  1.00  0.00     0.001 A 
ATOM     83  C   UNL A   1      44.732  22.444  34.030  1.00  0.00     0.001 A 
ATOM     84  C   UNL A   1      45.975  22.430  34.649  1.00  0.00     0.000 A 
ENDBRANCH  66  79
ENDBRANCH  40  41
ENDBRANCH  32  35
ENDBRANCH  30  31
ENDBRANCH  29  30
ENDBRANCH   1  29
TORSDOF 14
ENDMDL
MODEL 2
REMARK VINA RESULT:     -13.1      1.705      2.729
REMARK SMILES Cc1ccc(C(=O)NCCCCNC(=O)c2ccc(-c3c4nc(c(-c5ccccc5)c5ccc([nH]5)c(-c5ccccc5)c5nc(c(-c6ccccc6)c6ccc3[nH]6)C=C5)C=C4)cc2)cc1NC(=O)Cc1ccc2ccccc2c1
REMARK SMILES IDX 10 1 9 2 8 3 6 4 7 5 5 7 1 8 2 9 3 10 65 11 4 12 64 13 66 14
REMARK SMILES IDX 67 15 68 17 69 18 70 19 71 20 79 21 72 22 78 23 73 24 77 25
REMARK SMILES IDX 74 26 76 27 75 28 11 29 12 30 13 31 14 32 15 34 16 35 17 36
REMARK SMILES IDX 63 37 18 38 62 39 19 40 20 41 21 42 56 43 22 44 61 45 55 46
REMARK SMILES IDX 57 47 23 48 60 49 54 50 53 51 24 53 46 54 31 55 45 56 32 57
REMARK SMILES IDX 35 58 44 59 58 60 33 61 34 62 43 64 59 65 36 66 25 67 26 68
REMARK SMILES IDX 30 69 27 70 29 71 28 72 47 73 48 74 52 75 49 76 51 77 50 78
REMARK SMILES IDX 37 79 38 80 42 81 39 82 41 83 40 84
REMARK H PARENT 8 6 66 16 13 33 57 52 35 63
REMARK Flexibility Score: inf
ROOT
ATOM      1  C   UNL A   1      31.651  29.655  26.046  1.00  0.00     0.023 C 
ENDROOT
BRANCH   1   2
ATOM      2  C   UNL A   1      32.387  29.492  24.710  1.00  0.00     0.116 C 
BRANCH   2   3
ATOM      3  N   UNL A   1      31.598  29.620  23.507  1.00  0.00    -0.352 N 
ATOM      4  C   UNL A   1      30.875  28.706  22.771  1.00  0.00     0.251 C 
ATOM      5  O   UNL A   1      30.196  29.148  21.842  1.00  0.00    -0.269 OA
ATOM      6  H   UNL A   1      31.570  30.535  23.144  1.00  0.00     0.163 HD
BRANCH   4   7
ATOM      7  C   UNL A   1      30.928  27.222  22.971  1.00  0.00     0.041 A 
ATOM      8  C   UNL A   1      31.446  22.932  23.250  1.00  0.00     0.046 C 
ATOM      9  C   UNL A   1      31.225  24.424  23.252  1.00  0.00    -0.027 A 
ATOM     10  C   UNL A   1      31.793  25.118  22.161  1.00  0.00     0.006 A 
ATOM     11  C   UNL A   1      30.466  25.135  24.211  1.00  0.00     0.044 A 
ATOM     12  C   UNL A   1      31.677  26.500  22.044  1.00  0.00     0.014 A 
ATOM     13  C   UNL A   1      30.254  26.510  23.976  1.00  0.00     0.040 A 
BRANCH  11  14
ATOM     14  N   UNL A   1      29.981  24.443  25.363  1.00  0.00    -0.326 N 
ATOM     15  C   UNL A   1      30.532  24.062  26.578  1.00  0.00     0.228 C 
ATOM     16  H   UNL A   1      29.038  24.175  25.273  1.00  0.00     0.169 HD
ATOM     17  O   UNL A   1      29.832  23.402  27.345  1.00  0.00    -0.274 OA
BRANCH  15  18
ATOM     18  C   UNL A   1      31.943  24.465  26.892  1.00  0.00     0.135 C 
BRANCH  18  19
ATOM     19  C   UNL A   1      33.191  23.921  26.235  1.00  0.00    -0.038 A 
ATOM     20  C   UNL A   1      33.963  24.897  25.580  1.00  0.00     0.005 A 
ATOM     21  C   UNL A   1      33.680  22.614  26.236  1.00  0.00     0.013 A 
ATOM     22  C   UNL A   1      35.110  24.591  24.868  1.00  0.00     0.009 A 
ATOM     23  C   UNL A   1      34.897  22.292  25.571  1.00  0.00    -0.018 A 
ATOM     24  C   UNL A   1      35.591  23.295  24.855  1.00  0.00    -0.018 A 
ATOM     25  C   UNL A   1      35.481  21.013  25.611  1.00  0.00     0.009 A 
ATOM     26  C   UNL A   1      36.779  23.016  24.168  1.00  0.00     0.009 A 
ATOM     27  C   UNL A   1      36.701  20.752  24.968  1.00  0.00     0.001 A 
ATOM     28  C   UNL A   1      37.339  21.747  24.233  1.00  0.00     0.001 A 
ENDBRANCH  18  19
ENDBRANCH  15  18
ENDBRANCH  11  14
ENDBRANCH   4   7
ENDBRANCH   2   3
ENDBRANCH   1   2
BRANCH   1  29
ATOM     29  C   UNL A   1      32.493  30.064  27.257  1.00  0.00     0.023 C 
BRANCH  29  30
ATOM     30  C   UNL A   1      33.474  31.209  27.016  1.00  0.00     0.116 C 
BRANCH  30  31
ATOM     31  N   UNL A   1      33.074  32.544  27.442  1.00  0.00    -0.352 N 
ATOM     32  C   UNL A   1      33.660  33.385  28.392  1.00  0.00     0.251 C 
ATOM     33  H   UNL A   1      32.275  32.907  26.994  1.00  0.00     0.163 HD
ATOM     34  O   UNL A   1      33.134  34.442  28.669  1.00  0.00    -0.269 OA
BRANCH  32  35
ATOM     35  C   UNL A   1      34.998  33.055  28.972  1.00  0.00     0.039 A 
ATOM     36  C   UNL A   1      36.165  33.416  28.273  1.00  0.00     0.014 A 
ATOM     37  C   UNL A   1      35.113  32.301  30.129  1.00  0.00     0.014 A 
ATOM     38  C   UNL A   1      37.406  32.876  28.640  1.00  0.00     0.010 A 
ATOM     39  C   UNL A   1      36.297  31.665  30.413  1.00  0.00     0.010 A 
ATOM     40  C   UNL A   1      37.449  31.945  29.671  1.00  0.00    -0.014 A 
BRANCH  40  41
ATOM     41  C   UNL A   1      38.619  31.230  30.165  1.00  0.00     0.031 A 
ATOM     42  C   UNL A   1      38.949  29.906  29.580  1.00  0.00     0.074 A 
ATOM     43  C   UNL A   1      39.558  31.927  30.838  1.00  0.00     0.049 A 
ATOM     44  N   UNL A   1      39.940  29.167  29.949  1.00  0.00    -0.248 NA
ATOM     45  C   UNL A   1      38.135  29.282  28.534  1.00  0.00     0.031 C 
ATOM     46  C   UNL A   1      40.997  31.679  30.884  1.00  0.00     0.029 A 
ATOM     47  N   UNL A   1      39.358  32.892  31.808  1.00  0.00    -0.354 N 
ATOM     48  C   UNL A   1      40.102  28.201  28.984  1.00  0.00     0.074 A 
ATOM     49  C   UNL A   1      38.880  28.219  28.220  1.00  0.00     0.031 C 
ATOM     50  C   UNL A   1      41.517  32.302  31.954  1.00  0.00     0.029 A 
ATOM     51  C   UNL A   1      40.398  32.788  32.744  1.00  0.00     0.049 A 
ATOM     52  H   UNL A   1      38.617  33.539  31.837  1.00  0.00     0.167 HD
ATOM     53  C   UNL A   1      41.322  27.617  28.830  1.00  0.00     0.031 A 
ATOM     54  C   UNL A   1      40.144  32.374  34.026  1.00  0.00     0.031 A 
ATOM     55  C   UNL A   1      42.209  27.931  29.948  1.00  0.00     0.049 A 
ATOM     56  C   UNL A   1      40.841  31.091  34.421  1.00  0.00     0.074 A 
ATOM     57  C   UNL A   1      43.306  28.763  30.084  1.00  0.00     0.029 A 
ATOM     58  N   UNL A   1      41.836  27.550  31.232  1.00  0.00    -0.354 N 
ATOM     59  N   UNL A   1      41.307  30.222  33.568  1.00  0.00    -0.248 NA
ATOM     60  C   UNL A   1      41.008  30.661  35.806  1.00  0.00     0.031 C 
ATOM     61  C   UNL A   1      43.515  28.975  31.474  1.00  0.00     0.029 A 
ATOM     62  C   UNL A   1      42.579  28.232  32.173  1.00  0.00     0.049 A 
ATOM     63  H   UNL A   1      41.137  26.888  31.441  1.00  0.00     0.167 HD
ATOM     64  C   UNL A   1      41.799  29.140  34.244  1.00  0.00     0.074 A 
ATOM     65  C   UNL A   1      41.606  29.467  35.644  1.00  0.00     0.031 C 
ATOM     66  C   UNL A   1      42.303  28.054  33.592  1.00  0.00     0.031 A 
BRANCH  53  67
ATOM     67  C   UNL A   1      41.805  26.952  27.558  1.00  0.00    -0.014 A 
ATOM     68  C   UNL A   1      42.297  25.634  27.617  1.00  0.00     0.009 A 
ATOM     69  C   UNL A   1      41.924  27.589  26.309  1.00  0.00     0.009 A 
ATOM     70  C   UNL A   1      42.882  25.005  26.509  1.00  0.00     0.001 A 
ATOM     71  C   UNL A   1      42.483  26.958  25.188  1.00  0.00     0.001 A 
ATOM     72  C   UNL A   1      42.973  25.666  25.292  1.00  0.00     0.000 A 
ENDBRANCH  53  67
BRANCH  54  73
ATOM     73  C   UNL A   1      38.765  32.716  34.475  1.00  0.00    -0.014 A 
ATOM     74  C   UNL A   1      38.485  34.063  34.766  1.00  0.00     0.009 A 
ATOM     75  C   UNL A   1      37.702  31.847  34.181  1.00  0.00     0.009 A 
ATOM     76  C   UNL A   1      37.194  34.560  34.602  1.00  0.00     0.001 A 
ATOM     77  C   UNL A   1      36.405  32.351  34.038  1.00  0.00     0.001 A 
ATOM     78  C   UNL A   1      36.163  33.713  34.202  1.00  0.00     0.000 A 
ENDBRANCH  54  73
BRANCH  66  79
ATOM     79  C   UNL A   1      42.632  26.736  34.241  1.00  0.00    -0.014 A 
ATOM     80  C   UNL A   1      41.724  25.997  35.011  1.00  0.00     0.009 A 
ATOM     81  C   UNL A   1      43.874  26.130  33.960  1.00  0.00     0.009 A 
ATOM     82  C   UNL A   1      42.064  24.742  35.531  1.00  0.00     0.001 A 
ATOM     83  C   UNL A   1      44.200  24.859  34.438  1.00  0.00     0.001 A 
ATOM     84  C   UNL A   1      43.300  24.171  35.239  1.00  0.00     0.000 A 
ENDBRANCH  66  79
ENDBRANCH  40  41
ENDBRANCH  32  35
ENDBRANCH  30  31
ENDBRANCH  29  30
ENDBRANCH   1  29
TORSDOF 14
ENDMDL
MODEL 3
REMARK VINA RESULT:     -12.6      3.329      8.533
REMARK SMILES Cc1ccc(C(=O)NCCCCNC(=O)c2ccc(-c3c4nc(c(-c5ccccc5)c5ccc([nH]5)c(-c5ccccc5)c5nc(c(-c6ccccc6)c6ccc3[nH]6)C=C5)C=C4)cc2)cc1NC(=O)Cc1ccc2ccccc2c1
REMARK SMILES IDX 10 1 9 2 8 3 6 4 7 5 5 7 1 8 2 9 3 10 65 11 4 12 64 13 66 14
REMARK SMILES IDX 67 15 68 17 69 18 70 19 71 20 79 21 72 22 78 23 73 24 77 25
REMARK SMILES IDX 74 26 76 27 75 28 11 29 12 30 13 31 14 32 15 34 16 35 17 36
REMARK SMILES IDX 63 37 18 38 62 39 19 40 20 41 21 42 56 43 22 44 61 45 55 46
REMARK SMILES IDX 57 47 23 48 60 49 54 50 53 51 24 53 46 54 31 55 45 56 32 57
REMARK SMILES IDX 35 58 44 59 58 60 33 61 34 62 43 64 59 65 36 66 25 67 26 68
REMARK SMILES IDX 30 69 27 70 29 71 28 72 47 73 48 74 52 75 49 76 51 77 50 78
REMARK SMILES IDX 37 79 38 80 42 81 39 82 41 83 40 84
REMARK H PARENT 8 6 66 16 13 33 57 52 35 63
REMARK Flexibility Score: inf
ROOT
ATOM      1  C   UNL A   1      37.263  21.838  24.998  1.00  0.00     0.023 C 
ENDROOT
BRANCH   1   2
ATOM      2  C   UNL A   1      35.946  21.803  25.784  1.00  0.00     0.116 C 
BRANCH   2   3
ATOM      3  N   UNL A   1      35.125  20.625  25.635  1.00  0.00    -0.352 N 
ATOM      4  C   UNL A   1      33.893  20.421  25.051  1.00  0.00     0.251 C 
ATOM      5  O   UNL A   1      33.496  19.256  24.974  1.00  0.00    -0.269 OA
ATOM      6  H   UNL A   1      35.520  19.811  26.023  1.00  0.00     0.163 HD
BRANCH   4   7
ATOM      7  C   UNL A   1      32.981  21.516  24.588  1.00  0.00     0.041 A 
ATOM      8  C   UNL A   1      30.218  24.730  23.700  1.00  0.00     0.046 C 
ATOM      9  C   UNL A   1      31.236  23.641  23.924  1.00  0.00    -0.027 A 
ATOM     10  C   UNL A   1      31.114  22.943  25.146  1.00  0.00     0.006 A 
ATOM     11  C   UNL A   1      32.232  23.253  22.997  1.00  0.00     0.044 A 
ATOM     12  C   UNL A   1      31.997  21.922  25.487  1.00  0.00     0.014 A 
ATOM     13  C   UNL A   1      33.010  22.121  23.321  1.00  0.00     0.040 A 
BRANCH  11  14
ATOM     14  N   UNL A   1      32.414  24.027  21.810  1.00  0.00    -0.326 N 
ATOM     15  C   UNL A   1      33.079  25.205  21.505  1.00  0.00     0.228 C 
ATOM     16  H   UNL A   1      31.963  23.632  21.029  1.00  0.00     0.169 HD
ATOM     17  O   UNL A   1      32.978  25.642  20.358  1.00  0.00    -0.274 OA
BRANCH  15  18
ATOM     18  C   UNL A   1      33.876  25.888  22.577  1.00  0.00     0.135 C 
BRANCH  18  19
ATOM     19  C   UNL A   1      33.389  27.002  23.476  1.00  0.00    -0.038 A 
ATOM     20  C   UNL A   1      32.229  27.645  23.010  1.00  0.00     0.005 A 
ATOM     21  C   UNL A   1      33.909  27.428  24.698  1.00  0.00     0.013 A 
ATOM     22  C   UNL A   1      31.661  28.727  23.659  1.00  0.00     0.009 A 
ATOM     23  C   UNL A   1      33.297  28.492  25.418  1.00  0.00    -0.018 A 
ATOM     24  C   UNL A   1      32.181  29.162  24.864  1.00  0.00    -0.018 A 
ATOM     25  C   UNL A   1      33.724  28.906  26.693  1.00  0.00     0.009 A 
ATOM     26  C   UNL A   1      31.563  30.229  25.528  1.00  0.00     0.009 A 
ATOM     27  C   UNL A   1      33.066  29.937  27.379  1.00  0.00     0.001 A 
ATOM     28  C   UNL A   1      31.999  30.610  26.790  1.00  0.00     0.001 A 
ENDBRANCH  18  19
ENDBRANCH  15  18
ENDBRANCH  11  14
ENDBRANCH   4   7
ENDBRANCH   2   3
ENDBRANCH   1   2
BRANCH   1  29
ATOM     29  C   UNL A   1      38.244  20.687  25.237  1.00  0.00     0.023 C 
BRANCH  29  30
ATOM     30  C   UNL A   1      39.521  21.059  25.986  1.00  0.00     0.116 C 
BRANCH  30  31
ATOM     31  N   UNL A   1      40.615  20.096  25.977  1.00  0.00    -0.352 N 
ATOM     32  C   UNL A   1      41.973  20.294  26.241  1.00  0.00     0.251 C 
ATOM     33  H   UNL A   1      40.360  19.171  25.754  1.00  0.00     0.163 HD
ATOM     34  O   UNL A   1      42.755  19.376  26.109  1.00  0.00    -0.269 OA
BRANCH  32  35
ATOM     35  C   UNL A   1      42.451  21.590  26.813  1.00  0.00     0.039 A 
ATOM     36  C   UNL A   1      42.340  21.821  28.197  1.00  0.00     0.014 A 
ATOM     37  C   UNL A   1      42.900  22.614  25.994  1.00  0.00     0.014 A 
ATOM     38  C   UNL A   1      42.509  23.113  28.715  1.00  0.00     0.010 A 
ATOM     39  C   UNL A   1      42.936  23.902  26.472  1.00  0.00     0.010 A 
ATOM     40  C   UNL A   1      42.738  24.161  27.832  1.00  0.00    -0.014 A 
BRANCH  40  41
ATOM     41  C   UNL A   1      42.885  25.574  28.159  1.00  0.00     0.031 A 
ATOM     42  C   UNL A   1      41.703  26.463  28.037  1.00  0.00     0.074 A 
ATOM     43  C   UNL A   1      43.943  25.951  28.905  1.00  0.00     0.049 A 
ATOM     44  N   UNL A   1      41.711  27.732  28.271  1.00  0.00    -0.248 NA
ATOM     45  C   UNL A   1      40.395  25.979  27.586  1.00  0.00     0.031 C 
ATOM     46  C   UNL A   1      44.020  27.056  29.858  1.00  0.00     0.029 A 
ATOM     47  N   UNL A   1      45.255  25.528  28.784  1.00  0.00    -0.354 N 
ATOM     48  C   UNL A   1      40.399  28.133  28.362  1.00  0.00     0.074 A 
ATOM     49  C   UNL A   1      39.633  27.058  27.783  1.00  0.00     0.031 C 
ATOM     50  C   UNL A   1      45.310  27.362  30.075  1.00  0.00     0.029 A 
ATOM     51  C   UNL A   1      46.090  26.608  29.107  1.00  0.00     0.049 A 
ATOM     52  H   UNL A   1      45.550  24.628  28.517  1.00  0.00     0.167 HD
ATOM     53  C   UNL A   1      40.096  29.251  29.076  1.00  0.00     0.031 A 
ATOM     54  C   UNL A   1      46.873  27.196  28.148  1.00  0.00     0.031 A 
ATOM     55  C   UNL A   1      41.297  30.018  29.403  1.00  0.00     0.049 A 
ATOM     56  C   UNL A   1      46.560  28.653  27.889  1.00  0.00     0.074 A 
ATOM     57  C   UNL A   1      42.012  30.208  30.572  1.00  0.00     0.029 A 
ATOM     58  N   UNL A   1      42.085  30.508  28.368  1.00  0.00    -0.354 N 
ATOM     59  N   UNL A   1      45.433  29.224  28.206  1.00  0.00    -0.248 NA
ATOM     60  C   UNL A   1      47.471  29.560  27.196  1.00  0.00     0.031 C 
ATOM     61  C   UNL A   1      43.293  30.710  30.214  1.00  0.00     0.029 A 
ATOM     62  C   UNL A   1      43.331  30.869  28.839  1.00  0.00     0.049 A 
ATOM     63  H   UNL A   1      41.797  30.584  27.429  1.00  0.00     0.167 HD
ATOM     64  C   UNL A   1      45.438  30.518  27.763  1.00  0.00     0.074 A 
ATOM     65  C   UNL A   1      46.742  30.689  27.151  1.00  0.00     0.031 C 
ATOM     66  C   UNL A   1      44.356  31.334  27.916  1.00  0.00     0.031 A 
BRANCH  53  67
ATOM     67  C   UNL A   1      38.743  29.541  29.690  1.00  0.00    -0.014 A 
ATOM     68  C   UNL A   1      38.514  29.202  31.038  1.00  0.00     0.009 A 
ATOM     69  C   UNL A   1      37.623  30.021  28.986  1.00  0.00     0.009 A 
ATOM     70  C   UNL A   1      37.249  29.318  31.633  1.00  0.00     0.001 A 
ATOM     71  C   UNL A   1      36.361  30.166  29.581  1.00  0.00     0.001 A 
ATOM     72  C   UNL A   1      36.171  29.804  30.905  1.00  0.00     0.000 A 
ENDBRANCH  53  67
BRANCH  54  73
ATOM     73  C   UNL A   1      47.261  26.248  27.065  1.00  0.00    -0.014 A 
ATOM     74  C   UNL A   1      46.377  26.092  25.982  1.00  0.00     0.009 A 
ATOM     75  C   UNL A   1      48.610  25.894  26.901  1.00  0.00     0.009 A 
ATOM     76  C   UNL A   1      46.867  25.750  24.724  1.00  0.00     0.001 A 
ATOM     77  C   UNL A   1      49.090  25.532  25.639  1.00  0.00     0.001 A 
ATOM     78  C   UNL A   1      48.227  25.507  24.544  1.00  0.00     0.000 A 
ENDBRANCH  54  73
BRANCH  66  79
ATOM     79  C   UNL A   1      44.185  32.672  27.248  1.00  0.00    -0.014 A 
ATOM     80  C   UNL A   1      44.141  32.851  25.859  1.00  0.00     0.009 A 
ATOM     81  C   UNL A   1      43.921  33.803  28.048  1.00  0.00     0.009 A 
ATOM     82  C   UNL A   1      43.908  34.112  25.296  1.00  0.00     0.001 A 
ATOM     83  C   UNL A   1      43.643  35.053  27.490  1.00  0.00     0.001 A 
ATOM     84  C   UNL A   1      43.654  35.212  26.111  1.00  0.00     0.000 A 
ENDBRANCH  66  79
ENDBRANCH  40  41
ENDBRANCH  32  35
ENDBRANCH  30  31
ENDBRANCH  29  30
ENDBRANCH   1  29
TORSDOF 14
ENDMDL
