MODEL 1
REMARK VINA RESULT:     -11.7      0.000      0.000
REMARK SMILES CC1(C)[C@H](C(=O)NCCCCNC(=O)c2ccc(-c3c4nc(c(-c5ccccc5)c5ccc([nH]5)c(-c5ccccc5)c5nc(c(-c6ccccc6)c6ccc3[nH]6)C=C5)C=C4)cc2)[C@H]1C(=O)Nc1ccc(C(=O)NCCc2ccccc2)cc1
REMARK SMILES IDX 5 1 6 2 7 3 4 5 1 6 2 7 3 8 63 9 64 10 65 11 66 12 67 14
REMARK SMILES IDX 68 15 83 16 69 17 82 18 70 19 71 20 72 21 73 22 74 24 75 25
REMARK SMILES IDX 76 26 77 27 81 28 78 29 80 30 79 31 8 32 9 33 10 34 11 35
REMARK SMILES IDX 12 36 13 37 14 39 15 40 16 41 62 42 17 43 61 44 18 45 19 46
REMARK SMILES IDX 20 47 55 48 21 49 60 50 54 51 56 52 22 53 59 54 53 55 52 56
REMARK SMILES IDX 23 58 45 59 30 60 44 61 31 62 34 63 43 64 57 65 32 66 33 67
REMARK SMILES IDX 42 69 58 70 35 71 24 72 25 73 29 74 26 75 28 76 27 77 46 78
REMARK SMILES IDX 47 79 51 80 48 81 50 82 49 83 36 84 37 85 41 86 38 87 40 88
REMARK SMILES IDX 39 89
REMARK H PARENT 7 4 66 13 73 23 12 38 56 57 34 68
REMARK Flexibility Score: inf
ROOT
ATOM      1  C   UNL A   1      31.289  25.369  26.559  1.00  0.00     0.224 C 
ATOM      2  O   UNL A   1      31.341  24.343  27.241  1.00  0.00    -0.275 OA
ATOM      3  N   UNL A   1      31.352  26.534  27.263  1.00  0.00    -0.356 N 
ATOM      4  H   UNL A   1      31.516  26.391  28.223  1.00  0.00     0.163 HD
ENDROOT
BRANCH   1   5
ATOM      5  C   UNL A   1      31.216  25.184  25.085  1.00  0.00     0.098 C 
ATOM      6  C   UNL A   1      29.932  24.294  23.058  1.00  0.00     0.013 C 
ATOM      7  C   UNL A   1      30.129  25.430  24.038  1.00  0.00    -0.011 C 
ATOM      8  C   UNL A   1      28.827  26.148  24.246  1.00  0.00     0.013 C 
ATOM      9  C   UNL A   1      31.407  26.287  24.089  1.00  0.00     0.098 C 
BRANCH   9  10
ATOM     10  C   UNL A   1      32.464  26.348  23.026  1.00  0.00     0.228 C 
ATOM     11  O   UNL A   1      32.136  26.724  21.906  1.00  0.00    -0.274 OA
ATOM     12  N   UNL A   1      33.784  26.322  23.419  1.00  0.00    -0.326 N 
ATOM     13  H   UNL A   1      34.297  27.159  23.342  1.00  0.00     0.169 HD
BRANCH  12  14
ATOM     14  C   UNL A   1      34.454  25.200  23.921  1.00  0.00     0.041 A 
ATOM     15  C   UNL A   1      34.850  25.183  25.257  1.00  0.00     0.027 A 
ATOM     16  C   UNL A   1      34.699  24.092  23.110  1.00  0.00     0.027 A 
ATOM     17  C   UNL A   1      35.279  23.980  25.826  1.00  0.00     0.016 A 
ATOM     18  C   UNL A   1      35.147  22.897  23.668  1.00  0.00     0.016 A 
ATOM     19  C   UNL A   1      35.345  22.819  25.045  1.00  0.00     0.039 A 
BRANCH  19  20
ATOM     20  C   UNL A   1      35.619  21.527  25.708  1.00  0.00     0.251 C 
ATOM     21  O   UNL A   1      36.765  21.257  26.053  1.00  0.00    -0.269 OA
ATOM     22  N   UNL A   1      34.591  20.656  25.983  1.00  0.00    -0.352 N 
ATOM     23  H   UNL A   1      34.876  19.787  26.347  1.00  0.00     0.163 HD
BRANCH  22  24
ATOM     24  C   UNL A   1      33.146  20.805  25.824  1.00  0.00     0.121 C 
BRANCH  24  25
ATOM     25  C   UNL A   1      32.631  20.149  24.535  1.00  0.00     0.057 C 
BRANCH  25  26
ATOM     26  C   UNL A   1      32.857  18.654  24.520  1.00  0.00    -0.046 A 
ATOM     27  C   UNL A   1      33.449  18.033  23.412  1.00  0.00     0.004 A 
ATOM     28  C   UNL A   1      32.513  17.874  25.633  1.00  0.00     0.004 A 
ATOM     29  C   UNL A   1      33.704  16.660  23.424  1.00  0.00     0.000 A 
ATOM     30  C   UNL A   1      32.763  16.501  25.640  1.00  0.00     0.000 A 
ATOM     31  C   UNL A   1      33.364  15.895  24.537  1.00  0.00     0.000 A 
ENDBRANCH  25  26
ENDBRANCH  24  25
ENDBRANCH  22  24
ENDBRANCH  19  20
ENDBRANCH  12  14
ENDBRANCH   9  10
ENDBRANCH   1   5
BRANCH   3  32
ATOM     32  C   UNL A   1      31.233  27.928  26.918  1.00  0.00     0.116 C 
BRANCH  32  33
ATOM     33  C   UNL A   1      32.612  28.582  26.814  1.00  0.00     0.023 C 
BRANCH  33  34
ATOM     34  C   UNL A   1      32.652  30.058  27.193  1.00  0.00     0.023 C 
BRANCH  34  35
ATOM     35  C   UNL A   1      34.043  30.620  27.454  1.00  0.00     0.116 C 
BRANCH  35  36
ATOM     36  N   UNL A   1      34.118  31.486  28.623  1.00  0.00    -0.352 N 
ATOM     37  C   UNL A   1      35.108  31.557  29.576  1.00  0.00     0.251 C 
ATOM     38  H   UNL A   1      33.361  32.103  28.747  1.00  0.00     0.163 HD
ATOM     39  O   UNL A   1      34.990  32.287  30.554  1.00  0.00    -0.269 OA
BRANCH  37  40
ATOM     40  C   UNL A   1      36.295  30.695  29.427  1.00  0.00     0.039 A 
ATOM     41  C   UNL A   1      37.013  30.737  28.231  1.00  0.00     0.014 A 
ATOM     42  C   UNL A   1      36.754  29.941  30.511  1.00  0.00     0.014 A 
ATOM     43  C   UNL A   1      38.255  30.107  28.156  1.00  0.00     0.010 A 
ATOM     44  C   UNL A   1      38.023  29.379  30.459  1.00  0.00     0.010 A 
ATOM     45  C   UNL A   1      38.793  29.478  29.290  1.00  0.00    -0.014 A 
BRANCH  45  46
ATOM     46  C   UNL A   1      40.181  28.958  29.303  1.00  0.00     0.031 A 
ATOM     47  C   UNL A   1      41.325  29.877  29.618  1.00  0.00     0.074 A 
ATOM     48  C   UNL A   1      40.417  27.687  28.924  1.00  0.00     0.049 A 
ATOM     49  N   UNL A   1      42.610  29.643  29.555  1.00  0.00    -0.248 NA
ATOM     50  C   UNL A   1      40.979  31.246  30.030  1.00  0.00     0.031 C 
ATOM     51  C   UNL A   1      39.394  26.705  28.553  1.00  0.00     0.029 A 
ATOM     52  N   UNL A   1      41.599  27.005  28.772  1.00  0.00    -0.354 N 
ATOM     53  C   UNL A   1      43.226  30.840  29.899  1.00  0.00     0.074 A 
ATOM     54  C   UNL A   1      42.173  31.808  30.126  1.00  0.00     0.031 C 
ATOM     55  C   UNL A   1      39.991  25.544  28.237  1.00  0.00     0.029 A 
ATOM     56  C   UNL A   1      41.437  25.712  28.336  1.00  0.00     0.049 A 
ATOM     57  H   UNL A   1      42.479  27.406  28.956  1.00  0.00     0.167 HD
ATOM     58  C   UNL A   1      44.547  31.105  30.029  1.00  0.00     0.031 A 
ATOM     59  C   UNL A   1      42.350  24.771  28.034  1.00  0.00     0.031 A 
ATOM     60  C   UNL A   1      45.589  30.139  29.815  1.00  0.00     0.049 A 
ATOM     61  C   UNL A   1      43.811  25.100  28.154  1.00  0.00     0.074 A 
ATOM     62  C   UNL A   1      46.953  30.290  29.993  1.00  0.00     0.029 A 
ATOM     63  N   UNL A   1      45.383  28.843  29.371  1.00  0.00    -0.354 N 
ATOM     64  N   UNL A   1      44.375  26.216  28.544  1.00  0.00    -0.248 NA
ATOM     65  C   UNL A   1      44.760  24.039  27.789  1.00  0.00     0.031 C 
ATOM     66  C   UNL A   1      47.577  29.099  29.609  1.00  0.00     0.029 A 
ATOM     67  C   UNL A   1      46.598  28.192  29.236  1.00  0.00     0.049 A 
ATOM     68  H   UNL A   1      44.504  28.443  29.181  1.00  0.00     0.167 HD
ATOM     69  C   UNL A   1      45.743  25.990  28.487  1.00  0.00     0.074 A 
ATOM     70  C   UNL A   1      45.924  24.624  28.039  1.00  0.00     0.031 C 
ATOM     71  C   UNL A   1      46.758  26.837  28.779  1.00  0.00     0.031 A 
BRANCH  58  72
ATOM     72  C   UNL A   1      44.931  32.504  30.415  1.00  0.00    -0.014 A 
ATOM     73  C   UNL A   1      45.299  33.449  29.445  1.00  0.00     0.009 A 
ATOM     74  C   UNL A   1      44.904  32.888  31.764  1.00  0.00     0.009 A 
ATOM     75  C   UNL A   1      45.668  34.742  29.822  1.00  0.00     0.001 A 
ATOM     76  C   UNL A   1      45.247  34.189  32.136  1.00  0.00     0.001 A 
ATOM     77  C   UNL A   1      45.638  35.111  31.166  1.00  0.00     0.000 A 
ENDBRANCH  58  72
BRANCH  59  78
ATOM     78  C   UNL A   1      41.910  23.425  27.585  1.00  0.00    -0.014 A 
ATOM     79  C   UNL A   1      41.801  23.138  26.217  1.00  0.00     0.009 A 
ATOM     80  C   UNL A   1      41.601  22.422  28.518  1.00  0.00     0.009 A 
ATOM     81  C   UNL A   1      41.374  21.879  25.791  1.00  0.00     0.001 A 
ATOM     82  C   UNL A   1      41.198  21.157  28.088  1.00  0.00     0.001 A 
ATOM     83  C   UNL A   1      41.077  20.888  26.726  1.00  0.00     0.000 A 
ENDBRANCH  59  78
BRANCH  71  84
ATOM     84  C   UNL A   1      48.156  26.309  28.634  1.00  0.00    -0.014 A 
ATOM     85  C   UNL A   1      48.827  25.737  29.725  1.00  0.00     0.009 A 
ATOM     86  C   UNL A   1      48.786  26.337  27.381  1.00  0.00     0.009 A 
ATOM     87  C   UNL A   1      50.115  25.221  29.566  1.00  0.00     0.001 A 
ATOM     88  C   UNL A   1      50.063  25.799  27.220  1.00  0.00     0.001 A 
ATOM     89  C   UNL A   1      50.728  25.247  28.314  1.00  0.00     0.000 A 
ENDBRANCH  71  84
ENDBRANCH  45  46
ENDBRANCH  37  40
ENDBRANCH  35  36
ENDBRANCH  34  35
ENDBRANCH  33  34
ENDBRANCH  32  33
ENDBRANCH   3  32
TORSDOF 17
ENDMDL
MODEL 2
REMARK VINA RESULT:     -11.1      4.248      8.949
REMARK SMILES CC1(C)[C@H](C(=O)NCCCCNC(=O)c2ccc(-c3c4nc(c(-c5ccccc5)c5ccc([nH]5)c(-c5ccccc5)c5nc(c(-c6ccccc6)c6ccc3[nH]6)C=C5)C=C4)cc2)[C@H]1C(=O)Nc1ccc(C(=O)NCCc2ccccc2)cc1
REMARK SMILES IDX 5 1 6 2 7 3 4 5 1 6 2 7 3 8 63 9 64 10 65 11 66 12 67 14
REMARK SMILES IDX 68 15 83 16 69 17 82 18 70 19 71 20 72 21 73 22 74 24 75 25
REMARK SMILES IDX 76 26 77 27 81 28 78 29 80 30 79 31 8 32 9 33 10 34 11 35
REMARK SMILES IDX 12 36 13 37 14 39 15 40 16 41 62 42 17 43 61 44 18 45 19 46
REMARK SMILES IDX 20 47 55 48 21 49 60 50 54 51 56 52 22 53 59 54 53 55 52 56
REMARK SMILES IDX 23 58 45 59 30 60 44 61 31 62 34 63 43 64 57 65 32 66 33 67
REMARK SMILES IDX 42 69 58 70 35 71 24 72 25 73 29 74 26 75 28 76 27 77 46 78
REMARK SMILES IDX 47 79 51 80 48 81 50 82 49 83 36 84 37 85 41 86 38 87 40 88
REMARK SMILES IDX 39 89
REMARK H PARENT 7 4 66 13 73 23 12 38 56 57 34 68
REMARK Flexibility Score: inf
ROOT
ATOM      1  C   UNL A   1      43.963  21.612  25.775  1.00  0.00     0.224 C 
ATOM      2  O   UNL A   1      43.557  20.745  24.998  1.00  0.00    -0.275 OA
ATOM      3  N   UNL A   1      45.299  21.872  25.704  1.00  0.00    -0.356 N 
ATOM      4  H   UNL A   1      45.744  21.384  24.974  1.00  0.00     0.163 HD
ENDROOT
BRANCH   1   5
ATOM      5  C   UNL A   1      42.939  22.271  26.631  1.00  0.00     0.098 C 
ATOM      6  C   UNL A   1      42.207  24.324  27.970  1.00  0.00     0.013 C 
ATOM      7  C   UNL A   1      42.273  23.647  26.619  1.00  0.00    -0.011 C 
ATOM      8  C   UNL A   1      42.374  24.685  25.540  1.00  0.00     0.013 C 
ATOM      9  C   UNL A   1      41.485  22.369  26.278  1.00  0.00     0.098 C 
BRANCH   9  10
ATOM     10  C   UNL A   1      40.341  21.806  27.069  1.00  0.00     0.228 C 
ATOM     11  O   UNL A   1      40.575  20.891  27.850  1.00  0.00    -0.274 OA
ATOM     12  N   UNL A   1      39.182  22.545  27.150  1.00  0.00    -0.326 N 
ATOM     13  H   UNL A   1      38.977  22.974  28.012  1.00  0.00     0.169 HD
BRANCH  12  14
ATOM     14  C   UNL A   1      38.271  22.735  26.104  1.00  0.00     0.041 A 
ATOM     15  C   UNL A   1      38.094  21.725  25.161  1.00  0.00     0.027 A 
ATOM     16  C   UNL A   1      37.519  23.907  26.014  1.00  0.00     0.027 A 
ATOM     17  C   UNL A   1      37.014  21.797  24.277  1.00  0.00     0.016 A 
ATOM     18  C   UNL A   1      36.455  23.993  25.120  1.00  0.00     0.016 A 
ATOM     19  C   UNL A   1      36.146  22.897  24.319  1.00  0.00     0.039 A 
BRANCH  19  20
ATOM     20  C   UNL A   1      34.910  22.862  23.509  1.00  0.00     0.251 C 
ATOM     21  O   UNL A   1      34.958  23.173  22.322  1.00  0.00    -0.269 OA
ATOM     22  N   UNL A   1      33.728  22.437  24.065  1.00  0.00    -0.352 N 
ATOM     23  H   UNL A   1      32.942  22.528  23.478  1.00  0.00     0.163 HD
BRANCH  22  24
ATOM     24  C   UNL A   1      33.441  21.873  25.382  1.00  0.00     0.121 C 
BRANCH  24  25
ATOM     25  C   UNL A   1      34.198  20.562  25.632  1.00  0.00     0.057 C 
BRANCH  25  26
ATOM     26  C   UNL A   1      33.816  19.480  24.648  1.00  0.00    -0.046 A 
ATOM     27  C   UNL A   1      34.607  18.331  24.507  1.00  0.00     0.004 A 
ATOM     28  C   UNL A   1      32.641  19.592  23.892  1.00  0.00     0.004 A 
ATOM     29  C   UNL A   1      34.222  17.311  23.636  1.00  0.00     0.000 A 
ATOM     30  C   UNL A   1      32.261  18.573  23.017  1.00  0.00     0.000 A 
ATOM     31  C   UNL A   1      33.049  17.430  22.893  1.00  0.00     0.000 A 
ENDBRANCH  25  26
ENDBRANCH  24  25
ENDBRANCH  22  24
ENDBRANCH  19  20
ENDBRANCH  12  14
ENDBRANCH   9  10
ENDBRANCH   1   5
BRANCH   3  32
ATOM     32  C   UNL A   1      46.206  22.701  26.457  1.00  0.00     0.116 C 
BRANCH  32  33
ATOM     33  C   UNL A   1      46.095  24.162  26.021  1.00  0.00     0.023 C 
BRANCH  33  34
ATOM     34  C   UNL A   1      46.843  24.509  24.739  1.00  0.00     0.023 C 
BRANCH  34  35
ATOM     35  C   UNL A   1      47.904  25.592  24.883  1.00  0.00     0.116 C 
BRANCH  35  36
ATOM     36  N   UNL A   1      47.665  26.765  24.052  1.00  0.00    -0.352 N 
ATOM     37  C   UNL A   1      46.940  27.895  24.351  1.00  0.00     0.251 C 
ATOM     38  H   UNL A   1      48.079  26.746  23.159  1.00  0.00     0.163 HD
ATOM     39  O   UNL A   1      46.762  28.770  23.511  1.00  0.00    -0.269 OA
BRANCH  37  40
ATOM     40  C   UNL A   1      46.333  28.011  25.690  1.00  0.00     0.039 A 
ATOM     41  C   UNL A   1      47.096  28.539  26.733  1.00  0.00     0.014 A 
ATOM     42  C   UNL A   1      44.982  27.705  25.876  1.00  0.00     0.014 A 
ATOM     43  C   UNL A   1      46.474  28.865  27.937  1.00  0.00     0.010 A 
ATOM     44  C   UNL A   1      44.351  28.100  27.048  1.00  0.00     0.010 A 
ATOM     45  C   UNL A   1      45.087  28.705  28.079  1.00  0.00    -0.014 A 
BRANCH  45  46
ATOM     46  C   UNL A   1      44.365  29.207  29.272  1.00  0.00     0.031 A 
ATOM     47  C   UNL A   1      43.929  30.642  29.338  1.00  0.00     0.074 A 
ATOM     48  C   UNL A   1      44.201  28.399  30.337  1.00  0.00     0.049 A 
ATOM     49  N   UNL A   1      43.403  31.297  30.340  1.00  0.00    -0.248 NA
ATOM     50  C   UNL A   1      44.139  31.453  28.128  1.00  0.00     0.031 C 
ATOM     51  C   UNL A   1      44.618  26.996  30.413  1.00  0.00     0.029 A 
ATOM     52  N   UNL A   1      43.653  28.648  31.570  1.00  0.00    -0.354 N 
ATOM     53  C   UNL A   1      43.238  32.601  29.890  1.00  0.00     0.074 A 
ATOM     54  C   UNL A   1      43.760  32.652  28.540  1.00  0.00     0.031 C 
ATOM     55  C   UNL A   1      44.292  26.505  31.620  1.00  0.00     0.029 A 
ATOM     56  C   UNL A   1      43.688  27.566  32.418  1.00  0.00     0.049 A 
ATOM     57  H   UNL A   1      43.272  29.519  31.825  1.00  0.00     0.167 HD
ATOM     58  C   UNL A   1      42.687  33.655  30.535  1.00  0.00     0.031 A 
ATOM     59  C   UNL A   1      43.294  27.447  33.699  1.00  0.00     0.031 A 
ATOM     60  C   UNL A   1      42.158  33.599  31.871  1.00  0.00     0.049 A 
ATOM     61  C   UNL A   1      42.717  28.641  34.404  1.00  0.00     0.074 A 
ATOM     62  C   UNL A   1      41.514  34.594  32.584  1.00  0.00     0.029 A 
ATOM     63  N   UNL A   1      42.217  32.487  32.694  1.00  0.00    -0.354 N 
ATOM     64  N   UNL A   1      42.507  29.849  33.942  1.00  0.00    -0.248 NA
ATOM     65  C   UNL A   1      42.326  28.455  35.809  1.00  0.00     0.031 C 
ATOM     66  C   UNL A   1      41.226  34.098  33.860  1.00  0.00     0.029 A 
ATOM     67  C   UNL A   1      41.651  32.780  33.923  1.00  0.00     0.049 A 
ATOM     68  H   UNL A   1      42.604  31.617  32.444  1.00  0.00     0.167 HD
ATOM     69  C   UNL A   1      41.946  30.563  34.991  1.00  0.00     0.074 A 
ATOM     70  C   UNL A   1      41.834  29.649  36.110  1.00  0.00     0.031 C 
ATOM     71  C   UNL A   1      41.558  31.860  35.026  1.00  0.00     0.031 A 
BRANCH  58  72
ATOM     72  C   UNL A   1      42.640  34.962  29.798  1.00  0.00    -0.014 A 
ATOM     73  C   UNL A   1      43.652  35.921  29.956  1.00  0.00     0.009 A 
ATOM     74  C   UNL A   1      41.581  35.229  28.917  1.00  0.00     0.009 A 
ATOM     75  C   UNL A   1      43.586  37.138  29.275  1.00  0.00     0.001 A 
ATOM     76  C   UNL A   1      41.531  36.436  28.216  1.00  0.00     0.001 A 
ATOM     77  C   UNL A   1      42.528  37.392  28.404  1.00  0.00     0.000 A 
ENDBRANCH  58  72
BRANCH  59  78
ATOM     78  C   UNL A   1      43.434  26.145  34.401  1.00  0.00    -0.014 A 
ATOM     79  C   UNL A   1      44.696  25.705  34.825  1.00  0.00     0.009 A 
ATOM     80  C   UNL A   1      42.312  25.341  34.654  1.00  0.00     0.009 A 
ATOM     81  C   UNL A   1      44.834  24.475  35.473  1.00  0.00     0.001 A 
ATOM     82  C   UNL A   1      42.450  24.125  35.324  1.00  0.00     0.001 A 
ATOM     83  C   UNL A   1      43.711  23.688  35.725  1.00  0.00     0.000 A 
ENDBRANCH  59  78
BRANCH  71  84
ATOM     84  C   UNL A   1      40.966  32.366  36.310  1.00  0.00    -0.014 A 
ATOM     85  C   UNL A   1      41.777  32.936  37.302  1.00  0.00     0.009 A 
ATOM     86  C   UNL A   1      39.578  32.317  36.505  1.00  0.00     0.009 A 
ATOM     87  C   UNL A   1      41.208  33.431  38.477  1.00  0.00     0.001 A 
ATOM     88  C   UNL A   1      39.010  32.834  37.670  1.00  0.00     0.001 A 
ATOM     89  C   UNL A   1      39.826  33.385  38.656  1.00  0.00     0.000 A 
ENDBRANCH  71  84
ENDBRANCH  45  46
ENDBRANCH  37  40
ENDBRANCH  35  36
ENDBRANCH  34  35
ENDBRANCH  33  34
ENDBRANCH  32  33
ENDBRANCH   3  32
TORSDOF 17
ENDMDL
MODEL 3
REMARK VINA RESULT:     -10.9      3.823      7.224
REMARK SMILES CC1(C)[C@H](C(=O)NCCCCNC(=O)c2ccc(-c3c4nc(c(-c5ccccc5)c5ccc([nH]5)c(-c5ccccc5)c5nc(c(-c6ccccc6)c6ccc3[nH]6)C=C5)C=C4)cc2)[C@H]1C(=O)Nc1ccc(C(=O)NCCc2ccccc2)cc1
REMARK SMILES IDX 5 1 6 2 7 3 4 5 1 6 2 7 3 8 63 9 64 10 65 11 66 12 67 14
REMARK SMILES IDX 68 15 83 16 69 17 82 18 70 19 71 20 72 21 73 22 74 24 75 25
REMARK SMILES IDX 76 26 77 27 81 28 78 29 80 30 79 31 8 32 9 33 10 34 11 35
REMARK SMILES IDX 12 36 13 37 14 39 15 40 16 41 62 42 17 43 61 44 18 45 19 46
REMARK SMILES IDX 20 47 55 48 21 49 60 50 54 51 56 52 22 53 59 54 53 55 52 56
REMARK SMILES IDX 23 58 45 59 30 60 44 61 31 62 34 63 43 64 57 65 32 66 33 67
REMARK SMILES IDX 42 69 58 70 35 71 24 72 25 73 29 74 26 75 28 76 27 77 46 78
REMARK SMILES IDX 47 79 51 80 48 81 50 82 49 83 36 84 37 85 41 86 38 87 40 88
REMARK SMILES IDX 39 89
REMARK H PARENT 7 4 66 13 73 23 12 38 56 57 34 68
REMARK Flexibility Score: inf
ROOT
ATOM      1  C   UNL A   1      31.431  27.220  26.046  1.00  0.00     0.224 C 
ATOM      2  O   UNL A   1      31.004  26.401  26.863  1.00  0.00    -0.275 OA
ATOM      3  N   UNL A   1      32.427  28.029  26.506  1.00  0.00    -0.356 N 
ATOM      4  H   UNL A   1      32.727  27.787  27.413  1.00  0.00     0.163 HD
ENDROOT
BRANCH   1   5
ATOM      5  C   UNL A   1      30.837  27.172  24.683  1.00  0.00     0.098 C 
ATOM      6  C   UNL A   1      28.915  27.802  23.117  1.00  0.00     0.013 C 
ATOM      7  C   UNL A   1      30.220  28.220  23.757  1.00  0.00    -0.011 C 
ATOM      8  C   UNL A   1      30.231  29.709  23.952  1.00  0.00     0.013 C 
ATOM      9  C   UNL A   1      31.570  27.554  23.433  1.00  0.00     0.098 C 
BRANCH   9  10
ATOM     10  C   UNL A   1      31.847  26.661  22.260  1.00  0.00     0.228 C 
ATOM     11  O   UNL A   1      31.131  26.769  21.270  1.00  0.00    -0.274 OA
ATOM     12  N   UNL A   1      33.068  26.027  22.200  1.00  0.00    -0.326 N 
ATOM     13  H   UNL A   1      33.715  26.350  21.531  1.00  0.00     0.169 HD
BRANCH  12  14
ATOM     14  C   UNL A   1      33.464  24.960  23.015  1.00  0.00     0.041 A 
ATOM     15  C   UNL A   1      33.294  23.654  22.560  1.00  0.00     0.027 A 
ATOM     16  C   UNL A   1      34.053  25.190  24.258  1.00  0.00     0.027 A 
ATOM     17  C   UNL A   1      33.918  22.607  23.243  1.00  0.00     0.016 A 
ATOM     18  C   UNL A   1      34.656  24.146  24.955  1.00  0.00     0.016 A 
ATOM     19  C   UNL A   1      34.669  22.870  24.396  1.00  0.00     0.039 A 
BRANCH  19  20
ATOM     20  C   UNL A   1      35.469  21.780  24.992  1.00  0.00     0.251 C 
ATOM     21  O   UNL A   1      36.693  21.812  24.904  1.00  0.00    -0.269 OA
ATOM     22  N   UNL A   1      34.853  20.763  25.682  1.00  0.00    -0.352 N 
ATOM     23  H   UNL A   1      35.454  20.039  25.970  1.00  0.00     0.163 HD
BRANCH  22  24
ATOM     24  C   UNL A   1      33.454  20.579  26.061  1.00  0.00     0.121 C 
BRANCH  24  25
ATOM     25  C   UNL A   1      32.638  19.888  24.959  1.00  0.00     0.057 C 
BRANCH  25  26
ATOM     26  C   UNL A   1      32.992  18.426  24.812  1.00  0.00    -0.046 A 
ATOM     27  C   UNL A   1      32.691  17.512  25.830  1.00  0.00     0.004 A 
ATOM     28  C   UNL A   1      33.593  17.957  23.635  1.00  0.00     0.004 A 
ATOM     29  C   UNL A   1      32.972  16.154  25.668  1.00  0.00     0.000 A 
ATOM     30  C   UNL A   1      33.879  16.600  23.477  1.00  0.00     0.000 A 
ATOM     31  C   UNL A   1      33.564  15.698  24.492  1.00  0.00     0.000 A 
ENDBRANCH  25  26
ENDBRANCH  24  25
ENDBRANCH  22  24
ENDBRANCH  19  20
ENDBRANCH  12  14
ENDBRANCH   9  10
ENDBRANCH   1   5
BRANCH   3  32
ATOM     32  C   UNL A   1      33.140  29.158  25.965  1.00  0.00     0.116 C 
BRANCH  32  33
ATOM     33  C   UNL A   1      33.883  29.912  27.069  1.00  0.00     0.023 C 
BRANCH  33  34
ATOM     34  C   UNL A   1      33.783  31.431  26.990  1.00  0.00     0.023 C 
BRANCH  34  35
ATOM     35  C   UNL A   1      33.069  32.092  28.160  1.00  0.00     0.116 C 
BRANCH  35  36
ATOM     36  N   UNL A   1      32.855  33.523  27.988  1.00  0.00    -0.352 N 
ATOM     37  C   UNL A   1      33.556  34.569  28.544  1.00  0.00     0.251 C 
ATOM     38  H   UNL A   1      32.111  33.775  27.394  1.00  0.00     0.163 HD
ATOM     39  O   UNL A   1      33.202  35.729  28.365  1.00  0.00    -0.269 OA
BRANCH  37  40
ATOM     40  C   UNL A   1      34.713  34.265  29.406  1.00  0.00     0.039 A 
ATOM     41  C   UNL A   1      34.503  33.569  30.598  1.00  0.00     0.014 A 
ATOM     42  C   UNL A   1      36.007  34.569  28.973  1.00  0.00     0.014 A 
ATOM     43  C   UNL A   1      35.599  33.079  31.305  1.00  0.00     0.010 A 
ATOM     44  C   UNL A   1      37.093  34.015  29.639  1.00  0.00     0.010 A 
ATOM     45  C   UNL A   1      36.897  33.246  30.796  1.00  0.00    -0.014 A 
BRANCH  45  46
ATOM     46  C   UNL A   1      38.067  32.585  31.421  1.00  0.00     0.031 A 
ATOM     47  C   UNL A   1      38.664  31.360  30.792  1.00  0.00     0.074 A 
ATOM     48  C   UNL A   1      38.520  33.026  32.611  1.00  0.00     0.049 A 
ATOM     49  N   UNL A   1      39.600  30.572  31.252  1.00  0.00    -0.248 NA
ATOM     50  C   UNL A   1      38.115  30.952  29.490  1.00  0.00     0.031 C 
ATOM     51  C   UNL A   1      37.998  34.181  33.347  1.00  0.00     0.029 A 
ATOM     52  N   UNL A   1      39.515  32.540  33.422  1.00  0.00    -0.354 N 
ATOM     53  C   UNL A   1      39.739  29.564  30.306  1.00  0.00     0.074 A 
ATOM     54  C   UNL A   1      38.760  29.818  29.270  1.00  0.00     0.031 C 
ATOM     55  C   UNL A   1      38.691  34.326  34.488  1.00  0.00     0.029 A 
ATOM     56  C   UNL A   1      39.671  33.251  34.589  1.00  0.00     0.049 A 
ATOM     57  H   UNL A   1      40.064  31.757  33.191  1.00  0.00     0.167 HD
ATOM     58  C   UNL A   1      40.612  28.531  30.293  1.00  0.00     0.031 A 
ATOM     59  C   UNL A   1      40.498  33.049  35.631  1.00  0.00     0.031 A 
ATOM     60  C   UNL A   1      41.592  28.288  31.317  1.00  0.00     0.049 A 
ATOM     61  C   UNL A   1      41.435  31.875  35.608  1.00  0.00     0.074 A 
ATOM     62  C   UNL A   1      42.570  27.310  31.358  1.00  0.00     0.029 A 
ATOM     63  N   UNL A   1      41.713  29.027  32.482  1.00  0.00    -0.354 N 
ATOM     64  N   UNL A   1      41.599  30.970  34.675  1.00  0.00    -0.248 NA
ATOM     65  C   UNL A   1      42.298  31.695  36.784  1.00  0.00     0.031 C 
ATOM     66  C   UNL A   1      43.253  27.428  32.573  1.00  0.00     0.029 A 
ATOM     67  C   UNL A   1      42.729  28.508  33.266  1.00  0.00     0.049 A 
ATOM     68  H   UNL A   1      41.160  29.807  32.717  1.00  0.00     0.167 HD
ATOM     69  C   UNL A   1      42.593  30.121  35.143  1.00  0.00     0.074 A 
ATOM     70  C   UNL A   1      43.006  30.629  36.436  1.00  0.00     0.031 C 
ATOM     71  C   UNL A   1      43.117  29.021  34.554  1.00  0.00     0.031 A 
BRANCH  58  72
ATOM     72  C   UNL A   1      40.536  27.582  29.132  1.00  0.00    -0.014 A 
ATOM     73  C   UNL A   1      41.378  27.729  28.019  1.00  0.00     0.009 A 
ATOM     74  C   UNL A   1      39.628  26.513  29.162  1.00  0.00     0.009 A 
ATOM     75  C   UNL A   1      41.284  26.846  26.940  1.00  0.00     0.001 A 
ATOM     76  C   UNL A   1      39.555  25.616  28.095  1.00  0.00     0.001 A 
ATOM     77  C   UNL A   1      40.376  25.790  26.982  1.00  0.00     0.000 A 
ENDBRANCH  58  72
BRANCH  59  78
ATOM     78  C   UNL A   1      40.477  33.981  36.788  1.00  0.00    -0.014 A 
ATOM     79  C   UNL A   1      41.329  35.094  36.813  1.00  0.00     0.009 A 
ATOM     80  C   UNL A   1      39.605  33.766  37.867  1.00  0.00     0.009 A 
ATOM     81  C   UNL A   1      41.322  35.965  37.905  1.00  0.00     0.001 A 
ATOM     82  C   UNL A   1      39.584  34.651  38.945  1.00  0.00     0.001 A 
ATOM     83  C   UNL A   1      40.447  35.745  38.968  1.00  0.00     0.000 A 
ENDBRANCH  59  78
BRANCH  71  84
ATOM     84  C   UNL A   1      44.202  28.295  35.297  1.00  0.00    -0.014 A 
ATOM     85  C   UNL A   1      45.547  28.666  35.152  1.00  0.00     0.009 A 
ATOM     86  C   UNL A   1      43.868  27.266  36.189  1.00  0.00     0.009 A 
ATOM     87  C   UNL A   1      46.541  28.004  35.874  1.00  0.00     0.001 A 
ATOM     88  C   UNL A   1      44.861  26.621  36.927  1.00  0.00     0.001 A 
ATOM     89  C   UNL A   1      46.196  26.987  36.765  1.00  0.00     0.000 A 
ENDBRANCH  71  84
ENDBRANCH  45  46
ENDBRANCH  37  40
ENDBRANCH  35  36
ENDBRANCH  34  35
ENDBRANCH  33  34
ENDBRANCH  32  33
ENDBRANCH   3  32
TORSDOF 17
ENDMDL
