MODEL 1
REMARK VINA RESULT:     -11.2      0.000      0.000
REMARK SMILES CCC[NH+]1CCC(NC(=O)NC2(CC(=O)NCCCCNC(=O)c3ccc(-c4c5nc(c(-c6ccccc6)c6ccc([nH]6)c(-c6ccccc6)c6nc(c(-c7ccccc7)c7ccc4[nH]7)C=C6)C=C5)cc3)CCC2)CC1
REMARK SMILES IDX 17 1 16 2 14 3 15 4 13 6 12 7 72 8 74 9 73 10 11 11 8 12
REMARK SMILES IDX 9 13 10 15 7 17 4 18 5 19 76 20 6 22 75 23 3 24 2 25 1 26
REMARK SMILES IDX 18 27 19 28 20 29 21 30 22 31 23 33 24 34 25 35 71 36 26 37
REMARK SMILES IDX 70 38 27 39 28 40 29 41 64 42 30 43 69 44 63 45 65 46 31 47
REMARK SMILES IDX 68 48 62 49 61 50 32 52 54 53 39 54 53 55 40 56 43 57 52 58
REMARK SMILES IDX 66 59 41 60 42 61 51 63 67 64 44 65 33 66 34 67 38 68 35 69
REMARK SMILES IDX 37 70 36 71 55 72 56 73 60 74 57 75 59 76 58 77 45 78 46 79
REMARK SMILES IDX 50 80 47 81 49 82 48 83
REMARK H PARENT 16 5 8 14 11 16 4 21 21 32 65 51 43 62
REMARK Flexibility Score: inf
ROOT
ATOM      1  C   UNL A   1      36.572  23.373  25.102  1.00  0.00     0.116 C 
ENDROOT
BRANCH   1   2
ATOM      2  N   UNL A   1      35.881  22.972  26.309  1.00  0.00    -0.356 N 
ATOM      3  C   UNL A   1      34.556  22.994  26.609  1.00  0.00     0.222 C 
ATOM      4  O   UNL A   1      34.225  22.691  27.758  1.00  0.00    -0.275 OA
ATOM      5  H   UNL A   1      36.464  22.630  27.024  1.00  0.00     0.163 HD
BRANCH   3   6
ATOM      6  C   UNL A   1      33.498  23.416  25.604  1.00  0.00     0.128 C 
BRANCH   6   7
ATOM      7  C   UNL A   1      32.273  22.472  25.452  1.00  0.00     0.051 C 
ATOM      8  C   UNL A   1      32.645  20.978  25.219  1.00  0.00     0.029 C 
ATOM      9  C   UNL A   1      31.788  22.531  23.986  1.00  0.00     0.029 C 
ATOM     10  C   UNL A   1      32.399  21.151  23.717  1.00  0.00     0.005 C 
BRANCH   7  11
ATOM     11  N   UNL A   1      31.342  22.676  26.604  1.00  0.00    -0.332 N 
ATOM     12  N   UNL A   1      29.709  24.399  26.301  1.00  0.00    -0.335 N 
ATOM     13  C   UNL A   1      30.193  23.309  26.900  1.00  0.00     0.315 C 
ATOM     14  H   UNL A   1      28.741  24.531  26.415  1.00  0.00     0.165 HD
ATOM     15  O   UNL A   1      29.533  22.851  27.838  1.00  0.00    -0.249 OA
ATOM     16  H   UNL A   1      31.676  22.195  27.396  1.00  0.00     0.165 HD
BRANCH  12  17
ATOM     17  C   UNL A   1      30.360  25.417  25.517  1.00  0.00     0.095 C 
ATOM     18  N   UNL A   1      31.236  27.955  24.381  1.00  0.00    -0.335 N 
ATOM     19  C   UNL A   1      30.308  27.047  23.673  1.00  0.00     0.264 C 
ATOM     20  C   UNL A   1      31.935  27.345  25.516  1.00  0.00     0.264 C 
ATOM     21  H   UNL A   1      30.678  28.694  24.806  1.00  0.00     0.348 HD
ATOM     22  C   UNL A   1      29.432  26.183  24.586  1.00  0.00     0.086 C 
ATOM     23  C   UNL A   1      31.076  26.437  26.392  1.00  0.00     0.086 C 
BRANCH  18  24
ATOM     24  C   UNL A   1      32.183  28.525  23.392  1.00  0.00     0.261 C 
BRANCH  24  25
ATOM     25  C   UNL A   1      33.548  27.830  23.231  1.00  0.00     0.058 C 
ATOM     26  C   UNL A   1      33.560  26.669  22.240  1.00  0.00     0.010 C 
ENDBRANCH  24  25
ENDBRANCH  18  24
ENDBRANCH  12  17
ENDBRANCH   7  11
ENDBRANCH   6   7
ENDBRANCH   3   6
ENDBRANCH   1   2
BRANCH   1  27
ATOM     27  C   UNL A   1      36.973  22.167  24.247  1.00  0.00     0.023 C 
BRANCH  27  28
ATOM     28  C   UNL A   1      37.468  20.943  25.014  1.00  0.00     0.023 C 
BRANCH  28  29
ATOM     29  C   UNL A   1      38.817  21.124  25.694  1.00  0.00     0.116 C 
BRANCH  29  30
ATOM     30  N   UNL A   1      39.671  19.944  25.637  1.00  0.00    -0.352 N 
ATOM     31  C   UNL A   1      40.989  19.837  26.026  1.00  0.00     0.251 C 
ATOM     32  H   UNL A   1      39.257  19.126  25.279  1.00  0.00     0.163 HD
ATOM     33  O   UNL A   1      41.611  18.799  25.851  1.00  0.00    -0.269 OA
BRANCH  31  34
ATOM     34  C   UNL A   1      41.657  21.025  26.602  1.00  0.00     0.039 A 
ATOM     35  C   UNL A   1      42.190  21.984  25.738  1.00  0.00     0.014 A 
ATOM     36  C   UNL A   1      41.678  21.226  27.983  1.00  0.00     0.014 A 
ATOM     37  C   UNL A   1      42.659  23.193  26.257  1.00  0.00     0.010 A 
ATOM     38  C   UNL A   1      42.075  22.457  28.491  1.00  0.00     0.010 A 
ATOM     39  C   UNL A   1      42.556  23.457  27.633  1.00  0.00    -0.014 A 
BRANCH  39  40
ATOM     40  C   UNL A   1      42.920  24.779  28.199  1.00  0.00     0.031 A 
ATOM     41  C   UNL A   1      41.860  25.821  28.417  1.00  0.00     0.074 A 
ATOM     42  C   UNL A   1      44.214  25.075  28.427  1.00  0.00     0.049 A 
ATOM     43  N   UNL A   1      41.993  27.069  28.792  1.00  0.00    -0.248 NA
ATOM     44  C   UNL A   1      40.469  25.417  28.149  1.00  0.00     0.031 C 
ATOM     45  C   UNL A   1      45.346  24.170  28.215  1.00  0.00     0.029 A 
ATOM     46  N   UNL A   1      44.798  26.234  28.878  1.00  0.00    -0.354 N 
ATOM     47  C   UNL A   1      40.711  27.603  28.782  1.00  0.00     0.074 A 
ATOM     48  C   UNL A   1      39.820  26.559  28.324  1.00  0.00     0.031 C 
ATOM     49  C   UNL A   1      46.482  24.798  28.558  1.00  0.00     0.029 A 
ATOM     50  C   UNL A   1      46.166  26.160  28.975  1.00  0.00     0.049 A 
ATOM     51  H   UNL A   1      44.284  27.041  29.110  1.00  0.00     0.167 HD
ATOM     52  C   UNL A   1      40.309  28.845  29.137  1.00  0.00     0.031 A 
ATOM     53  C   UNL A   1      47.067  27.088  29.350  1.00  0.00     0.031 A 
ATOM     54  C   UNL A   1      41.186  29.877  29.616  1.00  0.00     0.049 A 
ATOM     55  C   UNL A   1      46.593  28.459  29.740  1.00  0.00     0.074 A 
ATOM     56  C   UNL A   1      40.863  31.148  30.059  1.00  0.00     0.029 A 
ATOM     57  N   UNL A   1      42.563  29.753  29.718  1.00  0.00    -0.354 N 
ATOM     58  N   UNL A   1      45.371  28.930  29.778  1.00  0.00    -0.248 NA
ATOM     59  C   UNL A   1      47.626  29.424  30.144  1.00  0.00     0.031 C 
ATOM     60  C   UNL A   1      42.050  31.806  30.398  1.00  0.00     0.029 A 
ATOM     61  C   UNL A   1      43.106  30.932  30.202  1.00  0.00     0.049 A 
ATOM     62  H   UNL A   1      43.078  28.948  29.481  1.00  0.00     0.167 HD
ATOM     63  C   UNL A   1      45.484  30.237  30.231  1.00  0.00     0.074 A 
ATOM     64  C   UNL A   1      46.892  30.481  30.467  1.00  0.00     0.031 C 
ATOM     65  C   UNL A   1      44.508  31.154  30.434  1.00  0.00     0.031 A 
BRANCH  52  66
ATOM     66  C   UNL A   1      38.843  29.152  29.021  1.00  0.00    -0.014 A 
ATOM     67  C   UNL A   1      37.986  29.010  30.124  1.00  0.00     0.009 A 
ATOM     68  C   UNL A   1      38.319  29.614  27.805  1.00  0.00     0.009 A 
ATOM     69  C   UNL A   1      36.624  29.291  30.001  1.00  0.00     0.001 A 
ATOM     70  C   UNL A   1      36.961  29.919  27.692  1.00  0.00     0.001 A 
ATOM     71  C   UNL A   1      36.114  29.750  28.786  1.00  0.00     0.000 A 
ENDBRANCH  52  66
BRANCH  53  72
ATOM     72  C   UNL A   1      48.512  26.751  29.391  1.00  0.00    -0.014 A 
ATOM     73  C   UNL A   1      49.079  26.213  30.556  1.00  0.00     0.009 A 
ATOM     74  C   UNL A   1      49.332  26.974  28.275  1.00  0.00     0.009 A 
ATOM     75  C   UNL A   1      50.445  25.929  30.612  1.00  0.00     0.001 A 
ATOM     76  C   UNL A   1      50.694  26.666  28.326  1.00  0.00     0.001 A 
ATOM     77  C   UNL A   1      51.251  26.153  29.496  1.00  0.00     0.000 A 
ENDBRANCH  53  72
BRANCH  65  78
ATOM     78  C   UNL A   1      44.926  32.494  30.965  1.00  0.00    -0.014 A 
ATOM     79  C   UNL A   1      45.024  32.729  32.344  1.00  0.00     0.009 A 
ATOM     80  C   UNL A   1      45.272  33.519  30.070  1.00  0.00     0.009 A 
ATOM     81  C   UNL A   1      45.438  33.975  32.818  1.00  0.00     0.001 A 
ATOM     82  C   UNL A   1      45.705  34.756  30.547  1.00  0.00     0.001 A 
ATOM     83  C   UNL A   1      45.782  34.985  31.919  1.00  0.00     0.000 A 
ENDBRANCH  65  78
ENDBRANCH  39  40
ENDBRANCH  31  34
ENDBRANCH  29  30
ENDBRANCH  28  29
ENDBRANCH  27  28
ENDBRANCH   1  27
TORSDOF 16
ENDMDL
MODEL 2
REMARK VINA RESULT:     -11.1      0.543      5.873
REMARK SMILES CCC[NH+]1CCC(NC(=O)NC2(CC(=O)NCCCCNC(=O)c3ccc(-c4c5nc(c(-c6ccccc6)c6ccc([nH]6)c(-c6ccccc6)c6nc(c(-c7ccccc7)c7ccc4[nH]7)C=C6)C=C5)cc3)CCC2)CC1
REMARK SMILES IDX 17 1 16 2 14 3 15 4 13 6 12 7 72 8 74 9 73 10 11 11 8 12
REMARK SMILES IDX 9 13 10 15 7 17 4 18 5 19 76 20 6 22 75 23 3 24 2 25 1 26
REMARK SMILES IDX 18 27 19 28 20 29 21 30 22 31 23 33 24 34 25 35 71 36 26 37
REMARK SMILES IDX 70 38 27 39 28 40 29 41 64 42 30 43 69 44 63 45 65 46 31 47
REMARK SMILES IDX 68 48 62 49 61 50 32 52 54 53 39 54 53 55 40 56 43 57 52 58
REMARK SMILES IDX 66 59 41 60 42 61 51 63 67 64 44 65 33 66 34 67 38 68 35 69
REMARK SMILES IDX 37 70 36 71 55 72 56 73 60 74 57 75 59 76 58 77 45 78 46 79
REMARK SMILES IDX 50 80 47 81 49 82 48 83
REMARK H PARENT 16 5 8 14 11 16 4 21 21 32 65 51 43 62
REMARK Flexibility Score: inf
ROOT
ATOM      1  C   UNL A   1      36.739  22.960  25.335  1.00  0.00     0.116 C 
ENDROOT
BRANCH   1   2
ATOM      2  N   UNL A   1      35.931  22.611  26.484  1.00  0.00    -0.356 N 
ATOM      3  C   UNL A   1      34.618  22.852  26.739  1.00  0.00     0.222 C 
ATOM      4  O   UNL A   1      34.184  22.537  27.850  1.00  0.00    -0.275 OA
ATOM      5  H   UNL A   1      36.408  22.121  27.192  1.00  0.00     0.163 HD
BRANCH   3   6
ATOM      6  C   UNL A   1      33.702  23.526  25.732  1.00  0.00     0.128 C 
BRANCH   6   7
ATOM      7  C   UNL A   1      32.400  22.761  25.361  1.00  0.00     0.051 C 
ATOM      8  C   UNL A   1      32.636  21.299  24.880  1.00  0.00     0.029 C 
ATOM      9  C   UNL A   1      32.012  23.127  23.911  1.00  0.00     0.029 C 
ATOM     10  C   UNL A   1      32.499  21.757  23.424  1.00  0.00     0.005 C 
BRANCH   7  11
ATOM     11  N   UNL A   1      31.426  22.861  26.492  1.00  0.00    -0.332 N 
ATOM     12  N   UNL A   1      29.800  24.605  26.284  1.00  0.00    -0.335 N 
ATOM     13  C   UNL A   1      30.265  23.466  26.800  1.00  0.00     0.315 C 
ATOM     14  H   UNL A   1      28.828  24.727  26.373  1.00  0.00     0.165 HD
ATOM     15  O   UNL A   1      29.572  22.925  27.667  1.00  0.00    -0.249 OA
ATOM     16  H   UNL A   1      31.731  22.311  27.250  1.00  0.00     0.165 HD
BRANCH  12  17
ATOM     17  C   UNL A   1      30.477  25.689  25.619  1.00  0.00     0.095 C 
ATOM     18  N   UNL A   1      31.325  28.316  24.682  1.00  0.00    -0.335 N 
ATOM     19  C   UNL A   1      30.548  27.385  23.835  1.00  0.00     0.264 C 
ATOM     20  C   UNL A   1      31.917  27.704  25.875  1.00  0.00     0.264 C 
ATOM     21  H   UNL A   1      30.673  29.004  25.058  1.00  0.00     0.348 HD
ATOM     22  C   UNL A   1      29.623  26.436  24.605  1.00  0.00     0.086 C 
ATOM     23  C   UNL A   1      31.017  26.714  26.608  1.00  0.00     0.086 C 
BRANCH  18  24
ATOM     24  C   UNL A   1      32.347  28.979  23.837  1.00  0.00     0.261 C 
BRANCH  24  25
ATOM     25  C   UNL A   1      33.661  28.217  23.580  1.00  0.00     0.058 C 
ATOM     26  C   UNL A   1      34.059  28.107  22.111  1.00  0.00     0.010 C 
ENDBRANCH  24  25
ENDBRANCH  18  24
ENDBRANCH  12  17
ENDBRANCH   7  11
ENDBRANCH   6   7
ENDBRANCH   3   6
ENDBRANCH   1   2
BRANCH   1  27
ATOM     27  C   UNL A   1      36.911  21.777  24.377  1.00  0.00     0.023 C 
BRANCH  27  28
ATOM     28  C   UNL A   1      37.592  20.542  24.961  1.00  0.00     0.023 C 
BRANCH  28  29
ATOM     29  C   UNL A   1      38.906  20.821  25.676  1.00  0.00     0.116 C 
BRANCH  29  30
ATOM     30  N   UNL A   1      39.848  19.710  25.637  1.00  0.00    -0.352 N 
ATOM     31  C   UNL A   1      41.172  19.713  26.019  1.00  0.00     0.251 C 
ATOM     32  H   UNL A   1      39.497  18.856  25.297  1.00  0.00     0.163 HD
ATOM     33  O   UNL A   1      41.873  18.723  25.861  1.00  0.00    -0.269 OA
BRANCH  31  34
ATOM     34  C   UNL A   1      41.749  20.959  26.570  1.00  0.00     0.039 A 
ATOM     35  C   UNL A   1      42.288  21.899  25.689  1.00  0.00     0.014 A 
ATOM     36  C   UNL A   1      41.677  21.231  27.937  1.00  0.00     0.014 A 
ATOM     37  C   UNL A   1      42.668  23.154  26.169  1.00  0.00     0.010 A 
ATOM     38  C   UNL A   1      41.986  22.504  28.401  1.00  0.00     0.010 A 
ATOM     39  C   UNL A   1      42.471  23.482  27.520  1.00  0.00    -0.014 A 
BRANCH  39  40
ATOM     40  C   UNL A   1      42.738  24.847  28.036  1.00  0.00     0.031 A 
ATOM     41  C   UNL A   1      44.117  25.218  28.503  1.00  0.00     0.074 A 
ATOM     42  C   UNL A   1      41.721  25.720  28.174  1.00  0.00     0.049 A 
ATOM     43  N   UNL A   1      44.523  26.316  29.089  1.00  0.00    -0.248 NA
ATOM     44  C   UNL A   1      45.174  24.210  28.312  1.00  0.00     0.031 C 
ATOM     45  C   UNL A   1      40.327  25.470  27.801  1.00  0.00     0.029 A 
ATOM     46  N   UNL A   1      41.704  26.997  28.679  1.00  0.00    -0.354 N 
ATOM     47  C   UNL A   1      45.871  26.122  29.358  1.00  0.00     0.074 A 
ATOM     48  C   UNL A   1      46.206  24.788  28.911  1.00  0.00     0.031 C 
ATOM     49  C   UNL A   1      39.597  26.565  28.068  1.00  0.00     0.029 A 
ATOM     50  C   UNL A   1      40.460  27.578  28.667  1.00  0.00     0.049 A 
ATOM     51  H   UNL A   1      42.509  27.452  29.019  1.00  0.00     0.167 HD
ATOM     52  C   UNL A   1      46.756  26.983  29.912  1.00  0.00     0.031 A 
ATOM     53  C   UNL A   1      40.057  28.789  29.096  1.00  0.00     0.031 A 
ATOM     54  C   UNL A   1      46.434  28.318  30.335  1.00  0.00     0.049 A 
ATOM     55  C   UNL A   1      41.060  29.725  29.707  1.00  0.00     0.074 A 
ATOM     56  C   UNL A   1      47.278  29.287  30.851  1.00  0.00     0.029 A 
ATOM     57  N   UNL A   1      45.166  28.874  30.286  1.00  0.00    -0.354 N 
ATOM     58  N   UNL A   1      42.343  29.546  29.904  1.00  0.00    -0.248 NA
ATOM     59  C   UNL A   1      40.557  31.033  30.151  1.00  0.00     0.031 C 
ATOM     60  C   UNL A   1      46.512  30.419  31.146  1.00  0.00     0.029 A 
ATOM     61  C   UNL A   1      45.200  30.169  30.777  1.00  0.00     0.049 A 
ATOM     62  H   UNL A   1      44.360  28.417  29.951  1.00  0.00     0.167 HD
ATOM     63  C   UNL A   1      42.806  30.725  30.472  1.00  0.00     0.074 A 
ATOM     64  C   UNL A   1      41.669  31.617  30.577  1.00  0.00     0.031 C 
ATOM     65  C   UNL A   1      44.061  31.041  30.871  1.00  0.00     0.031 A 
BRANCH  52  66
ATOM     66  C   UNL A   1      48.166  26.499  30.090  1.00  0.00    -0.014 A 
ATOM     67  C   UNL A   1      49.120  26.663  29.073  1.00  0.00     0.009 A 
ATOM     68  C   UNL A   1      48.554  25.898  31.296  1.00  0.00     0.009 A 
ATOM     69  C   UNL A   1      50.426  26.202  29.247  1.00  0.00     0.001 A 
ATOM     70  C   UNL A   1      49.867  25.460  31.478  1.00  0.00     0.001 A 
ATOM     71  C   UNL A   1      50.799  25.605  30.451  1.00  0.00     0.000 A 
ENDBRANCH  52  66
BRANCH  53  72
ATOM     72  C   UNL A   1      38.637  29.197  28.951  1.00  0.00    -0.014 A 
ATOM     73  C   UNL A   1      37.745  29.045  30.024  1.00  0.00     0.009 A 
ATOM     74  C   UNL A   1      38.163  29.727  27.742  1.00  0.00     0.009 A 
ATOM     75  C   UNL A   1      36.401  29.393  29.881  1.00  0.00     0.001 A 
ATOM     76  C   UNL A   1      36.822  30.096  27.609  1.00  0.00     0.001 A 
ATOM     77  C   UNL A   1      35.941  29.921  28.675  1.00  0.00     0.000 A 
ENDBRANCH  53  72
BRANCH  65  78
ATOM     78  C   UNL A   1      44.277  32.417  31.429  1.00  0.00    -0.014 A 
ATOM     79  C   UNL A   1      44.180  32.664  32.806  1.00  0.00     0.009 A 
ATOM     80  C   UNL A   1      44.626  33.469  30.568  1.00  0.00     0.009 A 
ATOM     81  C   UNL A   1      44.407  33.947  33.308  1.00  0.00     0.001 A 
ATOM     82  C   UNL A   1      44.874  34.745  31.076  1.00  0.00     0.001 A 
ATOM     83  C   UNL A   1      44.757  34.983  32.444  1.00  0.00     0.000 A 
ENDBRANCH  65  78
ENDBRANCH  39  40
ENDBRANCH  31  34
ENDBRANCH  29  30
ENDBRANCH  28  29
ENDBRANCH  27  28
ENDBRANCH   1  27
TORSDOF 16
ENDMDL
MODEL 3
REMARK VINA RESULT:     -11.0      1.218      5.959
REMARK SMILES CCC[NH+]1CCC(NC(=O)NC2(CC(=O)NCCCCNC(=O)c3ccc(-c4c5nc(c(-c6ccccc6)c6ccc([nH]6)c(-c6ccccc6)c6nc(c(-c7ccccc7)c7ccc4[nH]7)C=C6)C=C5)cc3)CCC2)CC1
REMARK SMILES IDX 17 1 16 2 14 3 15 4 13 6 12 7 72 8 74 9 73 10 11 11 8 12
REMARK SMILES IDX 9 13 10 15 7 17 4 18 5 19 76 20 6 22 75 23 3 24 2 25 1 26
REMARK SMILES IDX 18 27 19 28 20 29 21 30 22 31 23 33 24 34 25 35 71 36 26 37
REMARK SMILES IDX 70 38 27 39 28 40 29 41 64 42 30 43 69 44 63 45 65 46 31 47
REMARK SMILES IDX 68 48 62 49 61 50 32 52 54 53 39 54 53 55 40 56 43 57 52 58
REMARK SMILES IDX 66 59 41 60 42 61 51 63 67 64 44 65 33 66 34 67 38 68 35 69
REMARK SMILES IDX 37 70 36 71 55 72 56 73 60 74 57 75 59 76 58 77 45 78 46 79
REMARK SMILES IDX 50 80 47 81 49 82 48 83
REMARK H PARENT 16 5 8 14 11 16 4 21 21 32 65 51 43 62
REMARK Flexibility Score: inf
ROOT
ATOM      1  C   UNL A   1      35.833  20.870  25.159  1.00  0.00     0.116 C 
ENDROOT
BRANCH   1   2
ATOM      2  N   UNL A   1      35.368  21.375  26.433  1.00  0.00    -0.356 N 
ATOM      3  C   UNL A   1      34.415  22.302  26.714  1.00  0.00     0.222 C 
ATOM      4  O   UNL A   1      34.274  22.638  27.892  1.00  0.00    -0.275 OA
ATOM      5  H   UNL A   1      35.813  20.985  27.219  1.00  0.00     0.163 HD
BRANCH   3   6
ATOM      6  C   UNL A   1      33.568  22.955  25.634  1.00  0.00     0.128 C 
BRANCH   6   7
ATOM      7  C   UNL A   1      32.174  22.320  25.371  1.00  0.00     0.051 C 
ATOM      8  C   UNL A   1      32.227  20.828  24.931  1.00  0.00     0.029 C 
ATOM      9  C   UNL A   1      31.735  22.681  23.935  1.00  0.00     0.029 C 
ATOM     10  C   UNL A   1      32.046  21.254  23.470  1.00  0.00     0.005 C 
BRANCH   7  11
ATOM     11  N   UNL A   1      31.290  22.556  26.554  1.00  0.00    -0.332 N 
ATOM     12  N   UNL A   1      29.757  24.381  26.331  1.00  0.00    -0.335 N 
ATOM     13  C   UNL A   1      30.190  23.252  26.895  1.00  0.00     0.315 C 
ATOM     14  H   UNL A   1      28.801  24.569  26.475  1.00  0.00     0.165 HD
ATOM     15  O   UNL A   1      29.529  22.814  27.843  1.00  0.00    -0.249 OA
ATOM     16  H   UNL A   1      31.615  22.040  27.327  1.00  0.00     0.165 HD
BRANCH  12  17
ATOM     17  C   UNL A   1      30.446  25.374  25.548  1.00  0.00     0.095 C 
ATOM     18  N   UNL A   1      31.451  27.877  24.442  1.00  0.00    -0.335 N 
ATOM     19  C   UNL A   1      30.438  27.053  23.747  1.00  0.00     0.264 C 
ATOM     20  C   UNL A   1      32.147  27.191  25.534  1.00  0.00     0.264 C 
ATOM     21  H   UNL A   1      30.959  28.640  24.906  1.00  0.00     0.348 HD
ATOM     22  C   UNL A   1      29.539  26.225  24.672  1.00  0.00     0.086 C 
ATOM     23  C   UNL A   1      31.261  26.320  26.420  1.00  0.00     0.086 C 
BRANCH  18  24
ATOM     24  C   UNL A   1      32.398  28.409  23.432  1.00  0.00     0.261 C 
BRANCH  24  25
ATOM     25  C   UNL A   1      33.675  27.595  23.156  1.00  0.00     0.058 C 
ATOM     26  C   UNL A   1      33.491  26.427  22.190  1.00  0.00     0.010 C 
ENDBRANCH  24  25
ENDBRANCH  18  24
ENDBRANCH  12  17
ENDBRANCH   7  11
ENDBRANCH   6   7
ENDBRANCH   3   6
ENDBRANCH   1   2
BRANCH   1  27
ATOM     27  C   UNL A   1      37.323  21.155  24.942  1.00  0.00     0.023 C 
BRANCH  27  28
ATOM     28  C   UNL A   1      38.250  19.945  25.018  1.00  0.00     0.023 C 
BRANCH  28  29
ATOM     29  C   UNL A   1      39.457  20.127  25.927  1.00  0.00     0.116 C 
BRANCH  29  30
ATOM     30  N   UNL A   1      40.394  19.011  25.895  1.00  0.00    -0.352 N 
ATOM     31  C   UNL A   1      41.755  19.046  26.110  1.00  0.00     0.251 C 
ATOM     32  H   UNL A   1      40.009  18.127  25.698  1.00  0.00     0.163 HD
ATOM     33  O   UNL A   1      42.437  18.039  25.978  1.00  0.00    -0.269 OA
BRANCH  31  34
ATOM     34  C   UNL A   1      42.388  20.341  26.444  1.00  0.00     0.039 A 
ATOM     35  C   UNL A   1      42.971  21.090  25.420  1.00  0.00     0.014 A 
ATOM     36  C   UNL A   1      42.327  20.846  27.744  1.00  0.00     0.014 A 
ATOM     37  C   UNL A   1      43.407  22.390  25.682  1.00  0.00     0.010 A 
ATOM     38  C   UNL A   1      42.693  22.164  27.986  1.00  0.00     0.010 A 
ATOM     39  C   UNL A   1      43.223  22.954  26.955  1.00  0.00    -0.014 A 
BRANCH  39  40
ATOM     40  C   UNL A   1      43.552  24.374  27.231  1.00  0.00     0.031 A 
ATOM     41  C   UNL A   1      44.980  24.839  27.179  1.00  0.00     0.074 A 
ATOM     42  C   UNL A   1      42.580  25.221  27.622  1.00  0.00     0.049 A 
ATOM     43  N   UNL A   1      45.480  26.006  27.499  1.00  0.00    -0.248 NA
ATOM     44  C   UNL A   1      45.981  23.854  26.737  1.00  0.00     0.031 C 
ATOM     45  C   UNL A   1      41.161  24.886  27.758  1.00  0.00     0.029 A 
ATOM     46  N   UNL A   1      42.645  26.542  27.992  1.00  0.00    -0.354 N 
ATOM     47  C   UNL A   1      46.852  25.888  27.320  1.00  0.00     0.074 A 
ATOM     48  C   UNL A   1      47.111  24.526  26.905  1.00  0.00     0.031 C 
ATOM     49  C   UNL A   1      40.487  25.976  28.156  1.00  0.00     0.029 A 
ATOM     50  C   UNL A   1      41.429  27.075  28.343  1.00  0.00     0.049 A 
ATOM     51  H   UNL A   1      43.483  27.058  28.003  1.00  0.00     0.167 HD
ATOM     52  C   UNL A   1      47.810  26.831  27.472  1.00  0.00     0.031 A 
ATOM     53  C   UNL A   1      41.108  28.310  28.774  1.00  0.00     0.031 A 
ATOM     54  C   UNL A   1      47.556  28.192  27.859  1.00  0.00     0.049 A 
ATOM     55  C   UNL A   1      42.191  29.339  28.933  1.00  0.00     0.074 A 
ATOM     56  C   UNL A   1      48.455  29.237  27.979  1.00  0.00     0.029 A 
ATOM     57  N   UNL A   1      46.307  28.695  28.186  1.00  0.00    -0.354 N 
ATOM     58  N   UNL A   1      43.476  29.226  28.707  1.00  0.00    -0.248 NA
ATOM     59  C   UNL A   1      41.774  30.668  29.404  1.00  0.00     0.031 C 
ATOM     60  C   UNL A   1      47.753  30.367  28.412  1.00  0.00     0.029 A 
ATOM     61  C   UNL A   1      46.413  30.034  28.523  1.00  0.00     0.049 A 
ATOM     62  H   UNL A   1      45.469  28.178  28.180  1.00  0.00     0.167 HD
ATOM     63  C   UNL A   1      44.019  30.473  28.984  1.00  0.00     0.074 A 
ATOM     64  C   UNL A   1      42.922  31.331  29.383  1.00  0.00     0.031 C 
ATOM     65  C   UNL A   1      45.312  30.872  28.913  1.00  0.00     0.031 A 
BRANCH  52  66
ATOM     66  C   UNL A   1      49.230  26.418  27.212  1.00  0.00    -0.014 A 
ATOM     67  C   UNL A   1      50.056  25.972  28.255  1.00  0.00     0.009 A 
ATOM     68  C   UNL A   1      49.740  26.448  25.905  1.00  0.00     0.009 A 
ATOM     69  C   UNL A   1      51.377  25.598  28.001  1.00  0.00     0.001 A 
ATOM     70  C   UNL A   1      51.053  26.050  25.650  1.00  0.00     0.001 A 
ATOM     71  C   UNL A   1      51.872  25.633  26.698  1.00  0.00     0.000 A 
ENDBRANCH  52  66
BRANCH  53  72
ATOM     72  C   UNL A   1      39.695  28.651  29.075  1.00  0.00    -0.014 A 
ATOM     73  C   UNL A   1      39.174  28.436  30.360  1.00  0.00     0.009 A 
ATOM     74  C   UNL A   1      38.858  29.181  28.081  1.00  0.00     0.009 A 
ATOM     75  C   UNL A   1      37.835  28.721  30.637  1.00  0.00     0.001 A 
ATOM     76  C   UNL A   1      37.525  29.487  28.368  1.00  0.00     0.001 A 
ATOM     77  C   UNL A   1      37.013  29.249  29.642  1.00  0.00     0.000 A 
ENDBRANCH  53  72
BRANCH  65  78
ATOM     78  C   UNL A   1      45.605  32.306  29.246  1.00  0.00    -0.014 A 
ATOM     79  C   UNL A   1      45.545  33.304  28.263  1.00  0.00     0.009 A 
ATOM     80  C   UNL A   1      45.899  32.666  30.570  1.00  0.00     0.009 A 
ATOM     81  C   UNL A   1      45.799  34.636  28.597  1.00  0.00     0.001 A 
ATOM     82  C   UNL A   1      46.131  34.000  30.904  1.00  0.00     0.001 A 
ATOM     83  C   UNL A   1      46.086  34.982  29.917  1.00  0.00     0.000 A 
ENDBRANCH  65  78
ENDBRANCH  39  40
ENDBRANCH  31  34
ENDBRANCH  29  30
ENDBRANCH  28  29
ENDBRANCH  27  28
ENDBRANCH   1  27
TORSDOF 16
ENDMDL
