MODEL 1
REMARK VINA RESULT:     -10.6      0.000      0.000
REMARK SMILES CCn1cc(CC(=O)NCCCCNC(=O)c2ccc(-c3c4nc(c(-c5ccccc5)c5ccc([nH]5)c(-c5ccccc5)c5nc(c(-c6ccccc6)c6ccc3[nH]6)C=C5)C=C4)cc2)c2ccccc21
REMARK SMILES IDX 11 1 10 2 9 3 7 4 8 5 6 7 5 8 3 9 4 10 70 11 65 12 69 13
REMARK SMILES IDX 66 14 68 15 67 16 2 17 1 18 12 19 13 20 14 21 15 22 16 24
REMARK SMILES IDX 17 25 18 26 64 27 19 28 63 29 20 30 21 31 22 32 57 33 23 34
REMARK SMILES IDX 62 35 56 36 58 37 24 38 61 39 55 40 54 41 25 43 47 44 32 45
REMARK SMILES IDX 46 46 33 47 36 48 45 49 59 50 34 51 35 52 44 54 60 55 37 56
REMARK SMILES IDX 26 57 27 58 31 59 28 60 30 61 29 62 48 63 49 64 53 65 50 66
REMARK SMILES IDX 52 67 51 68 38 69 39 70 43 71 40 72 42 73 41 74
REMARK H PARENT 9 6 14 23 58 42 36 53
REMARK Flexibility Score: inf
ROOT
ATOM      1  C   UNL A   1      32.567  28.679  27.533  1.00  0.00     0.023 C 
ENDROOT
BRANCH   1   2
ATOM      2  C   UNL A   1      31.756  27.855  26.532  1.00  0.00     0.116 C 
BRANCH   2   3
ATOM      3  N   UNL A   1      32.514  27.564  25.331  1.00  0.00    -0.356 N 
ATOM      4  C   UNL A   1      33.359  26.518  25.086  1.00  0.00     0.224 C 
ATOM      5  O   UNL A   1      33.921  26.473  23.988  1.00  0.00    -0.275 OA
ATOM      6  H   UNL A   1      32.404  28.206  24.593  1.00  0.00     0.163 HD
BRANCH   4   7
ATOM      7  C   UNL A   1      33.539  25.416  26.118  1.00  0.00     0.137 C 
BRANCH   7   8
ATOM      8  C   UNL A   1      33.935  24.107  25.513  1.00  0.00    -0.013 A 
ATOM      9  N   UNL A   1      33.807  22.064  24.613  1.00  0.00    -0.347 N 
ATOM     10  C   UNL A   1      33.082  23.177  24.952  1.00  0.00     0.091 A 
ATOM     11  C   UNL A   1      35.146  22.282  24.864  1.00  0.00     0.048 A 
ATOM     12  C   UNL A   1      35.253  23.560  25.426  1.00  0.00     0.003 A 
ATOM     13  C   UNL A   1      36.274  21.466  24.671  1.00  0.00     0.027 A 
ATOM     14  C   UNL A   1      36.526  24.035  25.806  1.00  0.00     0.010 A 
ATOM     15  C   UNL A   1      37.524  21.963  25.053  1.00  0.00     0.002 A 
ATOM     16  C   UNL A   1      37.652  23.229  25.613  1.00  0.00     0.001 A 
BRANCH   9  17
ATOM     17  C   UNL A   1      33.201  20.820  24.168  1.00  0.00     0.119 C 
ATOM     18  C   UNL A   1      32.943  19.837  25.298  1.00  0.00     0.027 C 
ENDBRANCH   9  17
ENDBRANCH   7   8
ENDBRANCH   4   7
ENDBRANCH   2   3
ENDBRANCH   1   2
BRANCH   1  19
ATOM     19  C   UNL A   1      32.850  30.122  27.091  1.00  0.00     0.023 C 
BRANCH  19  20
ATOM     20  C   UNL A   1      34.271  30.610  27.378  1.00  0.00     0.116 C 
BRANCH  20  21
ATOM     21  N   UNL A   1      34.359  31.481  28.533  1.00  0.00    -0.352 N 
ATOM     22  C   UNL A   1      35.299  31.708  29.497  1.00  0.00     0.251 C 
ATOM     23  H   UNL A   1      33.556  32.039  28.648  1.00  0.00     0.163 HD
ATOM     24  O   UNL A   1      35.028  32.591  30.318  1.00  0.00    -0.269 OA
BRANCH  22  25
ATOM     25  C   UNL A   1      36.577  30.961  29.649  1.00  0.00     0.039 A 
ATOM     26  C   UNL A   1      37.859  31.509  29.570  1.00  0.00     0.014 A 
ATOM     27  C   UNL A   1      36.459  29.577  29.876  1.00  0.00     0.014 A 
ATOM     28  C   UNL A   1      38.988  30.699  29.649  1.00  0.00     0.010 A 
ATOM     29  C   UNL A   1      37.583  28.763  29.973  1.00  0.00     0.010 A 
ATOM     30  C   UNL A   1      38.851  29.324  29.824  1.00  0.00    -0.014 A 
BRANCH  30  31
ATOM     31  C   UNL A   1      40.067  28.516  29.906  1.00  0.00     0.031 A 
ATOM     32  C   UNL A   1      40.719  28.407  31.248  1.00  0.00     0.074 A 
ATOM     33  C   UNL A   1      40.504  27.773  28.871  1.00  0.00     0.049 A 
ATOM     34  N   UNL A   1      41.972  28.542  31.551  1.00  0.00    -0.248 NA
ATOM     35  C   UNL A   1      39.851  28.132  32.405  1.00  0.00     0.031 C 
ATOM     36  C   UNL A   1      39.823  27.532  27.597  1.00  0.00     0.029 A 
ATOM     37  N   UNL A   1      41.593  26.952  28.806  1.00  0.00    -0.354 N 
ATOM     38  C   UNL A   1      42.079  28.251  32.912  1.00  0.00     0.074 A 
ATOM     39  C   UNL A   1      40.734  28.075  33.401  1.00  0.00     0.031 C 
ATOM     40  C   UNL A   1      40.369  26.448  27.007  1.00  0.00     0.029 A 
ATOM     41  C   UNL A   1      41.508  26.008  27.795  1.00  0.00     0.049 A 
ATOM     42  H   UNL A   1      42.362  27.024  29.416  1.00  0.00     0.167 HD
ATOM     43  C   UNL A   1      43.270  28.040  33.538  1.00  0.00     0.031 A 
ATOM     44  C   UNL A   1      42.257  24.889  27.664  1.00  0.00     0.031 A 
ATOM     45  C   UNL A   1      44.381  28.563  32.798  1.00  0.00     0.049 A 
ATOM     46  C   UNL A   1      43.478  25.045  28.483  1.00  0.00     0.074 A 
ATOM     47  C   UNL A   1      44.777  29.824  32.406  1.00  0.00     0.029 A 
ATOM     48  N   UNL A   1      45.157  27.684  32.085  1.00  0.00    -0.354 N 
ATOM     49  N   UNL A   1      44.438  25.878  28.207  1.00  0.00    -0.248 NA
ATOM     50  C   UNL A   1      43.485  24.511  29.836  1.00  0.00     0.031 C 
ATOM     51  C   UNL A   1      45.423  29.636  31.152  1.00  0.00     0.029 A 
ATOM     52  C   UNL A   1      45.404  28.268  30.869  1.00  0.00     0.049 A 
ATOM     53  H   UNL A   1      45.477  26.803  32.388  1.00  0.00     0.167 HD
ATOM     54  C   UNL A   1      44.905  26.300  29.443  1.00  0.00     0.074 A 
ATOM     55  C   UNL A   1      44.385  25.324  30.394  1.00  0.00     0.031 C 
ATOM     56  C   UNL A   1      45.423  27.553  29.611  1.00  0.00     0.031 A 
BRANCH  43  57
ATOM     57  C   UNL A   1      43.456  27.119  34.717  1.00  0.00    -0.014 A 
ATOM     58  C   UNL A   1      43.801  27.582  36.000  1.00  0.00     0.009 A 
ATOM     59  C   UNL A   1      43.033  25.779  34.622  1.00  0.00     0.009 A 
ATOM     60  C   UNL A   1      43.734  26.757  37.129  1.00  0.00     0.001 A 
ATOM     61  C   UNL A   1      42.924  24.964  35.756  1.00  0.00     0.001 A 
ATOM     62  C   UNL A   1      43.273  25.454  37.009  1.00  0.00     0.000 A 
ENDBRANCH  43  57
BRANCH  44  63
ATOM     63  C   UNL A   1      41.839  23.584  27.110  1.00  0.00    -0.014 A 
ATOM     64  C   UNL A   1      40.775  22.871  27.695  1.00  0.00     0.009 A 
ATOM     65  C   UNL A   1      42.638  22.915  26.172  1.00  0.00     0.009 A 
ATOM     66  C   UNL A   1      40.532  21.534  27.374  1.00  0.00     0.001 A 
ATOM     67  C   UNL A   1      42.400  21.571  25.857  1.00  0.00     0.001 A 
ATOM     68  C   UNL A   1      41.356  20.879  26.466  1.00  0.00     0.000 A 
ENDBRANCH  44  63
BRANCH  56  69
ATOM     69  C   UNL A   1      45.717  28.381  28.380  1.00  0.00    -0.014 A 
ATOM     70  C   UNL A   1      47.045  28.493  27.940  1.00  0.00     0.009 A 
ATOM     71  C   UNL A   1      44.746  29.194  27.768  1.00  0.00     0.009 A 
ATOM     72  C   UNL A   1      47.393  29.392  26.928  1.00  0.00     0.001 A 
ATOM     73  C   UNL A   1      45.089  30.072  26.736  1.00  0.00     0.001 A 
ATOM     74  C   UNL A   1      46.414  30.178  26.323  1.00  0.00     0.000 A 
ENDBRANCH  56  69
ENDBRANCH  30  31
ENDBRANCH  22  25
ENDBRANCH  20  21
ENDBRANCH  19  20
ENDBRANCH   1  19
TORSDOF 13
ENDMDL
MODEL 2
REMARK VINA RESULT:     -10.6      2.928      5.561
REMARK SMILES CCn1cc(CC(=O)NCCCCNC(=O)c2ccc(-c3c4nc(c(-c5ccccc5)c5ccc([nH]5)c(-c5ccccc5)c5nc(c(-c6ccccc6)c6ccc3[nH]6)C=C5)C=C4)cc2)c2ccccc21
REMARK SMILES IDX 11 1 10 2 9 3 7 4 8 5 6 7 5 8 3 9 4 10 70 11 65 12 69 13
REMARK SMILES IDX 66 14 68 15 67 16 2 17 1 18 12 19 13 20 14 21 15 22 16 24
REMARK SMILES IDX 17 25 18 26 64 27 19 28 63 29 20 30 21 31 22 32 57 33 23 34
REMARK SMILES IDX 62 35 56 36 58 37 24 38 61 39 55 40 54 41 25 43 47 44 32 45
REMARK SMILES IDX 46 46 33 47 36 48 45 49 59 50 34 51 35 52 44 54 60 55 37 56
REMARK SMILES IDX 26 57 27 58 31 59 28 60 30 61 29 62 48 63 49 64 53 65 50 66
REMARK SMILES IDX 52 67 51 68 38 69 39 70 43 71 40 72 42 73 41 74
REMARK H PARENT 9 6 14 23 58 42 36 53
REMARK Flexibility Score: inf
ROOT
ATOM      1  C   UNL A   1      34.585  32.928  31.839  1.00  0.00     0.023 C 
ENDROOT
BRANCH   1   2
ATOM      2  C   UNL A   1      34.731  34.410  31.493  1.00  0.00     0.116 C 
BRANCH   2   3
ATOM      3  N   UNL A   1      33.581  34.913  30.767  1.00  0.00    -0.356 N 
ATOM      4  C   UNL A   1      33.476  35.222  29.440  1.00  0.00     0.224 C 
ATOM      5  O   UNL A   1      32.397  35.656  29.030  1.00  0.00    -0.275 OA
ATOM      6  H   UNL A   1      32.766  35.048  31.302  1.00  0.00     0.163 HD
BRANCH   4   7
ATOM      7  C   UNL A   1      34.642  34.970  28.497  1.00  0.00     0.137 C 
BRANCH   7   8
ATOM      8  C   UNL A   1      34.838  33.521  28.181  1.00  0.00    -0.013 A 
ATOM      9  N   UNL A   1      34.416  31.404  27.600  1.00  0.00    -0.347 N 
ATOM     10  C   UNL A   1      33.899  32.673  27.629  1.00  0.00     0.091 A 
ATOM     11  C   UNL A   1      35.722  31.419  28.047  1.00  0.00     0.048 A 
ATOM     12  C   UNL A   1      36.012  32.739  28.414  1.00  0.00     0.003 A 
ATOM     13  C   UNL A   1      36.671  30.392  28.184  1.00  0.00     0.027 A 
ATOM     14  C   UNL A   1      37.289  33.038  28.934  1.00  0.00     0.010 A 
ATOM     15  C   UNL A   1      37.930  30.717  28.699  1.00  0.00     0.002 A 
ATOM     16  C   UNL A   1      38.237  32.021  29.070  1.00  0.00     0.001 A 
BRANCH   9  17
ATOM     17  C   UNL A   1      33.633  30.229  27.254  1.00  0.00     0.119 C 
ATOM     18  C   UNL A   1      32.190  30.548  26.901  1.00  0.00     0.027 C 
ENDBRANCH   9  17
ENDBRANCH   7   8
ENDBRANCH   4   7
ENDBRANCH   2   3
ENDBRANCH   1   2
BRANCH   1  19
ATOM     19  C   UNL A   1      35.913  32.167  31.965  1.00  0.00     0.023 C 
BRANCH  19  20
ATOM     20  C   UNL A   1      36.611  32.322  33.317  1.00  0.00     0.116 C 
BRANCH  20  21
ATOM     21  N   UNL A   1      37.788  33.166  33.263  1.00  0.00    -0.352 N 
ATOM     22  C   UNL A   1      39.074  32.997  32.834  1.00  0.00     0.251 C 
ATOM     23  H   UNL A   1      37.624  34.069  33.617  1.00  0.00     0.163 HD
ATOM     24  O   UNL A   1      39.803  33.991  32.906  1.00  0.00    -0.269 OA
BRANCH  22  25
ATOM     25  C   UNL A   1      39.656  31.721  32.333  1.00  0.00     0.039 A 
ATOM     26  C   UNL A   1      39.290  30.439  32.744  1.00  0.00     0.014 A 
ATOM     27  C   UNL A   1      40.675  31.846  31.370  1.00  0.00     0.014 A 
ATOM     28  C   UNL A   1      39.960  29.316  32.264  1.00  0.00     0.010 A 
ATOM     29  C   UNL A   1      41.337  30.728  30.872  1.00  0.00     0.010 A 
ATOM     30  C   UNL A   1      41.000  29.462  31.349  1.00  0.00    -0.014 A 
BRANCH  30  31
ATOM     31  C   UNL A   1      41.669  28.254  30.869  1.00  0.00     0.031 A 
ATOM     32  C   UNL A   1      42.584  27.559  31.827  1.00  0.00     0.074 A 
ATOM     33  C   UNL A   1      41.367  27.691  29.683  1.00  0.00     0.049 A 
ATOM     34  N   UNL A   1      43.783  27.113  31.621  1.00  0.00    -0.248 NA
ATOM     35  C   UNL A   1      42.101  27.356  33.203  1.00  0.00     0.031 C 
ATOM     36  C   UNL A   1      40.289  28.071  28.766  1.00  0.00     0.029 A 
ATOM     37  N   UNL A   1      41.877  26.558  29.118  1.00  0.00    -0.354 N 
ATOM     38  C   UNL A   1      44.168  26.465  32.795  1.00  0.00     0.074 A 
ATOM     39  C   UNL A   1      43.123  26.707  33.758  1.00  0.00     0.031 C 
ATOM     40  C   UNL A   1      40.061  27.050  27.912  1.00  0.00     0.029 A 
ATOM     41  C   UNL A   1      41.056  26.016  28.141  1.00  0.00     0.049 A 
ATOM     42  H   UNL A   1      42.742  26.166  29.377  1.00  0.00     0.167 HD
ATOM     43  C   UNL A   1      45.259  25.654  32.876  1.00  0.00     0.031 A 
ATOM     44  C   UNL A   1      41.126  24.768  27.624  1.00  0.00     0.031 A 
ATOM     45  C   UNL A   1      46.189  25.874  31.808  1.00  0.00     0.049 A 
ATOM     46  C   UNL A   1      42.471  24.220  27.903  1.00  0.00     0.074 A 
ATOM     47  C   UNL A   1      46.972  26.937  31.407  1.00  0.00     0.029 A 
ATOM     48  N   UNL A   1      46.209  24.978  30.769  1.00  0.00    -0.354 N 
ATOM     49  N   UNL A   1      43.563  24.655  27.346  1.00  0.00    -0.248 NA
ATOM     50  C   UNL A   1      42.659  23.398  29.087  1.00  0.00     0.031 C 
ATOM     51  C   UNL A   1      47.028  26.840  29.988  1.00  0.00     0.029 A 
ATOM     52  C   UNL A   1      46.298  25.710  29.613  1.00  0.00     0.049 A 
ATOM     53  H   UNL A   1      46.167  23.996  30.840  1.00  0.00     0.167 HD
ATOM     54  C   UNL A   1      44.534  24.529  28.328  1.00  0.00     0.074 A 
ATOM     55  C   UNL A   1      43.955  23.624  29.315  1.00  0.00     0.031 C 
ATOM     56  C   UNL A   1      45.591  25.393  28.391  1.00  0.00     0.031 A 
BRANCH  43  57
ATOM     57  C   UNL A   1      45.364  24.464  33.796  1.00  0.00    -0.014 A 
ATOM     58  C   UNL A   1      45.944  24.538  35.076  1.00  0.00     0.009 A 
ATOM     59  C   UNL A   1      44.644  23.292  33.496  1.00  0.00     0.009 A 
ATOM     60  C   UNL A   1      45.821  23.500  36.007  1.00  0.00     0.001 A 
ATOM     61  C   UNL A   1      44.482  22.270  34.441  1.00  0.00     0.001 A 
ATOM     62  C   UNL A   1      45.069  22.376  35.697  1.00  0.00     0.000 A 
ENDBRANCH  43  57
BRANCH  44  63
ATOM     63  C   UNL A   1      40.008  23.918  27.164  1.00  0.00    -0.014 A 
ATOM     64  C   UNL A   1      40.234  22.575  26.807  1.00  0.00     0.009 A 
ATOM     65  C   UNL A   1      38.768  24.483  26.832  1.00  0.00     0.009 A 
ATOM     66  C   UNL A   1      39.271  21.831  26.123  1.00  0.00     0.001 A 
ATOM     67  C   UNL A   1      37.805  23.740  26.137  1.00  0.00     0.001 A 
ATOM     68  C   UNL A   1      38.062  22.420  25.773  1.00  0.00     0.000 A 
ENDBRANCH  44  63
BRANCH  56  69
ATOM     69  C   UNL A   1      45.826  26.327  27.225  1.00  0.00    -0.014 A 
ATOM     70  C   UNL A   1      45.111  27.534  27.171  1.00  0.00     0.009 A 
ATOM     71  C   UNL A   1      46.584  25.956  26.100  1.00  0.00     0.009 A 
ATOM     72  C   UNL A   1      45.149  28.340  26.029  1.00  0.00     0.001 A 
ATOM     73  C   UNL A   1      46.645  26.775  24.970  1.00  0.00     0.001 A 
ATOM     74  C   UNL A   1      45.919  27.963  24.931  1.00  0.00     0.000 A 
ENDBRANCH  56  69
ENDBRANCH  30  31
ENDBRANCH  22  25
ENDBRANCH  20  21
ENDBRANCH  19  20
ENDBRANCH   1  19
TORSDOF 13
ENDMDL
MODEL 3
REMARK VINA RESULT:     -10.5      1.239      2.049
REMARK SMILES CCn1cc(CC(=O)NCCCCNC(=O)c2ccc(-c3c4nc(c(-c5ccccc5)c5ccc([nH]5)c(-c5ccccc5)c5nc(c(-c6ccccc6)c6ccc3[nH]6)C=C5)C=C4)cc2)c2ccccc21
REMARK SMILES IDX 11 1 10 2 9 3 7 4 8 5 6 7 5 8 3 9 4 10 70 11 65 12 69 13
REMARK SMILES IDX 66 14 68 15 67 16 2 17 1 18 12 19 13 20 14 21 15 22 16 24
REMARK SMILES IDX 17 25 18 26 64 27 19 28 63 29 20 30 21 31 22 32 57 33 23 34
REMARK SMILES IDX 62 35 56 36 58 37 24 38 61 39 55 40 54 41 25 43 47 44 32 45
REMARK SMILES IDX 46 46 33 47 36 48 45 49 59 50 34 51 35 52 44 54 60 55 37 56
REMARK SMILES IDX 26 57 27 58 31 59 28 60 30 61 29 62 48 63 49 64 53 65 50 66
REMARK SMILES IDX 52 67 51 68 38 69 39 70 43 71 40 72 42 73 41 74
REMARK H PARENT 9 6 14 23 58 42 36 53
REMARK Flexibility Score: inf
ROOT
ATOM      1  C   UNL A   1      33.724  27.561  26.050  1.00  0.00     0.023 C 
ENDROOT
BRANCH   1   2
ATOM      2  C   UNL A   1      32.406  26.952  25.569  1.00  0.00     0.116 C 
BRANCH   2   3
ATOM      3  N   UNL A   1      31.885  25.979  26.509  1.00  0.00    -0.356 N 
ATOM      4  C   UNL A   1      31.687  24.639  26.330  1.00  0.00     0.224 C 
ATOM      5  O   UNL A   1      31.211  23.993  27.268  1.00  0.00    -0.275 OA
ATOM      6  H   UNL A   1      31.642  26.331  27.395  1.00  0.00     0.163 HD
BRANCH   4   7
ATOM      7  C   UNL A   1      32.109  23.965  25.033  1.00  0.00     0.137 C 
BRANCH   7   8
ATOM      8  C   UNL A   1      33.275  23.044  25.204  1.00  0.00    -0.013 A 
ATOM      9  N   UNL A   1      35.361  22.304  25.520  1.00  0.00    -0.347 N 
ATOM     10  C   UNL A   1      34.550  23.407  25.590  1.00  0.00     0.091 A 
ATOM     11  C   UNL A   1      34.615  21.195  25.176  1.00  0.00     0.048 A 
ATOM     12  C   UNL A   1      33.301  21.633  24.976  1.00  0.00     0.003 A 
ATOM     13  C   UNL A   1      34.977  19.848  24.999  1.00  0.00     0.027 A 
ATOM     14  C   UNL A   1      32.320  20.696  24.587  1.00  0.00     0.010 A 
ATOM     15  C   UNL A   1      33.985  18.940  24.617  1.00  0.00     0.002 A 
ATOM     16  C   UNL A   1      32.673  19.355  24.413  1.00  0.00     0.001 A 
BRANCH   9  17
ATOM     17  C   UNL A   1      36.805  22.362  25.678  1.00  0.00     0.119 C 
ATOM     18  C   UNL A   1      37.331  23.768  25.912  1.00  0.00     0.027 C 
ENDBRANCH   9  17
ENDBRANCH   7   8
ENDBRANCH   4   7
ENDBRANCH   2   3
ENDBRANCH   1   2
BRANCH   1  19
ATOM     19  C   UNL A   1      33.746  29.096  26.078  1.00  0.00     0.023 C 
BRANCH  19  20
ATOM     20  C   UNL A   1      33.788  29.708  27.479  1.00  0.00     0.116 C 
BRANCH  20  21
ATOM     21  N   UNL A   1      34.338  31.048  27.505  1.00  0.00    -0.352 N 
ATOM     22  C   UNL A   1      35.569  31.578  27.771  1.00  0.00     0.251 C 
ATOM     23  H   UNL A   1      33.672  31.736  27.277  1.00  0.00     0.163 HD
ATOM     24  O   UNL A   1      35.670  32.802  27.641  1.00  0.00    -0.269 OA
BRANCH  22  25
ATOM     25  C   UNL A   1      36.758  30.809  28.232  1.00  0.00     0.039 A 
ATOM     26  C   UNL A   1      37.908  31.351  28.808  1.00  0.00     0.014 A 
ATOM     27  C   UNL A   1      36.700  29.415  28.045  1.00  0.00     0.014 A 
ATOM     28  C   UNL A   1      38.995  30.541  29.129  1.00  0.00     0.010 A 
ATOM     29  C   UNL A   1      37.775  28.598  28.380  1.00  0.00     0.010 A 
ATOM     30  C   UNL A   1      38.939  29.170  28.890  1.00  0.00    -0.014 A 
BRANCH  30  31
ATOM     31  C   UNL A   1      40.103  28.361  29.250  1.00  0.00     0.031 A 
ATOM     32  C   UNL A   1      40.459  28.293  30.701  1.00  0.00     0.074 A 
ATOM     33  C   UNL A   1      40.740  27.584  28.353  1.00  0.00     0.049 A 
ATOM     34  N   UNL A   1      41.623  28.435  31.255  1.00  0.00    -0.248 NA
ATOM     35  C   UNL A   1      39.367  28.058  31.659  1.00  0.00     0.031 C 
ATOM     36  C   UNL A   1      40.337  27.305  26.972  1.00  0.00     0.029 A 
ATOM     37  N   UNL A   1      41.810  26.758  28.542  1.00  0.00    -0.354 N 
ATOM     38  C   UNL A   1      41.441  28.187  32.616  1.00  0.00     0.074 A 
ATOM     39  C   UNL A   1      40.022  28.031  32.819  1.00  0.00     0.031 C 
ATOM     40  C   UNL A   1      40.983  26.200  26.543  1.00  0.00     0.029 A 
ATOM     41  C   UNL A   1      41.928  25.783  27.564  1.00  0.00     0.049 A 
ATOM     42  H   UNL A   1      42.436  26.847  29.297  1.00  0.00     0.167 HD
ATOM     43  C   UNL A   1      42.473  27.993  33.484  1.00  0.00     0.031 A 
ATOM     44  C   UNL A   1      42.677  24.657  27.628  1.00  0.00     0.031 A 
ATOM     45  C   UNL A   1      43.719  28.488  32.976  1.00  0.00     0.049 A 
ATOM     46  C   UNL A   1      43.702  24.836  28.678  1.00  0.00     0.074 A 
ATOM     47  C   UNL A   1      44.200  29.735  32.637  1.00  0.00     0.029 A 
ATOM     48  N   UNL A   1      44.619  27.585  32.469  1.00  0.00    -0.354 N 
ATOM     49  N   UNL A   1      44.706  25.657  28.584  1.00  0.00    -0.248 NA
ATOM     50  C   UNL A   1      43.422  24.346  30.018  1.00  0.00     0.031 C 
ATOM     51  C   UNL A   1      45.092  29.504  31.552  1.00  0.00     0.029 A 
ATOM     52  C   UNL A   1      45.119  28.128  31.314  1.00  0.00     0.049 A 
ATOM     53  H   UNL A   1      44.859  26.713  32.859  1.00  0.00     0.167 HD
ATOM     54  C   UNL A   1      44.910  26.117  29.876  1.00  0.00     0.074 A 
ATOM     55  C   UNL A   1      44.193  25.173  30.728  1.00  0.00     0.031 C 
ATOM     56  C   UNL A   1      45.394  27.373  30.110  1.00  0.00     0.031 A 
BRANCH  43  57
ATOM     57  C   UNL A   1      42.400  27.109  34.704  1.00  0.00    -0.014 A 
ATOM     58  C   UNL A   1      41.831  27.532  35.919  1.00  0.00     0.009 A 
ATOM     59  C   UNL A   1      42.671  25.733  34.578  1.00  0.00     0.009 A 
ATOM     60  C   UNL A   1      41.552  26.637  36.958  1.00  0.00     0.001 A 
ATOM     61  C   UNL A   1      42.353  24.829  35.599  1.00  0.00     0.001 A 
ATOM     62  C   UNL A   1      41.791  25.281  36.788  1.00  0.00     0.000 A 
ENDBRANCH  43  57
BRANCH  44  63
ATOM     63  C   UNL A   1      42.372  23.337  27.039  1.00  0.00    -0.014 A 
ATOM     64  C   UNL A   1      41.465  22.467  27.675  1.00  0.00     0.009 A 
ATOM     65  C   UNL A   1      43.153  22.819  25.995  1.00  0.00     0.009 A 
ATOM     66  C   UNL A   1      41.358  21.126  27.301  1.00  0.00     0.001 A 
ATOM     67  C   UNL A   1      43.053  21.472  25.626  1.00  0.00     0.001 A 
ATOM     68  C   UNL A   1      42.165  20.624  26.286  1.00  0.00     0.000 A 
ENDBRANCH  44  63
BRANCH  56  69
ATOM     69  C   UNL A   1      45.945  28.160  28.942  1.00  0.00    -0.014 A 
ATOM     70  C   UNL A   1      45.048  28.787  28.064  1.00  0.00     0.009 A 
ATOM     71  C   UNL A   1      47.307  28.134  28.590  1.00  0.00     0.009 A 
ATOM     72  C   UNL A   1      45.495  29.363  26.872  1.00  0.00     0.001 A 
ATOM     73  C   UNL A   1      47.757  28.735  27.412  1.00  0.00     0.001 A 
ATOM     74  C   UNL A   1      46.849  29.342  26.548  1.00  0.00     0.000 A 
ENDBRANCH  56  69
ENDBRANCH  30  31
ENDBRANCH  22  25
ENDBRANCH  20  21
ENDBRANCH  19  20
ENDBRANCH   1  19
TORSDOF 13
ENDMDL
