MODEL 1
REMARK VINA RESULT:     -12.3      0.000      0.000
REMARK SMILES COc1ccc(-c2ccc(CCC(=O)NCCCCNC(=O)c3ccc(-c4c5nc(c(-c6ccccc6)c6ccc([nH]6)c(-c6ccccc6)c6nc(c(-c7ccccc7)c7ccc4[nH]7)C=C6)C=C5)cc3)n2-c2ccc(C(C)=O)cc2)cc1
REMARK SMILES IDX 16 1 15 2 13 3 14 4 12 6 11 7 10 8 7 9 8 10 71 11 9 12 6 13
REMARK SMILES IDX 3 14 4 15 82 16 5 17 81 18 2 19 1 20 72 21 73 22 80 23 74 24
REMARK SMILES IDX 79 25 75 26 76 27 77 28 78 29 17 30 18 31 19 32 20 33 21 34
REMARK SMILES IDX 22 36 23 37 24 38 70 39 25 40 69 41 26 42 27 43 28 44 63 45
REMARK SMILES IDX 29 46 68 47 62 48 64 49 30 50 67 51 61 52 60 53 31 55 53 56
REMARK SMILES IDX 38 57 52 58 39 59 42 60 51 61 65 62 40 63 41 64 50 66 66 67
REMARK SMILES IDX 43 68 32 69 33 70 37 71 34 72 36 73 35 74 54 75 55 76 59 77
REMARK SMILES IDX 56 78 58 79 57 80 44 81 45 82 49 83 46 84 48 85 47 86
REMARK H PARENT 15 5 20 35 64 54 42 65
REMARK Flexibility Score: inf
ROOT
ATOM      1  C   UNL A   1      31.695  29.320  24.879  1.00  0.00     0.116 C 
ENDROOT
BRANCH   1   2
ATOM      2  N   UNL A   1      32.450  29.398  23.643  1.00  0.00    -0.356 N 
ATOM      3  C   UNL A   1      33.314  28.491  23.103  1.00  0.00     0.220 C 
ATOM      4  O   UNL A   1      34.022  28.853  22.161  1.00  0.00    -0.275 OA
ATOM      5  H   UNL A   1      32.322  30.223  23.121  1.00  0.00     0.163 HD
BRANCH   3   6
ATOM      6  C   UNL A   1      33.371  27.063  23.615  1.00  0.00     0.106 C 
BRANCH   6   7
ATOM      7  C   UNL A   1      33.109  26.015  22.532  1.00  0.00     0.064 C 
BRANCH   7   8
ATOM      8  C   UNL A   1      32.417  24.775  23.034  1.00  0.00     0.024 A 
ATOM      9  C   UNL A   1      32.098  22.565  23.386  1.00  0.00     0.053 A 
ATOM     10  C   UNL A   1      30.895  23.224  23.606  1.00  0.00     0.029 A 
ATOM     11  N   UNL A   1      33.065  23.571  23.314  1.00  0.00    -0.314 N 
ATOM     12  C   UNL A   1      31.099  24.606  23.408  1.00  0.00     0.024 A 
BRANCH   9  13
ATOM     13  C   UNL A   1      32.349  21.133  23.551  1.00  0.00    -0.001 A 
ATOM     14  C   UNL A   1      32.719  18.380  23.956  1.00  0.00     0.118 A 
ATOM     15  C   UNL A   1      32.873  19.273  25.014  1.00  0.00     0.047 A 
ATOM     16  C   UNL A   1      32.354  18.856  22.696  1.00  0.00     0.047 A 
ATOM     17  C   UNL A   1      32.697  20.642  24.813  1.00  0.00     0.014 A 
ATOM     18  C   UNL A   1      32.168  20.233  22.493  1.00  0.00     0.014 A 
BRANCH  14  19
ATOM     19  O   UNL A   1      32.870  17.059  24.272  1.00  0.00    -0.497 OA
ATOM     20  C   UNL A   1      32.953  16.794  25.669  1.00  0.00     0.278 C 
ENDBRANCH  14  19
ENDBRANCH   9  13
BRANCH  11  21
ATOM     21  C   UNL A   1      34.352  23.480  23.902  1.00  0.00     0.046 A 
ATOM     22  C   UNL A   1      34.440  23.795  25.264  1.00  0.00     0.027 A 
ATOM     23  C   UNL A   1      35.451  22.958  23.224  1.00  0.00     0.027 A 
ATOM     24  C   UNL A   1      35.625  23.583  25.960  1.00  0.00     0.014 A 
ATOM     25  C   UNL A   1      36.649  22.771  23.925  1.00  0.00     0.014 A 
ATOM     26  C   UNL A   1      36.741  23.066  25.300  1.00  0.00     0.017 A 
BRANCH  26  27
ATOM     27  C   UNL A   1      38.033  22.799  26.003  1.00  0.00     0.159 C 
ATOM     28  C   UNL A   1      38.828  21.547  25.719  1.00  0.00     0.093 C 
ATOM     29  O   UNL A   1      38.455  23.623  26.815  1.00  0.00    -0.295 OA
ENDBRANCH  26  27
ENDBRANCH  11  21
ENDBRANCH   7   8
ENDBRANCH   6   7
ENDBRANCH   3   6
ENDBRANCH   1   2
BRANCH   1  30
ATOM     30  C   UNL A   1      32.531  29.836  26.046  1.00  0.00     0.023 C 
BRANCH  30  31
ATOM     31  C   UNL A   1      33.278  28.803  26.883  1.00  0.00     0.023 C 
BRANCH  31  32
ATOM     32  C   UNL A   1      34.782  29.018  26.905  1.00  0.00     0.116 C 
BRANCH  32  33
ATOM     33  N   UNL A   1      35.141  30.376  27.293  1.00  0.00    -0.352 N 
ATOM     34  C   UNL A   1      36.236  30.789  28.018  1.00  0.00     0.251 C 
ATOM     35  H   UNL A   1      34.525  31.086  27.000  1.00  0.00     0.163 HD
ATOM     36  O   UNL A   1      36.279  31.890  28.535  1.00  0.00    -0.269 OA
BRANCH  34  37
ATOM     37  C   UNL A   1      37.362  29.852  28.185  1.00  0.00     0.039 A 
ATOM     38  C   UNL A   1      38.376  29.842  27.226  1.00  0.00     0.014 A 
ATOM     39  C   UNL A   1      37.412  29.012  29.303  1.00  0.00     0.014 A 
ATOM     40  C   UNL A   1      39.500  29.057  27.445  1.00  0.00     0.010 A 
ATOM     41  C   UNL A   1      38.549  28.258  29.546  1.00  0.00     0.010 A 
ATOM     42  C   UNL A   1      39.602  28.305  28.628  1.00  0.00    -0.014 A 
BRANCH  42  43
ATOM     43  C   UNL A   1      40.919  27.729  28.980  1.00  0.00     0.031 A 
ATOM     44  C   UNL A   1      41.249  26.513  28.084  1.00  0.00     0.074 A 
ATOM     45  C   UNL A   1      41.575  28.311  30.029  1.00  0.00     0.049 A 
ATOM     46  N   UNL A   1      41.910  25.428  28.344  1.00  0.00    -0.248 NA
ATOM     47  C   UNL A   1      40.689  26.474  26.701  1.00  0.00     0.031 C 
ATOM     48  C   UNL A   1      41.150  29.559  30.709  1.00  0.00     0.029 A 
ATOM     49  N   UNL A   1      42.708  27.993  30.743  1.00  0.00    -0.354 N 
ATOM     50  C   UNL A   1      41.964  24.653  27.158  1.00  0.00     0.074 A 
ATOM     51  C   UNL A   1      41.122  25.312  26.206  1.00  0.00     0.031 C 
ATOM     52  C   UNL A   1      41.948  29.836  31.763  1.00  0.00     0.029 A 
ATOM     53  C   UNL A   1      42.941  28.792  31.894  1.00  0.00     0.049 A 
ATOM     54  H   UNL A   1      43.315  27.264  30.475  1.00  0.00     0.167 HD
ATOM     55  C   UNL A   1      42.797  23.580  27.000  1.00  0.00     0.031 A 
ATOM     56  C   UNL A   1      43.812  28.578  32.928  1.00  0.00     0.031 A 
ATOM     57  C   UNL A   1      43.464  23.300  28.222  1.00  0.00     0.049 A 
ATOM     58  C   UNL A   1      44.517  27.336  32.588  1.00  0.00     0.074 A 
ATOM     59  C   UNL A   1      43.103  22.682  29.387  1.00  0.00     0.029 A 
ATOM     60  N   UNL A   1      44.645  23.966  28.420  1.00  0.00    -0.354 N 
ATOM     61  N   UNL A   1      45.448  27.228  31.693  1.00  0.00    -0.248 NA
ATOM     62  C   UNL A   1      44.061  26.085  33.204  1.00  0.00     0.031 C 
ATOM     63  C   UNL A   1      43.826  23.389  30.376  1.00  0.00     0.029 A 
ATOM     64  C   UNL A   1      44.699  24.286  29.754  1.00  0.00     0.049 A 
ATOM     65  H   UNL A   1      45.323  24.175  27.738  1.00  0.00     0.167 HD
ATOM     66  C   UNL A   1      45.413  25.889  31.390  1.00  0.00     0.074 A 
ATOM     67  C   UNL A   1      44.807  25.222  32.520  1.00  0.00     0.031 C 
ATOM     68  C   UNL A   1      45.427  25.479  30.098  1.00  0.00     0.031 A 
BRANCH  55  69
ATOM     69  C   UNL A   1      43.315  22.869  25.770  1.00  0.00    -0.014 A 
ATOM     70  C   UNL A   1      43.427  21.455  25.842  1.00  0.00     0.009 A 
ATOM     71  C   UNL A   1      44.001  23.503  24.731  1.00  0.00     0.009 A 
ATOM     72  C   UNL A   1      44.304  20.735  25.030  1.00  0.00     0.001 A 
ATOM     73  C   UNL A   1      44.850  22.772  23.883  1.00  0.00     0.001 A 
ATOM     74  C   UNL A   1      45.038  21.401  24.062  1.00  0.00     0.000 A 
ENDBRANCH  55  69
BRANCH  56  75
ATOM     75  C   UNL A   1      44.087  29.154  34.294  1.00  0.00    -0.014 A 
ATOM     76  C   UNL A   1      45.184  29.941  34.652  1.00  0.00     0.009 A 
ATOM     77  C   UNL A   1      43.158  28.895  35.341  1.00  0.00     0.009 A 
ATOM     78  C   UNL A   1      45.285  30.506  35.944  1.00  0.00     0.001 A 
ATOM     79  C   UNL A   1      43.231  29.481  36.607  1.00  0.00     0.001 A 
ATOM     80  C   UNL A   1      44.295  30.305  36.908  1.00  0.00     0.000 A 
ENDBRANCH  56  75
BRANCH  68  81
ATOM     81  C   UNL A   1      45.874  26.539  29.102  1.00  0.00    -0.014 A 
ATOM     82  C   UNL A   1      44.915  27.260  28.378  1.00  0.00     0.009 A 
ATOM     83  C   UNL A   1      47.228  26.759  28.776  1.00  0.00     0.009 A 
ATOM     84  C   UNL A   1      45.288  28.150  27.363  1.00  0.00     0.001 A 
ATOM     85  C   UNL A   1      47.606  27.650  27.761  1.00  0.00     0.001 A 
ATOM     86  C   UNL A   1      46.632  28.344  27.050  1.00  0.00     0.000 A 
ENDBRANCH  68  81
ENDBRANCH  42  43
ENDBRANCH  34  37
ENDBRANCH  32  33
ENDBRANCH  31  32
ENDBRANCH  30  31
ENDBRANCH   1  30
TORSDOF 17
ENDMDL
MODEL 2
REMARK VINA RESULT:     -12.2      2.601      8.110
REMARK SMILES COc1ccc(-c2ccc(CCC(=O)NCCCCNC(=O)c3ccc(-c4c5nc(c(-c6ccccc6)c6ccc([nH]6)c(-c6ccccc6)c6nc(c(-c7ccccc7)c7ccc4[nH]7)C=C6)C=C5)cc3)n2-c2ccc(C(C)=O)cc2)cc1
REMARK SMILES IDX 16 1 15 2 13 3 14 4 12 6 11 7 10 8 7 9 8 10 71 11 9 12 6 13
REMARK SMILES IDX 3 14 4 15 82 16 5 17 81 18 2 19 1 20 72 21 73 22 80 23 74 24
REMARK SMILES IDX 79 25 75 26 76 27 77 28 78 29 17 30 18 31 19 32 20 33 21 34
REMARK SMILES IDX 22 36 23 37 24 38 70 39 25 40 69 41 26 42 27 43 28 44 63 45
REMARK SMILES IDX 29 46 68 47 62 48 64 49 30 50 67 51 61 52 60 53 31 55 53 56
REMARK SMILES IDX 38 57 52 58 39 59 42 60 51 61 65 62 40 63 41 64 50 66 66 67
REMARK SMILES IDX 43 68 32 69 33 70 37 71 34 72 36 73 35 74 54 75 55 76 59 77
REMARK SMILES IDX 56 78 58 79 57 80 44 81 45 82 49 83 46 84 48 85 47 86
REMARK H PARENT 15 5 20 35 64 54 42 65
REMARK Flexibility Score: inf
ROOT
ATOM      1  C   UNL A   1      35.521  22.181  24.253  1.00  0.00     0.116 C 
ENDROOT
BRANCH   1   2
ATOM      2  N   UNL A   1      34.880  21.417  25.307  1.00  0.00    -0.356 N 
ATOM      3  C   UNL A   1      34.196  21.864  26.399  1.00  0.00     0.220 C 
ATOM      4  O   UNL A   1      33.929  21.052  27.288  1.00  0.00    -0.275 OA
ATOM      5  H   UNL A   1      34.949  20.439  25.222  1.00  0.00     0.163 HD
BRANCH   3   6
ATOM      6  C   UNL A   1      33.736  23.306  26.498  1.00  0.00     0.106 C 
BRANCH   6   7
ATOM      7  C   UNL A   1      32.215  23.461  26.546  1.00  0.00     0.064 C 
BRANCH   7   8
ATOM      8  C   UNL A   1      31.622  24.081  25.308  1.00  0.00     0.024 A 
ATOM      9  C   UNL A   1      30.377  25.523  24.091  1.00  0.00     0.053 A 
ATOM     10  C   UNL A   1      30.695  24.433  23.291  1.00  0.00     0.029 A 
ATOM     11  N   UNL A   1      31.192  25.406  25.221  1.00  0.00    -0.314 N 
ATOM     12  C   UNL A   1      31.491  23.543  24.043  1.00  0.00     0.024 A 
BRANCH   9  13
ATOM     13  C   UNL A   1      29.627  26.711  23.686  1.00  0.00    -0.001 A 
ATOM     14  C   UNL A   1      28.212  28.957  22.771  1.00  0.00     0.118 A 
ATOM     15  C   UNL A   1      29.580  28.843  22.532  1.00  0.00     0.047 A 
ATOM     16  C   UNL A   1      27.539  27.936  23.444  1.00  0.00     0.047 A 
ATOM     17  C   UNL A   1      30.286  27.732  22.993  1.00  0.00     0.014 A 
ATOM     18  C   UNL A   1      28.246  26.813  23.901  1.00  0.00     0.014 A 
BRANCH  14  19
ATOM     19  O   UNL A   1      27.610  30.063  22.237  1.00  0.00    -0.497 OA
ATOM     20  C   UNL A   1      28.466  30.868  21.434  1.00  0.00     0.278 C 
ENDBRANCH  14  19
ENDBRANCH   9  13
BRANCH  11  21
ATOM     21  C   UNL A   1      31.850  26.497  25.843  1.00  0.00     0.046 A 
ATOM     22  C   UNL A   1      33.079  26.882  25.294  1.00  0.00     0.027 A 
ATOM     23  C   UNL A   1      31.253  27.259  26.844  1.00  0.00     0.027 A 
ATOM     24  C   UNL A   1      33.718  28.035  25.736  1.00  0.00     0.014 A 
ATOM     25  C   UNL A   1      31.914  28.405  27.303  1.00  0.00     0.014 A 
ATOM     26  C   UNL A   1      33.142  28.811  26.743  1.00  0.00     0.017 A 
BRANCH  26  27
ATOM     27  C   UNL A   1      33.773  30.070  27.242  1.00  0.00     0.159 C 
ATOM     28  C   UNL A   1      35.231  30.107  27.636  1.00  0.00     0.093 C 
ATOM     29  O   UNL A   1      33.091  31.093  27.317  1.00  0.00    -0.295 OA
ENDBRANCH  26  27
ENDBRANCH  11  21
ENDBRANCH   7   8
ENDBRANCH   6   7
ENDBRANCH   3   6
ENDBRANCH   1   2
BRANCH   1  30
ATOM     30  C   UNL A   1      37.033  21.979  24.295  1.00  0.00     0.023 C 
BRANCH  30  31
ATOM     31  C   UNL A   1      37.551  20.723  24.987  1.00  0.00     0.023 C 
BRANCH  31  32
ATOM     32  C   UNL A   1      38.879  20.930  25.696  1.00  0.00     0.116 C 
BRANCH  32  33
ATOM     33  N   UNL A   1      39.648  19.696  25.802  1.00  0.00    -0.352 N 
ATOM     34  C   UNL A   1      41.008  19.556  25.966  1.00  0.00     0.251 C 
ATOM     35  H   UNL A   1      39.131  18.860  25.750  1.00  0.00     0.163 HD
ATOM     36  O   UNL A   1      41.570  18.500  25.743  1.00  0.00    -0.269 OA
BRANCH  34  37
ATOM     37  C   UNL A   1      41.788  20.731  26.397  1.00  0.00     0.039 A 
ATOM     38  C   UNL A   1      42.289  21.597  25.425  1.00  0.00     0.014 A 
ATOM     39  C   UNL A   1      41.990  20.973  27.761  1.00  0.00     0.014 A 
ATOM     40  C   UNL A   1      42.910  22.772  25.829  1.00  0.00     0.010 A 
ATOM     41  C   UNL A   1      42.572  22.162  28.168  1.00  0.00     0.010 A 
ATOM     42  C   UNL A   1      43.006  23.072  27.199  1.00  0.00    -0.014 A 
BRANCH  42  43
ATOM     43  C   UNL A   1      43.386  24.447  27.590  1.00  0.00     0.031 A 
ATOM     44  C   UNL A   1      42.133  25.327  27.811  1.00  0.00     0.074 A 
ATOM     45  C   UNL A   1      44.725  24.717  27.638  1.00  0.00     0.049 A 
ATOM     46  N   UNL A   1      41.942  26.592  27.602  1.00  0.00    -0.248 NA
ATOM     47  C   UNL A   1      40.874  24.670  28.271  1.00  0.00     0.031 C 
ATOM     48  C   UNL A   1      45.800  23.703  27.501  1.00  0.00     0.029 A 
ATOM     49  N   UNL A   1      45.464  25.866  27.803  1.00  0.00    -0.354 N 
ATOM     50  C   UNL A   1      40.624  26.911  28.016  1.00  0.00     0.074 A 
ATOM     51  C   UNL A   1      39.990  25.669  28.338  1.00  0.00     0.031 C 
ATOM     52  C   UNL A   1      47.020  24.283  27.504  1.00  0.00     0.029 A 
ATOM     53  C   UNL A   1      46.864  25.718  27.609  1.00  0.00     0.049 A 
ATOM     54  H   UNL A   1      45.053  26.730  28.039  1.00  0.00     0.167 HD
ATOM     55  C   UNL A   1      40.179  28.193  28.179  1.00  0.00     0.031 A 
ATOM     56  C   UNL A   1      47.818  26.686  27.452  1.00  0.00     0.031 A 
ATOM     57  C   UNL A   1      41.172  29.111  27.745  1.00  0.00     0.049 A 
ATOM     58  C   UNL A   1      47.098  27.960  27.568  1.00  0.00     0.074 A 
ATOM     59  C   UNL A   1      41.595  29.552  26.521  1.00  0.00     0.029 A 
ATOM     60  N   UNL A   1      42.084  29.492  28.694  1.00  0.00    -0.354 N 
ATOM     61  N   UNL A   1      46.663  28.474  28.675  1.00  0.00    -0.248 NA
ATOM     62  C   UNL A   1      46.717  28.660  26.336  1.00  0.00     0.031 C 
ATOM     63  C   UNL A   1      42.981  29.766  26.707  1.00  0.00     0.029 A 
ATOM     64  C   UNL A   1      43.296  29.596  28.058  1.00  0.00     0.049 A 
ATOM     65  H   UNL A   1      41.905  29.658  29.647  1.00  0.00     0.167 HD
ATOM     66  C   UNL A   1      45.673  29.320  28.241  1.00  0.00     0.074 A 
ATOM     67  C   UNL A   1      45.961  29.621  26.857  1.00  0.00     0.031 C 
ATOM     68  C   UNL A   1      44.465  29.333  28.856  1.00  0.00     0.031 A 
BRANCH  55  69
ATOM     69  C   UNL A   1      39.016  28.774  28.952  1.00  0.00    -0.014 A 
ATOM     70  C   UNL A   1      38.714  30.143  28.729  1.00  0.00     0.009 A 
ATOM     71  C   UNL A   1      38.461  28.183  30.090  1.00  0.00     0.009 A 
ATOM     72  C   UNL A   1      38.037  30.920  29.671  1.00  0.00     0.001 A 
ATOM     73  C   UNL A   1      37.741  28.956  31.017  1.00  0.00     0.001 A 
ATOM     74  C   UNL A   1      37.571  30.328  30.832  1.00  0.00     0.000 A 
ENDBRANCH  55  69
BRANCH  56  75
ATOM     75  C   UNL A   1      49.270  26.769  27.055  1.00  0.00    -0.014 A 
ATOM     76  C   UNL A   1      49.853  26.175  25.933  1.00  0.00     0.009 A 
ATOM     77  C   UNL A   1      50.159  27.520  27.875  1.00  0.00     0.009 A 
ATOM     78  C   UNL A   1      51.211  26.404  25.610  1.00  0.00     0.001 A 
ATOM     79  C   UNL A   1      51.490  27.782  27.542  1.00  0.00     0.001 A 
ATOM     80  C   UNL A   1      52.017  27.232  26.392  1.00  0.00     0.000 A 
ENDBRANCH  56  75
BRANCH  68  81
ATOM     81  C   UNL A   1      44.446  28.677  30.230  1.00  0.00    -0.014 A 
ATOM     82  C   UNL A   1      44.096  27.326  30.349  1.00  0.00     0.009 A 
ATOM     83  C   UNL A   1      44.653  29.398  31.423  1.00  0.00     0.009 A 
ATOM     84  C   UNL A   1      43.942  26.723  31.604  1.00  0.00     0.001 A 
ATOM     85  C   UNL A   1      44.501  28.798  32.682  1.00  0.00     0.001 A 
ATOM     86  C   UNL A   1      44.141  27.458  32.771  1.00  0.00     0.000 A 
ENDBRANCH  68  81
ENDBRANCH  42  43
ENDBRANCH  34  37
ENDBRANCH  32  33
ENDBRANCH  31  32
ENDBRANCH  30  31
ENDBRANCH   1  30
TORSDOF 17
ENDMDL
MODEL 3
REMARK VINA RESULT:     -12.0      1.834      6.019
REMARK SMILES COc1ccc(-c2ccc(CCC(=O)NCCCCNC(=O)c3ccc(-c4c5nc(c(-c6ccccc6)c6ccc([nH]6)c(-c6ccccc6)c6nc(c(-c7ccccc7)c7ccc4[nH]7)C=C6)C=C5)cc3)n2-c2ccc(C(C)=O)cc2)cc1
REMARK SMILES IDX 16 1 15 2 13 3 14 4 12 6 11 7 10 8 7 9 8 10 71 11 9 12 6 13
REMARK SMILES IDX 3 14 4 15 82 16 5 17 81 18 2 19 1 20 72 21 73 22 80 23 74 24
REMARK SMILES IDX 79 25 75 26 76 27 77 28 78 29 17 30 18 31 19 32 20 33 21 34
REMARK SMILES IDX 22 36 23 37 24 38 70 39 25 40 69 41 26 42 27 43 28 44 63 45
REMARK SMILES IDX 29 46 68 47 62 48 64 49 30 50 67 51 61 52 60 53 31 55 53 56
REMARK SMILES IDX 38 57 52 58 39 59 42 60 51 61 65 62 40 63 41 64 50 66 66 67
REMARK SMILES IDX 43 68 32 69 33 70 37 71 34 72 36 73 35 74 54 75 55 76 59 77
REMARK SMILES IDX 56 78 58 79 57 80 44 81 45 82 49 83 46 84 48 85 47 86
REMARK H PARENT 15 5 20 35 64 54 42 65
REMARK Flexibility Score: inf
ROOT
ATOM      1  C   UNL A   1      31.419  29.386  24.651  1.00  0.00     0.116 C 
ENDROOT
BRANCH   1   2
ATOM      2  N   UNL A   1      32.588  29.407  23.792  1.00  0.00    -0.356 N 
ATOM      3  C   UNL A   1      32.996  28.488  22.870  1.00  0.00     0.220 C 
ATOM      4  O   UNL A   1      34.136  28.591  22.414  1.00  0.00    -0.275 OA
ATOM      5  H   UNL A   1      33.169  30.196  23.888  1.00  0.00     0.163 HD
BRANCH   3   6
ATOM      6  C   UNL A   1      32.059  27.397  22.385  1.00  0.00     0.106 C 
BRANCH   6   7
ATOM      7  C   UNL A   1      32.762  26.067  22.108  1.00  0.00     0.064 C 
BRANCH   7   8
ATOM      8  C   UNL A   1      32.109  24.880  22.767  1.00  0.00     0.024 A 
ATOM      9  C   UNL A   1      31.824  22.714  23.344  1.00  0.00     0.053 A 
ATOM     10  C   UNL A   1      30.634  23.391  23.578  1.00  0.00     0.029 A 
ATOM     11  N   UNL A   1      32.780  23.707  23.116  1.00  0.00    -0.314 N 
ATOM     12  C   UNL A   1      30.818  24.749  23.239  1.00  0.00     0.024 A 
BRANCH   9  13
ATOM     13  C   UNL A   1      32.093  21.303  23.625  1.00  0.00    -0.001 A 
ATOM     14  C   UNL A   1      32.730  18.609  24.088  1.00  0.00     0.118 A 
ATOM     15  C   UNL A   1      32.458  19.054  22.797  1.00  0.00     0.047 A 
ATOM     16  C   UNL A   1      32.712  19.513  25.151  1.00  0.00     0.047 A 
ATOM     17  C   UNL A   1      32.133  20.391  22.566  1.00  0.00     0.014 A 
ATOM     18  C   UNL A   1      32.394  20.860  24.920  1.00  0.00     0.014 A 
BRANCH  14  19
ATOM     19  O   UNL A   1      33.080  17.291  24.196  1.00  0.00    -0.497 OA
ATOM     20  C   UNL A   1      33.979  16.838  23.190  1.00  0.00     0.278 C 
ENDBRANCH  14  19
ENDBRANCH   9  13
BRANCH  11  21
ATOM     21  C   UNL A   1      34.102  23.671  23.627  1.00  0.00     0.046 A 
ATOM     22  C   UNL A   1      34.289  24.187  24.916  1.00  0.00     0.027 A 
ATOM     23  C   UNL A   1      35.142  23.020  22.969  1.00  0.00     0.027 A 
ATOM     24  C   UNL A   1      35.514  24.050  25.558  1.00  0.00     0.014 A 
ATOM     25  C   UNL A   1      36.382  22.908  23.611  1.00  0.00     0.014 A 
ATOM     26  C   UNL A   1      36.573  23.407  24.915  1.00  0.00     0.017 A 
BRANCH  26  27
ATOM     27  C   UNL A   1      37.904  23.213  25.565  1.00  0.00     0.159 C 
ATOM     28  C   UNL A   1      38.453  21.829  25.819  1.00  0.00     0.093 C 
ATOM     29  O   UNL A   1      38.565  24.203  25.886  1.00  0.00    -0.295 OA
ENDBRANCH  26  27
ENDBRANCH  11  21
ENDBRANCH   7   8
ENDBRANCH   6   7
ENDBRANCH   3   6
ENDBRANCH   1   2
BRANCH   1  30
ATOM     30  C   UNL A   1      31.718  30.088  25.972  1.00  0.00     0.023 C 
BRANCH  30  31
ATOM     31  C   UNL A   1      32.213  29.223  27.126  1.00  0.00     0.023 C 
BRANCH  31  32
ATOM     32  C   UNL A   1      33.675  29.454  27.468  1.00  0.00     0.116 C 
BRANCH  32  33
ATOM     33  N   UNL A   1      33.918  30.793  27.987  1.00  0.00    -0.352 N 
ATOM     34  C   UNL A   1      34.988  31.232  28.735  1.00  0.00     0.251 C 
ATOM     35  H   UNL A   1      33.233  31.468  27.777  1.00  0.00     0.163 HD
ATOM     36  O   UNL A   1      34.941  32.274  29.361  1.00  0.00    -0.269 OA
BRANCH  34  37
ATOM     37  C   UNL A   1      36.198  30.392  28.789  1.00  0.00     0.039 A 
ATOM     38  C   UNL A   1      37.020  30.325  27.663  1.00  0.00     0.014 A 
ATOM     39  C   UNL A   1      36.517  29.701  29.963  1.00  0.00     0.014 A 
ATOM     40  C   UNL A   1      38.225  29.642  27.751  1.00  0.00     0.010 A 
ATOM     41  C   UNL A   1      37.737  29.053  30.068  1.00  0.00     0.010 A 
ATOM     42  C   UNL A   1      38.601  29.049  28.969  1.00  0.00    -0.014 A 
BRANCH  42  43
ATOM     43  C   UNL A   1      40.002  28.602  29.128  1.00  0.00     0.031 A 
ATOM     44  C   UNL A   1      40.932  29.795  29.450  1.00  0.00     0.074 A 
ATOM     45  C   UNL A   1      40.242  27.272  28.920  1.00  0.00     0.049 A 
ATOM     46  N   UNL A   1      42.169  30.011  29.129  1.00  0.00    -0.248 NA
ATOM     47  C   UNL A   1      40.363  30.962  30.187  1.00  0.00     0.031 C 
ATOM     48  C   UNL A   1      39.193  26.241  28.726  1.00  0.00     0.029 A 
ATOM     49  N   UNL A   1      41.384  26.510  28.824  1.00  0.00    -0.354 N 
ATOM     50  C   UNL A   1      42.566  31.239  29.716  1.00  0.00     0.074 A 
ATOM     51  C   UNL A   1      41.385  31.816  30.283  1.00  0.00     0.031 C 
ATOM     52  C   UNL A   1      39.739  25.035  28.458  1.00  0.00     0.029 A 
ATOM     53  C   UNL A   1      41.180  25.164  28.418  1.00  0.00     0.049 A 
ATOM     54  H   UNL A   1      42.279  26.871  29.022  1.00  0.00     0.167 HD
ATOM     55  C   UNL A   1      43.870  31.644  29.800  1.00  0.00     0.031 A 
ATOM     56  C   UNL A   1      42.100  24.244  27.993  1.00  0.00     0.031 A 
ATOM     57  C   UNL A   1      44.707  30.733  29.102  1.00  0.00     0.049 A 
ATOM     58  C   UNL A   1      43.397  24.928  28.077  1.00  0.00     0.074 A 
ATOM     59  C   UNL A   1      44.994  30.520  27.782  1.00  0.00     0.029 A 
ATOM     60  N   UNL A   1      45.171  29.672  29.835  1.00  0.00    -0.354 N 
ATOM     61  N   UNL A   1      44.044  25.168  29.174  1.00  0.00    -0.248 NA
ATOM     62  C   UNL A   1      43.960  25.507  26.852  1.00  0.00     0.031 C 
ATOM     63  C   UNL A   1      45.194  29.121  27.708  1.00  0.00     0.029 A 
ATOM     64  C   UNL A   1      45.172  28.584  28.999  1.00  0.00     0.049 A 
ATOM     65  H   UNL A   1      45.449  29.688  30.779  1.00  0.00     0.167 HD
ATOM     66  C   UNL A   1      44.859  26.213  28.814  1.00  0.00     0.074 A 
ATOM     67  C   UNL A   1      44.992  26.160  27.376  1.00  0.00     0.031 C 
ATOM     68  C   UNL A   1      44.973  27.300  29.616  1.00  0.00     0.031 A 
BRANCH  55  69
ATOM     69  C   UNL A   1      44.563  32.657  30.683  1.00  0.00    -0.014 A 
ATOM     70  C   UNL A   1      44.791  32.285  32.034  1.00  0.00     0.009 A 
ATOM     71  C   UNL A   1      44.676  34.016  30.376  1.00  0.00     0.009 A 
ATOM     72  C   UNL A   1      44.955  33.229  33.050  1.00  0.00     0.001 A 
ATOM     73  C   UNL A   1      44.886  34.963  31.392  1.00  0.00     0.001 A 
ATOM     74  C   UNL A   1      44.977  34.576  32.729  1.00  0.00     0.000 A 
ENDBRANCH  55  69
BRANCH  56  75
ATOM     75  C   UNL A   1      42.101  22.879  27.353  1.00  0.00    -0.014 A 
ATOM     76  C   UNL A   1      42.727  22.532  26.153  1.00  0.00     0.009 A 
ATOM     77  C   UNL A   1      41.413  21.819  28.007  1.00  0.00     0.009 A 
ATOM     78  C   UNL A   1      42.741  21.193  25.699  1.00  0.00     0.001 A 
ATOM     79  C   UNL A   1      41.454  20.488  27.586  1.00  0.00     0.001 A 
ATOM     80  C   UNL A   1      42.136  20.169  26.430  1.00  0.00     0.000 A 
ENDBRANCH  56  75
BRANCH  68  81
ATOM     81  C   UNL A   1      44.479  27.091  31.041  1.00  0.00    -0.014 A 
ATOM     82  C   UNL A   1      43.354  27.791  31.495  1.00  0.00     0.009 A 
ATOM     83  C   UNL A   1      45.173  26.304  31.982  1.00  0.00     0.009 A 
ATOM     84  C   UNL A   1      42.948  27.723  32.834  1.00  0.00     0.001 A 
ATOM     85  C   UNL A   1      44.770  26.232  33.324  1.00  0.00     0.001 A 
ATOM     86  C   UNL A   1      43.656  26.948  33.750  1.00  0.00     0.000 A 
ENDBRANCH  68  81
ENDBRANCH  42  43
ENDBRANCH  34  37
ENDBRANCH  32  33
ENDBRANCH  31  32
ENDBRANCH  30  31
ENDBRANCH   1  30
TORSDOF 17
ENDMDL
