MODEL 1
REMARK VINA RESULT:     -11.1      0.000      0.000
REMARK SMILES CC(C)C[C@H](NC(=O)CNC(=O)[C@@H](NC(=O)OCc1ccccc1)C(C)C)C(=O)N[C@@H](C)C(=O)NCCCCNC(=O)c1ccc(-c2c3nc(c(-c4ccccc4)c4ccc([nH]4)c(-c4ccccc4)c4nc(c(-c5ccccc5)c5ccc2[nH]5)C=C4)C=C3)cc1
REMARK SMILES IDX 31 1 32 2 30 3 28 4 29 5 5 7 4 8 2 9 1 10 3 11 6 12 7 13
REMARK SMILES IDX 8 15 9 16 10 17 11 18 12 20 13 21 14 22 15 23 16 25 17 26
REMARK SMILES IDX 18 27 19 28 20 29 24 30 21 31 23 32 22 33 25 34 26 35 27 36
REMARK SMILES IDX 33 37 34 38 35 39 36 41 37 42 38 43 39 44 40 45 41 46 42 48
REMARK SMILES IDX 43 49 44 50 90 51 45 52 89 53 46 54 47 55 48 56 83 57 49 58
REMARK SMILES IDX 88 59 82 60 84 61 50 62 87 63 81 64 80 65 51 67 73 68 58 69
REMARK SMILES IDX 72 70 59 71 62 72 71 73 85 74 60 75 61 76 70 78 86 79 63 80
REMARK SMILES IDX 52 81 53 82 57 83 54 84 56 85 55 86 74 87 75 88 79 89 76 90
REMARK SMILES IDX 78 91 77 92 64 93 65 94 69 95 66 96 68 97 67 98
REMARK H PARENT 30 6 6 14 10 19 14 24 35 40 40 47 84 66 62 77
REMARK Flexibility Score: inf
ROOT
ATOM      1  C   UNL A   1      35.600  22.028  24.546  1.00  0.00     0.168 C 
ATOM      2  C   UNL A   1      36.184  20.700  25.005  1.00  0.00     0.041 C 
ENDROOT
BRANCH   1   3
ATOM      3  N   UNL A   1      34.454  21.838  23.656  1.00  0.00    -0.343 N 
ATOM      4  C   UNL A   1      33.169  21.506  23.958  1.00  0.00     0.243 C 
ATOM      5  O   UNL A   1      32.299  21.812  23.139  1.00  0.00    -0.273 OA
ATOM      6  H   UNL A   1      34.640  21.970  22.699  1.00  0.00     0.164 HD
BRANCH   4   7
ATOM      7  C   UNL A   1      32.803  20.881  25.316  1.00  0.00     0.171 C 
BRANCH   7   8
ATOM      8  C   UNL A   1      32.636  19.357  25.230  1.00  0.00     0.038 C 
BRANCH   8   9
ATOM      9  C   UNL A   1      33.379  18.657  24.063  1.00  0.00    -0.015 C 
ATOM     10  C   UNL A   1      34.249  17.466  24.467  1.00  0.00     0.007 C 
ATOM     11  C   UNL A   1      32.356  18.183  23.025  1.00  0.00     0.007 C 
ENDBRANCH   8   9
ENDBRANCH   7   8
BRANCH   7  12
ATOM     12  N   UNL A   1      31.651  21.596  25.879  1.00  0.00    -0.343 N 
ATOM     13  C   UNL A   1      31.538  22.793  26.512  1.00  0.00     0.240 C 
ATOM     14  H   UNL A   1      30.796  21.117  25.779  1.00  0.00     0.164 HD
ATOM     15  O   UNL A   1      30.396  23.256  26.603  1.00  0.00    -0.273 OA
BRANCH  13  16
ATOM     16  C   UNL A   1      32.738  23.632  26.970  1.00  0.00     0.216 C 
BRANCH  16  17
ATOM     17  N   UNL A   1      33.522  24.240  25.921  1.00  0.00    -0.345 N 
ATOM     18  C   UNL A   1      33.429  25.416  25.259  1.00  0.00     0.243 C 
ATOM     19  H   UNL A   1      34.281  23.685  25.628  1.00  0.00     0.164 HD
ATOM     20  O   UNL A   1      34.335  25.634  24.444  1.00  0.00    -0.273 OA
BRANCH  18  21
ATOM     21  C   UNL A   1      32.365  26.516  25.534  1.00  0.00     0.177 C 
BRANCH  21  22
ATOM     22  N   UNL A   1      30.989  26.059  25.320  1.00  0.00    -0.309 N 
ATOM     23  C   UNL A   1      30.009  26.406  24.445  1.00  0.00     0.408 C 
ATOM     24  H   UNL A   1      30.716  25.350  25.945  1.00  0.00     0.167 HD
ATOM     25  O   UNL A   1      28.844  26.161  24.692  1.00  0.00    -0.225 OA
BRANCH  23  26
ATOM     26  O   UNL A   1      30.475  26.931  23.292  1.00  0.00    -0.445 OA
BRANCH  26  27
ATOM     27  C   UNL A   1      30.899  28.298  23.392  1.00  0.00     0.270 C 
BRANCH  27  28
ATOM     28  C   UNL A   1      29.769  29.312  23.315  1.00  0.00    -0.011 A 
ATOM     29  C   UNL A   1      28.524  29.043  22.724  1.00  0.00     0.007 A 
ATOM     30  C   UNL A   1      29.948  30.564  23.924  1.00  0.00     0.007 A 
ATOM     31  C   UNL A   1      27.492  29.981  22.744  1.00  0.00     0.000 A 
ATOM     32  C   UNL A   1      28.918  31.508  23.937  1.00  0.00     0.000 A 
ATOM     33  C   UNL A   1      27.689  31.215  23.350  1.00  0.00     0.000 A 
ENDBRANCH  27  28
ENDBRANCH  26  27
ENDBRANCH  23  26
ENDBRANCH  21  22
BRANCH  21  34
ATOM     34  C   UNL A   1      32.664  27.323  26.814  1.00  0.00     0.015 C 
ATOM     35  C   UNL A   1      33.933  28.176  26.661  1.00  0.00     0.010 C 
ATOM     36  C   UNL A   1      31.505  28.275  27.141  1.00  0.00     0.010 C 
ENDBRANCH  21  34
ENDBRANCH  18  21
ENDBRANCH  16  17
ENDBRANCH  13  16
ENDBRANCH   7  12
ENDBRANCH   4   7
ENDBRANCH   1   3
BRANCH   1  37
ATOM     37  C   UNL A   1      36.656  22.954  23.919  1.00  0.00     0.242 C 
ATOM     38  O   UNL A   1      36.655  23.177  22.705  1.00  0.00    -0.273 OA
ATOM     39  N   UNL A   1      37.578  23.611  24.673  1.00  0.00    -0.354 N 
ATOM     40  H   UNL A   1      38.219  24.152  24.157  1.00  0.00     0.163 HD
BRANCH  39  41
ATOM     41  C   UNL A   1      37.774  23.650  26.106  1.00  0.00     0.116 C 
BRANCH  41  42
ATOM     42  C   UNL A   1      39.160  23.153  26.500  1.00  0.00     0.023 C 
BRANCH  42  43
ATOM     43  C   UNL A   1      39.484  21.743  26.007  1.00  0.00     0.023 C 
BRANCH  43  44
ATOM     44  C   UNL A   1      40.426  20.948  26.904  1.00  0.00     0.116 C 
BRANCH  44  45
ATOM     45  N   UNL A   1      41.502  20.299  26.169  1.00  0.00    -0.352 N 
ATOM     46  C   UNL A   1      42.716  20.824  25.796  1.00  0.00     0.251 C 
ATOM     47  H   UNL A   1      41.340  19.364  25.906  1.00  0.00     0.163 HD
ATOM     48  O   UNL A   1      43.484  20.193  25.081  1.00  0.00    -0.269 OA
BRANCH  46  49
ATOM     49  C   UNL A   1      43.059  22.186  26.243  1.00  0.00     0.039 A 
ATOM     50  C   UNL A   1      43.082  23.220  25.306  1.00  0.00     0.014 A 
ATOM     51  C   UNL A   1      43.268  22.444  27.600  1.00  0.00     0.014 A 
ATOM     52  C   UNL A   1      43.238  24.536  25.744  1.00  0.00     0.010 A 
ATOM     53  C   UNL A   1      43.345  23.759  28.040  1.00  0.00     0.010 A 
ATOM     54  C   UNL A   1      43.327  24.817  27.117  1.00  0.00    -0.014 A 
BRANCH  54  55
ATOM     55  C   UNL A   1      43.392  26.211  27.620  1.00  0.00     0.031 A 
ATOM     56  C   UNL A   1      44.725  26.830  27.930  1.00  0.00     0.074 A 
ATOM     57  C   UNL A   1      42.255  26.881  27.885  1.00  0.00     0.049 A 
ATOM     58  N   UNL A   1      44.990  27.987  28.482  1.00  0.00    -0.248 NA
ATOM     59  C   UNL A   1      45.917  26.029  27.607  1.00  0.00     0.031 C 
ATOM     60  C   UNL A   1      40.898  26.374  27.668  1.00  0.00     0.029 A 
ATOM     61  N   UNL A   1      42.061  28.131  28.417  1.00  0.00    -0.354 N 
ATOM     62  C   UNL A   1      46.373  28.041  28.591  1.00  0.00     0.074 A 
ATOM     63  C   UNL A   1      46.888  26.782  28.099  1.00  0.00     0.031 C 
ATOM     64  C   UNL A   1      40.013  27.310  28.048  1.00  0.00     0.029 A 
ATOM     65  C   UNL A   1      40.736  28.461  28.578  1.00  0.00     0.049 A 
ATOM     66  H   UNL A   1      42.800  28.735  28.660  1.00  0.00     0.167 HD
ATOM     67  C   UNL A   1      47.147  29.056  29.043  1.00  0.00     0.031 A 
ATOM     68  C   UNL A   1      40.167  29.560  29.111  1.00  0.00     0.031 A 
ATOM     69  C   UNL A   1      46.633  30.308  29.527  1.00  0.00     0.049 A 
ATOM     70  C   UNL A   1      41.046  30.665  29.625  1.00  0.00     0.074 A 
ATOM     71  C   UNL A   1      47.336  31.421  29.953  1.00  0.00     0.029 A 
ATOM     72  N   UNL A   1      45.285  30.610  29.655  1.00  0.00    -0.354 N 
ATOM     73  N   UNL A   1      42.355  30.733  29.655  1.00  0.00    -0.248 NA
ATOM     74  C   UNL A   1      40.369  31.851  30.171  1.00  0.00     0.031 C 
ATOM     75  C   UNL A   1      46.414  32.376  30.391  1.00  0.00     0.029 A 
ATOM     76  C   UNL A   1      45.136  31.882  30.180  1.00  0.00     0.049 A 
ATOM     77  H   UNL A   1      44.546  30.009  29.409  1.00  0.00     0.167 HD
ATOM     78  C   UNL A   1      42.658  31.976  30.196  1.00  0.00     0.074 A 
ATOM     79  C   UNL A   1      41.397  32.634  30.468  1.00  0.00     0.031 C 
ATOM     80  C   UNL A   1      43.873  32.523  30.443  1.00  0.00     0.031 A 
BRANCH  67  81
ATOM     81  C   UNL A   1      48.635  28.837  29.047  1.00  0.00    -0.014 A 
ATOM     82  C   UNL A   1      49.385  28.905  27.860  1.00  0.00     0.009 A 
ATOM     83  C   UNL A   1      49.299  28.577  30.255  1.00  0.00     0.009 A 
ATOM     84  C   UNL A   1      50.761  28.668  27.879  1.00  0.00     0.001 A 
ATOM     85  C   UNL A   1      50.681  28.374  30.275  1.00  0.00     0.001 A 
ATOM     86  C   UNL A   1      51.409  28.408  29.086  1.00  0.00     0.000 A 
ENDBRANCH  67  81
BRANCH  68  87
ATOM     87  C   UNL A   1      38.686  29.666  29.182  1.00  0.00    -0.014 A 
ATOM     88  C   UNL A   1      37.948  30.122  28.079  1.00  0.00     0.009 A 
ATOM     89  C   UNL A   1      38.001  29.306  30.353  1.00  0.00     0.009 A 
ATOM     90  C   UNL A   1      36.558  30.238  28.155  1.00  0.00     0.001 A 
ATOM     91  C   UNL A   1      36.608  29.394  30.417  1.00  0.00     0.001 A 
ATOM     92  C   UNL A   1      35.889  29.868  29.321  1.00  0.00     0.000 A 
ENDBRANCH  68  87
BRANCH  80  93
ATOM     93  C   UNL A   1      43.904  33.918  31.000  1.00  0.00    -0.014 A 
ATOM     94  C   UNL A   1      43.881  35.041  30.158  1.00  0.00     0.009 A 
ATOM     95  C   UNL A   1      43.891  34.109  32.391  1.00  0.00     0.009 A 
ATOM     96  C   UNL A   1      43.868  36.328  30.702  1.00  0.00     0.001 A 
ATOM     97  C   UNL A   1      43.849  35.394  32.930  1.00  0.00     0.001 A 
ATOM     98  C   UNL A   1      43.845  36.503  32.085  1.00  0.00     0.000 A 
ENDBRANCH  80  93
ENDBRANCH  54  55
ENDBRANCH  46  49
ENDBRANCH  44  45
ENDBRANCH  43  44
ENDBRANCH  42  43
ENDBRANCH  41  42
ENDBRANCH  39  41
ENDBRANCH   1  37
TORSDOF 24
ENDMDL
MODEL 2
REMARK VINA RESULT:     -10.7      0.631      5.424
REMARK SMILES CC(C)C[C@H](NC(=O)CNC(=O)[C@@H](NC(=O)OCc1ccccc1)C(C)C)C(=O)N[C@@H](C)C(=O)NCCCCNC(=O)c1ccc(-c2c3nc(c(-c4ccccc4)c4ccc([nH]4)c(-c4ccccc4)c4nc(c(-c5ccccc5)c5ccc2[nH]5)C=C4)C=C3)cc1
REMARK SMILES IDX 31 1 32 2 30 3 28 4 29 5 5 7 4 8 2 9 1 10 3 11 6 12 7 13
REMARK SMILES IDX 8 15 9 16 10 17 11 18 12 20 13 21 14 22 15 23 16 25 17 26
REMARK SMILES IDX 18 27 19 28 20 29 24 30 21 31 23 32 22 33 25 34 26 35 27 36
REMARK SMILES IDX 33 37 34 38 35 39 36 41 37 42 38 43 39 44 40 45 41 46 42 48
REMARK SMILES IDX 43 49 44 50 90 51 45 52 89 53 46 54 47 55 48 56 83 57 49 58
REMARK SMILES IDX 88 59 82 60 84 61 50 62 87 63 81 64 80 65 51 67 73 68 58 69
REMARK SMILES IDX 72 70 59 71 62 72 71 73 85 74 60 75 61 76 70 78 86 79 63 80
REMARK SMILES IDX 52 81 53 82 57 83 54 84 56 85 55 86 74 87 75 88 79 89 76 90
REMARK SMILES IDX 78 91 77 92 64 93 65 94 69 95 66 96 68 97 67 98
REMARK H PARENT 30 6 6 14 10 19 14 24 35 40 40 47 84 66 62 77
REMARK Flexibility Score: inf
ROOT
ATOM      1  C   UNL A   1      35.676  22.021  24.522  1.00  0.00     0.168 C 
ATOM      2  C   UNL A   1      36.310  20.705  24.944  1.00  0.00     0.041 C 
ENDROOT
BRANCH   1   3
ATOM      3  N   UNL A   1      34.538  21.813  23.626  1.00  0.00    -0.343 N 
ATOM      4  C   UNL A   1      33.242  21.523  23.925  1.00  0.00     0.243 C 
ATOM      5  O   UNL A   1      32.389  21.808  23.080  1.00  0.00    -0.273 OA
ATOM      6  H   UNL A   1      34.739  21.894  22.666  1.00  0.00     0.164 HD
BRANCH   4   7
ATOM      7  C   UNL A   1      32.845  20.973  25.306  1.00  0.00     0.171 C 
BRANCH   7   8
ATOM      8  C   UNL A   1      32.784  19.439  25.327  1.00  0.00     0.038 C 
BRANCH   8   9
ATOM      9  C   UNL A   1      33.422  18.717  24.111  1.00  0.00    -0.015 C 
ATOM     10  C   UNL A   1      34.383  17.579  24.460  1.00  0.00     0.007 C 
ATOM     11  C   UNL A   1      32.311  18.160  23.215  1.00  0.00     0.007 C 
ENDBRANCH   8   9
ENDBRANCH   7   8
BRANCH   7  12
ATOM     12  N   UNL A   1      31.619  21.644  25.756  1.00  0.00    -0.343 N 
ATOM     13  C   UNL A   1      31.406  22.807  26.425  1.00  0.00     0.240 C 
ATOM     14  H   UNL A   1      30.792  21.157  25.532  1.00  0.00     0.164 HD
ATOM     15  O   UNL A   1      30.252  23.249  26.396  1.00  0.00    -0.273 OA
BRANCH  13  16
ATOM     16  C   UNL A   1      32.524  23.641  27.062  1.00  0.00     0.216 C 
BRANCH  16  17
ATOM     17  N   UNL A   1      33.535  24.140  26.160  1.00  0.00    -0.345 N 
ATOM     18  C   UNL A   1      33.650  25.279  25.439  1.00  0.00     0.243 C 
ATOM     19  H   UNL A   1      34.297  23.527  26.048  1.00  0.00     0.164 HD
ATOM     20  O   UNL A   1      34.708  25.397  24.807  1.00  0.00    -0.273 OA
BRANCH  18  21
ATOM     21  C   UNL A   1      32.629  26.452  25.447  1.00  0.00     0.177 C 
BRANCH  21  22
ATOM     22  N   UNL A   1      31.265  26.038  25.106  1.00  0.00    -0.309 N 
ATOM     23  C   UNL A   1      30.207  26.670  24.534  1.00  0.00     0.408 C 
ATOM     24  H   UNL A   1      31.075  25.101  25.342  1.00  0.00     0.167 HD
ATOM     25  O   UNL A   1      29.078  26.248  24.689  1.00  0.00    -0.225 OA
BRANCH  23  26
ATOM     26  O   UNL A   1      30.560  27.701  23.736  1.00  0.00    -0.445 OA
BRANCH  26  27
ATOM     27  C   UNL A   1      29.645  27.957  22.662  1.00  0.00     0.270 C 
BRANCH  27  28
ATOM     28  C   UNL A   1      29.107  29.379  22.620  1.00  0.00    -0.011 A 
ATOM     29  C   UNL A   1      29.514  30.334  21.675  1.00  0.00     0.007 A 
ATOM     30  C   UNL A   1      28.103  29.743  23.530  1.00  0.00     0.007 A 
ATOM     31  C   UNL A   1      28.937  31.603  21.630  1.00  0.00     0.000 A 
ATOM     32  C   UNL A   1      27.531  31.017  23.492  1.00  0.00     0.000 A 
ATOM     33  C   UNL A   1      27.945  31.945  22.539  1.00  0.00     0.000 A 
ENDBRANCH  27  28
ENDBRANCH  26  27
ENDBRANCH  23  26
ENDBRANCH  21  22
BRANCH  21  34
ATOM     34  C   UNL A   1      32.814  27.389  26.659  1.00  0.00     0.015 C 
ATOM     35  C   UNL A   1      33.494  28.707  26.256  1.00  0.00     0.010 C 
ATOM     36  C   UNL A   1      31.458  27.742  27.286  1.00  0.00     0.010 C 
ENDBRANCH  21  34
ENDBRANCH  18  21
ENDBRANCH  16  17
ENDBRANCH  13  16
ENDBRANCH   7  12
ENDBRANCH   4   7
ENDBRANCH   1   3
BRANCH   1  37
ATOM     37  C   UNL A   1      36.696  23.004  23.921  1.00  0.00     0.242 C 
ATOM     38  O   UNL A   1      36.721  23.219  22.706  1.00  0.00    -0.273 OA
ATOM     39  N   UNL A   1      37.553  23.719  24.699  1.00  0.00    -0.354 N 
ATOM     40  H   UNL A   1      38.177  24.293  24.199  1.00  0.00     0.163 HD
BRANCH  39  41
ATOM     41  C   UNL A   1      37.699  23.778  26.138  1.00  0.00     0.116 C 
BRANCH  41  42
ATOM     42  C   UNL A   1      39.089  23.338  26.582  1.00  0.00     0.023 C 
BRANCH  42  43
ATOM     43  C   UNL A   1      39.430  21.889  26.234  1.00  0.00     0.023 C 
BRANCH  43  44
ATOM     44  C   UNL A   1      40.520  21.260  27.094  1.00  0.00     0.116 C 
BRANCH  44  45
ATOM     45  N   UNL A   1      41.595  20.669  26.309  1.00  0.00    -0.352 N 
ATOM     46  C   UNL A   1      42.811  21.219  25.981  1.00  0.00     0.251 C 
ATOM     47  H   UNL A   1      41.431  19.759  25.972  1.00  0.00     0.163 HD
ATOM     48  O   UNL A   1      43.578  20.646  25.217  1.00  0.00    -0.269 OA
BRANCH  46  49
ATOM     49  C   UNL A   1      43.158  22.539  26.537  1.00  0.00     0.039 A 
ATOM     50  C   UNL A   1      43.145  23.652  25.695  1.00  0.00     0.014 A 
ATOM     51  C   UNL A   1      43.406  22.678  27.905  1.00  0.00     0.014 A 
ATOM     52  C   UNL A   1      43.304  24.925  26.243  1.00  0.00     0.010 A 
ATOM     53  C   UNL A   1      43.488  23.949  28.457  1.00  0.00     0.010 A 
ATOM     54  C   UNL A   1      43.433  25.085  27.632  1.00  0.00    -0.014 A 
BRANCH  54  55
ATOM     55  C   UNL A   1      43.504  26.429  28.255  1.00  0.00     0.031 A 
ATOM     56  C   UNL A   1      42.244  27.217  28.477  1.00  0.00     0.074 A 
ATOM     57  C   UNL A   1      44.703  26.975  28.534  1.00  0.00     0.049 A 
ATOM     58  N   UNL A   1      42.104  28.447  28.900  1.00  0.00    -0.248 NA
ATOM     59  C   UNL A   1      40.978  26.543  28.149  1.00  0.00     0.031 C 
ATOM     60  C   UNL A   1      46.001  26.329  28.325  1.00  0.00     0.029 A 
ATOM     61  N   UNL A   1      45.024  28.212  29.035  1.00  0.00    -0.354 N 
ATOM     62  C   UNL A   1      40.738  28.699  28.868  1.00  0.00     0.074 A 
ATOM     63  C   UNL A   1      40.100  27.516  28.333  1.00  0.00     0.031 C 
ATOM     64  C   UNL A   1      46.976  27.169  28.710  1.00  0.00     0.029 A 
ATOM     65  C   UNL A   1      46.378  28.425  29.146  1.00  0.00     0.049 A 
ATOM     66  H   UNL A   1      44.350  28.882  29.291  1.00  0.00     0.167 HD
ATOM     67  C   UNL A   1      40.073  29.809  29.264  1.00  0.00     0.031 A 
ATOM     68  C   UNL A   1      47.061  29.518  29.539  1.00  0.00     0.031 A 
ATOM     69  C   UNL A   1      40.710  30.982  29.799  1.00  0.00     0.049 A 
ATOM     70  C   UNL A   1      46.302  30.747  29.956  1.00  0.00     0.074 A 
ATOM     71  C   UNL A   1      40.121  32.137  30.283  1.00  0.00     0.029 A 
ATOM     72  N   UNL A   1      42.082  31.151  29.915  1.00  0.00    -0.354 N 
ATOM     73  N   UNL A   1      45.007  30.946  29.987  1.00  0.00    -0.248 NA
ATOM     74  C   UNL A   1      47.100  31.900  30.399  1.00  0.00     0.031 C 
ATOM     75  C   UNL A   1      41.138  33.027  30.640  1.00  0.00     0.029 A 
ATOM     76  C   UNL A   1      42.360  32.403  30.436  1.00  0.00     0.049 A 
ATOM     77  H   UNL A   1      42.757  30.481  29.663  1.00  0.00     0.167 HD
ATOM     78  C   UNL A   1      44.833  32.234  30.480  1.00  0.00     0.074 A 
ATOM     79  C   UNL A   1      46.155  32.764  30.744  1.00  0.00     0.031 C 
ATOM     80  C   UNL A   1      43.681  32.915  30.695  1.00  0.00     0.031 A 
BRANCH  67  81
ATOM     81  C   UNL A   1      38.577  29.806  29.114  1.00  0.00    -0.014 A 
ATOM     82  C   UNL A   1      37.966  30.144  27.895  1.00  0.00     0.009 A 
ATOM     83  C   UNL A   1      37.768  29.445  30.201  1.00  0.00     0.009 A 
ATOM     84  C   UNL A   1      36.574  30.166  27.783  1.00  0.00     0.001 A 
ATOM     85  C   UNL A   1      36.376  29.434  30.077  1.00  0.00     0.001 A 
ATOM     86  C   UNL A   1      35.781  29.807  28.872  1.00  0.00     0.000 A 
ENDBRANCH  67  81
BRANCH  68  87
ATOM     87  C   UNL A   1      48.547  29.496  29.557  1.00  0.00    -0.014 A 
ATOM     88  C   UNL A   1      49.282  29.978  28.462  1.00  0.00     0.009 A 
ATOM     89  C   UNL A   1      49.240  29.001  30.672  1.00  0.00     0.009 A 
ATOM     90  C   UNL A   1      50.678  29.940  28.474  1.00  0.00     0.001 A 
ATOM     91  C   UNL A   1      50.637  28.992  30.694  1.00  0.00     0.001 A 
ATOM     92  C   UNL A   1      51.354  29.453  29.592  1.00  0.00     0.000 A 
ENDBRANCH  68  87
BRANCH  80  93
ATOM     93  C   UNL A   1      43.791  34.293  31.281  1.00  0.00    -0.014 A 
ATOM     94  C   UNL A   1      43.866  34.493  32.669  1.00  0.00     0.009 A 
ATOM     95  C   UNL A   1      43.885  35.404  30.427  1.00  0.00     0.009 A 
ATOM     96  C   UNL A   1      44.010  35.783  33.188  1.00  0.00     0.001 A 
ATOM     97  C   UNL A   1      44.057  36.686  30.947  1.00  0.00     0.001 A 
ATOM     98  C   UNL A   1      44.112  36.875  32.327  1.00  0.00     0.000 A 
ENDBRANCH  80  93
ENDBRANCH  54  55
ENDBRANCH  46  49
ENDBRANCH  44  45
ENDBRANCH  43  44
ENDBRANCH  42  43
ENDBRANCH  41  42
ENDBRANCH  39  41
ENDBRANCH   1  37
TORSDOF 24
ENDMDL
MODEL 3
REMARK VINA RESULT:     -10.1      1.436      2.100
REMARK SMILES CC(C)C[C@H](NC(=O)CNC(=O)[C@@H](NC(=O)OCc1ccccc1)C(C)C)C(=O)N[C@@H](C)C(=O)NCCCCNC(=O)c1ccc(-c2c3nc(c(-c4ccccc4)c4ccc([nH]4)c(-c4ccccc4)c4nc(c(-c5ccccc5)c5ccc2[nH]5)C=C4)C=C3)cc1
REMARK SMILES IDX 31 1 32 2 30 3 28 4 29 5 5 7 4 8 2 9 1 10 3 11 6 12 7 13
REMARK SMILES IDX 8 15 9 16 10 17 11 18 12 20 13 21 14 22 15 23 16 25 17 26
REMARK SMILES IDX 18 27 19 28 20 29 24 30 21 31 23 32 22 33 25 34 26 35 27 36
REMARK SMILES IDX 33 37 34 38 35 39 36 41 37 42 38 43 39 44 40 45 41 46 42 48
REMARK SMILES IDX 43 49 44 50 90 51 45 52 89 53 46 54 47 55 48 56 83 57 49 58
REMARK SMILES IDX 88 59 82 60 84 61 50 62 87 63 81 64 80 65 51 67 73 68 58 69
REMARK SMILES IDX 72 70 59 71 62 72 71 73 85 74 60 75 61 76 70 78 86 79 63 80
REMARK SMILES IDX 52 81 53 82 57 83 54 84 56 85 55 86 74 87 75 88 79 89 76 90
REMARK SMILES IDX 78 91 77 92 64 93 65 94 69 95 66 96 68 97 67 98
REMARK H PARENT 30 6 6 14 10 19 14 24 35 40 40 47 84 66 62 77
REMARK Flexibility Score: inf
ROOT
ATOM      1  C   UNL A   1      35.862  21.806  24.618  1.00  0.00     0.168 C 
ATOM      2  C   UNL A   1      36.619  20.534  24.970  1.00  0.00     0.041 C 
ENDROOT
BRANCH   1   3
ATOM      3  N   UNL A   1      34.681  21.526  23.802  1.00  0.00    -0.343 N 
ATOM      4  C   UNL A   1      33.384  21.359  24.183  1.00  0.00     0.243 C 
ATOM      5  O   UNL A   1      32.514  21.558  23.331  1.00  0.00    -0.273 OA
ATOM      6  H   UNL A   1      34.847  21.447  22.835  1.00  0.00     0.164 HD
BRANCH   4   7
ATOM      7  C   UNL A   1      33.015  21.052  25.645  1.00  0.00     0.171 C 
BRANCH   7   8
ATOM      8  C   UNL A   1      33.274  19.585  26.016  1.00  0.00     0.038 C 
BRANCH   8   9
ATOM      9  C   UNL A   1      33.104  18.554  24.869  1.00  0.00    -0.015 C 
ATOM     10  C   UNL A   1      34.405  17.952  24.337  1.00  0.00     0.007 C 
ATOM     11  C   UNL A   1      32.199  17.414  25.347  1.00  0.00     0.007 C 
ENDBRANCH   8   9
ENDBRANCH   7   8
BRANCH   7  12
ATOM     12  N   UNL A   1      31.647  21.520  25.903  1.00  0.00    -0.343 N 
ATOM     13  C   UNL A   1      31.157  22.696  26.373  1.00  0.00     0.240 C 
ATOM     14  H   UNL A   1      30.952  20.853  25.697  1.00  0.00     0.164 HD
ATOM     15  O   UNL A   1      29.949  22.891  26.199  1.00  0.00    -0.273 OA
BRANCH  13  16
ATOM     16  C   UNL A   1      32.032  23.813  26.954  1.00  0.00     0.216 C 
BRANCH  16  17
ATOM     17  N   UNL A   1      33.223  24.139  26.206  1.00  0.00    -0.345 N 
ATOM     18  C   UNL A   1      33.447  24.893  25.105  1.00  0.00     0.243 C 
ATOM     19  H   UNL A   1      34.040  23.730  26.572  1.00  0.00     0.164 HD
ATOM     20  O   UNL A   1      34.635  24.997  24.772  1.00  0.00    -0.273 OA
BRANCH  18  21
ATOM     21  C   UNL A   1      32.362  25.697  24.335  1.00  0.00     0.177 C 
BRANCH  21  22
ATOM     22  N   UNL A   1      32.760  27.077  24.043  1.00  0.00    -0.309 N 
ATOM     23  C   UNL A   1      32.079  28.192  23.668  1.00  0.00     0.408 C 
ATOM     24  H   UNL A   1      33.728  27.229  24.139  1.00  0.00     0.167 HD
ATOM     25  O   UNL A   1      32.656  29.116  23.128  1.00  0.00    -0.225 OA
BRANCH  23  26
ATOM     26  O   UNL A   1      30.782  28.185  24.043  1.00  0.00    -0.445 OA
BRANCH  26  27
ATOM     27  C   UNL A   1      29.851  28.295  22.957  1.00  0.00     0.270 C 
BRANCH  27  28
ATOM     28  C   UNL A   1      29.319  29.701  22.726  1.00  0.00    -0.011 A 
ATOM     29  C   UNL A   1      28.702  30.110  21.533  1.00  0.00     0.007 A 
ATOM     30  C   UNL A   1      29.385  30.625  23.780  1.00  0.00     0.007 A 
ATOM     31  C   UNL A   1      28.163  31.388  21.395  1.00  0.00     0.000 A 
ATOM     32  C   UNL A   1      28.853  31.909  23.640  1.00  0.00     0.000 A 
ATOM     33  C   UNL A   1      28.238  32.289  22.449  1.00  0.00     0.000 A 
ENDBRANCH  27  28
ENDBRANCH  26  27
ENDBRANCH  23  26
ENDBRANCH  21  22
BRANCH  21  34
ATOM     34  C   UNL A   1      31.715  24.881  23.197  1.00  0.00     0.015 C 
ATOM     35  C   UNL A   1      30.189  24.790  23.363  1.00  0.00     0.010 C 
ATOM     36  C   UNL A   1      31.993  25.529  21.834  1.00  0.00     0.010 C 
ENDBRANCH  21  34
ENDBRANCH  18  21
ENDBRANCH  16  17
ENDBRANCH  13  16
ENDBRANCH   7  12
ENDBRANCH   4   7
ENDBRANCH   1   3
BRANCH   1  37
ATOM     37  C   UNL A   1      36.762  22.868  23.964  1.00  0.00     0.242 C 
ATOM     38  O   UNL A   1      36.767  23.021  22.740  1.00  0.00    -0.273 OA
ATOM     39  N   UNL A   1      37.526  23.719  24.702  1.00  0.00    -0.354 N 
ATOM     40  H   UNL A   1      38.081  24.335  24.172  1.00  0.00     0.163 HD
BRANCH  39  41
ATOM     41  C   UNL A   1      37.658  23.870  26.135  1.00  0.00     0.116 C 
BRANCH  41  42
ATOM     42  C   UNL A   1      39.076  23.566  26.606  1.00  0.00     0.023 C 
BRANCH  42  43
ATOM     43  C   UNL A   1      39.538  22.137  26.324  1.00  0.00     0.023 C 
BRANCH  43  44
ATOM     44  C   UNL A   1      40.913  21.784  26.880  1.00  0.00     0.116 C 
BRANCH  44  45
ATOM     45  N   UNL A   1      41.952  21.759  25.860  1.00  0.00    -0.352 N 
ATOM     46  C   UNL A   1      42.733  22.799  25.415  1.00  0.00     0.251 C 
ATOM     47  H   UNL A   1      42.116  20.887  25.435  1.00  0.00     0.163 HD
ATOM     48  O   UNL A   1      43.495  22.655  24.468  1.00  0.00    -0.269 OA
BRANCH  46  49
ATOM     49  C   UNL A   1      42.603  24.109  26.079  1.00  0.00     0.039 A 
ATOM     50  C   UNL A   1      42.960  24.225  27.423  1.00  0.00     0.014 A 
ATOM     51  C   UNL A   1      42.213  25.229  25.341  1.00  0.00     0.014 A 
ATOM     52  C   UNL A   1      43.002  25.489  28.012  1.00  0.00     0.010 A 
ATOM     53  C   UNL A   1      42.330  26.492  25.907  1.00  0.00     0.010 A 
ATOM     54  C   UNL A   1      42.730  26.634  27.246  1.00  0.00    -0.014 A 
BRANCH  54  55
ATOM     55  C   UNL A   1      42.863  27.997  27.815  1.00  0.00     0.031 A 
ATOM     56  C   UNL A   1      44.219  28.636  27.914  1.00  0.00     0.074 A 
ATOM     57  C   UNL A   1      41.783  28.618  28.325  1.00  0.00     0.049 A 
ATOM     58  N   UNL A   1      44.561  29.765  28.479  1.00  0.00    -0.248 NA
ATOM     59  C   UNL A   1      45.345  27.889  27.329  1.00  0.00     0.031 C 
ATOM     60  C   UNL A   1      40.418  28.086  28.329  1.00  0.00     0.029 A 
ATOM     61  N   UNL A   1      41.668  29.829  28.961  1.00  0.00    -0.354 N 
ATOM     62  C   UNL A   1      45.939  29.853  28.336  1.00  0.00     0.074 A 
ATOM     63  C   UNL A   1      46.377  28.640  27.681  1.00  0.00     0.031 C 
ATOM     64  C   UNL A   1      39.602  28.972  28.922  1.00  0.00     0.029 A 
ATOM     65  C   UNL A   1      40.390  30.110  29.382  1.00  0.00     0.049 A 
ATOM     66  H   UNL A   1      42.428  30.439  29.101  1.00  0.00     0.167 HD
ATOM     67  C   UNL A   1      46.766  30.861  28.701  1.00  0.00     0.031 A 
ATOM     68  C   UNL A   1      39.910  31.160  30.076  1.00  0.00     0.031 A 
ATOM     69  C   UNL A   1      46.327  32.068  29.348  1.00  0.00     0.049 A 
ATOM     70  C   UNL A   1      40.849  32.259  30.489  1.00  0.00     0.074 A 
ATOM     71  C   UNL A   1      47.078  33.174  29.707  1.00  0.00     0.029 A 
ATOM     72  N   UNL A   1      45.021  32.323  29.739  1.00  0.00    -0.354 N 
ATOM     73  N   UNL A   1      42.140  32.362  30.284  1.00  0.00    -0.248 NA
ATOM     74  C   UNL A   1      40.264  33.390  31.223  1.00  0.00     0.031 C 
ATOM     75  C   UNL A   1      46.236  34.076  30.365  1.00  0.00     0.029 A 
ATOM     76  C   UNL A   1      44.949  33.558  30.361  1.00  0.00     0.049 A 
ATOM     77  H   UNL A   1      44.260  31.717  29.596  1.00  0.00     0.167 HD
ATOM     78  C   UNL A   1      42.516  33.580  30.836  1.00  0.00     0.074 A 
ATOM     79  C   UNL A   1      41.315  34.184  31.374  1.00  0.00     0.031 C 
ATOM     80  C   UNL A   1      43.745  34.147  30.890  1.00  0.00     0.031 A 
BRANCH  67  81
ATOM     81  C   UNL A   1      48.232  30.686  28.419  1.00  0.00    -0.014 A 
ATOM     82  C   UNL A   1      48.818  31.206  27.252  1.00  0.00     0.009 A 
ATOM     83  C   UNL A   1      49.043  30.005  29.339  1.00  0.00     0.009 A 
ATOM     84  C   UNL A   1      50.175  31.007  26.992  1.00  0.00     0.001 A 
ATOM     85  C   UNL A   1      50.408  29.836  29.093  1.00  0.00     0.001 A 
ATOM     86  C   UNL A   1      50.970  30.326  27.914  1.00  0.00     0.000 A 
ENDBRANCH  67  81
BRANCH  68  87
ATOM     87  C   UNL A   1      38.466  31.220  30.424  1.00  0.00    -0.014 A 
ATOM     88  C   UNL A   1      37.547  31.830  29.558  1.00  0.00     0.009 A 
ATOM     89  C   UNL A   1      37.997  30.659  31.623  1.00  0.00     0.009 A 
ATOM     90  C   UNL A   1      36.193  31.900  29.895  1.00  0.00     0.001 A 
ATOM     91  C   UNL A   1      36.639  30.705  31.945  1.00  0.00     0.001 A 
ATOM     92  C   UNL A   1      35.739  31.332  31.085  1.00  0.00     0.000 A 
ENDBRANCH  68  87
BRANCH  80  93
ATOM     93  C   UNL A   1      43.854  35.507  31.517  1.00  0.00    -0.014 A 
ATOM     94  C   UNL A   1      44.018  35.661  32.903  1.00  0.00     0.009 A 
ATOM     95  C   UNL A   1      43.858  36.649  30.700  1.00  0.00     0.009 A 
ATOM     96  C   UNL A   1      44.159  36.935  33.458  1.00  0.00     0.001 A 
ATOM     97  C   UNL A   1      44.028  37.917  31.254  1.00  0.00     0.001 A 
ATOM     98  C   UNL A   1      44.171  38.060  32.634  1.00  0.00     0.000 A 
ENDBRANCH  80  93
ENDBRANCH  54  55
ENDBRANCH  46  49
ENDBRANCH  44  45
ENDBRANCH  43  44
ENDBRANCH  42  43
ENDBRANCH  41  42
ENDBRANCH  39  41
ENDBRANCH   1  37
TORSDOF 24
ENDMDL
