MODEL 1
REMARK VINA RESULT:      -9.5      0.000      0.000
REMARK SMILES CC(C)c1ccc(CCCC(=O)NCCCCNC(=O)c2ccc(-c3c4nc(c(-c5ccccc5)c5ccc([nH]5)c(-c5ccccc5)c5nc(c(-c6ccccc6)c6ccc3[nH]6)C=C5)C=C4)cc2)cc1
REMARK SMILES IDX 14 1 13 2 11 3 12 4 10 6 9 7 8 8 7 9 4 10 5 11 70 12 6 13
REMARK SMILES IDX 69 14 2 15 1 16 3 17 15 18 16 19 17 20 18 21 19 22 20 24
REMARK SMILES IDX 21 25 22 26 68 27 23 28 67 29 24 30 25 31 26 32 61 33 27 34
REMARK SMILES IDX 66 35 60 36 62 37 28 38 65 39 59 40 58 41 29 43 51 44 36 45
REMARK SMILES IDX 50 46 37 47 40 48 49 49 63 50 38 51 39 52 48 54 64 55 41 56
REMARK SMILES IDX 30 57 31 58 35 59 32 60 34 61 33 62 52 63 53 64 57 65 54 66
REMARK SMILES IDX 56 67 55 68 42 69 43 70 47 71 44 72 46 73 45 74
REMARK H PARENT 13 5 18 23 62 42 40 53
REMARK Flexibility Score: inf
ROOT
ATOM      1  C   UNL A   1      43.262  18.931  25.977  1.00  0.00     0.116 C 
ENDROOT
BRANCH   1   2
ATOM      2  N   UNL A   1      44.581  18.341  26.076  1.00  0.00    -0.356 N 
ATOM      3  C   UNL A   1      45.646  18.487  25.240  1.00  0.00     0.220 C 
ATOM      4  O   UNL A   1      46.627  17.761  25.405  1.00  0.00    -0.275 OA
ATOM      5  H   UNL A   1      44.727  17.754  26.853  1.00  0.00     0.163 HD
BRANCH   3   6
ATOM      6  C   UNL A   1      45.640  19.579  24.189  1.00  0.00     0.100 C 
BRANCH   6   7
ATOM      7  C   UNL A   1      46.544  20.791  24.438  1.00  0.00     0.015 C 
BRANCH   7   8
ATOM      8  C   UNL A   1      45.934  22.198  24.549  1.00  0.00     0.036 C 
BRANCH   8   9
ATOM      9  C   UNL A   1      45.631  22.836  25.889  1.00  0.00    -0.048 A 
ATOM     10  C   UNL A   1      44.992  23.831  28.500  1.00  0.00    -0.045 A 
ATOM     11  C   UNL A   1      46.177  24.186  27.846  1.00  0.00     0.004 A 
ATOM     12  C   UNL A   1      44.125  22.964  27.817  1.00  0.00     0.004 A 
ATOM     13  C   UNL A   1      46.473  23.725  26.554  1.00  0.00     0.004 A 
ATOM     14  C   UNL A   1      44.439  22.475  26.540  1.00  0.00     0.004 A 
BRANCH  10  15
ATOM     15  C   UNL A   1      44.650  24.323  29.905  1.00  0.00     0.013 C 
ATOM     16  C   UNL A   1      43.882  25.653  29.952  1.00  0.00     0.012 C 
ATOM     17  C   UNL A   1      43.853  23.283  30.707  1.00  0.00     0.012 C 
ENDBRANCH  10  15
ENDBRANCH   8   9
ENDBRANCH   7   8
ENDBRANCH   6   7
ENDBRANCH   3   6
ENDBRANCH   1   2
BRANCH   1  18
ATOM     18  C   UNL A   1      42.503  18.740  27.290  1.00  0.00     0.023 C 
BRANCH  18  19
ATOM     19  C   UNL A   1      41.562  19.893  27.622  1.00  0.00     0.023 C 
BRANCH  19  20
ATOM     20  C   UNL A   1      41.265  20.805  26.440  1.00  0.00     0.116 C 
BRANCH  20  21
ATOM     21  N   UNL A   1      39.881  20.735  25.988  1.00  0.00    -0.352 N 
ATOM     22  C   UNL A   1      38.903  21.700  26.090  1.00  0.00     0.251 C 
ATOM     23  H   UNL A   1      39.611  19.893  25.556  1.00  0.00     0.163 HD
ATOM     24  O   UNL A   1      37.750  21.479  25.748  1.00  0.00    -0.269 OA
BRANCH  22  25
ATOM     25  C   UNL A   1      39.274  23.002  26.681  1.00  0.00     0.039 A 
ATOM     26  C   UNL A   1      40.290  23.042  27.636  1.00  0.00     0.014 A 
ATOM     27  C   UNL A   1      38.713  24.178  26.179  1.00  0.00     0.014 A 
ATOM     28  C   UNL A   1      40.826  24.275  28.009  1.00  0.00     0.010 A 
ATOM     29  C   UNL A   1      39.300  25.397  26.493  1.00  0.00     0.010 A 
ATOM     30  C   UNL A   1      40.379  25.455  27.392  1.00  0.00    -0.014 A 
BRANCH  30  31
ATOM     31  C   UNL A   1      41.056  26.755  27.618  1.00  0.00     0.031 A 
ATOM     32  C   UNL A   1      42.417  27.008  27.037  1.00  0.00     0.074 A 
ATOM     33  C   UNL A   1      40.492  27.665  28.439  1.00  0.00     0.049 A 
ATOM     34  N   UNL A   1      43.217  28.025  27.224  1.00  0.00    -0.248 NA
ATOM     35  C   UNL A   1      42.963  25.963  26.154  1.00  0.00     0.031 C 
ATOM     36  C   UNL A   1      39.198  27.521  29.110  1.00  0.00     0.029 A 
ATOM     37  N   UNL A   1      40.949  28.889  28.862  1.00  0.00    -0.354 N 
ATOM     38  C   UNL A   1      44.369  27.733  26.507  1.00  0.00     0.074 A 
ATOM     39  C   UNL A   1      44.180  26.427  25.913  1.00  0.00     0.031 C 
ATOM     40  C   UNL A   1      38.956  28.620  29.842  1.00  0.00     0.029 A 
ATOM     41  C   UNL A   1      40.094  29.526  29.728  1.00  0.00     0.049 A 
ATOM     42  H   UNL A   1      41.808  29.273  28.572  1.00  0.00     0.167 HD
ATOM     43  C   UNL A   1      45.478  28.491  26.343  1.00  0.00     0.031 A 
ATOM     44  C   UNL A   1      40.218  30.702  30.372  1.00  0.00     0.031 A 
ATOM     45  C   UNL A   1      45.658  29.798  26.910  1.00  0.00     0.049 A 
ATOM     46  C   UNL A   1      41.462  31.521  30.178  1.00  0.00     0.074 A 
ATOM     47  C   UNL A   1      46.711  30.679  26.731  1.00  0.00     0.029 A 
ATOM     48  N   UNL A   1      44.763  30.414  27.770  1.00  0.00    -0.354 N 
ATOM     49  N   UNL A   1      42.511  31.264  29.435  1.00  0.00    -0.248 NA
ATOM     50  C   UNL A   1      41.540  32.792  30.913  1.00  0.00     0.031 C 
ATOM     51  C   UNL A   1      46.474  31.809  27.519  1.00  0.00     0.029 A 
ATOM     52  C   UNL A   1      45.253  31.650  28.154  1.00  0.00     0.049 A 
ATOM     53  H   UNL A   1      43.905  30.030  28.064  1.00  0.00     0.167 HD
ATOM     54  C   UNL A   1      43.364  32.346  29.600  1.00  0.00     0.074 A 
ATOM     55  C   UNL A   1      42.705  33.270  30.499  1.00  0.00     0.031 C 
ATOM     56  C   UNL A   1      44.587  32.553  29.055  1.00  0.00     0.031 A 
BRANCH  43  57
ATOM     57  C   UNL A   1      46.589  27.916  25.512  1.00  0.00    -0.014 A 
ATOM     58  C   UNL A   1      46.609  28.074  24.118  1.00  0.00     0.009 A 
ATOM     59  C   UNL A   1      47.644  27.232  26.136  1.00  0.00     0.009 A 
ATOM     60  C   UNL A   1      47.648  27.529  23.360  1.00  0.00     0.001 A 
ATOM     61  C   UNL A   1      48.693  26.710  25.378  1.00  0.00     0.001 A 
ATOM     62  C   UNL A   1      48.690  26.852  23.991  1.00  0.00     0.000 A 
ENDBRANCH  43  57
BRANCH  44  63
ATOM     63  C   UNL A   1      39.132  31.180  31.267  1.00  0.00    -0.014 A 
ATOM     64  C   UNL A   1      38.100  31.984  30.760  1.00  0.00     0.009 A 
ATOM     65  C   UNL A   1      39.124  30.841  32.628  1.00  0.00     0.009 A 
ATOM     66  C   UNL A   1      37.094  32.458  31.605  1.00  0.00     0.001 A 
ATOM     67  C   UNL A   1      38.104  31.297  33.466  1.00  0.00     0.001 A 
ATOM     68  C   UNL A   1      37.095  32.111  32.955  1.00  0.00     0.000 A 
ENDBRANCH  44  63
BRANCH  56  69
ATOM     69  C   UNL A   1      45.286  33.835  29.407  1.00  0.00    -0.014 A 
ATOM     70  C   UNL A   1      46.140  33.909  30.517  1.00  0.00     0.009 A 
ATOM     71  C   UNL A   1      45.128  34.962  28.587  1.00  0.00     0.009 A 
ATOM     72  C   UNL A   1      46.806  35.098  30.813  1.00  0.00     0.001 A 
ATOM     73  C   UNL A   1      45.814  36.144  28.873  1.00  0.00     0.001 A 
ATOM     74  C   UNL A   1      46.648  36.212  29.988  1.00  0.00     0.000 A 
ENDBRANCH  56  69
ENDBRANCH  30  31
ENDBRANCH  22  25
ENDBRANCH  20  21
ENDBRANCH  19  20
ENDBRANCH  18  19
ENDBRANCH   1  18
TORSDOF 15
ENDMDL
MODEL 2
REMARK VINA RESULT:      -9.3      3.879      7.209
REMARK SMILES CC(C)c1ccc(CCCC(=O)NCCCCNC(=O)c2ccc(-c3c4nc(c(-c5ccccc5)c5ccc([nH]5)c(-c5ccccc5)c5nc(c(-c6ccccc6)c6ccc3[nH]6)C=C5)C=C4)cc2)cc1
REMARK SMILES IDX 14 1 13 2 11 3 12 4 10 6 9 7 8 8 7 9 4 10 5 11 70 12 6 13
REMARK SMILES IDX 69 14 2 15 1 16 3 17 15 18 16 19 17 20 18 21 19 22 20 24
REMARK SMILES IDX 21 25 22 26 68 27 23 28 67 29 24 30 25 31 26 32 61 33 27 34
REMARK SMILES IDX 66 35 60 36 62 37 28 38 65 39 59 40 58 41 29 43 51 44 36 45
REMARK SMILES IDX 50 46 37 47 40 48 49 49 63 50 38 51 39 52 48 54 64 55 41 56
REMARK SMILES IDX 30 57 31 58 35 59 32 60 34 61 33 62 52 63 53 64 57 65 54 66
REMARK SMILES IDX 56 67 55 68 42 69 43 70 47 71 44 72 46 73 45 74
REMARK H PARENT 13 5 18 23 62 42 40 53
REMARK Flexibility Score: inf
ROOT
ATOM      1  C   UNL A   1      36.617  23.395  25.487  1.00  0.00     0.116 C 
ENDROOT
BRANCH   1   2
ATOM      2  N   UNL A   1      35.627  22.792  26.355  1.00  0.00    -0.356 N 
ATOM      3  C   UNL A   1      34.274  22.943  26.341  1.00  0.00     0.220 C 
ATOM      4  O   UNL A   1      33.620  22.479  27.276  1.00  0.00    -0.275 OA
ATOM      5  H   UNL A   1      35.981  22.191  27.050  1.00  0.00     0.163 HD
BRANCH   3   6
ATOM      6  C   UNL A   1      33.597  23.597  25.154  1.00  0.00     0.100 C 
BRANCH   6   7
ATOM      7  C   UNL A   1      33.340  22.718  23.925  1.00  0.00     0.015 C 
BRANCH   7   8
ATOM      8  C   UNL A   1      32.184  21.704  23.930  1.00  0.00     0.036 C 
BRANCH   8   9
ATOM      9  C   UNL A   1      32.413  20.230  24.198  1.00  0.00    -0.048 A 
ATOM     10  C   UNL A   1      33.006  17.447  24.535  1.00  0.00    -0.045 A 
ATOM     11  C   UNL A   1      32.885  18.312  25.628  1.00  0.00     0.004 A 
ATOM     12  C   UNL A   1      32.821  18.004  23.261  1.00  0.00     0.004 A 
ATOM     13  C   UNL A   1      32.562  19.667  25.464  1.00  0.00     0.004 A 
ATOM     14  C   UNL A   1      32.533  19.367  23.096  1.00  0.00     0.004 A 
BRANCH  10  15
ATOM     15  C   UNL A   1      33.356  15.968  24.692  1.00  0.00     0.013 C 
ATOM     16  C   UNL A   1      34.802  15.692  25.133  1.00  0.00     0.012 C 
ATOM     17  C   UNL A   1      32.414  15.248  25.669  1.00  0.00     0.012 C 
ENDBRANCH  10  15
ENDBRANCH   8   9
ENDBRANCH   7   8
ENDBRANCH   6   7
ENDBRANCH   3   6
ENDBRANCH   1   2
BRANCH   1  18
ATOM     18  C   UNL A   1      37.052  22.397  24.415  1.00  0.00     0.023 C 
BRANCH  18  19
ATOM     19  C   UNL A   1      37.541  21.069  24.982  1.00  0.00     0.023 C 
BRANCH  19  20
ATOM     20  C   UNL A   1      38.839  21.177  25.771  1.00  0.00     0.116 C 
BRANCH  20  21
ATOM     21  N   UNL A   1      39.659  19.974  25.704  1.00  0.00    -0.352 N 
ATOM     22  C   UNL A   1      40.989  19.831  26.036  1.00  0.00     0.251 C 
ATOM     23  H   UNL A   1      39.206  19.161  25.383  1.00  0.00     0.163 HD
ATOM     24  O   UNL A   1      41.583  18.780  25.849  1.00  0.00    -0.269 OA
BRANCH  22  25
ATOM     25  C   UNL A   1      41.697  21.008  26.577  1.00  0.00     0.039 A 
ATOM     26  C   UNL A   1      42.295  21.902  25.686  1.00  0.00     0.014 A 
ATOM     27  C   UNL A   1      41.637  21.289  27.943  1.00  0.00     0.014 A 
ATOM     28  C   UNL A   1      42.738  23.139  26.157  1.00  0.00     0.010 A 
ATOM     29  C   UNL A   1      42.007  22.550  28.394  1.00  0.00     0.010 A 
ATOM     30  C   UNL A   1      42.537  23.495  27.500  1.00  0.00    -0.014 A 
BRANCH  30  31
ATOM     31  C   UNL A   1      42.815  24.868  27.988  1.00  0.00     0.031 A 
ATOM     32  C   UNL A   1      44.197  25.243  28.439  1.00  0.00     0.074 A 
ATOM     33  C   UNL A   1      41.798  25.744  28.129  1.00  0.00     0.049 A 
ATOM     34  N   UNL A   1      44.608  26.346  29.009  1.00  0.00    -0.248 NA
ATOM     35  C   UNL A   1      45.250  24.230  28.254  1.00  0.00     0.031 C 
ATOM     36  C   UNL A   1      40.399  25.487  27.779  1.00  0.00     0.029 A 
ATOM     37  N   UNL A   1      41.786  27.024  28.624  1.00  0.00    -0.354 N 
ATOM     38  C   UNL A   1      45.956  26.152  29.274  1.00  0.00     0.074 A 
ATOM     39  C   UNL A   1      46.286  24.812  28.840  1.00  0.00     0.031 C 
ATOM     40  C   UNL A   1      39.669  26.582  28.049  1.00  0.00     0.029 A 
ATOM     41  C   UNL A   1      40.538  27.599  28.632  1.00  0.00     0.049 A 
ATOM     42  H   UNL A   1      42.594  27.487  28.943  1.00  0.00     0.167 HD
ATOM     43  C   UNL A   1      46.845  27.017  29.815  1.00  0.00     0.031 A 
ATOM     44  C   UNL A   1      40.133  28.805  29.073  1.00  0.00     0.031 A 
ATOM     45  C   UNL A   1      46.526  28.357  30.224  1.00  0.00     0.049 A 
ATOM     46  C   UNL A   1      41.138  29.744  29.676  1.00  0.00     0.074 A 
ATOM     47  C   UNL A   1      47.377  29.338  30.705  1.00  0.00     0.029 A 
ATOM     48  N   UNL A   1      45.254  28.906  30.202  1.00  0.00    -0.354 N 
ATOM     49  N   UNL A   1      42.426  29.573  29.850  1.00  0.00    -0.248 NA
ATOM     50  C   UNL A   1      40.633  31.044  30.144  1.00  0.00     0.031 C 
ATOM     51  C   UNL A   1      46.611  30.465  31.016  1.00  0.00     0.029 A 
ATOM     52  C   UNL A   1      45.291  30.201  30.689  1.00  0.00     0.049 A 
ATOM     53  H   UNL A   1      44.443  28.444  29.887  1.00  0.00     0.167 HD
ATOM     54  C   UNL A   1      42.888  30.746  30.432  1.00  0.00     0.074 A 
ATOM     55  C   UNL A   1      41.746  31.627  30.566  1.00  0.00     0.031 C 
ATOM     56  C   UNL A   1      44.145  31.061  30.822  1.00  0.00     0.031 A 
BRANCH  43  57
ATOM     57  C   UNL A   1      48.255  26.533  29.998  1.00  0.00    -0.014 A 
ATOM     58  C   UNL A   1      49.231  26.754  29.014  1.00  0.00     0.009 A 
ATOM     59  C   UNL A   1      48.617  25.874  31.182  1.00  0.00     0.009 A 
ATOM     60  C   UNL A   1      50.536  26.293  29.198  1.00  0.00     0.001 A 
ATOM     61  C   UNL A   1      49.928  25.436  31.374  1.00  0.00     0.001 A 
ATOM     62  C   UNL A   1      50.884  25.639  30.379  1.00  0.00     0.000 A 
ENDBRANCH  43  57
BRANCH  44  63
ATOM     63  C   UNL A   1      38.704  29.197  28.964  1.00  0.00    -0.014 A 
ATOM     64  C   UNL A   1      37.846  29.061  30.067  1.00  0.00     0.009 A 
ATOM     65  C   UNL A   1      38.189  29.703  27.761  1.00  0.00     0.009 A 
ATOM     66  C   UNL A   1      36.496  29.402  29.958  1.00  0.00     0.001 A 
ATOM     67  C   UNL A   1      36.844  30.065  27.663  1.00  0.00     0.001 A 
ATOM     68  C   UNL A   1      35.998  29.907  28.759  1.00  0.00     0.000 A 
ENDBRANCH  44  63
BRANCH  56  69
ATOM     69  C   UNL A   1      44.356  32.422  31.420  1.00  0.00    -0.014 A 
ATOM     70  C   UNL A   1      44.636  33.531  30.607  1.00  0.00     0.009 A 
ATOM     71  C   UNL A   1      44.221  32.604  32.804  1.00  0.00     0.009 A 
ATOM     72  C   UNL A   1      44.799  34.795  31.175  1.00  0.00     0.001 A 
ATOM     73  C   UNL A   1      44.362  33.874  33.366  1.00  0.00     0.001 A 
ATOM     74  C   UNL A   1      44.656  34.967  32.552  1.00  0.00     0.000 A 
ENDBRANCH  56  69
ENDBRANCH  30  31
ENDBRANCH  22  25
ENDBRANCH  20  21
ENDBRANCH  19  20
ENDBRANCH  18  19
ENDBRANCH   1  18
TORSDOF 15
ENDMDL
MODEL 3
REMARK VINA RESULT:      -9.2      4.687     10.096
REMARK SMILES CC(C)c1ccc(CCCC(=O)NCCCCNC(=O)c2ccc(-c3c4nc(c(-c5ccccc5)c5ccc([nH]5)c(-c5ccccc5)c5nc(c(-c6ccccc6)c6ccc3[nH]6)C=C5)C=C4)cc2)cc1
REMARK SMILES IDX 14 1 13 2 11 3 12 4 10 6 9 7 8 8 7 9 4 10 5 11 70 12 6 13
REMARK SMILES IDX 69 14 2 15 1 16 3 17 15 18 16 19 17 20 18 21 19 22 20 24
REMARK SMILES IDX 21 25 22 26 68 27 23 28 67 29 24 30 25 31 26 32 61 33 27 34
REMARK SMILES IDX 66 35 60 36 62 37 28 38 65 39 59 40 58 41 29 43 51 44 36 45
REMARK SMILES IDX 50 46 37 47 40 48 49 49 63 50 38 51 39 52 48 54 64 55 41 56
REMARK SMILES IDX 30 57 31 58 35 59 32 60 34 61 33 62 52 63 53 64 57 65 54 66
REMARK SMILES IDX 56 67 55 68 42 69 43 70 47 71 44 72 46 73 45 74
REMARK H PARENT 13 5 18 23 62 42 40 53
REMARK Flexibility Score: inf
ROOT
ATOM      1  C   UNL A   1      32.487  29.231  24.203  1.00  0.00     0.116 C 
ENDROOT
BRANCH   1   2
ATOM      2  N   UNL A   1      31.556  29.424  23.109  1.00  0.00    -0.356 N 
ATOM      3  C   UNL A   1      30.484  28.663  22.757  1.00  0.00     0.220 C 
ATOM      4  O   UNL A   1      29.920  28.899  21.688  1.00  0.00    -0.275 OA
ATOM      5  H   UNL A   1      31.724  30.211  22.544  1.00  0.00     0.163 HD
BRANCH   3   6
ATOM      6  C   UNL A   1      29.957  27.609  23.710  1.00  0.00     0.100 C 
BRANCH   6   7
ATOM      7  C   UNL A   1      30.431  26.169  23.489  1.00  0.00     0.015 C 
BRANCH   7   8
ATOM      8  C   UNL A   1      31.780  25.897  22.802  1.00  0.00     0.036 C 
BRANCH   8   9
ATOM      9  C   UNL A   1      32.890  25.133  23.493  1.00  0.00    -0.048 A 
ATOM     10  C   UNL A   1      35.118  23.717  24.609  1.00  0.00    -0.045 A 
ATOM     11  C   UNL A   1      34.417  24.682  25.340  1.00  0.00     0.004 A 
ATOM     12  C   UNL A   1      34.679  23.470  23.299  1.00  0.00     0.004 A 
ATOM     13  C   UNL A   1      33.306  25.350  24.805  1.00  0.00     0.004 A 
ATOM     14  C   UNL A   1      33.589  24.165  22.753  1.00  0.00     0.004 A 
BRANCH  10  15
ATOM     15  C   UNL A   1      36.329  22.977  25.174  1.00  0.00     0.013 C 
ATOM     16  C   UNL A   1      37.067  22.084  24.163  1.00  0.00     0.012 C 
ATOM     17  C   UNL A   1      37.354  23.934  25.803  1.00  0.00     0.012 C 
ENDBRANCH  10  15
ENDBRANCH   8   9
ENDBRANCH   7   8
ENDBRANCH   6   7
ENDBRANCH   3   6
ENDBRANCH   1   2
BRANCH   1  18
ATOM     18  C   UNL A   1      31.882  29.757  25.504  1.00  0.00     0.023 C 
BRANCH  18  19
ATOM     19  C   UNL A   1      32.175  28.874  26.712  1.00  0.00     0.023 C 
BRANCH  19  20
ATOM     20  C   UNL A   1      33.544  29.115  27.333  1.00  0.00     0.116 C 
BRANCH  20  21
ATOM     21  N   UNL A   1      33.715  30.467  27.851  1.00  0.00    -0.352 N 
ATOM     22  C   UNL A   1      34.833  31.016  28.441  1.00  0.00     0.251 C 
ATOM     23  H   UNL A   1      32.936  31.062  27.768  1.00  0.00     0.163 HD
ATOM     24  O   UNL A   1      34.815  32.142  28.915  1.00  0.00    -0.269 OA
BRANCH  22  25
ATOM     25  C   UNL A   1      36.046  30.180  28.538  1.00  0.00     0.039 A 
ATOM     26  C   UNL A   1      36.939  30.163  27.465  1.00  0.00     0.014 A 
ATOM     27  C   UNL A   1      36.356  29.540  29.739  1.00  0.00     0.014 A 
ATOM     28  C   UNL A   1      38.201  29.593  27.637  1.00  0.00     0.010 A 
ATOM     29  C   UNL A   1      37.639  29.044  29.932  1.00  0.00     0.010 A 
ATOM     30  C   UNL A   1      38.582  29.089  28.892  1.00  0.00    -0.014 A 
BRANCH  30  31
ATOM     31  C   UNL A   1      39.974  28.657  29.164  1.00  0.00     0.031 A 
ATOM     32  C   UNL A   1      40.956  29.616  29.771  1.00  0.00     0.074 A 
ATOM     33  C   UNL A   1      40.382  27.435  28.764  1.00  0.00     0.049 A 
ATOM     34  N   UNL A   1      42.240  29.466  29.970  1.00  0.00    -0.248 NA
ATOM     35  C   UNL A   1      40.432  30.930  30.178  1.00  0.00     0.031 C 
ATOM     36  C   UNL A   1      39.541  26.426  28.114  1.00  0.00     0.029 A 
ATOM     37  N   UNL A   1      41.619  26.842  28.830  1.00  0.00    -0.354 N 
ATOM     38  C   UNL A   1      42.682  30.671  30.499  1.00  0.00     0.074 A 
ATOM     39  C   UNL A   1      41.538  31.555  30.553  1.00  0.00     0.031 C 
ATOM     40  C   UNL A   1      40.280  25.333  27.862  1.00  0.00     0.029 A 
ATOM     41  C   UNL A   1      41.653  25.579  28.290  1.00  0.00     0.049 A 
ATOM     42  H   UNL A   1      42.406  27.279  29.228  1.00  0.00     0.167 HD
ATOM     43  C   UNL A   1      43.924  31.007  30.917  1.00  0.00     0.031 A 
ATOM     44  C   UNL A   1      42.678  24.719  28.140  1.00  0.00     0.031 A 
ATOM     45  C   UNL A   1      45.056  30.122  30.888  1.00  0.00     0.049 A 
ATOM     46  C   UNL A   1      44.049  25.118  28.607  1.00  0.00     0.074 A 
ATOM     47  C   UNL A   1      46.336  30.343  31.368  1.00  0.00     0.029 A 
ATOM     48  N   UNL A   1      45.046  28.847  30.346  1.00  0.00    -0.354 N 
ATOM     49  N   UNL A   1      44.433  26.235  29.175  1.00  0.00    -0.248 NA
ATOM     50  C   UNL A   1      45.127  24.138  28.411  1.00  0.00     0.031 C 
ATOM     51  C   UNL A   1      47.111  29.217  31.075  1.00  0.00     0.029 A 
ATOM     52  C   UNL A   1      46.304  28.280  30.452  1.00  0.00     0.049 A 
ATOM     53  H   UNL A   1      44.260  28.409  29.944  1.00  0.00     0.167 HD
ATOM     54  C   UNL A   1      45.792  26.086  29.419  1.00  0.00     0.074 A 
ATOM     55  C   UNL A   1      46.161  24.766  28.953  1.00  0.00     0.031 C 
ATOM     56  C   UNL A   1      46.656  26.968  29.977  1.00  0.00     0.031 A 
BRANCH  43  57
ATOM     57  C   UNL A   1      44.122  32.399  31.443  1.00  0.00    -0.014 A 
ATOM     58  C   UNL A   1      44.431  33.463  30.582  1.00  0.00     0.009 A 
ATOM     59  C   UNL A   1      43.966  32.654  32.814  1.00  0.00     0.009 A 
ATOM     60  C   UNL A   1      44.615  34.751  31.089  1.00  0.00     0.001 A 
ATOM     61  C   UNL A   1      44.127  33.947  33.315  1.00  0.00     0.001 A 
ATOM     62  C   UNL A   1      44.458  34.992  32.453  1.00  0.00     0.000 A 
ENDBRANCH  43  57
BRANCH  44  63
ATOM     63  C   UNL A   1      42.451  23.389  27.517  1.00  0.00    -0.014 A 
ATOM     64  C   UNL A   1      41.984  22.315  28.291  1.00  0.00     0.009 A 
ATOM     65  C   UNL A   1      42.704  23.185  26.152  1.00  0.00     0.009 A 
ATOM     66  C   UNL A   1      41.797  21.057  27.713  1.00  0.00     0.001 A 
ATOM     67  C   UNL A   1      42.494  21.931  25.573  1.00  0.00     0.001 A 
ATOM     68  C   UNL A   1      42.048  20.868  26.355  1.00  0.00     0.000 A 
ENDBRANCH  44  63
BRANCH  56  69
ATOM     69  C   UNL A   1      48.083  26.528  30.126  1.00  0.00    -0.014 A 
ATOM     70  C   UNL A   1      48.510  25.842  31.273  1.00  0.00     0.009 A 
ATOM     71  C   UNL A   1      48.996  26.756  29.085  1.00  0.00     0.009 A 
ATOM     72  C   UNL A   1      49.833  25.412  31.384  1.00  0.00     0.001 A 
ATOM     73  C   UNL A   1      50.312  26.305  29.189  1.00  0.00     0.001 A 
ATOM     74  C   UNL A   1      50.731  25.639  30.340  1.00  0.00     0.000 A 
ENDBRANCH  56  69
ENDBRANCH  30  31
ENDBRANCH  22  25
ENDBRANCH  20  21
ENDBRANCH  19  20
ENDBRANCH  18  19
ENDBRANCH   1  18
TORSDOF 15
ENDMDL
