MODEL 1
REMARK VINA RESULT:     -12.3      0.000      0.000
REMARK SMILES CSCC[C@@H](C(=O)NCCCCNC(=O)c1ccc(-c2c3nc(c(-c4ccccc4)c4ccc([nH]4)c(-c4ccccc4)c4nc(c(-c5ccccc5)c5ccc2[nH]5)C=C4)C=C3)cc1)N1C(=O)/C(=C/c2ccc(-c3ccccc3Cl)o2)SC1=S
REMARK SMILES IDX 10 1 9 2 8 3 6 4 7 5 5 7 4 8 3 9 2 10 1 11 64 12 65 13 82 14
REMARK SMILES IDX 66 15 67 16 81 17 83 18 68 19 69 20 70 21 80 22 71 23 72 24
REMARK SMILES IDX 73 25 74 26 78 27 75 28 77 29 79 30 76 31 11 32 12 33 13 34
REMARK SMILES IDX 14 35 15 37 16 38 17 39 63 40 18 41 62 42 19 43 20 44 21 45
REMARK SMILES IDX 56 46 22 47 61 48 55 49 57 50 23 51 60 52 54 53 53 54 24 56
REMARK SMILES IDX 46 57 31 58 45 59 32 60 35 61 44 62 58 63 33 64 34 65 43 67
REMARK SMILES IDX 59 68 36 69 25 70 26 71 30 72 27 73 29 74 28 75 47 76 48 77
REMARK SMILES IDX 52 78 49 79 51 80 50 81 37 82 38 83 42 84 39 85 41 86 40 87
REMARK H PARENT 8 6 13 36 57 55 35 66
REMARK Flexibility Score: inf
ROOT
ATOM      1  C   UNL A   1      32.136  30.390  26.615  1.00  0.00     0.023 C 
ENDROOT
BRANCH   1   2
ATOM      2  C   UNL A   1      31.652  29.854  25.269  1.00  0.00     0.116 C 
BRANCH   2   3
ATOM      3  N   UNL A   1      32.745  29.703  24.341  1.00  0.00    -0.354 N 
ATOM      4  C   UNL A   1      32.919  28.809  23.329  1.00  0.00     0.243 C 
ATOM      5  O   UNL A   1      33.885  29.025  22.589  1.00  0.00    -0.273 OA
ATOM      6  H   UNL A   1      33.481  30.346  24.456  1.00  0.00     0.163 HD
BRANCH   4   7
ATOM      7  C   UNL A   1      31.924  27.631  23.082  1.00  0.00     0.182 C 
BRANCH   7   8
ATOM      8  C   UNL A   1      30.484  27.849  23.595  1.00  0.00     0.046 C 
BRANCH   8   9
ATOM      9  C   UNL A   1      29.409  28.314  22.606  1.00  0.00     0.072 C 
BRANCH   9  10
ATOM     10  S   UNL A   1      29.442  30.085  22.171  1.00  0.00    -0.165 SA
ATOM     11  C   UNL A   1      27.884  30.672  22.885  1.00  0.00     0.085 C 
ENDBRANCH   9  10
ENDBRANCH   8   9
ENDBRANCH   7   8
BRANCH   7  12
ATOM     12  N   UNL A   1      32.569  26.461  23.739  1.00  0.00    -0.280 N 
ATOM     13  C   UNL A   1      33.457  25.683  23.004  1.00  0.00     0.267 C 
ATOM     14  C   UNL A   1      32.209  25.962  24.973  1.00  0.00     0.149 C 
ATOM     15  O   UNL A   1      33.860  25.917  21.872  1.00  0.00    -0.268 OA
ATOM     16  C   UNL A   1      33.852  24.475  23.768  1.00  0.00     0.084 C 
ATOM     17  S   UNL A   1      33.083  24.473  25.301  1.00  0.00    -0.054 SA
ATOM     18  S   UNL A   1      31.121  26.593  26.071  1.00  0.00    -0.052 S 
ATOM     19  C   UNL A   1      34.706  23.585  23.248  1.00  0.00     0.068 C 
BRANCH  19  20
ATOM     20  C   UNL A   1      35.119  22.406  23.921  1.00  0.00     0.128 A 
ATOM     21  C   UNL A   1      36.288  22.137  24.623  1.00  0.00     0.051 A 
ATOM     22  O   UNL A   1      34.326  21.284  23.989  1.00  0.00    -0.457 OA
ATOM     23  C   UNL A   1      36.219  20.804  25.085  1.00  0.00     0.051 A 
ATOM     24  C   UNL A   1      35.013  20.309  24.643  1.00  0.00     0.136 A 
BRANCH  24  25
ATOM     25  C   UNL A   1      34.358  19.017  24.759  1.00  0.00     0.036 A 
ATOM     26  C   UNL A   1      35.116  17.859  24.515  1.00  0.00     0.013 A 
ATOM     27  C   UNL A   1      32.991  18.875  25.050  1.00  0.00     0.052 A 
ATOM     28  C   UNL A   1      34.527  16.593  24.558  1.00  0.00     0.001 A 
ATOM     29  C   UNL A   1      32.405  17.604  25.089  1.00  0.00     0.021 A 
ATOM     30  Cl  UNL A   1      31.946  20.231  25.314  1.00  0.00    -0.084 Cl
ATOM     31  C   UNL A   1      33.171  16.466  24.840  1.00  0.00     0.002 A 
ENDBRANCH  24  25
ENDBRANCH  19  20
ENDBRANCH   7  12
ENDBRANCH   4   7
ENDBRANCH   2   3
ENDBRANCH   1   2
BRANCH   1  32
ATOM     32  C   UNL A   1      31.710  31.831  26.894  1.00  0.00     0.023 C 
BRANCH  32  33
ATOM     33  C   UNL A   1      32.848  32.760  27.304  1.00  0.00     0.116 C 
BRANCH  33  34
ATOM     34  N   UNL A   1      32.413  34.105  27.652  1.00  0.00    -0.352 N 
ATOM     35  C   UNL A   1      32.959  34.960  28.585  1.00  0.00     0.251 C 
ATOM     36  H   UNL A   1      31.632  34.447  27.159  1.00  0.00     0.163 HD
ATOM     37  O   UNL A   1      32.442  36.038  28.831  1.00  0.00    -0.269 OA
BRANCH  35  38
ATOM     38  C   UNL A   1      34.160  34.518  29.322  1.00  0.00     0.039 A 
ATOM     39  C   UNL A   1      33.996  33.837  30.529  1.00  0.00     0.014 A 
ATOM     40  C   UNL A   1      35.429  34.689  28.764  1.00  0.00     0.014 A 
ATOM     41  C   UNL A   1      35.105  33.248  31.137  1.00  0.00     0.010 A 
ATOM     42  C   UNL A   1      36.517  34.036  29.329  1.00  0.00     0.010 A 
ATOM     43  C   UNL A   1      36.363  33.301  30.515  1.00  0.00    -0.014 A 
BRANCH  43  44
ATOM     44  C   UNL A   1      37.534  32.586  31.080  1.00  0.00     0.031 A 
ATOM     45  C   UNL A   1      38.161  33.064  32.358  1.00  0.00     0.074 A 
ATOM     46  C   UNL A   1      38.077  31.554  30.405  1.00  0.00     0.049 A 
ATOM     47  N   UNL A   1      39.236  32.627  32.963  1.00  0.00    -0.248 NA
ATOM     48  C   UNL A   1      37.512  34.202  33.029  1.00  0.00     0.031 C 
ATOM     49  C   UNL A   1      37.594  31.024  29.127  1.00  0.00     0.029 A 
ATOM     50  N   UNL A   1      39.164  30.770  30.700  1.00  0.00    -0.354 N 
ATOM     51  C   UNL A   1      39.401  33.447  34.071  1.00  0.00     0.074 A 
ATOM     52  C   UNL A   1      38.350  34.439  34.028  1.00  0.00     0.031 C 
ATOM     53  C   UNL A   1      38.363  29.984  28.764  1.00  0.00     0.029 A 
ATOM     54  C   UNL A   1      39.413  29.798  29.761  1.00  0.00     0.049 A 
ATOM     55  H   UNL A   1      39.715  30.892  31.506  1.00  0.00     0.167 HD
ATOM     56  C   UNL A   1      40.329  33.367  35.054  1.00  0.00     0.031 A 
ATOM     57  C   UNL A   1      40.379  28.862  29.707  1.00  0.00     0.031 A 
ATOM     58  C   UNL A   1      41.365  32.374  35.110  1.00  0.00     0.049 A 
ATOM     59  C   UNL A   1      41.391  28.785  30.816  1.00  0.00     0.074 A 
ATOM     60  C   UNL A   1      42.331  32.188  36.084  1.00  0.00     0.029 A 
ATOM     61  N   UNL A   1      41.564  31.390  34.153  1.00  0.00    -0.354 N 
ATOM     62  N   UNL A   1      41.507  29.542  31.879  1.00  0.00    -0.248 NA
ATOM     63  C   UNL A   1      42.395  27.716  30.722  1.00  0.00     0.031 C 
ATOM     64  C   UNL A   1      43.135  31.109  35.700  1.00  0.00     0.029 A 
ATOM     65  C   UNL A   1      42.641  30.597  34.511  1.00  0.00     0.049 A 
ATOM     66  H   UNL A   1      41.021  31.273  33.341  1.00  0.00     0.167 HD
ATOM     67  C   UNL A   1      42.582  29.029  32.593  1.00  0.00     0.074 A 
ATOM     68  C   UNL A   1      43.072  27.887  31.848  1.00  0.00     0.031 C 
ATOM     69  C   UNL A   1      43.115  29.465  33.759  1.00  0.00     0.031 A 
BRANCH  56  70
ATOM     70  C   UNL A   1      40.251  34.387  36.155  1.00  0.00    -0.014 A 
ATOM     71  C   UNL A   1      39.462  34.160  37.293  1.00  0.00     0.009 A 
ATOM     72  C   UNL A   1      40.989  35.577  36.064  1.00  0.00     0.009 A 
ATOM     73  C   UNL A   1      39.384  35.121  38.303  1.00  0.00     0.001 A 
ATOM     74  C   UNL A   1      40.931  36.524  37.087  1.00  0.00     0.001 A 
ATOM     75  C   UNL A   1      40.122  36.300  38.202  1.00  0.00     0.000 A 
ENDBRANCH  56  70
BRANCH  57  76
ATOM     76  C   UNL A   1      40.420  27.904  28.574  1.00  0.00    -0.014 A 
ATOM     77  C   UNL A   1      41.125  28.221  27.402  1.00  0.00     0.009 A 
ATOM     78  C   UNL A   1      39.763  26.666  28.657  1.00  0.00     0.009 A 
ATOM     79  C   UNL A   1      41.153  27.327  26.329  1.00  0.00     0.001 A 
ATOM     80  C   UNL A   1      39.813  25.765  27.592  1.00  0.00     0.001 A 
ATOM     81  C   UNL A   1      40.501  26.098  26.427  1.00  0.00     0.000 A 
ENDBRANCH  57  76
BRANCH  69  82
ATOM     82  C   UNL A   1      44.271  28.688  34.319  1.00  0.00    -0.014 A 
ATOM     83  C   UNL A   1      45.590  28.967  33.932  1.00  0.00     0.009 A 
ATOM     84  C   UNL A   1      44.037  27.696  35.284  1.00  0.00     0.009 A 
ATOM     85  C   UNL A   1      46.653  28.247  34.482  1.00  0.00     0.001 A 
ATOM     86  C   UNL A   1      45.103  26.996  35.850  1.00  0.00     0.001 A 
ATOM     87  C   UNL A   1      46.408  27.267  35.443  1.00  0.00     0.000 A 
ENDBRANCH  69  82
ENDBRANCH  43  44
ENDBRANCH  35  38
ENDBRANCH  33  34
ENDBRANCH  32  33
ENDBRANCH   1  32
TORSDOF 17
ENDMDL
MODEL 2
REMARK VINA RESULT:     -12.3      0.577      5.684
REMARK SMILES CSCC[C@@H](C(=O)NCCCCNC(=O)c1ccc(-c2c3nc(c(-c4ccccc4)c4ccc([nH]4)c(-c4ccccc4)c4nc(c(-c5ccccc5)c5ccc2[nH]5)C=C4)C=C3)cc1)N1C(=O)/C(=C/c2ccc(-c3ccccc3Cl)o2)SC1=S
REMARK SMILES IDX 10 1 9 2 8 3 6 4 7 5 5 7 4 8 3 9 2 10 1 11 64 12 65 13 82 14
REMARK SMILES IDX 66 15 67 16 81 17 83 18 68 19 69 20 70 21 80 22 71 23 72 24
REMARK SMILES IDX 73 25 74 26 78 27 75 28 77 29 79 30 76 31 11 32 12 33 13 34
REMARK SMILES IDX 14 35 15 37 16 38 17 39 63 40 18 41 62 42 19 43 20 44 21 45
REMARK SMILES IDX 56 46 22 47 61 48 55 49 57 50 23 51 60 52 54 53 53 54 24 56
REMARK SMILES IDX 46 57 31 58 45 59 32 60 35 61 44 62 58 63 33 64 34 65 43 67
REMARK SMILES IDX 59 68 36 69 25 70 26 71 30 72 27 73 29 74 28 75 47 76 48 77
REMARK SMILES IDX 52 78 49 79 51 80 50 81 37 82 38 83 42 84 39 85 41 86 40 87
REMARK H PARENT 8 6 13 36 57 55 35 66
REMARK Flexibility Score: inf
ROOT
ATOM      1  C   UNL A   1      32.224  30.419  26.805  1.00  0.00     0.023 C 
ENDROOT
BRANCH   1   2
ATOM      2  C   UNL A   1      31.782  29.803  25.480  1.00  0.00     0.116 C 
BRANCH   2   3
ATOM      3  N   UNL A   1      32.885  29.693  24.558  1.00  0.00    -0.354 N 
ATOM      4  C   UNL A   1      33.070  28.846  23.509  1.00  0.00     0.243 C 
ATOM      5  O   UNL A   1      34.044  29.095  22.790  1.00  0.00    -0.273 OA
ATOM      6  H   UNL A   1      33.619  30.331  24.710  1.00  0.00     0.163 HD
BRANCH   4   7
ATOM      7  C   UNL A   1      32.078  27.680  23.198  1.00  0.00     0.182 C 
BRANCH   7   8
ATOM      8  C   UNL A   1      30.625  27.890  23.677  1.00  0.00     0.046 C 
BRANCH   8   9
ATOM      9  C   UNL A   1      29.577  28.373  22.669  1.00  0.00     0.072 C 
BRANCH   9  10
ATOM     10  S   UNL A   1      29.557  30.168  22.343  1.00  0.00    -0.165 SA
ATOM     11  C   UNL A   1      28.097  30.339  21.284  1.00  0.00     0.085 C 
ENDBRANCH   9  10
ENDBRANCH   8   9
ENDBRANCH   7   8
BRANCH   7  12
ATOM     12  N   UNL A   1      32.700  26.489  23.837  1.00  0.00    -0.280 N 
ATOM     13  C   UNL A   1      33.591  25.718  23.098  1.00  0.00     0.267 C 
ATOM     14  C   UNL A   1      32.315  25.964  25.053  1.00  0.00     0.149 C 
ATOM     15  O   UNL A   1      34.015  25.974  21.978  1.00  0.00    -0.268 OA
ATOM     16  C   UNL A   1      33.961  24.488  23.839  1.00  0.00     0.084 C 
ATOM     17  S   UNL A   1      33.167  24.458  25.359  1.00  0.00    -0.054 SA
ATOM     18  S   UNL A   1      31.216  26.581  26.148  1.00  0.00    -0.052 S 
ATOM     19  C   UNL A   1      34.814  23.601  23.311  1.00  0.00     0.068 C 
BRANCH  19  20
ATOM     20  C   UNL A   1      35.203  22.402  23.962  1.00  0.00     0.128 A 
ATOM     21  C   UNL A   1      36.367  22.098  24.660  1.00  0.00     0.051 A 
ATOM     22  O   UNL A   1      34.389  21.294  24.008  1.00  0.00    -0.457 OA
ATOM     23  C   UNL A   1      36.271  20.757  25.097  1.00  0.00     0.051 A 
ATOM     24  C   UNL A   1      35.057  20.295  24.644  1.00  0.00     0.136 A 
BRANCH  24  25
ATOM     25  C   UNL A   1      34.377  19.013  24.735  1.00  0.00     0.036 A 
ATOM     26  C   UNL A   1      35.125  17.842  24.519  1.00  0.00     0.013 A 
ATOM     27  C   UNL A   1      32.998  18.894  24.975  1.00  0.00     0.052 A 
ATOM     28  C   UNL A   1      34.514  16.586  24.540  1.00  0.00     0.001 A 
ATOM     29  C   UNL A   1      32.390  17.632  24.992  1.00  0.00     0.021 A 
ATOM     30  Cl  UNL A   1      31.965  20.266  25.200  1.00  0.00    -0.084 Cl
ATOM     31  C   UNL A   1      33.146  16.481  24.771  1.00  0.00     0.002 A 
ENDBRANCH  24  25
ENDBRANCH  19  20
ENDBRANCH   7  12
ENDBRANCH   4   7
ENDBRANCH   2   3
ENDBRANCH   1   2
BRANCH   1  32
ATOM     32  C   UNL A   1      31.811  31.881  26.974  1.00  0.00     0.023 C 
BRANCH  32  33
ATOM     33  C   UNL A   1      32.922  32.800  27.474  1.00  0.00     0.116 C 
BRANCH  33  34
ATOM     34  N   UNL A   1      32.494  34.174  27.694  1.00  0.00    -0.352 N 
ATOM     35  C   UNL A   1      33.021  35.099  28.569  1.00  0.00     0.251 C 
ATOM     36  H   UNL A   1      31.734  34.482  27.148  1.00  0.00     0.163 HD
ATOM     37  O   UNL A   1      32.510  36.199  28.707  1.00  0.00    -0.269 OA
BRANCH  35  38
ATOM     38  C   UNL A   1      34.191  34.707  29.380  1.00  0.00     0.039 A 
ATOM     39  C   UNL A   1      33.979  34.163  30.647  1.00  0.00     0.014 A 
ATOM     40  C   UNL A   1      35.477  34.786  28.841  1.00  0.00     0.014 A 
ATOM     41  C   UNL A   1      35.057  33.614  31.344  1.00  0.00     0.010 A 
ATOM     42  C   UNL A   1      36.532  34.170  29.501  1.00  0.00     0.010 A 
ATOM     43  C   UNL A   1      36.331  33.569  30.754  1.00  0.00    -0.014 A 
BRANCH  43  44
ATOM     44  C   UNL A   1      37.467  32.889  31.422  1.00  0.00     0.031 A 
ATOM     45  C   UNL A   1      38.120  31.703  30.772  1.00  0.00     0.074 A 
ATOM     46  C   UNL A   1      37.861  33.291  32.646  1.00  0.00     0.049 A 
ATOM     47  N   UNL A   1      39.064  30.924  31.234  1.00  0.00    -0.248 NA
ATOM     48  C   UNL A   1      37.624  31.323  29.438  1.00  0.00     0.031 C 
ATOM     49  C   UNL A   1      37.277  34.397  33.408  1.00  0.00     0.029 A 
ATOM     50  N   UNL A   1      38.847  32.805  33.468  1.00  0.00    -0.354 N 
ATOM     51  C   UNL A   1      39.262  29.956  30.259  1.00  0.00     0.074 A 
ATOM     52  C   UNL A   1      38.304  30.211  29.205  1.00  0.00     0.031 C 
ATOM     53  C   UNL A   1      37.935  34.524  34.573  1.00  0.00     0.029 A 
ATOM     54  C   UNL A   1      38.959  33.488  34.655  1.00  0.00     0.049 A 
ATOM     55  H   UNL A   1      39.419  32.040  33.232  1.00  0.00     0.167 HD
ATOM     56  C   UNL A   1      40.176  28.957  30.230  1.00  0.00     0.031 A 
ATOM     57  C   UNL A   1      39.793  33.301  35.696  1.00  0.00     0.031 A 
ATOM     58  C   UNL A   1      41.139  28.711  31.266  1.00  0.00     0.049 A 
ATOM     59  C   UNL A   1      40.807  32.193  35.635  1.00  0.00     0.074 A 
ATOM     60  C   UNL A   1      42.131  27.746  31.312  1.00  0.00     0.029 A 
ATOM     61  N   UNL A   1      41.237  29.444  32.439  1.00  0.00    -0.354 N 
ATOM     62  N   UNL A   1      41.009  31.312  34.686  1.00  0.00    -0.248 NA
ATOM     63  C   UNL A   1      41.717  32.066  36.782  1.00  0.00     0.031 C 
ATOM     64  C   UNL A   1      42.810  27.876  32.528  1.00  0.00     0.029 A 
ATOM     65  C   UNL A   1      42.270  28.950  33.218  1.00  0.00     0.049 A 
ATOM     66  H   UNL A   1      40.659  30.202  32.682  1.00  0.00     0.167 HD
ATOM     67  C   UNL A   1      42.081  30.539  35.110  1.00  0.00     0.074 A 
ATOM     68  C   UNL A   1      42.496  31.066  36.395  1.00  0.00     0.031 C 
ATOM     69  C   UNL A   1      42.668  29.486  34.492  1.00  0.00     0.031 A 
BRANCH  56  70
ATOM     70  C   UNL A   1      40.175  28.063  29.022  1.00  0.00    -0.014 A 
ATOM     71  C   UNL A   1      40.887  28.414  27.865  1.00  0.00     0.009 A 
ATOM     72  C   UNL A   1      39.472  26.849  29.048  1.00  0.00     0.009 A 
ATOM     73  C   UNL A   1      40.867  27.583  26.743  1.00  0.00     0.001 A 
ATOM     74  C   UNL A   1      39.476  26.007  27.935  1.00  0.00     0.001 A 
ATOM     75  C   UNL A   1      40.165  26.378  26.780  1.00  0.00     0.000 A 
ENDBRANCH  56  70
BRANCH  57  76
ATOM     76  C   UNL A   1      39.721  34.201  36.875  1.00  0.00    -0.014 A 
ATOM     77  C   UNL A   1      38.947  33.846  37.991  1.00  0.00     0.009 A 
ATOM     78  C   UNL A   1      40.427  35.413  36.896  1.00  0.00     0.009 A 
ATOM     79  C   UNL A   1      38.867  34.697  39.095  1.00  0.00     0.001 A 
ATOM     80  C   UNL A   1      40.364  36.250  38.011  1.00  0.00     0.001 A 
ATOM     81  C   UNL A   1      39.578  35.895  39.107  1.00  0.00     0.000 A 
ENDBRANCH  57  76
BRANCH  69  82
ATOM     82  C   UNL A   1      43.842  28.853  35.182  1.00  0.00    -0.014 A 
ATOM     83  C   UNL A   1      43.671  27.783  36.073  1.00  0.00     0.009 A 
ATOM     84  C   UNL A   1      45.140  29.302  34.894  1.00  0.00     0.009 A 
ATOM     85  C   UNL A   1      44.778  27.193  36.686  1.00  0.00     0.001 A 
ATOM     86  C   UNL A   1      46.246  28.694  35.489  1.00  0.00     0.001 A 
ATOM     87  C   UNL A   1      46.064  27.647  36.390  1.00  0.00     0.000 A 
ENDBRANCH  69  82
ENDBRANCH  43  44
ENDBRANCH  35  38
ENDBRANCH  33  34
ENDBRANCH  32  33
ENDBRANCH   1  32
TORSDOF 17
ENDMDL
MODEL 3
REMARK VINA RESULT:     -12.1      4.447      9.968
REMARK SMILES CSCC[C@@H](C(=O)NCCCCNC(=O)c1ccc(-c2c3nc(c(-c4ccccc4)c4ccc([nH]4)c(-c4ccccc4)c4nc(c(-c5ccccc5)c5ccc2[nH]5)C=C4)C=C3)cc1)N1C(=O)/C(=C/c2ccc(-c3ccccc3Cl)o2)SC1=S
REMARK SMILES IDX 10 1 9 2 8 3 6 4 7 5 5 7 4 8 3 9 2 10 1 11 64 12 65 13 82 14
REMARK SMILES IDX 66 15 67 16 81 17 83 18 68 19 69 20 70 21 80 22 71 23 72 24
REMARK SMILES IDX 73 25 74 26 78 27 75 28 77 29 79 30 76 31 11 32 12 33 13 34
REMARK SMILES IDX 14 35 15 37 16 38 17 39 63 40 18 41 62 42 19 43 20 44 21 45
REMARK SMILES IDX 56 46 22 47 61 48 55 49 57 50 23 51 60 52 54 53 53 54 24 56
REMARK SMILES IDX 46 57 31 58 45 59 32 60 35 61 44 62 58 63 33 64 34 65 43 67
REMARK SMILES IDX 59 68 36 69 25 70 26 71 30 72 27 73 29 74 28 75 47 76 48 77
REMARK SMILES IDX 52 78 49 79 51 80 50 81 37 82 38 83 42 84 39 85 41 86 40 87
REMARK H PARENT 8 6 13 36 57 55 35 66
REMARK Flexibility Score: inf
ROOT
ATOM      1  C   UNL A   1      37.337  20.855  24.653  1.00  0.00     0.023 C 
ENDROOT
BRANCH   1   2
ATOM      2  C   UNL A   1      35.875  20.637  25.037  1.00  0.00     0.116 C 
BRANCH   2   3
ATOM      3  N   UNL A   1      35.582  21.201  26.331  1.00  0.00    -0.354 N 
ATOM      4  C   UNL A   1      34.424  21.724  26.818  1.00  0.00     0.243 C 
ATOM      5  O   UNL A   1      34.423  21.982  28.027  1.00  0.00    -0.273 OA
ATOM      6  H   UNL A   1      36.337  21.208  26.962  1.00  0.00     0.163 HD
BRANCH   4   7
ATOM      7  C   UNL A   1      33.160  21.920  25.921  1.00  0.00     0.182 C 
BRANCH   7   8
ATOM      8  C   UNL A   1      33.119  21.081  24.625  1.00  0.00     0.046 C 
BRANCH   8   9
ATOM      9  C   UNL A   1      32.197  19.859  24.564  1.00  0.00     0.072 C 
BRANCH   9  10
ATOM     10  S   UNL A   1      32.994  18.285  24.103  1.00  0.00    -0.165 SA
ATOM     11  C   UNL A   1      32.417  18.059  22.401  1.00  0.00     0.085 C 
ENDBRANCH   9  10
ENDBRANCH   8   9
ENDBRANCH   7   8
BRANCH   7  12
ATOM     12  N   UNL A   1      33.138  23.380  25.631  1.00  0.00    -0.280 N 
ATOM     13  C   UNL A   1      32.324  24.205  26.399  1.00  0.00     0.267 C 
ATOM     14  C   UNL A   1      33.718  23.965  24.525  1.00  0.00     0.149 C 
ATOM     15  O   UNL A   1      31.678  23.873  27.385  1.00  0.00    -0.268 OA
ATOM     16  C   UNL A   1      32.304  25.582  25.847  1.00  0.00     0.084 C 
ATOM     17  S   UNL A   1      33.308  25.673  24.460  1.00  0.00    -0.054 SA
ATOM     18  S   UNL A   1      34.680  23.255  23.359  1.00  0.00    -0.052 S 
ATOM     19  C   UNL A   1      31.582  26.545  26.435  1.00  0.00     0.068 C 
BRANCH  19  20
ATOM     20  C   UNL A   1      31.512  27.878  25.954  1.00  0.00     0.128 A 
ATOM     21  C   UNL A   1      32.205  29.014  26.358  1.00  0.00     0.051 A 
ATOM     22  O   UNL A   1      30.689  28.241  24.914  1.00  0.00    -0.457 OA
ATOM     23  C   UNL A   1      31.753  30.098  25.573  1.00  0.00     0.051 A 
ATOM     24  C   UNL A   1      30.799  29.584  24.726  1.00  0.00     0.136 A 
BRANCH  24  25
ATOM     25  C   UNL A   1      29.949  30.169  23.702  1.00  0.00     0.036 A 
ATOM     26  C   UNL A   1      29.264  31.360  24.003  1.00  0.00     0.013 A 
ATOM     27  C   UNL A   1      29.738  29.572  22.449  1.00  0.00     0.052 A 
ATOM     28  C   UNL A   1      28.391  31.938  23.079  1.00  0.00     0.001 A 
ATOM     29  C   UNL A   1      28.860  30.154  21.527  1.00  0.00     0.021 A 
ATOM     30  Cl  UNL A   1      30.483  28.077  21.988  1.00  0.00    -0.084 Cl
ATOM     31  C   UNL A   1      28.185  31.333  21.843  1.00  0.00     0.002 A 
ENDBRANCH  24  25
ENDBRANCH  19  20
ENDBRANCH   7  12
ENDBRANCH   4   7
ENDBRANCH   2   3
ENDBRANCH   1   2
BRANCH   1  32
ATOM     32  C   UNL A   1      38.211  19.612  24.823  1.00  0.00     0.023 C 
BRANCH  32  33
ATOM     33  C   UNL A   1      39.131  19.645  26.039  1.00  0.00     0.116 C 
BRANCH  33  34
ATOM     34  N   UNL A   1      40.402  18.965  25.833  1.00  0.00    -0.352 N 
ATOM     35  C   UNL A   1      41.673  19.473  25.990  1.00  0.00     0.251 C 
ATOM     36  H   UNL A   1      40.346  18.024  25.547  1.00  0.00     0.163 HD
ATOM     37  O   UNL A   1      42.657  18.809  25.706  1.00  0.00    -0.269 OA
BRANCH  35  38
ATOM     38  C   UNL A   1      41.817  20.865  26.462  1.00  0.00     0.039 A 
ATOM     39  C   UNL A   1      41.739  21.123  27.831  1.00  0.00     0.014 A 
ATOM     40  C   UNL A   1      42.130  21.884  25.558  1.00  0.00     0.014 A 
ATOM     41  C   UNL A   1      42.062  22.395  28.306  1.00  0.00     0.010 A 
ATOM     42  C   UNL A   1      42.525  23.124  26.039  1.00  0.00     0.010 A 
ATOM     43  C   UNL A   1      42.505  23.389  27.418  1.00  0.00    -0.014 A 
BRANCH  43  44
ATOM     44  C   UNL A   1      42.965  24.712  27.908  1.00  0.00     0.031 A 
ATOM     45  C   UNL A   1      41.961  25.762  28.290  1.00  0.00     0.074 A 
ATOM     46  C   UNL A   1      44.282  24.993  27.938  1.00  0.00     0.049 A 
ATOM     47  N   UNL A   1      42.163  27.001  28.657  1.00  0.00    -0.248 NA
ATOM     48  C   UNL A   1      40.542  25.376  28.222  1.00  0.00     0.031 C 
ATOM     49  C   UNL A   1      45.358  24.078  27.545  1.00  0.00     0.029 A 
ATOM     50  N   UNL A   1      44.941  26.138  28.311  1.00  0.00    -0.354 N 
ATOM     51  C   UNL A   1      40.901  27.546  28.844  1.00  0.00     0.074 A 
ATOM     52  C   UNL A   1      39.939  26.523  28.499  1.00  0.00     0.031 C 
ATOM     53  C   UNL A   1      46.541  24.688  27.727  1.00  0.00     0.029 A 
ATOM     54  C   UNL A   1      46.308  26.045  28.211  1.00  0.00     0.049 A 
ATOM     55  H   UNL A   1      44.478  26.950  28.620  1.00  0.00     0.167 HD
ATOM     56  C   UNL A   1      40.568  28.782  29.289  1.00  0.00     0.031 A 
ATOM     57  C   UNL A   1      47.267  26.950  28.479  1.00  0.00     0.031 A 
ATOM     58  C   UNL A   1      41.520  29.796  29.647  1.00  0.00     0.049 A 
ATOM     59  C   UNL A   1      46.874  28.310  28.982  1.00  0.00     0.074 A 
ATOM     60  C   UNL A   1      41.282  31.067  30.143  1.00  0.00     0.029 A 
ATOM     61  N   UNL A   1      42.896  29.650  29.558  1.00  0.00    -0.354 N 
ATOM     62  N   UNL A   1      45.676  28.796  29.194  1.00  0.00    -0.248 NA
ATOM     63  C   UNL A   1      47.968  29.241  29.297  1.00  0.00     0.031 C 
ATOM     64  C   UNL A   1      42.515  31.702  30.324  1.00  0.00     0.029 A 
ATOM     65  C   UNL A   1      43.520  30.810  29.985  1.00  0.00     0.049 A 
ATOM     66  H   UNL A   1      43.359  28.843  29.239  1.00  0.00     0.167 HD
ATOM     67  C   UNL A   1      45.870  30.080  29.687  1.00  0.00     0.074 A 
ATOM     68  C   UNL A   1      47.302  30.290  29.756  1.00  0.00     0.031 C 
ATOM     69  C   UNL A   1      44.945  31.001  30.047  1.00  0.00     0.031 A 
BRANCH  56  70
ATOM     70  C   UNL A   1      39.104  29.093  29.416  1.00  0.00    -0.014 A 
ATOM     71  C   UNL A   1      38.392  29.663  28.349  1.00  0.00     0.009 A 
ATOM     72  C   UNL A   1      38.423  28.794  30.606  1.00  0.00     0.009 A 
ATOM     73  C   UNL A   1      37.035  29.963  28.482  1.00  0.00     0.001 A 
ATOM     74  C   UNL A   1      37.060  29.068  30.728  1.00  0.00     0.001 A 
ATOM     75  C   UNL A   1      36.369  29.661  29.670  1.00  0.00     0.000 A 
ENDBRANCH  56  70
BRANCH  57  76
ATOM     76  C   UNL A   1      48.697  26.590  28.300  1.00  0.00    -0.014 A 
ATOM     77  C   UNL A   1      49.332  26.799  27.065  1.00  0.00     0.009 A 
ATOM     78  C   UNL A   1      49.436  26.043  29.360  1.00  0.00     0.009 A 
ATOM     79  C   UNL A   1      50.672  26.448  26.891  1.00  0.00     0.001 A 
ATOM     80  C   UNL A   1      50.783  25.716  29.189  1.00  0.00     0.001 A 
ATOM     81  C   UNL A   1      51.397  25.911  27.953  1.00  0.00     0.000 A 
ENDBRANCH  57  76
BRANCH  69  82
ATOM     82  C   UNL A   1      45.452  32.311  30.579  1.00  0.00    -0.014 A 
ATOM     83  C   UNL A   1      45.744  33.381  29.719  1.00  0.00     0.009 A 
ATOM     84  C   UNL A   1      45.590  32.490  31.964  1.00  0.00     0.009 A 
ATOM     85  C   UNL A   1      46.193  34.597  30.236  1.00  0.00     0.001 A 
ATOM     86  C   UNL A   1      46.015  33.715  32.479  1.00  0.00     0.001 A 
ATOM     87  C   UNL A   1      46.323  34.764  31.615  1.00  0.00     0.000 A 
ENDBRANCH  69  82
ENDBRANCH  43  44
ENDBRANCH  35  38
ENDBRANCH  33  34
ENDBRANCH  32  33
ENDBRANCH   1  32
TORSDOF 17
ENDMDL
