MODEL 1
REMARK VINA RESULT:     -11.8      0.000      0.000
REMARK SMILES COc1ccc2c(c1)c(Cc1nc(-c3ccc(C(=O)NCCCCNC(=O)c4ccc(-c5c6nc(c(-c7ccccc7)c7ccc([nH]7)c(-c7ccccc7)c7nc(c(-c8ccccc8)c8ccc5[nH]8)C=C7)C=C6)cc4)cc3)cs1)c(C)n2C(=O)c1ccc(Cl)cc1
REMARK SMILES IDX 21 1 20 2 18 3 19 4 17 6 14 7 15 8 77 9 16 10 76 11 13 12
REMARK SMILES IDX 11 13 12 14 79 15 78 16 10 17 9 18 3 19 4 20 8 21 5 22 7 23
REMARK SMILES IDX 6 24 82 25 80 26 81 27 2 28 1 29 83 30 84 31 85 32 86 33
REMARK SMILES IDX 91 34 87 35 90 36 88 37 89 38 22 39 23 40 24 41 25 42 26 43
REMARK SMILES IDX 27 45 28 46 29 47 75 48 30 49 74 50 31 51 32 52 33 53 68 54
REMARK SMILES IDX 34 55 73 56 67 57 69 58 35 59 72 60 66 61 65 62 36 64 58 65
REMARK SMILES IDX 43 66 57 67 44 68 47 69 56 70 70 71 45 72 46 73 55 75 71 76
REMARK SMILES IDX 48 77 37 78 38 79 42 80 39 81 41 82 40 83 59 84 60 85 64 86
REMARK SMILES IDX 61 87 63 88 62 89 49 90 50 91 54 92 51 93 53 94 52 95
REMARK H PARENT 20 5 25 44 69 63 47 74
REMARK Flexibility Score: inf
ROOT
ATOM      1  C   UNL A   1      37.684  29.470  29.014  1.00  0.00     0.116 C 
ENDROOT
BRANCH   1   2
ATOM      2  N   UNL A   1      39.077  29.659  29.377  1.00  0.00    -0.352 N 
ATOM      3  C   UNL A   1      40.175  28.859  29.151  1.00  0.00     0.251 C 
ATOM      4  O   UNL A   1      41.275  29.246  29.543  1.00  0.00    -0.269 OA
ATOM      5  H   UNL A   1      39.267  30.494  29.861  1.00  0.00     0.163 HD
BRANCH   3   6
ATOM      6  C   UNL A   1      40.050  27.511  28.536  1.00  0.00     0.039 A 
ATOM      7  C   UNL A   1      39.399  25.040  27.364  1.00  0.00     0.001 A 
ATOM      8  C   UNL A   1      39.118  25.274  28.715  1.00  0.00     0.011 A 
ATOM      9  C   UNL A   1      40.129  25.999  26.651  1.00  0.00     0.011 A 
ATOM     10  C   UNL A   1      39.435  26.507  29.295  1.00  0.00     0.014 A 
ATOM     11  C   UNL A   1      40.485  27.212  27.244  1.00  0.00     0.014 A 
BRANCH   7  12
ATOM     12  C   UNL A   1      38.985  23.819  26.691  1.00  0.00     0.081 A 
ATOM     13  C   UNL A   1      37.751  22.668  25.261  1.00  0.00     0.098 A 
ATOM     14  N   UNL A   1      37.863  23.816  25.894  1.00  0.00    -0.241 NA
ATOM     15  S   UNL A   1      38.847  21.449  25.772  1.00  0.00    -0.126 S 
ATOM     16  C   UNL A   1      39.609  22.593  26.806  1.00  0.00     0.095 A 
BRANCH  13  17
ATOM     17  C   UNL A   1      36.780  22.437  24.143  1.00  0.00     0.105 C 
BRANCH  17  18
ATOM     18  C   UNL A   1      35.376  22.261  24.671  1.00  0.00    -0.012 A 
ATOM     19  C   UNL A   1      34.183  18.625  24.761  1.00  0.00     0.119 A 
ATOM     20  C   UNL A   1      32.904  18.898  25.208  1.00  0.00     0.048 A 
ATOM     21  C   UNL A   1      35.073  19.678  24.552  1.00  0.00     0.057 A 
ATOM     22  C   UNL A   1      32.497  20.216  25.443  1.00  0.00     0.031 A 
ATOM     23  C   UNL A   1      34.696  21.017  24.813  1.00  0.00     0.008 A 
ATOM     24  C   UNL A   1      33.414  21.283  25.298  1.00  0.00     0.057 A 
ATOM     25  N   UNL A   1      33.321  22.666  25.559  1.00  0.00    -0.280 N 
ATOM     26  C   UNL A   1      34.515  23.259  25.113  1.00  0.00     0.028 A 
ATOM     27  C   UNL A   1      34.834  24.721  25.139  1.00  0.00     0.065 C 
BRANCH  19  28
ATOM     28  O   UNL A   1      34.680  17.371  24.533  1.00  0.00    -0.497 OA
ATOM     29  C   UNL A   1      34.145  16.722  23.384  1.00  0.00     0.278 C 
ENDBRANCH  19  28
BRANCH  25  30
ATOM     30  C   UNL A   1      32.210  23.331  26.160  1.00  0.00     0.262 C 
ATOM     31  O   UNL A   1      31.970  23.151  27.355  1.00  0.00    -0.268 OA
BRANCH  30  32
ATOM     32  C   UNL A   1      31.309  24.276  25.479  1.00  0.00     0.040 A 
ATOM     33  C   UNL A   1      30.886  24.053  24.164  1.00  0.00     0.015 A 
ATOM     34  C   UNL A   1      30.920  25.428  26.172  1.00  0.00     0.015 A 
ATOM     35  C   UNL A   1      30.147  25.042  23.509  1.00  0.00     0.021 A 
ATOM     36  C   UNL A   1      30.173  26.407  25.517  1.00  0.00     0.021 A 
ATOM     37  C   UNL A   1      29.809  26.220  24.183  1.00  0.00     0.041 A 
ATOM     38  Cl  UNL A   1      28.961  27.464  23.352  1.00  0.00    -0.084 Cl
ENDBRANCH  30  32
ENDBRANCH  25  30
ENDBRANCH  17  18
ENDBRANCH  13  17
ENDBRANCH   7  12
ENDBRANCH   3   6
ENDBRANCH   1   2
BRANCH   1  39
ATOM     39  C   UNL A   1      37.022  30.689  28.390  1.00  0.00     0.023 C 
BRANCH  39  40
ATOM     40  C   UNL A   1      35.936  31.379  29.211  1.00  0.00     0.023 C 
BRANCH  40  41
ATOM     41  C   UNL A   1      35.763  32.882  28.979  1.00  0.00     0.116 C 
BRANCH  41  42
ATOM     42  N   UNL A   1      34.608  33.476  29.622  1.00  0.00    -0.352 N 
ATOM     43  C   UNL A   1      34.383  34.067  30.834  1.00  0.00     0.251 C 
ATOM     44  H   UNL A   1      33.802  33.448  29.057  1.00  0.00     0.163 HD
ATOM     45  O   UNL A   1      33.324  34.690  30.949  1.00  0.00    -0.269 OA
BRANCH  43  46
ATOM     46  C   UNL A   1      35.257  33.926  32.028  1.00  0.00     0.039 A 
ATOM     47  C   UNL A   1      36.124  34.906  32.502  1.00  0.00     0.014 A 
ATOM     48  C   UNL A   1      35.296  32.648  32.617  1.00  0.00     0.014 A 
ATOM     49  C   UNL A   1      37.133  34.572  33.393  1.00  0.00     0.010 A 
ATOM     50  C   UNL A   1      36.277  32.317  33.542  1.00  0.00     0.010 A 
ATOM     51  C   UNL A   1      37.249  33.259  33.854  1.00  0.00    -0.014 A 
BRANCH  51  52
ATOM     52  C   UNL A   1      38.419  32.938  34.661  1.00  0.00     0.031 A 
ATOM     53  C   UNL A   1      38.318  33.273  36.108  1.00  0.00     0.074 A 
ATOM     54  C   UNL A   1      39.520  32.352  34.151  1.00  0.00     0.049 A 
ATOM     55  N   UNL A   1      39.055  34.084  36.795  1.00  0.00    -0.248 NA
ATOM     56  C   UNL A   1      37.190  32.699  36.856  1.00  0.00     0.031 C 
ATOM     57  C   UNL A   1      39.705  31.738  32.833  1.00  0.00     0.029 A 
ATOM     58  N   UNL A   1      40.701  32.095  34.778  1.00  0.00    -0.354 N 
ATOM     59  C   UNL A   1      38.571  34.032  38.101  1.00  0.00     0.074 A 
ATOM     60  C   UNL A   1      37.365  33.244  38.059  1.00  0.00     0.031 C 
ATOM     61  C   UNL A   1      40.817  30.967  32.855  1.00  0.00     0.029 A 
ATOM     62  C   UNL A   1      41.496  31.169  34.122  1.00  0.00     0.049 A 
ATOM     63  H   UNL A   1      40.965  32.527  35.621  1.00  0.00     0.167 HD
ATOM     64  C   UNL A   1      39.273  34.512  39.164  1.00  0.00     0.031 A 
ATOM     65  C   UNL A   1      42.593  30.555  34.625  1.00  0.00     0.031 A 
ATOM     66  C   UNL A   1      40.311  35.421  38.772  1.00  0.00     0.049 A 
ATOM     67  C   UNL A   1      43.100  31.384  35.742  1.00  0.00     0.074 A 
ATOM     68  C   UNL A   1      40.332  36.669  38.182  1.00  0.00     0.029 A 
ATOM     69  N   UNL A   1      41.589  34.933  38.659  1.00  0.00    -0.354 N 
ATOM     70  N   UNL A   1      43.603  32.575  35.582  1.00  0.00    -0.248 NA
ATOM     71  C   UNL A   1      42.651  31.073  37.089  1.00  0.00     0.031 C 
ATOM     72  C   UNL A   1      41.467  36.647  37.322  1.00  0.00     0.029 A 
ATOM     73  C   UNL A   1      42.097  35.410  37.478  1.00  0.00     0.049 A 
ATOM     74  H   UNL A   1      42.052  34.350  39.303  1.00  0.00     0.167 HD
ATOM     75  C   UNL A   1      43.148  33.303  36.671  1.00  0.00     0.074 A 
ATOM     76  C   UNL A   1      42.652  32.301  37.613  1.00  0.00     0.031 C 
ATOM     77  C   UNL A   1      42.961  34.654  36.597  1.00  0.00     0.031 A 
BRANCH  64  78
ATOM     78  C   UNL A   1      39.202  33.914  40.544  1.00  0.00    -0.014 A 
ATOM     79  C   UNL A   1      39.866  32.720  40.888  1.00  0.00     0.009 A 
ATOM     80  C   UNL A   1      38.684  34.677  41.604  1.00  0.00     0.009 A 
ATOM     81  C   UNL A   1      40.006  32.305  42.213  1.00  0.00     0.001 A 
ATOM     82  C   UNL A   1      38.858  34.284  42.938  1.00  0.00     0.001 A 
ATOM     83  C   UNL A   1      39.522  33.099  43.241  1.00  0.00     0.000 A 
ENDBRANCH  64  78
BRANCH  65  84
ATOM     84  C   UNL A   1      42.915  29.116  34.496  1.00  0.00    -0.014 A 
ATOM     85  C   UNL A   1      43.920  28.704  33.600  1.00  0.00     0.009 A 
ATOM     86  C   UNL A   1      42.065  28.134  35.024  1.00  0.00     0.009 A 
ATOM     87  C   UNL A   1      44.054  27.366  33.219  1.00  0.00     0.001 A 
ATOM     88  C   UNL A   1      42.200  26.792  34.643  1.00  0.00     0.001 A 
ATOM     89  C   UNL A   1      43.184  26.411  33.731  1.00  0.00     0.000 A 
ENDBRANCH  65  84
BRANCH  77  90
ATOM     90  C   UNL A   1      43.432  35.375  35.352  1.00  0.00    -0.014 A 
ATOM     91  C   UNL A   1      44.605  36.143  35.425  1.00  0.00     0.009 A 
ATOM     92  C   UNL A   1      42.644  35.478  34.191  1.00  0.00     0.009 A 
ATOM     93  C   UNL A   1      44.971  36.997  34.380  1.00  0.00     0.001 A 
ATOM     94  C   UNL A   1      43.024  36.314  33.135  1.00  0.00     0.001 A 
ATOM     95  C   UNL A   1      44.181  37.082  33.235  1.00  0.00     0.000 A 
ENDBRANCH  77  90
ENDBRANCH  51  52
ENDBRANCH  43  46
ENDBRANCH  41  42
ENDBRANCH  40  41
ENDBRANCH  39  40
ENDBRANCH   1  39
TORSDOF 17
ENDMDL
MODEL 2
REMARK VINA RESULT:     -11.7      3.415      6.092
REMARK SMILES COc1ccc2c(c1)c(Cc1nc(-c3ccc(C(=O)NCCCCNC(=O)c4ccc(-c5c6nc(c(-c7ccccc7)c7ccc([nH]7)c(-c7ccccc7)c7nc(c(-c8ccccc8)c8ccc5[nH]8)C=C7)C=C6)cc4)cc3)cs1)c(C)n2C(=O)c1ccc(Cl)cc1
REMARK SMILES IDX 21 1 20 2 18 3 19 4 17 6 14 7 15 8 77 9 16 10 76 11 13 12
REMARK SMILES IDX 11 13 12 14 79 15 78 16 10 17 9 18 3 19 4 20 8 21 5 22 7 23
REMARK SMILES IDX 6 24 82 25 80 26 81 27 2 28 1 29 83 30 84 31 85 32 86 33
REMARK SMILES IDX 91 34 87 35 90 36 88 37 89 38 22 39 23 40 24 41 25 42 26 43
REMARK SMILES IDX 27 45 28 46 29 47 75 48 30 49 74 50 31 51 32 52 33 53 68 54
REMARK SMILES IDX 34 55 73 56 67 57 69 58 35 59 72 60 66 61 65 62 36 64 58 65
REMARK SMILES IDX 43 66 57 67 44 68 47 69 56 70 70 71 45 72 46 73 55 75 71 76
REMARK SMILES IDX 48 77 37 78 38 79 42 80 39 81 41 82 40 83 59 84 60 85 64 86
REMARK SMILES IDX 61 87 63 88 62 89 49 90 50 91 54 92 51 93 53 94 52 95
REMARK H PARENT 20 5 25 44 69 63 47 74
REMARK Flexibility Score: inf
ROOT
ATOM      1  C   UNL A   1      36.746  32.923  28.374  1.00  0.00     0.116 C 
ENDROOT
BRANCH   1   2
ATOM      2  N   UNL A   1      36.692  31.750  29.227  1.00  0.00    -0.352 N 
ATOM      3  C   UNL A   1      36.003  30.567  29.077  1.00  0.00     0.251 C 
ATOM      4  O   UNL A   1      36.133  29.697  29.937  1.00  0.00    -0.269 OA
ATOM      5  H   UNL A   1      37.238  31.808  30.044  1.00  0.00     0.163 HD
BRANCH   3   6
ATOM      6  C   UNL A   1      35.044  30.355  27.960  1.00  0.00     0.039 A 
ATOM      7  C   UNL A   1      33.125  29.601  26.049  1.00  0.00     0.001 A 
ATOM      8  C   UNL A   1      34.350  28.929  26.120  1.00  0.00     0.011 A 
ATOM      9  C   UNL A   1      32.931  30.735  26.848  1.00  0.00     0.011 A 
ATOM     10  C   UNL A   1      35.301  29.300  27.076  1.00  0.00     0.014 A 
ATOM     11  C   UNL A   1      33.900  31.132  27.771  1.00  0.00     0.014 A 
BRANCH   7  12
ATOM     12  C   UNL A   1      32.064  29.178  25.149  1.00  0.00     0.081 A 
ATOM     13  C   UNL A   1      30.959  27.676  23.961  1.00  0.00     0.098 A 
ATOM     14  N   UNL A   1      32.074  27.908  24.618  1.00  0.00    -0.241 NA
ATOM     15  S   UNL A   1      29.948  29.046  23.741  1.00  0.00    -0.126 S 
ATOM     16  C   UNL A   1      31.018  29.970  24.720  1.00  0.00     0.095 A 
BRANCH  13  17
ATOM     17  C   UNL A   1      30.560  26.315  23.475  1.00  0.00     0.105 C 
BRANCH  17  18
ATOM     18  C   UNL A   1      31.595  25.280  23.847  1.00  0.00    -0.012 A 
ATOM     19  C   UNL A   1      30.687  23.198  26.928  1.00  0.00     0.119 A 
ATOM     20  C   UNL A   1      31.860  22.469  26.967  1.00  0.00     0.048 A 
ATOM     21  C   UNL A   1      30.510  24.155  25.930  1.00  0.00     0.057 A 
ATOM     22  C   UNL A   1      32.869  22.689  26.022  1.00  0.00     0.031 A 
ATOM     23  C   UNL A   1      31.501  24.374  24.943  1.00  0.00     0.008 A 
ATOM     24  C   UNL A   1      32.669  23.609  24.967  1.00  0.00     0.057 A 
ATOM     25  N   UNL A   1      33.443  23.954  23.840  1.00  0.00    -0.280 N 
ATOM     26  C   UNL A   1      32.795  25.022  23.195  1.00  0.00     0.028 A 
ATOM     27  C   UNL A   1      33.289  25.748  21.983  1.00  0.00     0.065 C 
BRANCH  19  28
ATOM     28  O   UNL A   1      29.635  23.033  27.788  1.00  0.00    -0.497 OA
ATOM     29  C   UNL A   1      28.604  22.178  27.307  1.00  0.00     0.278 C 
ENDBRANCH  19  28
BRANCH  25  30
ATOM     30  C   UNL A   1      34.663  23.330  23.440  1.00  0.00     0.262 C 
ATOM     31  O   UNL A   1      34.831  23.027  22.258  1.00  0.00    -0.268 OA
BRANCH  30  32
ATOM     32  C   UNL A   1      35.802  23.034  24.325  1.00  0.00     0.040 A 
ATOM     33  C   UNL A   1      36.318  24.007  25.190  1.00  0.00     0.015 A 
ATOM     34  C   UNL A   1      36.383  21.763  24.248  1.00  0.00     0.015 A 
ATOM     35  C   UNL A   1      37.484  23.730  25.909  1.00  0.00     0.021 A 
ATOM     36  C   UNL A   1      37.541  21.489  24.976  1.00  0.00     0.021 A 
ATOM     37  C   UNL A   1      38.098  22.481  25.785  1.00  0.00     0.041 A 
ATOM     38  Cl  UNL A   1      39.571  22.169  26.616  1.00  0.00    -0.084 Cl
ENDBRANCH  30  32
ENDBRANCH  25  30
ENDBRANCH  17  18
ENDBRANCH  13  17
ENDBRANCH   7  12
ENDBRANCH   3   6
ENDBRANCH   1   2
BRANCH   1  39
ATOM     39  C   UNL A   1      36.125  34.173  28.980  1.00  0.00     0.023 C 
BRANCH  39  40
ATOM     40  C   UNL A   1      34.609  34.309  28.878  1.00  0.00     0.023 C 
BRANCH  40  41
ATOM     41  C   UNL A   1      33.969  35.416  29.719  1.00  0.00     0.116 C 
BRANCH  41  42
ATOM     42  N   UNL A   1      33.238  34.960  30.885  1.00  0.00    -0.352 N 
ATOM     43  C   UNL A   1      33.592  34.561  32.143  1.00  0.00     0.251 C 
ATOM     44  H   UNL A   1      32.265  34.933  30.736  1.00  0.00     0.163 HD
ATOM     45  O   UNL A   1      32.676  34.475  32.966  1.00  0.00    -0.269 OA
BRANCH  43  46
ATOM     46  C   UNL A   1      34.955  34.131  32.551  1.00  0.00     0.039 A 
ATOM     47  C   UNL A   1      35.962  34.985  32.992  1.00  0.00     0.014 A 
ATOM     48  C   UNL A   1      35.268  32.777  32.329  1.00  0.00     0.014 A 
ATOM     49  C   UNL A   1      37.280  34.554  33.019  1.00  0.00     0.010 A 
ATOM     50  C   UNL A   1      36.579  32.326  32.395  1.00  0.00     0.010 A 
ATOM     51  C   UNL A   1      37.591  33.243  32.649  1.00  0.00    -0.014 A 
BRANCH  51  52
ATOM     52  C   UNL A   1      39.003  32.899  32.547  1.00  0.00     0.031 A 
ATOM     53  C   UNL A   1      39.450  31.748  33.380  1.00  0.00     0.074 A 
ATOM     54  C   UNL A   1      39.858  33.553  31.737  1.00  0.00     0.049 A 
ATOM     55  N   UNL A   1      40.335  31.739  34.324  1.00  0.00    -0.248 NA
ATOM     56  C   UNL A   1      38.748  30.470  33.197  1.00  0.00     0.031 C 
ATOM     57  C   UNL A   1      39.559  34.527  30.684  1.00  0.00     0.029 A 
ATOM     58  N   UNL A   1      41.205  33.388  31.629  1.00  0.00    -0.354 N 
ATOM     59  C   UNL A   1      40.404  30.423  34.775  1.00  0.00     0.074 A 
ATOM     60  C   UNL A   1      39.338  29.708  34.117  1.00  0.00     0.031 C 
ATOM     61  C   UNL A   1      40.645  34.668  29.888  1.00  0.00     0.029 A 
ATOM     62  C   UNL A   1      41.748  33.926  30.474  1.00  0.00     0.049 A 
ATOM     63  H   UNL A   1      41.744  32.928  32.311  1.00  0.00     0.167 HD
ATOM     64  C   UNL A   1      41.427  29.962  35.546  1.00  0.00     0.031 A 
ATOM     65  C   UNL A   1      42.996  33.708  29.996  1.00  0.00     0.031 A 
ATOM     66  C   UNL A   1      42.160  31.023  36.175  1.00  0.00     0.049 A 
ATOM     67  C   UNL A   1      43.836  33.250  31.126  1.00  0.00     0.074 A 
ATOM     68  C   UNL A   1      41.859  31.975  37.128  1.00  0.00     0.029 A 
ATOM     69  N   UNL A   1      43.326  31.443  35.583  1.00  0.00    -0.354 N 
ATOM     70  N   UNL A   1      44.147  34.005  32.141  1.00  0.00    -0.248 NA
ATOM     71  C   UNL A   1      43.971  31.820  31.348  1.00  0.00     0.031 C 
ATOM     72  C   UNL A   1      42.567  33.140  36.716  1.00  0.00     0.029 A 
ATOM     73  C   UNL A   1      43.296  32.814  35.571  1.00  0.00     0.049 A 
ATOM     74  H   UNL A   1      44.044  30.868  35.233  1.00  0.00     0.167 HD
ATOM     75  C   UNL A   1      44.101  33.160  33.240  1.00  0.00     0.074 A 
ATOM     76  C   UNL A   1      44.086  31.812  32.679  1.00  0.00     0.031 C 
ATOM     77  C   UNL A   1      43.801  33.631  34.488  1.00  0.00     0.031 A 
BRANCH  64  78
ATOM     78  C   UNL A   1      41.944  28.550  35.483  1.00  0.00    -0.014 A 
ATOM     79  C   UNL A   1      41.487  27.536  36.346  1.00  0.00     0.009 A 
ATOM     80  C   UNL A   1      42.711  28.141  34.378  1.00  0.00     0.009 A 
ATOM     81  C   UNL A   1      41.776  26.188  36.127  1.00  0.00     0.001 A 
ATOM     82  C   UNL A   1      42.969  26.787  34.131  1.00  0.00     0.001 A 
ATOM     83  C   UNL A   1      42.498  25.811  35.005  1.00  0.00     0.000 A 
ENDBRANCH  64  78
BRANCH  65  84
ATOM     84  C   UNL A   1      43.346  33.432  28.585  1.00  0.00    -0.014 A 
ATOM     85  C   UNL A   1      43.795  32.150  28.215  1.00  0.00     0.009 A 
ATOM     86  C   UNL A   1      43.512  34.476  27.664  1.00  0.00     0.009 A 
ATOM     87  C   UNL A   1      44.417  31.922  26.984  1.00  0.00     0.001 A 
ATOM     88  C   UNL A   1      44.135  34.247  26.429  1.00  0.00     0.001 A 
ATOM     89  C   UNL A   1      44.599  32.975  26.097  1.00  0.00     0.000 A 
ENDBRANCH  65  84
BRANCH  77  90
ATOM     90  C   UNL A   1      43.696  35.128  34.683  1.00  0.00    -0.014 A 
ATOM     91  C   UNL A   1      42.455  35.747  34.468  1.00  0.00     0.009 A 
ATOM     92  C   UNL A   1      44.822  35.950  34.868  1.00  0.00     0.009 A 
ATOM     93  C   UNL A   1      42.344  37.140  34.423  1.00  0.00     0.001 A 
ATOM     94  C   UNL A   1      44.707  37.345  34.847  1.00  0.00     0.001 A 
ATOM     95  C   UNL A   1      43.469  37.939  34.613  1.00  0.00     0.000 A 
ENDBRANCH  77  90
ENDBRANCH  51  52
ENDBRANCH  43  46
ENDBRANCH  41  42
ENDBRANCH  40  41
ENDBRANCH  39  40
ENDBRANCH   1  39
TORSDOF 17
ENDMDL
MODEL 3
REMARK VINA RESULT:     -11.6      6.283     12.591
REMARK SMILES COc1ccc2c(c1)c(Cc1nc(-c3ccc(C(=O)NCCCCNC(=O)c4ccc(-c5c6nc(c(-c7ccccc7)c7ccc([nH]7)c(-c7ccccc7)c7nc(c(-c8ccccc8)c8ccc5[nH]8)C=C7)C=C6)cc4)cc3)cs1)c(C)n2C(=O)c1ccc(Cl)cc1
REMARK SMILES IDX 21 1 20 2 18 3 19 4 17 6 14 7 15 8 77 9 16 10 76 11 13 12
REMARK SMILES IDX 11 13 12 14 79 15 78 16 10 17 9 18 3 19 4 20 8 21 5 22 7 23
REMARK SMILES IDX 6 24 82 25 80 26 81 27 2 28 1 29 83 30 84 31 85 32 86 33
REMARK SMILES IDX 91 34 87 35 90 36 88 37 89 38 22 39 23 40 24 41 25 42 26 43
REMARK SMILES IDX 27 45 28 46 29 47 75 48 30 49 74 50 31 51 32 52 33 53 68 54
REMARK SMILES IDX 34 55 73 56 67 57 69 58 35 59 72 60 66 61 65 62 36 64 58 65
REMARK SMILES IDX 43 66 57 67 44 68 47 69 56 70 70 71 45 72 46 73 55 75 71 76
REMARK SMILES IDX 48 77 37 78 38 79 42 80 39 81 41 82 40 83 59 84 60 85 64 86
REMARK SMILES IDX 61 87 63 88 62 89 49 90 50 91 54 92 51 93 53 94 52 95
REMARK H PARENT 20 5 25 44 69 63 47 74
REMARK Flexibility Score: inf
ROOT
ATOM      1  C   UNL A   1      46.261  23.652  25.668  1.00  0.00     0.116 C 
ENDROOT
BRANCH   1   2
ATOM      2  N   UNL A   1      46.396  24.864  24.880  1.00  0.00    -0.352 N 
ATOM      3  C   UNL A   1      46.541  26.175  25.275  1.00  0.00     0.251 C 
ATOM      4  O   UNL A   1      46.658  27.041  24.410  1.00  0.00    -0.269 OA
ATOM      5  H   UNL A   1      46.382  24.726  23.905  1.00  0.00     0.163 HD
BRANCH   3   6
ATOM      6  C   UNL A   1      46.468  26.574  26.707  1.00  0.00     0.039 A 
ATOM      7  C   UNL A   1      46.078  26.995  29.458  1.00  0.00     0.001 A 
ATOM      8  C   UNL A   1      45.048  27.267  28.552  1.00  0.00     0.011 A 
ATOM      9  C   UNL A   1      47.340  26.645  28.960  1.00  0.00     0.011 A 
ATOM     10  C   UNL A   1      45.240  27.051  27.184  1.00  0.00     0.014 A 
ATOM     11  C   UNL A   1      47.543  26.472  27.590  1.00  0.00     0.014 A 
BRANCH   7  12
ATOM     12  C   UNL A   1      45.888  27.097  30.897  1.00  0.00     0.081 A 
ATOM     13  C   UNL A   1      44.789  26.722  32.778  1.00  0.00     0.098 A 
ATOM     14  N   UNL A   1      44.702  26.693  31.467  1.00  0.00    -0.241 NA
ATOM     15  S   UNL A   1      46.210  27.463  33.395  1.00  0.00    -0.126 S 
ATOM     16  C   UNL A   1      46.803  27.620  31.789  1.00  0.00     0.095 A 
BRANCH  13  17
ATOM     17  C   UNL A   1      43.759  26.117  33.684  1.00  0.00     0.105 C 
BRANCH  17  18
ATOM     18  C   UNL A   1      44.341  24.976  34.484  1.00  0.00    -0.012 A 
ATOM     19  C   UNL A   1      44.460  25.610  38.256  1.00  0.00     0.119 A 
ATOM     20  C   UNL A   1      45.091  24.426  38.588  1.00  0.00     0.048 A 
ATOM     21  C   UNL A   1      44.172  25.880  36.919  1.00  0.00     0.057 A 
ATOM     22  C   UNL A   1      45.448  23.506  37.595  1.00  0.00     0.031 A 
ATOM     23  C   UNL A   1      44.494  24.953  35.900  1.00  0.00     0.008 A 
ATOM     24  C   UNL A   1      45.100  23.742  36.245  1.00  0.00     0.057 A 
ATOM     25  N   UNL A   1      45.231  22.967  35.074  1.00  0.00    -0.280 N 
ATOM     26  C   UNL A   1      44.813  23.764  33.993  1.00  0.00     0.028 A 
ATOM     27  C   UNL A   1      44.834  23.369  32.549  1.00  0.00     0.065 C 
BRANCH  19  28
ATOM     28  O   UNL A   1      44.047  26.554  39.157  1.00  0.00    -0.497 OA
ATOM     29  C   UNL A   1      44.859  26.655  40.323  1.00  0.00     0.278 C 
ENDBRANCH  19  28
BRANCH  25  30
ATOM     30  C   UNL A   1      45.709  21.624  35.009  1.00  0.00     0.262 C 
ATOM     31  O   UNL A   1      44.911  20.691  35.112  1.00  0.00    -0.268 OA
BRANCH  30  32
ATOM     32  C   UNL A   1      47.108  21.224  34.785  1.00  0.00     0.040 A 
ATOM     33  C   UNL A   1      48.162  21.886  35.426  1.00  0.00     0.015 A 
ATOM     34  C   UNL A   1      47.359  20.188  33.878  1.00  0.00     0.015 A 
ATOM     35  C   UNL A   1      49.478  21.568  35.079  1.00  0.00     0.021 A 
ATOM     36  C   UNL A   1      48.674  19.867  33.544  1.00  0.00     0.021 A 
ATOM     37  C   UNL A   1      49.727  20.573  34.129  1.00  0.00     0.041 A 
ATOM     38  Cl  UNL A   1      51.344  20.234  33.653  1.00  0.00    -0.084 Cl
ENDBRANCH  30  32
ENDBRANCH  25  30
ENDBRANCH  17  18
ENDBRANCH  13  17
ENDBRANCH   7  12
ENDBRANCH   3   6
ENDBRANCH   1   2
BRANCH   1  39
ATOM     39  C   UNL A   1      44.914  23.492  26.357  1.00  0.00     0.023 C 
BRANCH  39  40
ATOM     40  C   UNL A   1      44.092  22.262  25.985  1.00  0.00     0.023 C 
BRANCH  40  41
ATOM     41  C   UNL A   1      42.787  22.521  25.230  1.00  0.00     0.116 C 
BRANCH  41  42
ATOM     42  N   UNL A   1      41.581  22.413  26.027  1.00  0.00    -0.352 N 
ATOM     43  C   UNL A   1      40.779  23.307  26.680  1.00  0.00     0.251 C 
ATOM     44  H   UNL A   1      41.267  21.484  26.117  1.00  0.00     0.163 HD
ATOM     45  O   UNL A   1      39.683  22.883  27.056  1.00  0.00    -0.269 OA
BRANCH  43  46
ATOM     46  C   UNL A   1      41.171  24.691  27.053  1.00  0.00     0.039 A 
ATOM     47  C   UNL A   1      41.784  25.052  28.250  1.00  0.00     0.014 A 
ATOM     48  C   UNL A   1      40.751  25.710  26.177  1.00  0.00     0.014 A 
ATOM     49  C   UNL A   1      41.798  26.379  28.654  1.00  0.00     0.010 A 
ATOM     50  C   UNL A   1      40.800  27.044  26.556  1.00  0.00     0.010 A 
ATOM     51  C   UNL A   1      41.239  27.362  27.835  1.00  0.00    -0.014 A 
BRANCH  51  52
ATOM     52  C   UNL A   1      41.144  28.709  28.383  1.00  0.00     0.031 A 
ATOM     53  C   UNL A   1      42.310  29.597  28.123  1.00  0.00     0.074 A 
ATOM     54  C   UNL A   1      40.066  29.147  29.062  1.00  0.00     0.049 A 
ATOM     55  N   UNL A   1      43.094  30.161  28.983  1.00  0.00    -0.248 NA
ATOM     56  C   UNL A   1      42.704  29.800  26.721  1.00  0.00     0.031 C 
ATOM     57  C   UNL A   1      38.751  28.514  29.202  1.00  0.00     0.029 A 
ATOM     58  N   UNL A   1      39.902  30.338  29.699  1.00  0.00    -0.354 N 
ATOM     59  C   UNL A   1      44.011  30.902  28.241  1.00  0.00     0.074 A 
ATOM     60  C   UNL A   1      43.787  30.564  26.857  1.00  0.00     0.031 C 
ATOM     61  C   UNL A   1      37.864  29.430  29.653  1.00  0.00     0.029 A 
ATOM     62  C   UNL A   1      38.582  30.648  29.984  1.00  0.00     0.049 A 
ATOM     63  H   UNL A   1      40.654  30.927  29.935  1.00  0.00     0.167 HD
ATOM     64  C   UNL A   1      44.799  31.865  28.795  1.00  0.00     0.031 A 
ATOM     65  C   UNL A   1      38.109  31.850  30.389  1.00  0.00     0.031 A 
ATOM     66  C   UNL A   1      44.895  31.742  30.221  1.00  0.00     0.049 A 
ATOM     67  C   UNL A   1      39.243  32.607  30.968  1.00  0.00     0.074 A 
ATOM     68  C   UNL A   1      45.429  30.799  31.077  1.00  0.00     0.029 A 
ATOM     69  N   UNL A   1      44.078  32.528  30.995  1.00  0.00    -0.354 N 
ATOM     70  N   UNL A   1      39.851  32.260  32.066  1.00  0.00    -0.248 NA
ATOM     71  C   UNL A   1      39.987  33.504  30.100  1.00  0.00     0.031 C 
ATOM     72  C   UNL A   1      44.532  30.761  32.183  1.00  0.00     0.029 A 
ATOM     73  C   UNL A   1      43.539  31.717  31.960  1.00  0.00     0.049 A 
ATOM     74  H   UNL A   1      43.910  33.491  30.877  1.00  0.00     0.167 HD
ATOM     75  C   UNL A   1      41.190  32.534  31.833  1.00  0.00     0.074 A 
ATOM     76  C   UNL A   1      41.199  33.389  30.648  1.00  0.00     0.031 C 
ATOM     77  C   UNL A   1      42.181  31.824  32.450  1.00  0.00     0.031 A 
BRANCH  64  78
ATOM     78  C   UNL A   1      45.238  33.103  28.060  1.00  0.00    -0.014 A 
ATOM     79  C   UNL A   1      46.502  33.214  27.450  1.00  0.00     0.009 A 
ATOM     80  C   UNL A   1      44.291  34.090  27.736  1.00  0.00     0.009 A 
ATOM     81  C   UNL A   1      46.811  34.249  26.566  1.00  0.00     0.001 A 
ATOM     82  C   UNL A   1      44.583  35.107  26.818  1.00  0.00     0.001 A 
ATOM     83  C   UNL A   1      45.843  35.183  26.232  1.00  0.00     0.000 A 
ENDBRANCH  64  78
BRANCH  65  84
ATOM     84  C   UNL A   1      36.888  32.515  29.881  1.00  0.00    -0.014 A 
ATOM     85  C   UNL A   1      35.839  32.820  30.770  1.00  0.00     0.009 A 
ATOM     86  C   UNL A   1      36.627  32.596  28.507  1.00  0.00     0.009 A 
ATOM     87  C   UNL A   1      34.566  33.163  30.306  1.00  0.00     0.001 A 
ATOM     88  C   UNL A   1      35.350  32.940  28.041  1.00  0.00     0.001 A 
ATOM     89  C   UNL A   1      34.318  33.209  28.940  1.00  0.00     0.000 A 
ENDBRANCH  65  84
BRANCH  77  90
ATOM     90  C   UNL A   1      41.790  30.846  33.537  1.00  0.00    -0.014 A 
ATOM     91  C   UNL A   1      42.089  31.169  34.870  1.00  0.00     0.009 A 
ATOM     92  C   UNL A   1      41.331  29.545  33.258  1.00  0.00     0.009 A 
ATOM     93  C   UNL A   1      41.949  30.221  35.888  1.00  0.00     0.001 A 
ATOM     94  C   UNL A   1      41.167  28.604  34.281  1.00  0.00     0.001 A 
ATOM     95  C   UNL A   1      41.488  28.939  35.594  1.00  0.00     0.000 A 
ENDBRANCH  77  90
ENDBRANCH  51  52
ENDBRANCH  43  46
ENDBRANCH  41  42
ENDBRANCH  40  41
ENDBRANCH  39  40
ENDBRANCH   1  39
TORSDOF 17
ENDMDL
