MODEL 1
REMARK VINA RESULT:     -12.8      0.000      0.000
REMARK SMILES Cc1ccc(-c2cc(C(=O)NCCCCNC(=O)c3ccc(-c4c5nc(c(-c6ccccc6)c6ccc([nH]6)c(-c6ccccc6)c6nc(c(-c7ccccc7)c7ccc4[nH]7)C=C6)C=C5)cc3)c3cc(C)ccc3n2)c(C)c1
REMARK SMILES IDX 14 1 13 2 12 3 11 4 9 5 10 6 8 8 6 9 7 10 74 11 73 12 67 13
REMARK SMILES IDX 72 14 68 15 71 16 69 17 70 18 5 19 1 20 2 21 3 22 77 23 4 24
REMARK SMILES IDX 75 25 76 26 15 27 16 28 17 29 18 31 19 32 20 33 66 34 21 35
REMARK SMILES IDX 65 36 22 37 23 38 24 39 59 40 25 41 64 42 58 43 60 44 26 45
REMARK SMILES IDX 63 46 57 47 56 48 27 50 49 51 34 52 48 53 35 54 38 55 47 56
REMARK SMILES IDX 61 57 36 58 37 59 46 61 62 62 39 63 28 64 29 65 33 66 30 67
REMARK SMILES IDX 32 68 31 69 50 70 51 71 55 72 52 73 54 74 53 75 40 76 41 77
REMARK SMILES IDX 45 78 42 79 44 80 43 81
REMARK H PARENT 11 7 16 30 60 49 38 60
REMARK Flexibility Score: inf
ROOT
ATOM      1  C   UNL A   1      37.875  19.811  24.744  1.00  0.00     0.023 C 
ENDROOT
BRANCH   1   2
ATOM      2  C   UNL A   1      36.462  20.328  25.002  1.00  0.00     0.023 C 
BRANCH   2   3
ATOM      3  C   UNL A   1      36.338  21.744  25.540  1.00  0.00     0.116 C 
BRANCH   3   4
ATOM      4  N   UNL A   1      35.510  21.944  26.716  1.00  0.00    -0.352 N 
ATOM      5  C   UNL A   1      34.131  22.019  26.829  1.00  0.00     0.252 C 
ATOM      6  O   UNL A   1      33.646  22.108  27.957  1.00  0.00    -0.269 OA
ATOM      7  H   UNL A   1      36.004  22.042  27.562  1.00  0.00     0.163 HD
BRANCH   5   8
ATOM      8  C   UNL A   1      33.216  22.106  25.647  1.00  0.00     0.051 A 
ATOM      9  C   UNL A   1      32.103  23.565  24.109  1.00  0.00     0.072 A 
ATOM     10  C   UNL A   1      32.817  23.399  25.284  1.00  0.00     0.043 A 
ATOM     11  N   UNL A   1      31.903  22.545  23.243  1.00  0.00    -0.248 NA
ATOM     12  C   UNL A   1      32.255  21.305  23.604  1.00  0.00     0.072 A 
ATOM     13  C   UNL A   1      32.795  21.010  24.866  1.00  0.00     0.013 A 
ATOM     14  C   UNL A   1      32.097  20.273  22.689  1.00  0.00     0.029 A 
ATOM     15  C   UNL A   1      32.902  19.653  25.242  1.00  0.00     0.014 A 
ATOM     16  C   UNL A   1      32.435  18.954  23.002  1.00  0.00     0.005 A 
ATOM     17  C   UNL A   1      32.820  18.628  24.298  1.00  0.00    -0.050 A 
ATOM     18  C   UNL A   1      33.302  17.250  24.644  1.00  0.00     0.044 C 
BRANCH   9  19
ATOM     19  C   UNL A   1      31.454  24.835  23.744  1.00  0.00     0.003 A 
ATOM     20  C   UNL A   1      29.522  28.589  22.743  1.00  0.00     0.044 C 
ATOM     21  C   UNL A   1      30.174  27.284  23.092  1.00  0.00    -0.051 A 
ATOM     22  C   UNL A   1      29.532  26.343  23.899  1.00  0.00     0.004 A 
ATOM     23  C   UNL A   1      31.453  26.997  22.609  1.00  0.00     0.007 A 
ATOM     24  C   UNL A   1      30.165  25.135  24.221  1.00  0.00     0.011 A 
ATOM     25  C   UNL A   1      32.098  25.783  22.913  1.00  0.00    -0.041 A 
ATOM     26  C   UNL A   1      33.482  25.577  22.352  1.00  0.00     0.045 C 
ENDBRANCH   9  19
ENDBRANCH   5   8
ENDBRANCH   3   4
ENDBRANCH   2   3
ENDBRANCH   1   2
BRANCH   1  27
ATOM     27  C   UNL A   1      38.938  20.097  25.801  1.00  0.00     0.116 C 
BRANCH  27  28
ATOM     28  N   UNL A   1      40.093  19.210  25.764  1.00  0.00    -0.352 N 
ATOM     29  C   UNL A   1      41.403  19.432  26.123  1.00  0.00     0.251 C 
ATOM     30  H   UNL A   1      39.904  18.304  25.428  1.00  0.00     0.163 HD
ATOM     31  O   UNL A   1      42.231  18.535  25.975  1.00  0.00    -0.269 OA
BRANCH  29  32
ATOM     32  C   UNL A   1      41.838  20.750  26.641  1.00  0.00     0.039 A 
ATOM     33  C   UNL A   1      42.251  21.729  25.731  1.00  0.00     0.014 A 
ATOM     34  C   UNL A   1      41.836  21.034  28.007  1.00  0.00     0.014 A 
ATOM     35  C   UNL A   1      42.581  23.009  26.187  1.00  0.00     0.010 A 
ATOM     36  C   UNL A   1      42.058  22.336  28.447  1.00  0.00     0.010 A 
ATOM     37  C   UNL A   1      42.448  23.338  27.545  1.00  0.00    -0.014 A 
BRANCH  37  38
ATOM     38  C   UNL A   1      42.747  24.708  28.041  1.00  0.00     0.031 A 
ATOM     39  C   UNL A   1      44.170  25.125  28.305  1.00  0.00     0.074 A 
ATOM     40  C   UNL A   1      41.741  25.570  28.293  1.00  0.00     0.049 A 
ATOM     41  N   UNL A   1      44.631  26.276  28.730  1.00  0.00    -0.248 NA
ATOM     42  C   UNL A   1      45.212  24.107  28.091  1.00  0.00     0.031 C 
ATOM     43  C   UNL A   1      40.314  25.285  28.127  1.00  0.00     0.029 A 
ATOM     44  N   UNL A   1      41.769  26.871  28.731  1.00  0.00    -0.354 N 
ATOM     45  C   UNL A   1      46.007  26.113  28.843  1.00  0.00     0.074 A 
ATOM     46  C   UNL A   1      46.296  24.733  28.518  1.00  0.00     0.031 C 
ATOM     47  C   UNL A   1      39.609  26.393  28.405  1.00  0.00     0.029 A 
ATOM     48  C   UNL A   1      40.527  27.455  28.805  1.00  0.00     0.049 A 
ATOM     49  H   UNL A   1      42.601  27.341  28.971  1.00  0.00     0.167 HD
ATOM     50  C   UNL A   1      46.954  27.030  29.153  1.00  0.00     0.031 A 
ATOM     51  C   UNL A   1      40.169  28.709  29.141  1.00  0.00     0.031 A 
ATOM     52  C   UNL A   1      46.674  28.402  29.474  1.00  0.00     0.049 A 
ATOM     53  C   UNL A   1      41.236  29.707  29.500  1.00  0.00     0.074 A 
ATOM     54  C   UNL A   1      47.563  29.421  29.768  1.00  0.00     0.029 A 
ATOM     55  N   UNL A   1      45.402  28.949  29.545  1.00  0.00    -0.354 N 
ATOM     56  N   UNL A   1      42.537  29.554  29.536  1.00  0.00    -0.248 NA
ATOM     57  C   UNL A   1      40.777  31.061  29.845  1.00  0.00     0.031 C 
ATOM     58  C   UNL A   1      46.825  30.574  30.063  1.00  0.00     0.029 A 
ATOM     59  C   UNL A   1      45.481  30.288  29.891  1.00  0.00     0.049 A 
ATOM     60  H   UNL A   1      44.566  28.458  29.375  1.00  0.00     0.167 HD
ATOM     61  C   UNL A   1      43.056  30.801  29.865  1.00  0.00     0.074 A 
ATOM     62  C   UNL A   1      41.927  31.699  30.006  1.00  0.00     0.031 C 
ATOM     63  C   UNL A   1      44.350  31.170  30.026  1.00  0.00     0.031 A 
BRANCH  50  64
ATOM     64  C   UNL A   1      48.385  26.558  29.160  1.00  0.00    -0.014 A 
ATOM     65  C   UNL A   1      48.982  26.068  30.334  1.00  0.00     0.009 A 
ATOM     66  C   UNL A   1      49.148  26.611  27.984  1.00  0.00     0.009 A 
ATOM     67  C   UNL A   1      50.328  25.694  30.342  1.00  0.00     0.001 A 
ATOM     68  C   UNL A   1      50.483  26.202  27.987  1.00  0.00     0.001 A 
ATOM     69  C   UNL A   1      51.077  25.759  29.169  1.00  0.00     0.000 A 
ENDBRANCH  50  64
BRANCH  51  70
ATOM     70  C   UNL A   1      38.740  29.116  29.094  1.00  0.00    -0.014 A 
ATOM     71  C   UNL A   1      38.192  29.640  27.910  1.00  0.00     0.009 A 
ATOM     72  C   UNL A   1      37.919  29.000  30.225  1.00  0.00     0.009 A 
ATOM     73  C   UNL A   1      36.862  30.064  27.870  1.00  0.00     0.001 A 
ATOM     74  C   UNL A   1      36.580  29.398  30.174  1.00  0.00     0.001 A 
ATOM     75  C   UNL A   1      36.056  29.939  29.000  1.00  0.00     0.000 A 
ENDBRANCH  51  70
BRANCH  63  76
ATOM     76  C   UNL A   1      44.618  32.623  30.315  1.00  0.00    -0.014 A 
ATOM     77  C   UNL A   1      44.746  33.103  31.628  1.00  0.00     0.009 A 
ATOM     78  C   UNL A   1      44.762  33.521  29.246  1.00  0.00     0.009 A 
ATOM     79  C   UNL A   1      44.964  34.463  31.863  1.00  0.00     0.001 A 
ATOM     80  C   UNL A   1      45.014  34.873  29.484  1.00  0.00     0.001 A 
ATOM     81  C   UNL A   1      45.101  35.345  30.793  1.00  0.00     0.000 A 
ENDBRANCH  63  76
ENDBRANCH  37  38
ENDBRANCH  29  32
ENDBRANCH  27  28
ENDBRANCH   1  27
TORSDOF 12
ENDMDL
MODEL 2
REMARK VINA RESULT:     -12.8      4.557      9.770
REMARK SMILES Cc1ccc(-c2cc(C(=O)NCCCCNC(=O)c3ccc(-c4c5nc(c(-c6ccccc6)c6ccc([nH]6)c(-c6ccccc6)c6nc(c(-c7ccccc7)c7ccc4[nH]7)C=C6)C=C5)cc3)c3cc(C)ccc3n2)c(C)c1
REMARK SMILES IDX 14 1 13 2 12 3 11 4 9 5 10 6 8 8 6 9 7 10 74 11 73 12 67 13
REMARK SMILES IDX 72 14 68 15 71 16 69 17 70 18 5 19 1 20 2 21 3 22 77 23 4 24
REMARK SMILES IDX 75 25 76 26 15 27 16 28 17 29 18 31 19 32 20 33 66 34 21 35
REMARK SMILES IDX 65 36 22 37 23 38 24 39 59 40 25 41 64 42 58 43 60 44 26 45
REMARK SMILES IDX 63 46 57 47 56 48 27 50 49 51 34 52 48 53 35 54 38 55 47 56
REMARK SMILES IDX 61 57 36 58 37 59 46 61 62 62 39 63 28 64 29 65 33 66 30 67
REMARK SMILES IDX 32 68 31 69 50 70 51 71 55 72 52 73 54 74 53 75 40 76 41 77
REMARK SMILES IDX 45 78 42 79 44 80 43 81
REMARK H PARENT 11 7 16 30 60 49 38 60
REMARK Flexibility Score: inf
ROOT
ATOM      1  C   UNL A   1      31.177  31.940  26.759  1.00  0.00     0.023 C 
ENDROOT
BRANCH   1   2
ATOM      2  C   UNL A   1      31.278  30.837  25.709  1.00  0.00     0.023 C 
BRANCH   2   3
ATOM      3  C   UNL A   1      32.464  29.892  25.820  1.00  0.00     0.116 C 
BRANCH   3   4
ATOM      4  N   UNL A   1      33.278  29.698  24.633  1.00  0.00    -0.352 N 
ATOM      5  C   UNL A   1      33.063  28.884  23.532  1.00  0.00     0.252 C 
ATOM      6  O   UNL A   1      33.862  28.952  22.597  1.00  0.00    -0.269 OA
ATOM      7  H   UNL A   1      34.110  30.224  24.607  1.00  0.00     0.163 HD
BRANCH   5   8
ATOM      8  C   UNL A   1      31.977  27.856  23.473  1.00  0.00     0.051 A 
ATOM      9  C   UNL A   1      31.373  25.585  23.937  1.00  0.00     0.072 A 
ATOM     10  C   UNL A   1      32.358  26.552  23.815  1.00  0.00     0.043 A 
ATOM     11  N   UNL A   1      30.057  25.893  23.872  1.00  0.00    -0.248 NA
ATOM     12  C   UNL A   1      29.694  27.131  23.514  1.00  0.00     0.072 A 
ATOM     13  C   UNL A   1      30.626  28.121  23.166  1.00  0.00     0.013 A 
ATOM     14  C   UNL A   1      28.344  27.454  23.502  1.00  0.00     0.029 A 
ATOM     15  C   UNL A   1      30.145  29.307  22.568  1.00  0.00     0.014 A 
ATOM     16  C   UNL A   1      27.894  28.723  23.130  1.00  0.00     0.005 A 
ATOM     17  C   UNL A   1      28.795  29.658  22.634  1.00  0.00    -0.050 A 
ATOM     18  C   UNL A   1      28.372  31.066  22.335  1.00  0.00     0.044 C 
BRANCH   9  19
ATOM     19  C   UNL A   1      31.677  24.152  24.077  1.00  0.00     0.003 A 
ATOM     20  C   UNL A   1      32.631  19.935  24.445  1.00  0.00     0.044 C 
ATOM     21  C   UNL A   1      32.296  21.390  24.301  1.00  0.00    -0.051 A 
ATOM     22  C   UNL A   1      32.229  22.002  23.048  1.00  0.00     0.004 A 
ATOM     23  C   UNL A   1      32.050  22.161  25.441  1.00  0.00     0.007 A 
ATOM     24  C   UNL A   1      31.924  23.364  22.939  1.00  0.00     0.011 A 
ATOM     25  C   UNL A   1      31.730  23.528  25.347  1.00  0.00    -0.041 A 
ATOM     26  C   UNL A   1      31.494  24.272  26.638  1.00  0.00     0.045 C 
ENDBRANCH   9  19
ENDBRANCH   5   8
ENDBRANCH   3   4
ENDBRANCH   2   3
ENDBRANCH   1   2
BRANCH   1  27
ATOM     27  C   UNL A   1      32.443  32.729  27.082  1.00  0.00     0.116 C 
BRANCH  27  28
ATOM     28  N   UNL A   1      32.213  34.074  27.592  1.00  0.00    -0.352 N 
ATOM     29  C   UNL A   1      32.931  34.822  28.497  1.00  0.00     0.251 C 
ATOM     30  H   UNL A   1      31.413  34.520  27.229  1.00  0.00     0.163 HD
ATOM     31  O   UNL A   1      32.529  35.941  28.812  1.00  0.00    -0.269 OA
BRANCH  29  32
ATOM     32  C   UNL A   1      34.156  34.281  29.131  1.00  0.00     0.039 A 
ATOM     33  C   UNL A   1      34.024  33.443  30.244  1.00  0.00     0.014 A 
ATOM     34  C   UNL A   1      35.426  34.581  28.639  1.00  0.00     0.014 A 
ATOM     35  C   UNL A   1      35.158  32.847  30.806  1.00  0.00     0.010 A 
ATOM     36  C   UNL A   1      36.539  33.903  29.129  1.00  0.00     0.010 A 
ATOM     37  C   UNL A   1      36.423  33.039  30.228  1.00  0.00    -0.014 A 
BRANCH  37  38
ATOM     38  C   UNL A   1      37.634  32.375  30.782  1.00  0.00     0.031 A 
ATOM     39  C   UNL A   1      38.257  32.876  32.058  1.00  0.00     0.074 A 
ATOM     40  C   UNL A   1      38.200  31.344  30.123  1.00  0.00     0.049 A 
ATOM     41  N   UNL A   1      39.306  32.425  32.701  1.00  0.00    -0.248 NA
ATOM     42  C   UNL A   1      37.639  34.059  32.680  1.00  0.00     0.031 C 
ATOM     43  C   UNL A   1      37.730  30.784  28.853  1.00  0.00     0.029 A 
ATOM     44  N   UNL A   1      39.291  30.574  30.439  1.00  0.00    -0.354 N 
ATOM     45  C   UNL A   1      39.475  33.273  33.789  1.00  0.00     0.074 A 
ATOM     46  C   UNL A   1      38.471  34.309  33.677  1.00  0.00     0.031 C 
ATOM     47  C   UNL A   1      38.493  29.727  28.529  1.00  0.00     0.029 A 
ATOM     48  C   UNL A   1      39.527  29.557  29.544  1.00  0.00     0.049 A 
ATOM     49  H   UNL A   1      39.852  30.734  31.233  1.00  0.00     0.167 HD
ATOM     50  C   UNL A   1      40.358  33.187  34.812  1.00  0.00     0.031 A 
ATOM     51  C   UNL A   1      40.461  28.587  29.550  1.00  0.00     0.031 A 
ATOM     52  C   UNL A   1      41.357  32.159  34.931  1.00  0.00     0.049 A 
ATOM     53  C   UNL A   1      41.445  28.519  30.686  1.00  0.00     0.074 A 
ATOM     54  C   UNL A   1      42.276  31.959  35.946  1.00  0.00     0.029 A 
ATOM     55  N   UNL A   1      41.566  31.155  33.999  1.00  0.00    -0.354 N 
ATOM     56  N   UNL A   1      41.547  29.289  31.742  1.00  0.00    -0.248 NA
ATOM     57  C   UNL A   1      42.430  27.429  30.636  1.00  0.00     0.031 C 
ATOM     58  C   UNL A   1      43.074  30.861  35.603  1.00  0.00     0.029 A 
ATOM     59  C   UNL A   1      42.609  30.339  34.407  1.00  0.00     0.049 A 
ATOM     60  H   UNL A   1      41.049  31.038  33.168  1.00  0.00     0.167 HD
ATOM     61  C   UNL A   1      42.578  28.752  32.503  1.00  0.00     0.074 A 
ATOM     62  C   UNL A   1      43.060  27.585  31.791  1.00  0.00     0.031 C 
ATOM     63  C   UNL A   1      43.076  29.181  33.690  1.00  0.00     0.031 A 
BRANCH  50  64
ATOM     64  C   UNL A   1      40.274  34.246  35.879  1.00  0.00    -0.014 A 
ATOM     65  C   UNL A   1      39.429  34.092  36.991  1.00  0.00     0.009 A 
ATOM     66  C   UNL A   1      41.041  35.416  35.770  1.00  0.00     0.009 A 
ATOM     67  C   UNL A   1      39.311  35.111  37.940  1.00  0.00     0.001 A 
ATOM     68  C   UNL A   1      40.949  36.417  36.739  1.00  0.00     0.001 A 
ATOM     69  C   UNL A   1      40.073  36.270  37.815  1.00  0.00     0.000 A 
ENDBRANCH  50  64
BRANCH  51  70
ATOM     70  C   UNL A   1      40.476  27.558  28.476  1.00  0.00    -0.014 A 
ATOM     71  C   UNL A   1      39.745  26.368  28.627  1.00  0.00     0.009 A 
ATOM     72  C   UNL A   1      41.227  27.747  27.306  1.00  0.00     0.009 A 
ATOM     73  C   UNL A   1      39.788  25.378  27.642  1.00  0.00     0.001 A 
ATOM     74  C   UNL A   1      41.244  26.769  26.309  1.00  0.00     0.001 A 
ATOM     75  C   UNL A   1      40.534  25.581  26.482  1.00  0.00     0.000 A 
ENDBRANCH  51  70
BRANCH  63  76
ATOM     76  C   UNL A   1      44.159  28.348  34.321  1.00  0.00    -0.014 A 
ATOM     77  C   UNL A   1      43.862  27.272  35.171  1.00  0.00     0.009 A 
ATOM     78  C   UNL A   1      45.503  28.641  34.040  1.00  0.00     0.009 A 
ATOM     79  C   UNL A   1      44.891  26.538  35.766  1.00  0.00     0.001 A 
ATOM     80  C   UNL A   1      46.528  27.884  34.608  1.00  0.00     0.001 A 
ATOM     81  C   UNL A   1      46.222  26.842  35.481  1.00  0.00     0.000 A 
ENDBRANCH  63  76
ENDBRANCH  37  38
ENDBRANCH  29  32
ENDBRANCH  27  28
ENDBRANCH   1  27
TORSDOF 12
ENDMDL
MODEL 3
REMARK VINA RESULT:     -12.5      0.407      5.841
REMARK SMILES Cc1ccc(-c2cc(C(=O)NCCCCNC(=O)c3ccc(-c4c5nc(c(-c6ccccc6)c6ccc([nH]6)c(-c6ccccc6)c6nc(c(-c7ccccc7)c7ccc4[nH]7)C=C6)C=C5)cc3)c3cc(C)ccc3n2)c(C)c1
REMARK SMILES IDX 14 1 13 2 12 3 11 4 9 5 10 6 8 8 6 9 7 10 74 11 73 12 67 13
REMARK SMILES IDX 72 14 68 15 71 16 69 17 70 18 5 19 1 20 2 21 3 22 77 23 4 24
REMARK SMILES IDX 75 25 76 26 15 27 16 28 17 29 18 31 19 32 20 33 66 34 21 35
REMARK SMILES IDX 65 36 22 37 23 38 24 39 59 40 25 41 64 42 58 43 60 44 26 45
REMARK SMILES IDX 63 46 57 47 56 48 27 50 49 51 34 52 48 53 35 54 38 55 47 56
REMARK SMILES IDX 61 57 36 58 37 59 46 61 62 62 39 63 28 64 29 65 33 66 30 67
REMARK SMILES IDX 32 68 31 69 50 70 51 71 55 72 52 73 54 74 53 75 40 76 41 77
REMARK SMILES IDX 45 78 42 79 44 80 43 81
REMARK H PARENT 11 7 16 30 60 49 38 60
REMARK Flexibility Score: inf
ROOT
ATOM      1  C   UNL A   1      37.632  20.191  24.719  1.00  0.00     0.023 C 
ENDROOT
BRANCH   1   2
ATOM      2  C   UNL A   1      36.242  20.753  25.006  1.00  0.00     0.023 C 
BRANCH   2   3
ATOM      3  C   UNL A   1      36.178  22.076  25.752  1.00  0.00     0.116 C 
BRANCH   3   4
ATOM      4  N   UNL A   1      35.268  22.165  26.880  1.00  0.00    -0.352 N 
ATOM      5  C   UNL A   1      33.882  22.163  26.904  1.00  0.00     0.252 C 
ATOM      6  O   UNL A   1      33.322  22.162  28.001  1.00  0.00    -0.269 OA
ATOM      7  H   UNL A   1      35.700  22.239  27.761  1.00  0.00     0.163 HD
BRANCH   5   8
ATOM      8  C   UNL A   1      33.041  22.272  25.670  1.00  0.00     0.051 A 
ATOM      9  C   UNL A   1      31.997  23.760  24.111  1.00  0.00     0.072 A 
ATOM     10  C   UNL A   1      32.639  23.568  25.323  1.00  0.00     0.043 A 
ATOM     11  N   UNL A   1      31.873  22.764  23.202  1.00  0.00    -0.248 NA
ATOM     12  C   UNL A   1      32.227  21.520  23.546  1.00  0.00     0.072 A 
ATOM     13  C   UNL A   1      32.692  21.194  24.830  1.00  0.00     0.013 A 
ATOM     14  C   UNL A   1      32.147  20.515  22.592  1.00  0.00     0.029 A 
ATOM     15  C   UNL A   1      32.803  19.828  25.170  1.00  0.00     0.014 A 
ATOM     16  C   UNL A   1      32.491  19.193  22.885  1.00  0.00     0.005 A 
ATOM     17  C   UNL A   1      32.801  18.832  24.191  1.00  0.00    -0.050 A 
ATOM     18  C   UNL A   1      33.288  17.453  24.524  1.00  0.00     0.044 C 
BRANCH   9  19
ATOM     19  C   UNL A   1      31.347  25.028  23.745  1.00  0.00     0.003 A 
ATOM     20  C   UNL A   1      29.409  28.779  22.742  1.00  0.00     0.044 C 
ATOM     21  C   UNL A   1      30.063  27.474  23.092  1.00  0.00    -0.051 A 
ATOM     22  C   UNL A   1      29.414  26.523  23.880  1.00  0.00     0.004 A 
ATOM     23  C   UNL A   1      31.352  27.200  22.628  1.00  0.00     0.007 A 
ATOM     24  C   UNL A   1      30.048  25.317  24.202  1.00  0.00     0.011 A 
ATOM     25  C   UNL A   1      31.999  25.987  22.933  1.00  0.00    -0.041 A 
ATOM     26  C   UNL A   1      33.393  25.794  22.394  1.00  0.00     0.045 C 
ENDBRANCH   9  19
ENDBRANCH   5   8
ENDBRANCH   3   4
ENDBRANCH   2   3
ENDBRANCH   1   2
BRANCH   1  27
ATOM     27  C   UNL A   1      38.730  20.460  25.744  1.00  0.00     0.116 C 
BRANCH  27  28
ATOM     28  N   UNL A   1      39.814  19.487  25.751  1.00  0.00    -0.352 N 
ATOM     29  C   UNL A   1      41.131  19.618  26.127  1.00  0.00     0.251 C 
ATOM     30  H   UNL A   1      39.562  18.589  25.434  1.00  0.00     0.163 HD
ATOM     31  O   UNL A   1      41.891  18.657  26.017  1.00  0.00    -0.269 OA
BRANCH  29  32
ATOM     32  C   UNL A   1      41.658  20.912  26.621  1.00  0.00     0.039 A 
ATOM     33  C   UNL A   1      42.208  21.810  25.700  1.00  0.00     0.014 A 
ATOM     34  C   UNL A   1      41.608  21.254  27.972  1.00  0.00     0.014 A 
ATOM     35  C   UNL A   1      42.630  23.074  26.125  1.00  0.00     0.010 A 
ATOM     36  C   UNL A   1      41.925  22.548  28.375  1.00  0.00     0.010 A 
ATOM     37  C   UNL A   1      42.455  23.471  27.460  1.00  0.00    -0.014 A 
BRANCH  37  38
ATOM     38  C   UNL A   1      42.852  24.828  27.922  1.00  0.00     0.031 A 
ATOM     39  C   UNL A   1      41.806  25.888  28.149  1.00  0.00     0.074 A 
ATOM     40  C   UNL A   1      44.154  25.126  28.102  1.00  0.00     0.049 A 
ATOM     41  N   UNL A   1      41.954  27.124  28.558  1.00  0.00    -0.248 NA
ATOM     42  C   UNL A   1      40.411  25.521  27.850  1.00  0.00     0.031 C 
ATOM     43  C   UNL A   1      45.276  24.212  27.876  1.00  0.00     0.029 A 
ATOM     44  N   UNL A   1      44.753  26.284  28.532  1.00  0.00    -0.354 N 
ATOM     45  C   UNL A   1      40.679  27.678  28.553  1.00  0.00     0.074 A 
ATOM     46  C   UNL A   1      39.783  26.671  28.027  1.00  0.00     0.031 C 
ATOM     47  C   UNL A   1      46.420  24.825  28.222  1.00  0.00     0.029 A 
ATOM     48  C   UNL A   1      46.119  26.185  28.658  1.00  0.00     0.049 A 
ATOM     49  H   UNL A   1      44.252  27.108  28.732  1.00  0.00     0.167 HD
ATOM     50  C   UNL A   1      40.275  28.900  28.977  1.00  0.00     0.031 A 
ATOM     51  C   UNL A   1      47.024  27.083  29.090  1.00  0.00     0.031 A 
ATOM     52  C   UNL A   1      41.160  29.904  29.502  1.00  0.00     0.049 A 
ATOM     53  C   UNL A   1      46.557  28.441  29.540  1.00  0.00     0.074 A 
ATOM     54  C   UNL A   1      40.848  31.159  29.993  1.00  0.00     0.029 A 
ATOM     55  N   UNL A   1      42.535  29.765  29.603  1.00  0.00    -0.354 N 
ATOM     56  N   UNL A   1      45.341  28.924  29.592  1.00  0.00    -0.248 NA
ATOM     57  C   UNL A   1      47.596  29.368  30.011  1.00  0.00     0.031 C 
ATOM     58  C   UNL A   1      42.043  31.799  30.347  1.00  0.00     0.029 A 
ATOM     59  C   UNL A   1      43.090  30.917  30.136  1.00  0.00     0.049 A 
ATOM     60  H   UNL A   1      43.044  28.965  29.335  1.00  0.00     0.167 HD
ATOM     61  C   UNL A   1      45.461  30.195  30.142  1.00  0.00     0.074 A 
ATOM     62  C   UNL A   1      46.869  30.400  30.415  1.00  0.00     0.031 C 
ATOM     63  C   UNL A   1      44.492  31.106  30.405  1.00  0.00     0.031 A 
BRANCH  50  64
ATOM     64  C   UNL A   1      38.804  29.204  28.880  1.00  0.00    -0.014 A 
ATOM     65  C   UNL A   1      38.238  29.684  27.686  1.00  0.00     0.009 A 
ATOM     66  C   UNL A   1      37.973  29.019  29.994  1.00  0.00     0.009 A 
ATOM     67  C   UNL A   1      36.885  30.024  27.627  1.00  0.00     0.001 A 
ATOM     68  C   UNL A   1      36.612  29.326  29.922  1.00  0.00     0.001 A 
ATOM     69  C   UNL A   1      36.073  29.843  28.745  1.00  0.00     0.000 A 
ENDBRANCH  50  64
BRANCH  51  70
ATOM     70  C   UNL A   1      48.461  26.711  29.181  1.00  0.00    -0.014 A 
ATOM     71  C   UNL A   1      49.328  26.973  28.107  1.00  0.00     0.009 A 
ATOM     72  C   UNL A   1      48.973  26.083  30.326  1.00  0.00     0.009 A 
ATOM     73  C   UNL A   1      50.670  26.588  28.168  1.00  0.00     0.001 A 
ATOM     74  C   UNL A   1      50.322  25.725  30.396  1.00  0.00     0.001 A 
ATOM     75  C   UNL A   1      51.167  25.968  29.313  1.00  0.00     0.000 A 
ENDBRANCH  51  70
BRANCH  63  76
ATOM     76  C   UNL A   1      44.917  32.385  31.075  1.00  0.00    -0.014 A 
ATOM     77  C   UNL A   1      44.969  32.504  32.472  1.00  0.00     0.009 A 
ATOM     78  C   UNL A   1      45.289  33.485  30.285  1.00  0.00     0.009 A 
ATOM     79  C   UNL A   1      45.338  33.714  33.064  1.00  0.00     0.001 A 
ATOM     80  C   UNL A   1      45.690  34.682  30.879  1.00  0.00     0.001 A 
ATOM     81  C   UNL A   1      45.702  34.800  32.268  1.00  0.00     0.000 A 
ENDBRANCH  63  76
ENDBRANCH  37  38
ENDBRANCH  29  32
ENDBRANCH  27  28
ENDBRANCH   1  27
TORSDOF 12
ENDMDL
