MODEL 1
REMARK VINA RESULT:      -9.8      0.000      0.000
REMARK SMILES C/C=C/C=C/C(=O)N[C@@H](C)CC(=O)NCCCNC(=O)c1ccc(-c2c3nc(c(-c4ccccc4)c4ccc([nH]4)c(-c4ccccc4)c4nc(c(-c5ccccc5)c5ccc2[nH]5)C=C4)C=C3)cc1
REMARK SMILES IDX 15 1 14 2 12 3 13 4 11 6 9 7 10 8 8 9 6 10 7 11 5 13 4 14
REMARK SMILES IDX 3 15 1 16 2 17 16 18 17 19 18 20 19 21 20 23 21 24 22 25
REMARK SMILES IDX 68 26 23 27 67 28 24 29 25 30 26 31 61 32 27 33 66 34 60 35
REMARK SMILES IDX 62 36 28 37 65 38 59 39 58 40 29 42 51 43 36 44 50 45 37 46
REMARK SMILES IDX 40 47 49 48 63 49 38 50 39 51 48 53 64 54 41 55 30 56 31 57
REMARK SMILES IDX 35 58 32 59 34 60 33 61 52 62 53 63 57 64 54 65 56 66 55 67
REMARK SMILES IDX 42 68 43 69 47 70 44 71 46 72 45 73
REMARK H PARENT 14 5 8 12 18 22 62 41 40 52
REMARK Flexibility Score: inf
ROOT
ATOM      1  C   UNL A   1      36.565  20.261  24.591  1.00  0.00     0.117 C 
ENDROOT
BRANCH   1   2
ATOM      2  N   UNL A   1      35.862  20.769  25.757  1.00  0.00    -0.356 N 
ATOM      3  C   UNL A   1      35.365  22.011  26.005  1.00  0.00     0.222 C 
ATOM      4  O   UNL A   1      34.913  22.249  27.127  1.00  0.00    -0.275 OA
ATOM      5  H   UNL A   1      35.724  20.115  26.479  1.00  0.00     0.163 HD
BRANCH   3   6
ATOM      6  C   UNL A   1      35.349  23.070  24.924  1.00  0.00     0.124 C 
BRANCH   6   7
ATOM      7  C   UNL A   1      34.085  22.976  24.063  1.00  0.00     0.088 C 
ATOM      8  C   UNL A   1      33.982  24.197  23.148  1.00  0.00     0.031 C 
BRANCH   7   9
ATOM      9  N   UNL A   1      32.865  22.928  24.875  1.00  0.00    -0.350 N 
ATOM     10  C   UNL A   1      31.958  21.938  25.093  1.00  0.00     0.244 C 
ATOM     11  O   UNL A   1      31.012  22.151  25.850  1.00  0.00    -0.270 OA
ATOM     12  H   UNL A   1      32.666  23.766  25.350  1.00  0.00     0.164 HD
BRANCH  10  13
ATOM     13  C   UNL A   1      32.161  20.576  24.562  1.00  0.00     0.071 C 
ATOM     14  C   UNL A   1      32.691  19.558  25.253  1.00  0.00     0.005 C 
BRANCH  14  15
ATOM     15  C   UNL A   1      32.851  18.237  24.690  1.00  0.00    -0.004 C 
ATOM     16  C   UNL A   1      34.107  16.552  23.333  1.00  0.00     0.035 C 
ATOM     17  C   UNL A   1      33.893  17.913  23.911  1.00  0.00    -0.030 C 
ENDBRANCH  14  15
ENDBRANCH  10  13
ENDBRANCH   7   9
ENDBRANCH   6   7
ENDBRANCH   3   6
ENDBRANCH   1   2
BRANCH   1  18
ATOM     18  C   UNL A   1      37.712  19.339  24.989  1.00  0.00     0.042 C 
BRANCH  18  19
ATOM     19  C   UNL A   1      38.847  20.044  25.721  1.00  0.00     0.118 C 
BRANCH  19  20
ATOM     20  N   UNL A   1      40.042  19.220  25.805  1.00  0.00    -0.352 N 
ATOM     21  C   UNL A   1      41.341  19.558  26.084  1.00  0.00     0.251 C 
ATOM     22  H   UNL A   1      39.894  18.261  25.633  1.00  0.00     0.163 HD
ATOM     23  O   UNL A   1      42.231  18.726  25.876  1.00  0.00    -0.269 OA
BRANCH  21  24
ATOM     24  C   UNL A   1      41.708  20.891  26.613  1.00  0.00     0.039 A 
ATOM     25  C   UNL A   1      42.232  21.842  25.729  1.00  0.00     0.014 A 
ATOM     26  C   UNL A   1      41.609  21.200  27.972  1.00  0.00     0.014 A 
ATOM     27  C   UNL A   1      42.594  23.111  26.193  1.00  0.00     0.010 A 
ATOM     28  C   UNL A   1      41.900  22.489  28.422  1.00  0.00     0.010 A 
ATOM     29  C   UNL A   1      42.399  23.458  27.538  1.00  0.00    -0.014 A 
BRANCH  29  30
ATOM     30  C   UNL A   1      42.700  24.825  28.036  1.00  0.00     0.031 A 
ATOM     31  C   UNL A   1      44.093  25.194  28.465  1.00  0.00     0.074 A 
ATOM     32  C   UNL A   1      41.702  25.722  28.165  1.00  0.00     0.049 A 
ATOM     33  N   UNL A   1      44.524  26.309  29.003  1.00  0.00    -0.248 NA
ATOM     34  C   UNL A   1      45.135  24.171  28.290  1.00  0.00     0.031 C 
ATOM     35  C   UNL A   1      40.299  25.485  27.820  1.00  0.00     0.029 A 
ATOM     36  N   UNL A   1      41.715  27.010  28.639  1.00  0.00    -0.354 N 
ATOM     37  C   UNL A   1      45.876  26.113  29.250  1.00  0.00     0.074 A 
ATOM     38  C   UNL A   1      46.190  24.762  28.835  1.00  0.00     0.031 C 
ATOM     39  C   UNL A   1      39.591  26.597  28.075  1.00  0.00     0.029 A 
ATOM     40  C   UNL A   1      40.477  27.607  28.643  1.00  0.00     0.049 A 
ATOM     41  H   UNL A   1      42.533  27.465  28.946  1.00  0.00     0.167 HD
ATOM     42  C   UNL A   1      46.780  26.982  29.763  1.00  0.00     0.031 A 
ATOM     43  C   UNL A   1      40.092  28.823  29.072  1.00  0.00     0.031 A 
ATOM     44  C   UNL A   1      46.481  28.332  30.160  1.00  0.00     0.049 A 
ATOM     45  C   UNL A   1      41.109  29.759  29.659  1.00  0.00     0.074 A 
ATOM     46  C   UNL A   1      47.348  29.308  30.617  1.00  0.00     0.029 A 
ATOM     47  N   UNL A   1      45.213  28.893  30.154  1.00  0.00    -0.354 N 
ATOM     48  N   UNL A   1      42.397  29.580  29.824  1.00  0.00    -0.248 NA
ATOM     49  C   UNL A   1      40.616  31.065  30.121  1.00  0.00     0.031 C 
ATOM     50  C   UNL A   1      46.598  30.447  30.935  1.00  0.00     0.029 A 
ATOM     51  C   UNL A   1      45.270  30.191  30.633  1.00  0.00     0.049 A 
ATOM     52  H   UNL A   1      44.395  28.436  29.853  1.00  0.00     0.167 HD
ATOM     53  C   UNL A   1      42.870  30.752  30.398  1.00  0.00     0.074 A 
ATOM     54  C   UNL A   1      41.736  31.643  30.534  1.00  0.00     0.031 C 
ATOM     55  C   UNL A   1      44.133  31.060  30.780  1.00  0.00     0.031 A 
BRANCH  42  56
ATOM     56  C   UNL A   1      48.190  26.490  29.938  1.00  0.00    -0.014 A 
ATOM     57  C   UNL A   1      48.600  25.862  31.123  1.00  0.00     0.009 A 
ATOM     58  C   UNL A   1      49.110  26.624  28.886  1.00  0.00     0.009 A 
ATOM     59  C   UNL A   1      49.913  25.408  31.266  1.00  0.00     0.001 A 
ATOM     60  C   UNL A   1      50.415  26.148  29.022  1.00  0.00     0.001 A 
ATOM     61  C   UNL A   1      50.818  25.549  30.214  1.00  0.00     0.000 A 
ENDBRANCH  42  56
BRANCH  43  62
ATOM     62  C   UNL A   1      38.666  29.222  28.973  1.00  0.00    -0.014 A 
ATOM     63  C   UNL A   1      37.813  29.092  30.079  1.00  0.00     0.009 A 
ATOM     64  C   UNL A   1      38.152  29.743  27.775  1.00  0.00     0.009 A 
ATOM     65  C   UNL A   1      36.469  29.459  29.982  1.00  0.00     0.001 A 
ATOM     66  C   UNL A   1      36.814  30.132  27.688  1.00  0.00     0.001 A 
ATOM     67  C   UNL A   1      35.972  29.984  28.788  1.00  0.00     0.000 A 
ENDBRANCH  43  62
BRANCH  55  68
ATOM     68  C   UNL A   1      44.353  32.419  31.380  1.00  0.00    -0.014 A 
ATOM     69  C   UNL A   1      44.281  32.615  32.767  1.00  0.00     0.009 A 
ATOM     70  C   UNL A   1      44.671  33.507  30.552  1.00  0.00     0.009 A 
ATOM     71  C   UNL A   1      44.498  33.882  33.312  1.00  0.00     0.001 A 
ATOM     72  C   UNL A   1      44.910  34.767  31.102  1.00  0.00     0.001 A 
ATOM     73  C   UNL A   1      44.817  34.955  32.481  1.00  0.00     0.000 A 
ENDBRANCH  55  68
ENDBRANCH  29  30
ENDBRANCH  21  24
ENDBRANCH  19  20
ENDBRANCH  18  19
ENDBRANCH   1  18
TORSDOF 14
ENDMDL
MODEL 2
REMARK VINA RESULT:      -9.7      2.398      4.508
REMARK SMILES C/C=C/C=C/C(=O)N[C@@H](C)CC(=O)NCCCNC(=O)c1ccc(-c2c3nc(c(-c4ccccc4)c4ccc([nH]4)c(-c4ccccc4)c4nc(c(-c5ccccc5)c5ccc2[nH]5)C=C4)C=C3)cc1
REMARK SMILES IDX 15 1 14 2 12 3 13 4 11 6 9 7 10 8 8 9 6 10 7 11 5 13 4 14
REMARK SMILES IDX 3 15 1 16 2 17 16 18 17 19 18 20 19 21 20 23 21 24 22 25
REMARK SMILES IDX 68 26 23 27 67 28 24 29 25 30 26 31 61 32 27 33 66 34 60 35
REMARK SMILES IDX 62 36 28 37 65 38 59 39 58 40 29 42 51 43 36 44 50 45 37 46
REMARK SMILES IDX 40 47 49 48 63 49 38 50 39 51 48 53 64 54 41 55 30 56 31 57
REMARK SMILES IDX 35 58 32 59 34 60 33 61 52 62 53 63 57 64 54 65 56 66 55 67
REMARK SMILES IDX 42 68 43 69 47 70 44 71 46 72 45 73
REMARK H PARENT 14 5 8 12 18 22 62 41 40 52
REMARK Flexibility Score: inf
ROOT
ATOM      1  C   UNL A   1      35.321  21.207  25.217  1.00  0.00     0.117 C 
ENDROOT
BRANCH   1   2
ATOM      2  N   UNL A   1      34.000  20.642  25.439  1.00  0.00    -0.356 N 
ATOM      3  C   UNL A   1      32.826  20.888  24.797  1.00  0.00     0.222 C 
ATOM      4  O   UNL A   1      31.796  20.380  25.245  1.00  0.00    -0.275 OA
ATOM      5  H   UNL A   1      33.946  19.982  26.167  1.00  0.00     0.163 HD
BRANCH   3   6
ATOM      6  C   UNL A   1      32.788  21.747  23.552  1.00  0.00     0.124 C 
BRANCH   6   7
ATOM      7  C   UNL A   1      32.536  23.219  23.892  1.00  0.00     0.088 C 
ATOM      8  C   UNL A   1      31.040  23.458  24.110  1.00  0.00     0.031 C 
BRANCH   7   9
ATOM      9  N   UNL A   1      32.975  24.118  22.820  1.00  0.00    -0.350 N 
ATOM     10  C   UNL A   1      33.532  25.359  22.847  1.00  0.00     0.244 C 
ATOM     11  O   UNL A   1      33.833  25.901  21.784  1.00  0.00    -0.270 OA
ATOM     12  H   UNL A   1      32.843  23.757  21.915  1.00  0.00     0.164 HD
BRANCH  10  13
ATOM     13  C   UNL A   1      33.916  26.004  24.117  1.00  0.00     0.071 C 
ATOM     14  C   UNL A   1      33.650  27.277  24.439  1.00  0.00     0.005 C 
BRANCH  14  15
ATOM     15  C   UNL A   1      34.033  27.855  25.706  1.00  0.00    -0.004 C 
ATOM     16  C   UNL A   1      34.053  29.731  27.362  1.00  0.00     0.035 C 
ATOM     17  C   UNL A   1      33.699  29.107  26.051  1.00  0.00    -0.030 C 
ENDBRANCH  14  15
ENDBRANCH  10  13
ENDBRANCH   7   9
ENDBRANCH   6   7
ENDBRANCH   3   6
ENDBRANCH   1   2
BRANCH   1  18
ATOM     18  C   UNL A   1      35.501  22.519  25.971  1.00  0.00     0.042 C 
BRANCH  18  19
ATOM     19  C   UNL A   1      36.812  23.232  25.665  1.00  0.00     0.118 C 
BRANCH  19  20
ATOM     20  N   UNL A   1      37.969  22.385  25.909  1.00  0.00    -0.352 N 
ATOM     21  C   UNL A   1      39.231  22.700  26.340  1.00  0.00     0.251 C 
ATOM     22  H   UNL A   1      37.821  21.426  25.736  1.00  0.00     0.163 HD
ATOM     23  O   UNL A   1      40.121  21.846  26.257  1.00  0.00    -0.269 OA
BRANCH  21  24
ATOM     24  C   UNL A   1      39.562  24.035  26.889  1.00  0.00     0.039 A 
ATOM     25  C   UNL A   1      39.230  24.314  28.220  1.00  0.00     0.014 A 
ATOM     26  C   UNL A   1      40.131  25.038  26.099  1.00  0.00     0.014 A 
ATOM     27  C   UNL A   1      39.523  25.565  28.771  1.00  0.00     0.010 A 
ATOM     28  C   UNL A   1      40.491  26.260  26.669  1.00  0.00     0.010 A 
ATOM     29  C   UNL A   1      40.189  26.539  28.011  1.00  0.00    -0.014 A 
BRANCH  29  30
ATOM     30  C   UNL A   1      40.583  27.844  28.600  1.00  0.00     0.031 A 
ATOM     31  C   UNL A   1      41.975  28.057  29.129  1.00  0.00     0.074 A 
ATOM     32  C   UNL A   1      39.666  28.824  28.723  1.00  0.00     0.049 A 
ATOM     33  N   UNL A   1      42.472  29.098  29.752  1.00  0.00    -0.248 NA
ATOM     34  C   UNL A   1      42.927  26.950  28.957  1.00  0.00     0.031 C 
ATOM     35  C   UNL A   1      38.271  28.740  28.285  1.00  0.00     0.029 A 
ATOM     36  N   UNL A   1      39.768  30.080  29.267  1.00  0.00    -0.354 N 
ATOM     37  C   UNL A   1      43.783  28.762  30.064  1.00  0.00     0.074 A 
ATOM     38  C   UNL A   1      43.996  27.410  29.593  1.00  0.00     0.031 C 
ATOM     39  C   UNL A   1      37.653  29.899  28.561  1.00  0.00     0.029 A 
ATOM     40  C   UNL A   1      38.592  30.791  29.234  1.00  0.00     0.049 A 
ATOM     41  H   UNL A   1      40.604  30.439  29.646  1.00  0.00     0.167 HD
ATOM     42  C   UNL A   1      44.729  29.514  30.675  1.00  0.00     0.031 A 
ATOM     43  C   UNL A   1      38.295  32.015  29.708  1.00  0.00     0.031 A 
ATOM     44  C   UNL A   1      44.531  30.864  31.130  1.00  0.00     0.049 A 
ATOM     45  C   UNL A   1      39.354  32.819  30.403  1.00  0.00     0.074 A 
ATOM     46  C   UNL A   1      45.454  31.730  31.689  1.00  0.00     0.029 A 
ATOM     47  N   UNL A   1      43.323  31.543  31.082  1.00  0.00    -0.354 N 
ATOM     48  N   UNL A   1      40.608  32.511  30.631  1.00  0.00    -0.248 NA
ATOM     49  C   UNL A   1      38.956  34.141  30.909  1.00  0.00     0.031 C 
ATOM     50  C   UNL A   1      44.794  32.917  32.027  1.00  0.00     0.029 A 
ATOM     51  C   UNL A   1      43.470  32.804  31.636  1.00  0.00     0.049 A 
ATOM     52  H   UNL A   1      42.487  31.182  30.711  1.00  0.00     0.167 HD
ATOM     53  C   UNL A   1      41.150  33.602  31.296  1.00  0.00     0.074 A 
ATOM     54  C   UNL A   1      40.097  34.589  31.416  1.00  0.00     0.031 C 
ATOM     55  C   UNL A   1      42.410  33.769  31.766  1.00  0.00     0.031 A 
BRANCH  42  56
ATOM     56  C   UNL A   1      46.074  28.882  30.903  1.00  0.00    -0.014 A 
ATOM     57  C   UNL A   1      46.357  28.176  32.082  1.00  0.00     0.009 A 
ATOM     58  C   UNL A   1      47.059  28.964  29.906  1.00  0.00     0.009 A 
ATOM     59  C   UNL A   1      47.611  27.593  32.273  1.00  0.00     0.001 A 
ATOM     60  C   UNL A   1      48.304  28.358  30.089  1.00  0.00     0.001 A 
ATOM     61  C   UNL A   1      48.582  27.681  31.276  1.00  0.00     0.000 A 
ENDBRANCH  42  56
BRANCH  43  62
ATOM     62  C   UNL A   1      36.920  32.553  29.550  1.00  0.00    -0.014 A 
ATOM     63  C   UNL A   1      36.558  33.247  28.385  1.00  0.00     0.009 A 
ATOM     64  C   UNL A   1      35.961  32.367  30.557  1.00  0.00     0.009 A 
ATOM     65  C   UNL A   1      35.267  33.760  28.242  1.00  0.00     0.001 A 
ATOM     66  C   UNL A   1      34.664  32.860  30.400  1.00  0.00     0.001 A 
ATOM     67  C   UNL A   1      34.320  33.561  29.246  1.00  0.00     0.000 A 
ENDBRANCH  43  62
BRANCH  55  68
ATOM     68  C   UNL A   1      42.716  35.069  32.452  1.00  0.00    -0.014 A 
ATOM     69  C   UNL A   1      43.385  36.101  31.777  1.00  0.00     0.009 A 
ATOM     70  C   UNL A   1      42.300  35.276  33.777  1.00  0.00     0.009 A 
ATOM     71  C   UNL A   1      43.655  37.308  32.424  1.00  0.00     0.001 A 
ATOM     72  C   UNL A   1      42.551  36.493  34.414  1.00  0.00     0.001 A 
ATOM     73  C   UNL A   1      43.235  37.505  33.739  1.00  0.00     0.000 A 
ENDBRANCH  55  68
ENDBRANCH  29  30
ENDBRANCH  21  24
ENDBRANCH  19  20
ENDBRANCH  18  19
ENDBRANCH   1  18
TORSDOF 14
ENDMDL
MODEL 3
REMARK VINA RESULT:      -9.7      2.701      7.639
REMARK SMILES C/C=C/C=C/C(=O)N[C@@H](C)CC(=O)NCCCNC(=O)c1ccc(-c2c3nc(c(-c4ccccc4)c4ccc([nH]4)c(-c4ccccc4)c4nc(c(-c5ccccc5)c5ccc2[nH]5)C=C4)C=C3)cc1
REMARK SMILES IDX 15 1 14 2 12 3 13 4 11 6 9 7 10 8 8 9 6 10 7 11 5 13 4 14
REMARK SMILES IDX 3 15 1 16 2 17 16 18 17 19 18 20 19 21 20 23 21 24 22 25
REMARK SMILES IDX 68 26 23 27 67 28 24 29 25 30 26 31 61 32 27 33 66 34 60 35
REMARK SMILES IDX 62 36 28 37 65 38 59 39 58 40 29 42 51 43 36 44 50 45 37 46
REMARK SMILES IDX 40 47 49 48 63 49 38 50 39 51 48 53 64 54 41 55 30 56 31 57
REMARK SMILES IDX 35 58 32 59 34 60 33 61 52 62 53 63 57 64 54 65 56 66 55 67
REMARK SMILES IDX 42 68 43 69 47 70 44 71 46 72 45 73
REMARK H PARENT 14 5 8 12 18 22 62 41 40 52
REMARK Flexibility Score: inf
ROOT
ATOM      1  C   UNL A   1      33.206  28.944  24.798  1.00  0.00     0.117 C 
ENDROOT
BRANCH   1   2
ATOM      2  N   UNL A   1      31.841  28.451  24.874  1.00  0.00    -0.356 N 
ATOM      3  C   UNL A   1      31.230  27.458  24.173  1.00  0.00     0.222 C 
ATOM      4  O   UNL A   1      30.017  27.297  24.319  1.00  0.00    -0.275 OA
ATOM      5  H   UNL A   1      31.269  28.906  25.534  1.00  0.00     0.163 HD
BRANCH   3   6
ATOM      6  C   UNL A   1      32.024  26.559  23.250  1.00  0.00     0.124 C 
BRANCH   6   7
ATOM      7  C   UNL A   1      32.129  25.136  23.805  1.00  0.00     0.088 C 
ATOM      8  C   UNL A   1      31.254  24.187  22.985  1.00  0.00     0.031 C 
BRANCH   7   9
ATOM      9  N   UNL A   1      31.685  25.051  25.200  1.00  0.00    -0.350 N 
ATOM     10  C   UNL A   1      32.196  24.398  26.278  1.00  0.00     0.244 C 
ATOM     11  O   UNL A   1      31.633  24.507  27.366  1.00  0.00    -0.270 OA
ATOM     12  H   UNL A   1      30.867  25.562  25.392  1.00  0.00     0.164 HD
BRANCH  10  13
ATOM     13  C   UNL A   1      33.486  23.683  26.206  1.00  0.00     0.071 C 
ATOM     14  C   UNL A   1      34.504  24.022  25.404  1.00  0.00     0.005 C 
BRANCH  14  15
ATOM     15  C   UNL A   1      35.753  23.298  25.385  1.00  0.00    -0.004 C 
ATOM     16  C   UNL A   1      38.168  23.046  25.990  1.00  0.00     0.035 C 
ATOM     17  C   UNL A   1      36.865  23.776  25.964  1.00  0.00    -0.030 C 
ENDBRANCH  14  15
ENDBRANCH  10  13
ENDBRANCH   7   9
ENDBRANCH   6   7
ENDBRANCH   3   6
ENDBRANCH   1   2
BRANCH   1  18
ATOM     18  C   UNL A   1      34.064  28.389  25.928  1.00  0.00     0.042 C 
BRANCH  18  19
ATOM     19  C   UNL A   1      33.518  28.682  27.320  1.00  0.00     0.118 C 
BRANCH  19  20
ATOM     20  N   UNL A   1      33.582  30.097  27.649  1.00  0.00    -0.352 N 
ATOM     21  C   UNL A   1      34.560  30.824  28.276  1.00  0.00     0.251 C 
ATOM     22  H   UNL A   1      32.793  30.619  27.375  1.00  0.00     0.163 HD
ATOM     23  O   UNL A   1      34.301  31.973  28.653  1.00  0.00    -0.269 OA
BRANCH  21  24
ATOM     24  C   UNL A   1      35.910  30.270  28.527  1.00  0.00     0.039 A 
ATOM     25  C   UNL A   1      36.846  30.289  27.486  1.00  0.00     0.014 A 
ATOM     26  C   UNL A   1      36.250  29.673  29.744  1.00  0.00     0.014 A 
ATOM     27  C   UNL A   1      38.130  29.771  27.684  1.00  0.00     0.010 A 
ATOM     28  C   UNL A   1      37.553  29.224  29.966  1.00  0.00     0.010 A 
ATOM     29  C   UNL A   1      38.507  29.265  28.938  1.00  0.00    -0.014 A 
BRANCH  29  30
ATOM     30  C   UNL A   1      39.889  28.785  29.195  1.00  0.00     0.031 A 
ATOM     31  C   UNL A   1      40.915  29.697  29.811  1.00  0.00     0.074 A 
ATOM     32  C   UNL A   1      40.245  27.543  28.811  1.00  0.00     0.049 A 
ATOM     33  N   UNL A   1      42.188  29.479  30.030  1.00  0.00    -0.248 NA
ATOM     34  C   UNL A   1      40.457  31.036  30.212  1.00  0.00     0.031 C 
ATOM     35  C   UNL A   1      39.362  26.568  28.171  1.00  0.00     0.029 A 
ATOM     36  N   UNL A   1      41.453  26.896  28.892  1.00  0.00    -0.354 N 
ATOM     37  C   UNL A   1      42.686  30.657  30.572  1.00  0.00     0.074 A 
ATOM     38  C   UNL A   1      41.587  31.598  30.618  1.00  0.00     0.031 C 
ATOM     39  C   UNL A   1      40.051  25.440  27.934  1.00  0.00     0.029 A 
ATOM     40  C   UNL A   1      41.433  25.628  28.362  1.00  0.00     0.049 A 
ATOM     41  H   UNL A   1      42.257  27.300  29.291  1.00  0.00     0.167 HD
ATOM     42  C   UNL A   1      43.941  30.928  31.005  1.00  0.00     0.031 A 
ATOM     43  C   UNL A   1      42.418  24.722  28.220  1.00  0.00     0.031 A 
ATOM     44  C   UNL A   1      45.033  29.993  30.980  1.00  0.00     0.049 A 
ATOM     45  C   UNL A   1      43.806  25.056  28.686  1.00  0.00     0.074 A 
ATOM     46  C   UNL A   1      46.318  30.154  31.468  1.00  0.00     0.029 A 
ATOM     47  N   UNL A   1      44.971  28.722  30.429  1.00  0.00    -0.354 N 
ATOM     48  N   UNL A   1      44.243  26.151  29.256  1.00  0.00    -0.248 NA
ATOM     49  C   UNL A   1      44.836  24.026  28.485  1.00  0.00     0.031 C 
ATOM     50  C   UNL A   1      47.049  28.999  31.169  1.00  0.00     0.029 A 
ATOM     51  C   UNL A   1      46.205  28.102  30.534  1.00  0.00     0.049 A 
ATOM     52  H   UNL A   1      44.169  28.321  30.024  1.00  0.00     0.167 HD
ATOM     53  C   UNL A   1      45.595  25.940  29.492  1.00  0.00     0.074 A 
ATOM     54  C   UNL A   1      45.901  24.605  29.023  1.00  0.00     0.031 C 
ATOM     55  C   UNL A   1      46.501  26.781  30.047  1.00  0.00     0.031 A 
BRANCH  42  56
ATOM     56  C   UNL A   1      44.205  32.310  31.536  1.00  0.00    -0.014 A 
ATOM     57  C   UNL A   1      44.047  32.609  32.898  1.00  0.00     0.009 A 
ATOM     58  C   UNL A   1      44.654  33.315  30.667  1.00  0.00     0.009 A 
ATOM     59  C   UNL A   1      44.301  33.897  33.373  1.00  0.00     0.001 A 
ATOM     60  C   UNL A   1      44.931  34.597  31.148  1.00  0.00     0.001 A 
ATOM     61  C   UNL A   1      44.746  34.889  32.498  1.00  0.00     0.000 A 
ENDBRANCH  42  56
BRANCH  43  62
ATOM     62  C   UNL A   1      42.127  23.408  27.592  1.00  0.00    -0.014 A 
ATOM     63  C   UNL A   1      41.584  22.362  28.353  1.00  0.00     0.009 A 
ATOM     64  C   UNL A   1      42.382  23.197  26.228  1.00  0.00     0.009 A 
ATOM     65  C   UNL A   1      41.319  21.124  27.764  1.00  0.00     0.001 A 
ATOM     66  C   UNL A   1      42.094  21.965  25.637  1.00  0.00     0.001 A 
ATOM     67  C   UNL A   1      41.568  20.929  26.406  1.00  0.00     0.000 A 
ENDBRANCH  43  62
BRANCH  55  68
ATOM     68  C   UNL A   1      47.910  26.278  30.178  1.00  0.00    -0.014 A 
ATOM     69  C   UNL A   1      48.809  26.363  29.104  1.00  0.00     0.009 A 
ATOM     70  C   UNL A   1      48.353  25.746  31.399  1.00  0.00     0.009 A 
ATOM     71  C   UNL A   1      50.119  25.900  29.243  1.00  0.00     0.001 A 
ATOM     72  C   UNL A   1      49.670  25.306  31.542  1.00  0.00     0.001 A 
ATOM     73  C   UNL A   1      50.549  25.377  30.461  1.00  0.00     0.000 A 
ENDBRANCH  55  68
ENDBRANCH  29  30
ENDBRANCH  21  24
ENDBRANCH  19  20
ENDBRANCH  18  19
ENDBRANCH   1  18
TORSDOF 14
ENDMDL
