MODEL 1
REMARK VINA RESULT:     -13.4      0.000      0.000
REMARK SMILES Cc1ccc(C)c(N2C(=O)S[C@H](CC(=O)Nc3ccc(C(=O)NCCCNC(=O)c4ccc(-c5c6nc(c(-c7ccccc7)c7ccc([nH]7)c(-c7ccccc7)c7nc(c(-c8ccccc8)c8ccc5[nH]8)C=C7)C=C6)cc4)c(O)c3)C2=O)c1
REMARK SMILES IDX 24 1 23 2 21 3 22 4 20 6 17 7 18 8 80 9 19 10 78 11 16 12
REMARK SMILES IDX 14 13 15 14 13 16 12 17 8 18 9 19 81 20 10 21 11 22 82 23
REMARK SMILES IDX 7 24 1 25 2 26 3 27 83 28 4 29 5 30 6 31 79 32 25 34 26 35
REMARK SMILES IDX 27 36 28 37 29 39 30 40 31 41 77 42 32 43 76 44 33 45 34 46
REMARK SMILES IDX 35 47 70 48 36 49 75 50 69 51 71 52 37 53 74 54 68 55 67 56
REMARK SMILES IDX 38 58 60 59 45 60 59 61 46 62 49 63 58 64 72 65 47 66 48 67
REMARK SMILES IDX 57 69 73 70 50 71 39 72 40 73 44 74 41 75 43 76 42 77 61 78
REMARK SMILES IDX 62 79 66 80 63 81 65 82 64 83 51 84 52 85 56 86 53 87 55 88
REMARK SMILES IDX 54 89
REMARK H PARENT 23 5 16 15 79 33 27 38 71 57 49 68
REMARK Flexibility Score: inf
ROOT
ATOM      1  C   UNL A   1      40.372  19.975  26.189  1.00  0.00     0.118 C 
ENDROOT
BRANCH   1   2
ATOM      2  N   UNL A   1      40.135  21.388  26.334  1.00  0.00    -0.352 N 
ATOM      3  C   UNL A   1      38.961  22.067  26.076  1.00  0.00     0.255 C 
ATOM      4  O   UNL A   1      38.903  23.245  26.427  1.00  0.00    -0.269 OA
ATOM      5  H   UNL A   1      40.894  21.930  26.652  1.00  0.00     0.163 HD
BRANCH   3   6
ATOM      6  C   UNL A   1      37.833  21.472  25.277  1.00  0.00     0.081 A 
ATOM      7  C   UNL A   1      35.406  20.211  24.633  1.00  0.00     0.044 A 
ATOM      8  C   UNL A   1      36.542  19.478  24.933  1.00  0.00     0.027 A 
ATOM      9  C   UNL A   1      35.577  21.544  24.322  1.00  0.00     0.073 A 
ATOM     10  C   UNL A   1      37.719  20.089  25.348  1.00  0.00     0.020 A 
ATOM     11  C   UNL A   1      36.831  22.127  24.545  1.00  0.00     0.130 A 
BRANCH   7  12
ATOM     12  N   UNL A   1      34.162  19.571  24.546  1.00  0.00    -0.326 N 
ATOM     13  C   UNL A   1      33.036  19.865  25.292  1.00  0.00     0.226 C 
ATOM     14  O   UNL A   1      32.170  19.010  25.474  1.00  0.00    -0.275 OA
ATOM     15  H   UNL A   1      34.083  18.842  23.889  1.00  0.00     0.169 HD
BRANCH  13  16
ATOM     16  C   UNL A   1      32.789  21.325  25.673  1.00  0.00     0.125 C 
BRANCH  16  17
ATOM     17  C   UNL A   1      31.494  21.974  25.183  1.00  0.00     0.156 C 
ATOM     18  N   UNL A   1      31.899  24.335  25.029  1.00  0.00    -0.240 N 
ATOM     19  C   UNL A   1      31.326  24.294  26.268  1.00  0.00     0.293 C 
ATOM     20  C   UNL A   1      31.865  23.156  24.296  1.00  0.00     0.248 C 
ATOM     21  O   UNL A   1      31.318  25.160  27.138  1.00  0.00    -0.261 OA
ATOM     22  S   UNL A   1      30.477  22.772  26.460  1.00  0.00    -0.050 SA
ATOM     23  O   UNL A   1      32.109  23.033  23.101  1.00  0.00    -0.273 OA
BRANCH  18  24
ATOM     24  C   UNL A   1      32.071  25.587  24.397  1.00  0.00     0.056 A 
ATOM     25  C   UNL A   1      29.996  28.185  22.508  1.00  0.00     0.044 C 
ATOM     26  C   UNL A   1      31.140  27.470  23.167  1.00  0.00    -0.049 A 
ATOM     27  C   UNL A   1      32.420  28.034  23.100  1.00  0.00     0.004 A 
ATOM     28  C   UNL A   1      30.967  26.246  23.832  1.00  0.00     0.030 A 
ATOM     29  C   UNL A   1      33.519  27.367  23.638  1.00  0.00     0.006 A 
ATOM     30  C   UNL A   1      33.364  26.132  24.278  1.00  0.00    -0.027 A 
ATOM     31  C   UNL A   1      34.607  25.453  24.789  1.00  0.00     0.046 C 
ENDBRANCH  18  24
ENDBRANCH  16  17
ENDBRANCH  13  16
ENDBRANCH   7  12
BRANCH  11  32
ATOM     32  O   UNL A   1      37.027  23.319  23.899  1.00  0.00    -0.507 OA
ATOM     33  H   UNL A   1      36.295  23.787  23.549  1.00  0.00     0.293 HD
ENDBRANCH  11  32
ENDBRANCH   3   6
ENDBRANCH   1   2
BRANCH   1  34
ATOM     34  C   UNL A   1      41.754  19.434  26.430  1.00  0.00     0.042 C 
BRANCH  34  35
ATOM     35  C   UNL A   1      42.883  20.165  25.747  1.00  0.00     0.118 C 
BRANCH  35  36
ATOM     36  N   UNL A   1      43.677  19.392  24.794  1.00  0.00    -0.352 N 
ATOM     37  C   UNL A   1      44.736  19.838  24.010  1.00  0.00     0.251 C 
ATOM     38  H   UNL A   1      43.434  18.443  24.695  1.00  0.00     0.163 HD
ATOM     39  O   UNL A   1      45.337  19.073  23.266  1.00  0.00    -0.269 OA
BRANCH  37  40
ATOM     40  C   UNL A   1      45.225  21.222  24.211  1.00  0.00     0.039 A 
ATOM     41  C   UNL A   1      46.121  21.454  25.257  1.00  0.00     0.014 A 
ATOM     42  C   UNL A   1      44.526  22.276  23.656  1.00  0.00     0.014 A 
ATOM     43  C   UNL A   1      45.988  22.618  26.013  1.00  0.00     0.010 A 
ATOM     44  C   UNL A   1      44.354  23.396  24.439  1.00  0.00     0.010 A 
ATOM     45  C   UNL A   1      44.958  23.500  25.704  1.00  0.00    -0.014 A 
BRANCH  45  46
ATOM     46  C   UNL A   1      44.579  24.626  26.572  1.00  0.00     0.031 A 
ATOM     47  C   UNL A   1      45.565  25.728  26.483  1.00  0.00     0.074 A 
ATOM     48  C   UNL A   1      43.408  24.861  27.208  1.00  0.00     0.049 A 
ATOM     49  N   UNL A   1      46.720  25.752  27.067  1.00  0.00    -0.248 NA
ATOM     50  C   UNL A   1      45.417  26.696  25.376  1.00  0.00     0.031 C 
ATOM     51  C   UNL A   1      42.136  24.139  27.166  1.00  0.00     0.029 A 
ATOM     52  N   UNL A   1      43.110  25.924  28.017  1.00  0.00    -0.354 N 
ATOM     53  C   UNL A   1      47.346  26.866  26.533  1.00  0.00     0.074 A 
ATOM     54  C   UNL A   1      46.687  27.091  25.277  1.00  0.00     0.031 C 
ATOM     55  C   UNL A   1      41.166  24.886  27.762  1.00  0.00     0.029 A 
ATOM     56  C   UNL A   1      41.764  26.079  28.344  1.00  0.00     0.049 A 
ATOM     57  H   UNL A   1      43.803  26.543  28.345  1.00  0.00     0.167 HD
ATOM     58  C   UNL A   1      48.019  27.760  27.313  1.00  0.00     0.031 A 
ATOM     59  C   UNL A   1      41.214  27.127  29.023  1.00  0.00     0.031 A 
ATOM     60  C   UNL A   1      48.084  27.288  28.681  1.00  0.00     0.049 A 
ATOM     61  C   UNL A   1      42.318  27.831  29.717  1.00  0.00     0.074 A 
ATOM     62  C   UNL A   1      48.604  26.187  29.332  1.00  0.00     0.029 A 
ATOM     63  N   UNL A   1      47.142  27.823  29.532  1.00  0.00    -0.354 N 
ATOM     64  N   UNL A   1      42.973  27.317  30.716  1.00  0.00    -0.248 NA
ATOM     65  C   UNL A   1      42.992  28.918  29.025  1.00  0.00     0.031 C 
ATOM     66  C   UNL A   1      47.656  25.870  30.353  1.00  0.00     0.029 A 
ATOM     67  C   UNL A   1      46.643  26.830  30.330  1.00  0.00     0.049 A 
ATOM     68  H   UNL A   1      46.871  28.769  29.562  1.00  0.00     0.167 HD
ATOM     69  C   UNL A   1      44.294  27.668  30.484  1.00  0.00     0.074 A 
ATOM     70  C   UNL A   1      44.229  28.754  29.506  1.00  0.00     0.031 C 
ATOM     71  C   UNL A   1      45.304  26.838  30.878  1.00  0.00     0.031 A 
BRANCH  58  72
ATOM     72  C   UNL A   1      48.130  29.240  26.990  1.00  0.00    -0.014 A 
ATOM     73  C   UNL A   1      49.400  29.834  27.077  1.00  0.00     0.009 A 
ATOM     74  C   UNL A   1      47.044  30.125  26.847  1.00  0.00     0.009 A 
ATOM     75  C   UNL A   1      49.554  31.223  27.164  1.00  0.00     0.001 A 
ATOM     76  C   UNL A   1      47.192  31.511  26.910  1.00  0.00     0.001 A 
ATOM     77  C   UNL A   1      48.446  32.060  27.108  1.00  0.00     0.000 A 
ENDBRANCH  58  72
BRANCH  59  78
ATOM     78  C   UNL A   1      39.853  27.719  29.014  1.00  0.00    -0.014 A 
ATOM     79  C   UNL A   1      39.053  27.739  30.177  1.00  0.00     0.009 A 
ATOM     80  C   UNL A   1      39.450  28.529  27.945  1.00  0.00     0.009 A 
ATOM     81  C   UNL A   1      37.929  28.575  30.279  1.00  0.00     0.001 A 
ATOM     82  C   UNL A   1      38.320  29.350  28.043  1.00  0.00     0.001 A 
ATOM     83  C   UNL A   1      37.573  29.396  29.215  1.00  0.00     0.000 A 
ENDBRANCH  59  78
BRANCH  71  84
ATOM     84  C   UNL A   1      44.940  25.697  31.796  1.00  0.00    -0.014 A 
ATOM     85  C   UNL A   1      44.457  24.455  31.342  1.00  0.00     0.009 A 
ATOM     86  C   UNL A   1      45.202  25.847  33.164  1.00  0.00     0.009 A 
ATOM     87  C   UNL A   1      44.220  23.407  32.238  1.00  0.00     0.001 A 
ATOM     88  C   UNL A   1      44.986  24.795  34.055  1.00  0.00     0.001 A 
ATOM     89  C   UNL A   1      44.491  23.577  33.595  1.00  0.00     0.000 A 
ENDBRANCH  71  84
ENDBRANCH  45  46
ENDBRANCH  37  40
ENDBRANCH  35  36
ENDBRANCH  34  35
ENDBRANCH   1  34
TORSDOF 15
ENDMDL
MODEL 2
REMARK VINA RESULT:     -13.3      2.710      8.339
REMARK SMILES Cc1ccc(C)c(N2C(=O)S[C@H](CC(=O)Nc3ccc(C(=O)NCCCNC(=O)c4ccc(-c5c6nc(c(-c7ccccc7)c7ccc([nH]7)c(-c7ccccc7)c7nc(c(-c8ccccc8)c8ccc5[nH]8)C=C7)C=C6)cc4)c(O)c3)C2=O)c1
REMARK SMILES IDX 24 1 23 2 21 3 22 4 20 6 17 7 18 8 80 9 19 10 78 11 16 12
REMARK SMILES IDX 14 13 15 14 13 16 12 17 8 18 9 19 81 20 10 21 11 22 82 23
REMARK SMILES IDX 7 24 1 25 2 26 3 27 83 28 4 29 5 30 6 31 79 32 25 34 26 35
REMARK SMILES IDX 27 36 28 37 29 39 30 40 31 41 77 42 32 43 76 44 33 45 34 46
REMARK SMILES IDX 35 47 70 48 36 49 75 50 69 51 71 52 37 53 74 54 68 55 67 56
REMARK SMILES IDX 38 58 60 59 45 60 59 61 46 62 49 63 58 64 72 65 47 66 48 67
REMARK SMILES IDX 57 69 73 70 50 71 39 72 40 73 44 74 41 75 43 76 42 77 61 78
REMARK SMILES IDX 62 79 66 80 63 81 65 82 64 83 51 84 52 85 56 86 53 87 55 88
REMARK SMILES IDX 54 89
REMARK H PARENT 23 5 16 15 79 33 27 38 71 57 49 68
REMARK Flexibility Score: inf
ROOT
ATOM      1  C   UNL A   1      34.672  30.370  27.764  1.00  0.00     0.118 C 
ENDROOT
BRANCH   1   2
ATOM      2  N   UNL A   1      33.513  31.154  27.425  1.00  0.00    -0.352 N 
ATOM      3  C   UNL A   1      32.348  30.706  26.833  1.00  0.00     0.255 C 
ATOM      4  O   UNL A   1      31.403  31.493  26.783  1.00  0.00    -0.269 OA
ATOM      5  H   UNL A   1      33.555  32.115  27.638  1.00  0.00     0.163 HD
BRANCH   3   6
ATOM      6  C   UNL A   1      32.245  29.373  26.142  1.00  0.00     0.081 A 
ATOM      7  C   UNL A   1      31.162  27.113  24.872  1.00  0.00     0.044 A 
ATOM      8  C   UNL A   1      31.218  27.207  26.252  1.00  0.00     0.027 A 
ATOM      9  C   UNL A   1      31.951  27.981  24.146  1.00  0.00     0.073 A 
ATOM     10  C   UNL A   1      31.661  28.359  26.891  1.00  0.00     0.020 A 
ATOM     11  C   UNL A   1      32.575  29.040  24.820  1.00  0.00     0.130 A 
BRANCH   7  12
ATOM     12  N   UNL A   1      30.414  26.093  24.268  1.00  0.00    -0.326 N 
ATOM     13  C   UNL A   1      30.805  24.777  24.104  1.00  0.00     0.226 C 
ATOM     14  O   UNL A   1      30.315  24.090  23.209  1.00  0.00    -0.275 OA
ATOM     15  H   UNL A   1      29.522  26.338  23.930  1.00  0.00     0.169 HD
BRANCH  13  16
ATOM     16  C   UNL A   1      31.669  24.145  25.195  1.00  0.00     0.125 C 
BRANCH  16  17
ATOM     17  C   UNL A   1      33.150  23.924  24.883  1.00  0.00     0.156 C 
ATOM     18  N   UNL A   1      33.642  21.626  25.372  1.00  0.00    -0.240 N 
ATOM     19  C   UNL A   1      34.047  22.189  26.549  1.00  0.00     0.293 C 
ATOM     20  C   UNL A   1      33.313  22.506  24.349  1.00  0.00     0.248 C 
ATOM     21  O   UNL A   1      34.289  21.639  27.619  1.00  0.00    -0.261 OA
ATOM     22  S   UNL A   1      34.267  23.913  26.316  1.00  0.00    -0.050 SA
ATOM     23  O   UNL A   1      33.151  22.223  23.168  1.00  0.00    -0.273 OA
BRANCH  18  24
ATOM     24  C   UNL A   1      33.993  20.284  25.102  1.00  0.00     0.056 A 
ATOM     25  C   UNL A   1      32.362  16.826  25.016  1.00  0.00     0.044 C 
ATOM     26  C   UNL A   1      33.366  17.939  24.925  1.00  0.00    -0.049 A 
ATOM     27  C   UNL A   1      34.697  17.626  24.623  1.00  0.00     0.004 A 
ATOM     28  C   UNL A   1      33.013  19.278  25.152  1.00  0.00     0.030 A 
ATOM     29  C   UNL A   1      35.673  18.621  24.599  1.00  0.00     0.006 A 
ATOM     30  C   UNL A   1      35.339  19.957  24.852  1.00  0.00    -0.027 A 
ATOM     31  C   UNL A   1      36.459  20.964  24.856  1.00  0.00     0.046 C 
ENDBRANCH  18  24
ENDBRANCH  16  17
ENDBRANCH  13  16
ENDBRANCH   7  12
BRANCH  11  32
ATOM     32  O   UNL A   1      33.598  29.630  24.126  1.00  0.00    -0.507 OA
ATOM     33  H   UNL A   1      33.461  30.453  23.700  1.00  0.00     0.293 HD
ENDBRANCH  11  32
ENDBRANCH   3   6
ENDBRANCH   1   2
BRANCH   1  34
ATOM     34  C   UNL A   1      36.040  30.974  27.599  1.00  0.00     0.042 C 
BRANCH  34  35
ATOM     35  C   UNL A   1      36.846  31.148  28.862  1.00  0.00     0.118 C 
BRANCH  35  36
ATOM     36  N   UNL A   1      36.978  29.970  29.716  1.00  0.00    -0.352 N 
ATOM     37  C   UNL A   1      38.037  29.068  29.764  1.00  0.00     0.251 C 
ATOM     38  H   UNL A   1      36.230  29.793  30.332  1.00  0.00     0.163 HD
ATOM     39  O   UNL A   1      38.031  28.130  30.552  1.00  0.00    -0.269 OA
BRANCH  37  40
ATOM     40  C   UNL A   1      39.242  29.355  28.953  1.00  0.00     0.039 A 
ATOM     41  C   UNL A   1      39.216  29.012  27.599  1.00  0.00     0.014 A 
ATOM     42  C   UNL A   1      40.450  29.572  29.585  1.00  0.00     0.014 A 
ATOM     43  C   UNL A   1      40.362  28.471  27.019  1.00  0.00     0.010 A 
ATOM     44  C   UNL A   1      41.563  28.982  29.030  1.00  0.00     0.010 A 
ATOM     45  C   UNL A   1      41.487  28.281  27.814  1.00  0.00    -0.014 A 
BRANCH  45  46
ATOM     46  C   UNL A   1      42.659  27.508  27.374  1.00  0.00     0.031 A 
ATOM     47  C   UNL A   1      42.351  26.061  27.300  1.00  0.00     0.074 A 
ATOM     48  C   UNL A   1      43.821  27.947  26.836  1.00  0.00     0.049 A 
ATOM     49  N   UNL A   1      42.282  25.255  28.311  1.00  0.00    -0.248 NA
ATOM     50  C   UNL A   1      41.711  25.555  26.068  1.00  0.00     0.031 C 
ATOM     51  C   UNL A   1      44.245  29.290  26.440  1.00  0.00     0.029 A 
ATOM     52  N   UNL A   1      44.889  27.182  26.451  1.00  0.00    -0.354 N 
ATOM     53  C   UNL A   1      41.780  24.082  27.775  1.00  0.00     0.074 A 
ATOM     54  C   UNL A   1      41.096  24.488  26.579  1.00  0.00     0.031 C 
ATOM     55  C   UNL A   1      45.391  29.212  25.710  1.00  0.00     0.029 A 
ATOM     56  C   UNL A   1      45.859  27.833  25.691  1.00  0.00     0.049 A 
ATOM     57  H   UNL A   1      44.967  26.231  26.695  1.00  0.00     0.167 HD
ATOM     58  C   UNL A   1      42.310  22.863  28.080  1.00  0.00     0.031 A 
ATOM     59  C   UNL A   1      46.938  27.253  25.091  1.00  0.00     0.031 A 
ATOM     60  C   UNL A   1      43.322  22.995  29.108  1.00  0.00     0.049 A 
ATOM     61  C   UNL A   1      47.141  25.932  25.731  1.00  0.00     0.074 A 
ATOM     62  C   UNL A   1      43.365  23.444  30.413  1.00  0.00     0.029 A 
ATOM     63  N   UNL A   1      44.622  23.029  28.651  1.00  0.00    -0.354 N 
ATOM     64  N   UNL A   1      47.545  25.791  26.958  1.00  0.00    -0.248 NA
ATOM     65  C   UNL A   1      46.476  24.773  25.157  1.00  0.00     0.031 C 
ATOM     66  C   UNL A   1      44.617  24.122  30.537  1.00  0.00     0.029 A 
ATOM     67  C   UNL A   1      45.312  23.993  29.333  1.00  0.00     0.049 A 
ATOM     68  H   UNL A   1      44.994  22.452  27.946  1.00  0.00     0.167 HD
ATOM     69  C   UNL A   1      46.782  24.746  27.458  1.00  0.00     0.074 A 
ATOM     70  C   UNL A   1      46.237  24.079  26.276  1.00  0.00     0.031 C 
ATOM     71  C   UNL A   1      46.431  24.722  28.777  1.00  0.00     0.031 A 
BRANCH  58  72
ATOM     72  C   UNL A   1      42.319  21.687  27.119  1.00  0.00    -0.014 A 
ATOM     73  C   UNL A   1      41.364  20.675  27.316  1.00  0.00     0.009 A 
ATOM     74  C   UNL A   1      43.345  21.396  26.200  1.00  0.00     0.009 A 
ATOM     75  C   UNL A   1      41.514  19.406  26.742  1.00  0.00     0.001 A 
ATOM     76  C   UNL A   1      43.489  20.141  25.606  1.00  0.00     0.001 A 
ATOM     77  C   UNL A   1      42.592  19.132  25.908  1.00  0.00     0.000 A 
ENDBRANCH  58  72
BRANCH  59  78
ATOM     78  C   UNL A   1      47.731  27.621  23.891  1.00  0.00    -0.014 A 
ATOM     79  C   UNL A   1      49.007  27.064  23.656  1.00  0.00     0.009 A 
ATOM     80  C   UNL A   1      47.117  28.291  22.826  1.00  0.00     0.009 A 
ATOM     81  C   UNL A   1      49.615  27.133  22.391  1.00  0.00     0.001 A 
ATOM     82  C   UNL A   1      47.732  28.373  21.570  1.00  0.00     0.001 A 
ATOM     83  C   UNL A   1      48.967  27.773  21.342  1.00  0.00     0.000 A 
ENDBRANCH  59  78
BRANCH  71  84
ATOM     84  C   UNL A   1      47.123  25.703  29.692  1.00  0.00    -0.014 A 
ATOM     85  C   UNL A   1      48.303  25.408  30.401  1.00  0.00     0.009 A 
ATOM     86  C   UNL A   1      46.624  27.011  29.749  1.00  0.00     0.009 A 
ATOM     87  C   UNL A   1      48.944  26.389  31.166  1.00  0.00     0.001 A 
ATOM     88  C   UNL A   1      47.275  27.995  30.494  1.00  0.00     0.001 A 
ATOM     89  C   UNL A   1      48.431  27.685  31.206  1.00  0.00     0.000 A 
ENDBRANCH  71  84
ENDBRANCH  45  46
ENDBRANCH  37  40
ENDBRANCH  35  36
ENDBRANCH  34  35
ENDBRANCH   1  34
TORSDOF 15
ENDMDL
MODEL 3
REMARK VINA RESULT:     -13.0      5.195     10.731
REMARK SMILES Cc1ccc(C)c(N2C(=O)S[C@H](CC(=O)Nc3ccc(C(=O)NCCCNC(=O)c4ccc(-c5c6nc(c(-c7ccccc7)c7ccc([nH]7)c(-c7ccccc7)c7nc(c(-c8ccccc8)c8ccc5[nH]8)C=C7)C=C6)cc4)c(O)c3)C2=O)c1
REMARK SMILES IDX 24 1 23 2 21 3 22 4 20 6 17 7 18 8 80 9 19 10 78 11 16 12
REMARK SMILES IDX 14 13 15 14 13 16 12 17 8 18 9 19 81 20 10 21 11 22 82 23
REMARK SMILES IDX 7 24 1 25 2 26 3 27 83 28 4 29 5 30 6 31 79 32 25 34 26 35
REMARK SMILES IDX 27 36 28 37 29 39 30 40 31 41 77 42 32 43 76 44 33 45 34 46
REMARK SMILES IDX 35 47 70 48 36 49 75 50 69 51 71 52 37 53 74 54 68 55 67 56
REMARK SMILES IDX 38 58 60 59 45 60 59 61 46 62 49 63 58 64 72 65 47 66 48 67
REMARK SMILES IDX 57 69 73 70 50 71 39 72 40 73 44 74 41 75 43 76 42 77 61 78
REMARK SMILES IDX 62 79 66 80 63 81 65 82 64 83 51 84 52 85 56 86 53 87 55 88
REMARK SMILES IDX 54 89
REMARK H PARENT 23 5 16 15 79 33 27 38 71 57 49 68
REMARK Flexibility Score: inf
ROOT
ATOM      1  C   UNL A   1      33.196  33.224  27.872  1.00  0.00     0.118 C 
ENDROOT
BRANCH   1   2
ATOM      2  N   UNL A   1      34.057  32.110  28.171  1.00  0.00    -0.352 N 
ATOM      3  C   UNL A   1      33.956  30.824  27.678  1.00  0.00     0.255 C 
ATOM      4  O   UNL A   1      34.889  30.056  27.915  1.00  0.00    -0.269 OA
ATOM      5  H   UNL A   1      34.799  32.283  28.796  1.00  0.00     0.163 HD
BRANCH   3   6
ATOM      6  C   UNL A   1      32.716  30.304  27.002  1.00  0.00     0.081 A 
ATOM      7  C   UNL A   1      30.927  29.477  25.001  1.00  0.00     0.044 A 
ATOM      8  C   UNL A   1      31.052  30.811  25.349  1.00  0.00     0.027 A 
ATOM      9  C   UNL A   1      31.434  28.543  25.880  1.00  0.00     0.073 A 
ATOM     10  C   UNL A   1      32.003  31.242  26.267  1.00  0.00     0.020 A 
ATOM     11  C   UNL A   1      32.233  28.988  26.941  1.00  0.00     0.130 A 
BRANCH   7  12
ATOM     12  N   UNL A   1      30.209  29.117  23.851  1.00  0.00    -0.326 N 
ATOM     13  C   UNL A   1      30.630  28.248  22.862  1.00  0.00     0.226 C 
ATOM     14  O   UNL A   1      30.169  28.332  21.724  1.00  0.00    -0.275 OA
ATOM     15  H   UNL A   1      29.319  29.522  23.739  1.00  0.00     0.169 HD
BRANCH  13  16
ATOM     16  C   UNL A   1      31.488  27.053  23.275  1.00  0.00     0.125 C 
BRANCH  16  17
ATOM     17  C   UNL A   1      31.418  25.798  22.404  1.00  0.00     0.156 C 
ATOM     18  N   UNL A   1      32.628  24.071  23.551  1.00  0.00    -0.240 N 
ATOM     19  C   UNL A   1      33.615  24.508  22.715  1.00  0.00     0.293 C 
ATOM     20  C   UNL A   1      31.358  24.586  23.327  1.00  0.00     0.248 C 
ATOM     21  O   UNL A   1      34.821  24.286  22.770  1.00  0.00    -0.261 OA
ATOM     22  S   UNL A   1      32.898  25.438  21.413  1.00  0.00    -0.050 SA
ATOM     23  O   UNL A   1      30.307  24.167  23.797  1.00  0.00    -0.273 OA
BRANCH  18  24
ATOM     24  C   UNL A   1      32.814  22.857  24.251  1.00  0.00     0.056 A 
ATOM     25  C   UNL A   1      32.489  19.094  23.657  1.00  0.00     0.044 C 
ATOM     26  C   UNL A   1      32.748  20.425  24.302  1.00  0.00    -0.049 A 
ATOM     27  C   UNL A   1      33.126  20.463  25.650  1.00  0.00     0.004 A 
ATOM     28  C   UNL A   1      32.605  21.631  23.599  1.00  0.00     0.030 A 
ATOM     29  C   UNL A   1      33.307  21.680  26.303  1.00  0.00     0.006 A 
ATOM     30  C   UNL A   1      33.139  22.890  25.621  1.00  0.00    -0.027 A 
ATOM     31  C   UNL A   1      33.305  24.162  26.410  1.00  0.00     0.046 C 
ENDBRANCH  18  24
ENDBRANCH  16  17
ENDBRANCH  13  16
ENDBRANCH   7  12
BRANCH  11  32
ATOM     32  O   UNL A   1      32.400  28.075  27.949  1.00  0.00    -0.507 OA
ATOM     33  H   UNL A   1      33.164  28.110  28.490  1.00  0.00     0.293 HD
ENDBRANCH  11  32
ENDBRANCH   3   6
ENDBRANCH   1   2
BRANCH   1  34
ATOM     34  C   UNL A   1      33.505  34.570  28.469  1.00  0.00     0.042 C 
BRANCH  34  35
ATOM     35  C   UNL A   1      33.847  34.583  29.938  1.00  0.00     0.118 C 
BRANCH  35  36
ATOM     36  N   UNL A   1      32.889  35.240  30.824  1.00  0.00    -0.352 N 
ATOM     37  C   UNL A   1      32.906  35.280  32.215  1.00  0.00     0.251 C 
ATOM     38  H   UNL A   1      32.142  35.710  30.386  1.00  0.00     0.163 HD
ATOM     39  O   UNL A   1      32.048  35.892  32.839  1.00  0.00    -0.269 OA
BRANCH  37  40
ATOM     40  C   UNL A   1      34.071  34.698  32.921  1.00  0.00     0.039 A 
ATOM     41  C   UNL A   1      35.238  35.462  32.993  1.00  0.00     0.014 A 
ATOM     42  C   UNL A   1      34.124  33.335  33.134  1.00  0.00     0.014 A 
ATOM     43  C   UNL A   1      36.470  34.825  32.842  1.00  0.00     0.010 A 
ATOM     44  C   UNL A   1      35.335  32.715  32.923  1.00  0.00     0.010 A 
ATOM     45  C   UNL A   1      36.489  33.454  32.610  1.00  0.00    -0.014 A 
BRANCH  45  46
ATOM     46  C   UNL A   1      37.701  32.727  32.202  1.00  0.00     0.031 A 
ATOM     47  C   UNL A   1      38.594  32.480  33.358  1.00  0.00     0.074 A 
ATOM     48  C   UNL A   1      37.968  32.093  31.036  1.00  0.00     0.049 A 
ATOM     49  N   UNL A   1      39.380  33.353  33.901  1.00  0.00    -0.248 NA
ATOM     50  C   UNL A   1      38.318  31.296  34.199  1.00  0.00     0.031 C 
ATOM     51  C   UNL A   1      37.124  31.849  29.866  1.00  0.00     0.029 A 
ATOM     52  N   UNL A   1      39.121  31.437  30.702  1.00  0.00    -0.354 N 
ATOM     53  C   UNL A   1      39.845  32.726  35.044  1.00  0.00     0.074 A 
ATOM     54  C   UNL A   1      38.859  31.725  35.341  1.00  0.00     0.031 C 
ATOM     55  C   UNL A   1      37.731  30.949  29.044  1.00  0.00     0.029 A 
ATOM     56  C   UNL A   1      39.060  30.648  29.555  1.00  0.00     0.049 A 
ATOM     57  H   UNL A   1      39.943  31.517  31.240  1.00  0.00     0.167 HD
ATOM     58  C   UNL A   1      41.161  32.755  35.399  1.00  0.00     0.031 A 
ATOM     59  C   UNL A   1      40.034  29.808  29.100  1.00  0.00     0.031 A 
ATOM     60  C   UNL A   1      41.905  33.625  34.511  1.00  0.00     0.049 A 
ATOM     61  C   UNL A   1      41.299  30.199  29.766  1.00  0.00     0.074 A 
ATOM     62  C   UNL A   1      41.872  34.962  34.166  1.00  0.00     0.029 A 
ATOM     63  N   UNL A   1      42.580  32.986  33.493  1.00  0.00    -0.354 N 
ATOM     64  N   UNL A   1      41.919  31.314  29.518  1.00  0.00    -0.248 NA
ATOM     65  C   UNL A   1      41.646  29.562  31.027  1.00  0.00     0.031 C 
ATOM     66  C   UNL A   1      42.155  34.996  32.766  1.00  0.00     0.029 A 
ATOM     67  C   UNL A   1      42.421  33.696  32.335  1.00  0.00     0.049 A 
ATOM     68  H   UNL A   1      43.095  32.152  33.586  1.00  0.00     0.167 HD
ATOM     69  C   UNL A   1      42.350  31.757  30.759  1.00  0.00     0.074 A 
ATOM     70  C   UNL A   1      42.266  30.583  31.628  1.00  0.00     0.031 C 
ATOM     71  C   UNL A   1      42.436  33.095  31.019  1.00  0.00     0.031 A 
BRANCH  58  72
ATOM     72  C   UNL A   1      41.853  31.634  36.157  1.00  0.00    -0.014 A 
ATOM     73  C   UNL A   1      42.694  31.990  37.224  1.00  0.00     0.009 A 
ATOM     74  C   UNL A   1      41.920  30.292  35.739  1.00  0.00     0.009 A 
ATOM     75  C   UNL A   1      43.643  31.097  37.736  1.00  0.00     0.001 A 
ATOM     76  C   UNL A   1      42.849  29.389  36.259  1.00  0.00     0.001 A 
ATOM     77  C   UNL A   1      43.737  29.804  37.235  1.00  0.00     0.000 A 
ENDBRANCH  58  72
BRANCH  59  78
ATOM     78  C   UNL A   1      39.986  28.573  28.279  1.00  0.00    -0.014 A 
ATOM     79  C   UNL A   1      40.700  28.469  27.066  1.00  0.00     0.009 A 
ATOM     80  C   UNL A   1      39.476  27.389  28.827  1.00  0.00     0.009 A 
ATOM     81  C   UNL A   1      40.936  27.224  26.459  1.00  0.00     0.001 A 
ATOM     82  C   UNL A   1      39.699  26.151  28.212  1.00  0.00     0.001 A 
ATOM     83  C   UNL A   1      40.450  26.061  27.044  1.00  0.00     0.000 A 
ENDBRANCH  59  78
BRANCH  71  84
ATOM     84  C   UNL A   1      42.315  34.034  29.843  1.00  0.00    -0.014 A 
ATOM     85  C   UNL A   1      41.127  34.707  29.502  1.00  0.00     0.009 A 
ATOM     86  C   UNL A   1      43.478  34.335  29.123  1.00  0.00     0.009 A 
ATOM     87  C   UNL A   1      41.102  35.632  28.452  1.00  0.00     0.001 A 
ATOM     88  C   UNL A   1      43.459  35.273  28.090  1.00  0.00     0.001 A 
ATOM     89  C   UNL A   1      42.272  35.918  27.751  1.00  0.00     0.000 A 
ENDBRANCH  71  84
ENDBRANCH  45  46
ENDBRANCH  37  40
ENDBRANCH  35  36
ENDBRANCH  34  35
ENDBRANCH   1  34
TORSDOF 15
ENDMDL
