MODEL 1
REMARK VINA RESULT:     -11.2      0.000      0.000
REMARK SMILES CCc1ccc2c(c1)C=C(C(=O)NCCCNC(=O)c1ccc(-c3c4nc(c(-c5ccccc5)c5ccc([nH]5)c(-c5ccccc5)c5nc(c(-c6ccccc6)c6ccc3[nH]6)C=C5)C=C4)cc1)[C@H](C(F)(F)F)O2
REMARK SMILES IDX 15 1 14 2 13 3 11 4 12 5 10 7 3 8 4 9 8 10 5 11 7 12 6 13
REMARK SMILES IDX 9 14 73 15 68 16 2 17 1 18 69 19 70 20 71 21 72 22 16 23
REMARK SMILES IDX 17 24 18 25 19 27 20 28 21 29 67 30 22 31 66 32 23 33 24 34
REMARK SMILES IDX 25 35 60 36 26 37 65 38 59 39 61 40 27 41 64 42 58 43 57 44
REMARK SMILES IDX 28 46 50 47 35 48 49 49 36 50 39 51 48 52 62 53 37 54 38 55
REMARK SMILES IDX 47 57 63 58 40 59 29 60 30 61 34 62 31 63 33 64 32 65 51 66
REMARK SMILES IDX 52 67 56 68 53 69 55 70 54 71 41 72 42 73 46 74 43 75 45 76
REMARK SMILES IDX 44 77
REMARK H PARENT 13 6 17 26 61 45 39 56
REMARK Flexibility Score: inf
ROOT
ATOM      1  C   UNL A   1      33.211  27.773  26.838  1.00  0.00     0.042 C 
ENDROOT
BRANCH   1   2
ATOM      2  C   UNL A   1      31.754  27.596  26.399  1.00  0.00     0.118 C 
BRANCH   2   3
ATOM      3  N   UNL A   1      31.212  26.345  26.906  1.00  0.00    -0.352 N 
ATOM      4  C   UNL A   1      31.453  25.041  26.604  1.00  0.00     0.251 C 
ATOM      5  O   UNL A   1      30.738  24.186  27.120  1.00  0.00    -0.270 OA
ATOM      6  H   UNL A   1      30.533  26.466  27.609  1.00  0.00     0.163 HD
BRANCH   4   7
ATOM      7  C   UNL A   1      32.581  24.612  25.739  1.00  0.00     0.067 C 
ATOM      8  C   UNL A   1      36.897  22.546  24.970  1.00  0.00    -0.047 A 
ATOM      9  C   UNL A   1      36.680  22.643  23.591  1.00  0.00     0.007 A 
ATOM     10  C   UNL A   1      35.931  23.086  25.835  1.00  0.00     0.015 A 
ATOM     11  C   UNL A   1      35.509  23.222  23.093  1.00  0.00     0.047 A 
ATOM     12  C   UNL A   1      34.756  23.663  25.337  1.00  0.00     0.017 A 
ATOM     13  C   UNL A   1      34.545  23.724  23.965  1.00  0.00     0.128 A 
ATOM     14  C   UNL A   1      33.717  24.114  26.245  1.00  0.00     0.025 C 
ATOM     15  O   UNL A   1      33.401  24.203  23.403  1.00  0.00    -0.475 OA
ATOM     16  C   UNL A   1      32.450  24.916  24.249  1.00  0.00     0.314 C 
BRANCH   8  17
ATOM     17  C   UNL A   1      38.123  21.906  25.582  1.00  0.00     0.032 C 
ATOM     18  C   UNL A   1      38.392  20.456  25.202  1.00  0.00     0.009 C 
ENDBRANCH   8  17
BRANCH  16  19
ATOM     19  C   UNL A   1      31.049  24.704  23.634  1.00  0.00     0.429 C 
ATOM     20  F   UNL A   1      30.502  23.514  23.973  1.00  0.00    -0.167 F 
ATOM     21  F   UNL A   1      30.173  25.644  24.078  1.00  0.00    -0.167 F 
ATOM     22  F   UNL A   1      31.063  24.789  22.283  1.00  0.00    -0.167 F 
ENDBRANCH  16  19
ENDBRANCH   4   7
ENDBRANCH   2   3
ENDBRANCH   1   2
BRANCH   1  23
ATOM     23  C   UNL A   1      33.957  28.853  26.058  1.00  0.00     0.118 C 
BRANCH  23  24
ATOM     24  N   UNL A   1      33.751  30.175  26.628  1.00  0.00    -0.352 N 
ATOM     25  C   UNL A   1      34.461  30.837  27.597  1.00  0.00     0.251 C 
ATOM     26  H   UNL A   1      32.983  30.671  26.261  1.00  0.00     0.163 HD
ATOM     27  O   UNL A   1      33.995  31.858  28.094  1.00  0.00    -0.269 OA
BRANCH  25  28
ATOM     28  C   UNL A   1      35.775  30.334  28.059  1.00  0.00     0.039 A 
ATOM     29  C   UNL A   1      35.862  29.765  29.334  1.00  0.00     0.014 A 
ATOM     30  C   UNL A   1      36.926  30.471  27.280  1.00  0.00     0.014 A 
ATOM     31  C   UNL A   1      37.090  29.296  29.809  1.00  0.00     0.010 A 
ATOM     32  C   UNL A   1      38.138  29.949  27.727  1.00  0.00     0.010 A 
ATOM     33  C   UNL A   1      38.234  29.362  28.999  1.00  0.00    -0.014 A 
BRANCH  33  34
ATOM     34  C   UNL A   1      39.538  28.828  29.467  1.00  0.00     0.031 A 
ATOM     35  C   UNL A   1      40.395  29.630  30.408  1.00  0.00     0.074 A 
ATOM     36  C   UNL A   1      39.979  27.644  29.000  1.00  0.00     0.049 A 
ATOM     37  N   UNL A   1      41.589  29.358  30.872  1.00  0.00    -0.248 NA
ATOM     38  C   UNL A   1      39.848  30.915  30.871  1.00  0.00     0.031 C 
ATOM     39  C   UNL A   1      39.258  26.780  28.063  1.00  0.00     0.029 A 
ATOM     40  N   UNL A   1      41.146  26.966  29.247  1.00  0.00    -0.354 N 
ATOM     41  C   UNL A   1      41.942  30.444  31.664  1.00  0.00     0.074 A 
ATOM     42  C   UNL A   1      40.855  31.396  31.586  1.00  0.00     0.031 C 
ATOM     43  C   UNL A   1      39.989  25.678  27.831  1.00  0.00     0.029 A 
ATOM     44  C   UNL A   1      41.243  25.774  28.570  1.00  0.00     0.049 A 
ATOM     45  H   UNL A   1      41.847  27.301  29.851  1.00  0.00     0.167 HD
ATOM     46  C   UNL A   1      43.063  30.627  32.403  1.00  0.00     0.031 A 
ATOM     47  C   UNL A   1      42.233  24.864  28.541  1.00  0.00     0.031 A 
ATOM     48  C   UNL A   1      44.141  29.677  32.492  1.00  0.00     0.049 A 
ATOM     49  C   UNL A   1      43.474  25.096  29.357  1.00  0.00     0.074 A 
ATOM     50  C   UNL A   1      45.295  29.751  33.253  1.00  0.00     0.029 A 
ATOM     51  N   UNL A   1      44.197  28.481  31.794  1.00  0.00    -0.354 N 
ATOM     52  N   UNL A   1      43.767  26.103  30.143  1.00  0.00    -0.248 NA
ATOM     53  C   UNL A   1      44.514  24.061  29.289  1.00  0.00     0.031 C 
ATOM     54  C   UNL A   1      46.070  28.618  32.982  1.00  0.00     0.029 A 
ATOM     55  C   UNL A   1      45.374  27.817  32.091  1.00  0.00     0.049 A 
ATOM     56  H   UNL A   1      43.502  28.153  31.178  1.00  0.00     0.167 HD
ATOM     57  C   UNL A   1      45.012  25.811  30.683  1.00  0.00     0.074 A 
ATOM     58  C   UNL A   1      45.412  24.526  30.145  1.00  0.00     0.031 C 
ATOM     59  C   UNL A   1      45.758  26.540  31.547  1.00  0.00     0.031 A 
BRANCH  46  60
ATOM     60  C   UNL A   1      43.183  31.915  33.171  1.00  0.00    -0.014 A 
ATOM     61  C   UNL A   1      42.703  32.024  34.485  1.00  0.00     0.009 A 
ATOM     62  C   UNL A   1      43.811  33.023  32.582  1.00  0.00     0.009 A 
ATOM     63  C   UNL A   1      42.819  33.228  35.183  1.00  0.00     0.001 A 
ATOM     64  C   UNL A   1      43.949  34.218  33.291  1.00  0.00     0.001 A 
ATOM     65  C   UNL A   1      43.444  34.323  34.587  1.00  0.00     0.000 A 
ENDBRANCH  46  60
BRANCH  47  66
ATOM     66  C   UNL A   1      42.088  23.635  27.719  1.00  0.00    -0.014 A 
ATOM     67  C   UNL A   1      41.489  22.487  28.259  1.00  0.00     0.009 A 
ATOM     68  C   UNL A   1      42.546  23.603  26.393  1.00  0.00     0.009 A 
ATOM     69  C   UNL A   1      41.374  21.323  27.495  1.00  0.00     0.001 A 
ATOM     70  C   UNL A   1      42.405  22.447  25.623  1.00  0.00     0.001 A 
ATOM     71  C   UNL A   1      41.828  21.306  26.177  1.00  0.00     0.000 A 
ENDBRANCH  47  66
BRANCH  59  72
ATOM     72  C   UNL A   1      47.065  25.950  31.992  1.00  0.00    -0.014 A 
ATOM     73  C   UNL A   1      48.236  26.122  31.237  1.00  0.00     0.009 A 
ATOM     74  C   UNL A   1      47.133  25.244  33.203  1.00  0.00     0.009 A 
ATOM     75  C   UNL A   1      49.443  25.571  31.673  1.00  0.00     0.001 A 
ATOM     76  C   UNL A   1      48.345  24.717  33.649  1.00  0.00     0.001 A 
ATOM     77  C   UNL A   1      49.497  24.874  32.880  1.00  0.00     0.000 A 
ENDBRANCH  59  72
ENDBRANCH  33  34
ENDBRANCH  25  28
ENDBRANCH  23  24
ENDBRANCH   1  23
TORSDOF 12
ENDMDL
MODEL 2
REMARK VINA RESULT:     -11.2      0.409      1.154
REMARK SMILES CCc1ccc2c(c1)C=C(C(=O)NCCCNC(=O)c1ccc(-c3c4nc(c(-c5ccccc5)c5ccc([nH]5)c(-c5ccccc5)c5nc(c(-c6ccccc6)c6ccc3[nH]6)C=C5)C=C4)cc1)[C@H](C(F)(F)F)O2
REMARK SMILES IDX 15 1 14 2 13 3 11 4 12 5 10 7 3 8 4 9 8 10 5 11 7 12 6 13
REMARK SMILES IDX 9 14 73 15 68 16 2 17 1 18 69 19 70 20 71 21 72 22 16 23
REMARK SMILES IDX 17 24 18 25 19 27 20 28 21 29 67 30 22 31 66 32 23 33 24 34
REMARK SMILES IDX 25 35 60 36 26 37 65 38 59 39 61 40 27 41 64 42 58 43 57 44
REMARK SMILES IDX 28 46 50 47 35 48 49 49 36 50 39 51 48 52 62 53 37 54 38 55
REMARK SMILES IDX 47 57 63 58 40 59 29 60 30 61 34 62 31 63 33 64 32 65 51 66
REMARK SMILES IDX 52 67 56 68 53 69 55 70 54 71 41 72 42 73 46 74 43 75 45 76
REMARK SMILES IDX 44 77
REMARK H PARENT 13 6 17 26 61 45 39 56
REMARK Flexibility Score: inf
ROOT
ATOM      1  C   UNL A   1      33.290  27.859  26.842  1.00  0.00     0.042 C 
ENDROOT
BRANCH   1   2
ATOM      2  C   UNL A   1      31.857  27.659  26.339  1.00  0.00     0.118 C 
BRANCH   2   3
ATOM      3  N   UNL A   1      31.300  26.415  26.849  1.00  0.00    -0.352 N 
ATOM      4  C   UNL A   1      31.531  25.108  26.551  1.00  0.00     0.251 C 
ATOM      5  O   UNL A   1      30.805  24.261  27.067  1.00  0.00    -0.270 OA
ATOM      6  H   UNL A   1      30.620  26.545  27.549  1.00  0.00     0.163 HD
BRANCH   4   7
ATOM      7  C   UNL A   1      32.657  24.665  25.691  1.00  0.00     0.067 C 
ATOM      8  C   UNL A   1      36.946  22.537  24.940  1.00  0.00    -0.047 A 
ATOM      9  C   UNL A   1      36.739  22.643  23.560  1.00  0.00     0.007 A 
ATOM     10  C   UNL A   1      35.982  23.088  25.802  1.00  0.00     0.015 A 
ATOM     11  C   UNL A   1      35.580  23.243  23.058  1.00  0.00     0.047 A 
ATOM     12  C   UNL A   1      34.819  23.685  25.299  1.00  0.00     0.017 A 
ATOM     13  C   UNL A   1      34.619  23.755  23.926  1.00  0.00     0.128 A 
ATOM     14  C   UNL A   1      33.782  24.148  26.203  1.00  0.00     0.025 C 
ATOM     15  O   UNL A   1      33.485  24.254  23.359  1.00  0.00    -0.475 OA
ATOM     16  C   UNL A   1      32.541  24.978  24.202  1.00  0.00     0.314 C 
BRANCH   8  17
ATOM     17  C   UNL A   1      38.158  21.876  25.557  1.00  0.00     0.032 C 
ATOM     18  C   UNL A   1      38.341  20.392  25.267  1.00  0.00     0.009 C 
ENDBRANCH   8  17
BRANCH  16  19
ATOM     19  C   UNL A   1      31.140  24.790  23.578  1.00  0.00     0.429 C 
ATOM     20  F   UNL A   1      30.287  25.791  23.891  1.00  0.00    -0.167 F 
ATOM     21  F   UNL A   1      31.207  24.784  22.219  1.00  0.00    -0.167 F 
ATOM     22  F   UNL A   1      30.567  23.621  23.946  1.00  0.00    -0.167 F 
ENDBRANCH  16  19
ENDBRANCH   4   7
ENDBRANCH   2   3
ENDBRANCH   1   2
BRANCH   1  23
ATOM     23  C   UNL A   1      34.033  28.991  26.136  1.00  0.00     0.118 C 
BRANCH  23  24
ATOM     24  N   UNL A   1      33.840  30.267  26.804  1.00  0.00    -0.352 N 
ATOM     25  C   UNL A   1      34.563  30.852  27.813  1.00  0.00     0.251 C 
ATOM     26  H   UNL A   1      33.071  30.793  26.484  1.00  0.00     0.163 HD
ATOM     27  O   UNL A   1      34.108  31.835  28.389  1.00  0.00    -0.269 OA
BRANCH  25  28
ATOM     28  C   UNL A   1      35.878  30.309  28.222  1.00  0.00     0.039 A 
ATOM     29  C   UNL A   1      36.954  30.421  27.334  1.00  0.00     0.014 A 
ATOM     30  C   UNL A   1      36.048  29.641  29.437  1.00  0.00     0.014 A 
ATOM     31  C   UNL A   1      38.204  29.903  27.681  1.00  0.00     0.010 A 
ATOM     32  C   UNL A   1      37.309  29.179  29.809  1.00  0.00     0.010 A 
ATOM     33  C   UNL A   1      38.399  29.299  28.932  1.00  0.00    -0.014 A 
BRANCH  33  34
ATOM     34  C   UNL A   1      39.730  28.783  29.337  1.00  0.00     0.031 A 
ATOM     35  C   UNL A   1      40.652  29.628  30.173  1.00  0.00     0.074 A 
ATOM     36  C   UNL A   1      40.135  27.573  28.906  1.00  0.00     0.049 A 
ATOM     37  N   UNL A   1      41.875  29.375  30.568  1.00  0.00    -0.248 NA
ATOM     38  C   UNL A   1      40.142  30.940  30.603  1.00  0.00     0.031 C 
ATOM     39  C   UNL A   1      39.348  26.665  28.069  1.00  0.00     0.029 A 
ATOM     40  N   UNL A   1      41.315  26.901  29.108  1.00  0.00    -0.354 N 
ATOM     41  C   UNL A   1      42.285  30.498  31.274  1.00  0.00     0.074 A 
ATOM     42  C   UNL A   1      41.197  31.452  31.220  1.00  0.00     0.031 C 
ATOM     43  C   UNL A   1      40.059  25.547  27.846  1.00  0.00     0.029 A 
ATOM     44  C   UNL A   1      41.362  25.674  28.491  1.00  0.00     0.049 A 
ATOM     45  H   UNL A   1      42.057  27.264  29.643  1.00  0.00     0.167 HD
ATOM     46  C   UNL A   1      43.454  30.714  31.923  1.00  0.00     0.031 A 
ATOM     47  C   UNL A   1      42.345  24.758  28.443  1.00  0.00     0.031 A 
ATOM     48  C   UNL A   1      44.533  29.763  31.988  1.00  0.00     0.049 A 
ATOM     49  C   UNL A   1      43.640  25.026  29.158  1.00  0.00     0.074 A 
ATOM     50  C   UNL A   1      45.738  29.870  32.663  1.00  0.00     0.029 A 
ATOM     51  N   UNL A   1      44.538  28.532  31.353  1.00  0.00    -0.354 N 
ATOM     52  N   UNL A   1      43.989  26.071  29.866  1.00  0.00    -0.248 NA
ATOM     53  C   UNL A   1      44.670  23.981  29.074  1.00  0.00     0.031 C 
ATOM     54  C   UNL A   1      46.489  28.719  32.401  1.00  0.00     0.029 A 
ATOM     55  C   UNL A   1      45.732  27.877  31.604  1.00  0.00     0.049 A 
ATOM     56  H   UNL A   1      43.801  28.175  30.806  1.00  0.00     0.167 HD
ATOM     57  C   UNL A   1      45.268  25.801  30.334  1.00  0.00     0.074 A 
ATOM     58  C   UNL A   1      45.627  24.486  29.840  1.00  0.00     0.031 C 
ATOM     59  C   UNL A   1      46.074  26.570  31.105  1.00  0.00     0.031 A 
BRANCH  46  60
ATOM     60  C   UNL A   1      43.630  32.040  32.610  1.00  0.00    -0.014 A 
ATOM     61  C   UNL A   1      44.181  33.140  31.935  1.00  0.00     0.009 A 
ATOM     62  C   UNL A   1      43.210  32.200  33.939  1.00  0.00     0.009 A 
ATOM     63  C   UNL A   1      44.341  34.364  32.589  1.00  0.00     0.001 A 
ATOM     64  C   UNL A   1      43.347  33.431  34.583  1.00  0.00     0.001 A 
ATOM     65  C   UNL A   1      43.922  34.509  33.910  1.00  0.00     0.000 A 
ENDBRANCH  46  60
BRANCH  47  66
ATOM     66  C   UNL A   1      42.141  23.488  27.700  1.00  0.00    -0.014 A 
ATOM     67  C   UNL A   1      42.549  23.374  26.362  1.00  0.00     0.009 A 
ATOM     68  C   UNL A   1      41.538  22.384  28.323  1.00  0.00     0.009 A 
ATOM     69  C   UNL A   1      42.336  22.188  25.655  1.00  0.00     0.001 A 
ATOM     70  C   UNL A   1      41.351  21.191  27.621  1.00  0.00     0.001 A 
ATOM     71  C   UNL A   1      41.741  21.097  26.286  1.00  0.00     0.000 A 
ENDBRANCH  47  66
BRANCH  59  72
ATOM     72  C   UNL A   1      47.407  25.997  31.489  1.00  0.00    -0.014 A 
ATOM     73  C   UNL A   1      48.487  26.003  30.594  1.00  0.00     0.009 A 
ATOM     74  C   UNL A   1      47.594  25.477  32.780  1.00  0.00     0.009 A 
ATOM     75  C   UNL A   1      49.722  25.470  30.975  1.00  0.00     0.001 A 
ATOM     76  C   UNL A   1      48.835  24.970  33.167  1.00  0.00     0.001 A 
ATOM     77  C   UNL A   1      49.894  24.960  32.261  1.00  0.00     0.000 A 
ENDBRANCH  59  72
ENDBRANCH  33  34
ENDBRANCH  25  28
ENDBRANCH  23  24
ENDBRANCH   1  23
TORSDOF 12
ENDMDL
MODEL 3
REMARK VINA RESULT:     -11.1      2.385      4.338
REMARK SMILES CCc1ccc2c(c1)C=C(C(=O)NCCCNC(=O)c1ccc(-c3c4nc(c(-c5ccccc5)c5ccc([nH]5)c(-c5ccccc5)c5nc(c(-c6ccccc6)c6ccc3[nH]6)C=C5)C=C4)cc1)[C@H](C(F)(F)F)O2
REMARK SMILES IDX 15 1 14 2 13 3 11 4 12 5 10 7 3 8 4 9 8 10 5 11 7 12 6 13
REMARK SMILES IDX 9 14 73 15 68 16 2 17 1 18 69 19 70 20 71 21 72 22 16 23
REMARK SMILES IDX 17 24 18 25 19 27 20 28 21 29 67 30 22 31 66 32 23 33 24 34
REMARK SMILES IDX 25 35 60 36 26 37 65 38 59 39 61 40 27 41 64 42 58 43 57 44
REMARK SMILES IDX 28 46 50 47 35 48 49 49 36 50 39 51 48 52 62 53 37 54 38 55
REMARK SMILES IDX 47 57 63 58 40 59 29 60 30 61 34 62 31 63 33 64 32 65 51 66
REMARK SMILES IDX 52 67 56 68 53 69 55 70 54 71 41 72 42 73 46 74 43 75 45 76
REMARK SMILES IDX 44 77
REMARK H PARENT 13 6 17 26 61 45 39 56
REMARK Flexibility Score: inf
ROOT
ATOM      1  C   UNL A   1      34.041  28.244  25.845  1.00  0.00     0.042 C 
ENDROOT
BRANCH   1   2
ATOM      2  C   UNL A   1      33.926  26.785  25.392  1.00  0.00     0.118 C 
BRANCH   2   3
ATOM      3  N   UNL A   1      34.137  26.674  23.956  1.00  0.00    -0.352 N 
ATOM      4  C   UNL A   1      33.303  26.779  22.887  1.00  0.00     0.251 C 
ATOM      5  O   UNL A   1      33.751  26.508  21.776  1.00  0.00    -0.270 OA
ATOM      6  H   UNL A   1      35.072  26.483  23.709  1.00  0.00     0.163 HD
BRANCH   4   7
ATOM      7  C   UNL A   1      31.908  27.273  23.002  1.00  0.00     0.067 C 
ATOM      8  C   UNL A   1      28.448  30.622  22.455  1.00  0.00    -0.047 A 
ATOM      9  C   UNL A   1      27.488  29.665  22.805  1.00  0.00     0.007 A 
ATOM     10  C   UNL A   1      29.802  30.249  22.488  1.00  0.00     0.015 A 
ATOM     11  C   UNL A   1      27.871  28.361  23.135  1.00  0.00     0.047 A 
ATOM     12  C   UNL A   1      30.185  28.942  22.815  1.00  0.00     0.017 A 
ATOM     13  C   UNL A   1      29.215  27.999  23.132  1.00  0.00     0.128 A 
ATOM     14  C   UNL A   1      31.578  28.544  22.735  1.00  0.00     0.025 C 
ATOM     15  O   UNL A   1      29.498  26.692  23.392  1.00  0.00    -0.475 OA
ATOM     16  C   UNL A   1      30.889  26.304  23.595  1.00  0.00     0.314 C 
BRANCH   8  17
ATOM     17  C   UNL A   1      28.109  32.041  22.056  1.00  0.00     0.032 C 
ATOM     18  C   UNL A   1      28.789  33.149  22.849  1.00  0.00     0.009 C 
ENDBRANCH   8  17
BRANCH  16  19
ATOM     19  C   UNL A   1      31.018  24.830  23.152  1.00  0.00     0.429 C 
ATOM     20  F   UNL A   1      31.530  24.699  21.907  1.00  0.00    -0.167 F 
ATOM     21  F   UNL A   1      31.866  24.146  23.966  1.00  0.00    -0.167 F 
ATOM     22  F   UNL A   1      29.832  24.178  23.187  1.00  0.00    -0.167 F 
ENDBRANCH  16  19
ENDBRANCH   4   7
ENDBRANCH   2   3
ENDBRANCH   1   2
BRANCH   1  23
ATOM     23  C   UNL A   1      33.633  28.464  27.301  1.00  0.00     0.118 C 
BRANCH  23  24
ATOM     24  N   UNL A   1      33.565  29.877  27.637  1.00  0.00    -0.352 N 
ATOM     25  C   UNL A   1      34.490  30.681  28.254  1.00  0.00     0.251 C 
ATOM     26  H   UNL A   1      32.726  30.326  27.384  1.00  0.00     0.163 HD
ATOM     27  O   UNL A   1      34.155  31.796  28.644  1.00  0.00    -0.269 OA
BRANCH  25  28
ATOM     28  C   UNL A   1      35.882  30.221  28.464  1.00  0.00     0.039 A 
ATOM     29  C   UNL A   1      36.243  29.738  29.727  1.00  0.00     0.014 A 
ATOM     30  C   UNL A   1      36.845  30.319  27.457  1.00  0.00     0.014 A 
ATOM     31  C   UNL A   1      37.553  29.313  29.964  1.00  0.00     0.010 A 
ATOM     32  C   UNL A   1      38.135  29.838  27.675  1.00  0.00     0.010 A 
ATOM     33  C   UNL A   1      38.504  29.336  28.933  1.00  0.00    -0.014 A 
BRANCH  33  34
ATOM     34  C   UNL A   1      39.888  28.847  29.153  1.00  0.00     0.031 A 
ATOM     35  C   UNL A   1      40.930  29.754  29.747  1.00  0.00     0.074 A 
ATOM     36  C   UNL A   1      40.223  27.601  28.766  1.00  0.00     0.049 A 
ATOM     37  N   UNL A   1      42.204  29.526  29.952  1.00  0.00    -0.248 NA
ATOM     38  C   UNL A   1      40.490  31.101  30.141  1.00  0.00     0.031 C 
ATOM     39  C   UNL A   1      39.314  26.630  28.154  1.00  0.00     0.029 A 
ATOM     40  N   UNL A   1      41.424  26.940  28.826  1.00  0.00    -0.354 N 
ATOM     41  C   UNL A   1      42.718  30.703  30.480  1.00  0.00     0.074 A 
ATOM     42  C   UNL A   1      41.631  31.656  30.526  1.00  0.00     0.031 C 
ATOM     43  C   UNL A   1      39.984  25.492  27.912  1.00  0.00     0.029 A 
ATOM     44  C   UNL A   1      41.375  25.664  28.317  1.00  0.00     0.049 A 
ATOM     45  H   UNL A   1      42.243  27.342  29.196  1.00  0.00     0.167 HD
ATOM     46  C   UNL A   1      43.978  30.964  30.904  1.00  0.00     0.031 A 
ATOM     47  C   UNL A   1      42.343  24.740  28.185  1.00  0.00     0.031 A 
ATOM     48  C   UNL A   1      45.059  30.015  30.870  1.00  0.00     0.049 A 
ATOM     49  C   UNL A   1      43.737  25.058  28.648  1.00  0.00     0.074 A 
ATOM     50  C   UNL A   1      46.359  30.170  31.323  1.00  0.00     0.029 A 
ATOM     51  N   UNL A   1      44.966  28.733  30.352  1.00  0.00    -0.354 N 
ATOM     52  N   UNL A   1      44.193  26.158  29.195  1.00  0.00    -0.248 NA
ATOM     53  C   UNL A   1      44.746  24.002  28.484  1.00  0.00     0.031 C 
ATOM     54  C   UNL A   1      47.063  28.995  31.039  1.00  0.00     0.029 A 
ATOM     55  C   UNL A   1      46.189  28.093  30.456  1.00  0.00     0.049 A 
ATOM     56  H   UNL A   1      44.151  28.336  29.968  1.00  0.00     0.167 HD
ATOM     57  C   UNL A   1      45.534  25.919  29.465  1.00  0.00     0.074 A 
ATOM     58  C   UNL A   1      45.814  24.564  29.033  1.00  0.00     0.031 C 
ATOM     59  C   UNL A   1      46.452  26.745  30.021  1.00  0.00     0.031 A 
BRANCH  46  60
ATOM     60  C   UNL A   1      44.257  32.344  31.435  1.00  0.00    -0.014 A 
ATOM     61  C   UNL A   1      44.682  33.377  30.585  1.00  0.00     0.009 A 
ATOM     62  C   UNL A   1      44.062  32.621  32.797  1.00  0.00     0.009 A 
ATOM     63  C   UNL A   1      44.941  34.651  31.095  1.00  0.00     0.001 A 
ATOM     64  C   UNL A   1      44.297  33.902  33.300  1.00  0.00     0.001 A 
ATOM     65  C   UNL A   1      44.745  34.914  32.451  1.00  0.00     0.000 A 
ENDBRANCH  46  60
BRANCH  47  66
ATOM     66  C   UNL A   1      42.026  23.412  27.599  1.00  0.00    -0.014 A 
ATOM     67  C   UNL A   1      42.255  23.164  26.237  1.00  0.00     0.009 A 
ATOM     68  C   UNL A   1      41.495  22.386  28.397  1.00  0.00     0.009 A 
ATOM     69  C   UNL A   1      41.935  21.924  25.680  1.00  0.00     0.001 A 
ATOM     70  C   UNL A   1      41.202  21.139  27.842  1.00  0.00     0.001 A 
ATOM     71  C   UNL A   1      41.413  20.911  26.483  1.00  0.00     0.000 A 
ENDBRANCH  47  66
BRANCH  59  72
ATOM     72  C   UNL A   1      47.834  26.197  30.225  1.00  0.00    -0.014 A 
ATOM     73  C   UNL A   1      48.768  26.166  29.178  1.00  0.00     0.009 A 
ATOM     74  C   UNL A   1      48.220  25.739  31.495  1.00  0.00     0.009 A 
ATOM     75  C   UNL A   1      50.051  25.658  29.392  1.00  0.00     0.001 A 
ATOM     76  C   UNL A   1      49.510  25.257  31.713  1.00  0.00     0.001 A 
ATOM     77  C   UNL A   1      50.422  25.209  30.659  1.00  0.00     0.000 A 
ENDBRANCH  59  72
ENDBRANCH  33  34
ENDBRANCH  25  28
ENDBRANCH  23  24
ENDBRANCH   1  23
TORSDOF 12
ENDMDL
