MODEL 1
REMARK VINA RESULT:     -10.6      0.000      0.000
REMARK SMILES C[C@H](NC(=O)CCn1ccccc1=O)C(=O)NCCCNC(=O)c1ccc(-c2c3nc(c(-c4ccccc4)c4ccc([nH]4)c(-c4ccccc4)c4nc(c(-c5ccccc5)c5ccc2[nH]5)C=C4)C=C3)cc1
REMARK SMILES IDX 18 1 17 2 15 3 16 4 2 6 1 7 3 8 4 9 5 11 6 12 7 13 8 14 9 15
REMARK SMILES IDX 13 16 10 17 12 18 14 19 11 20 19 21 20 22 21 23 22 24 23 26
REMARK SMILES IDX 24 27 25 28 71 29 26 30 70 31 27 32 28 33 29 34 64 35 30 36
REMARK SMILES IDX 69 37 63 38 65 39 31 40 68 41 62 42 61 43 32 45 54 46 39 47
REMARK SMILES IDX 53 48 40 49 43 50 52 51 66 52 41 53 42 54 51 56 67 57 44 58
REMARK SMILES IDX 33 59 34 60 38 61 35 62 37 63 36 64 55 65 56 66 60 67 57 68
REMARK SMILES IDX 59 69 58 70 45 71 46 72 50 73 47 74 49 75 48 76
REMARK H PARENT 17 5 3 10 21 25 65 44 43 55
REMARK Flexibility Score: inf
ROOT
ATOM      1  C   UNL A   1      35.899  21.363  25.616  1.00  0.00     0.117 C 
ENDROOT
BRANCH   1   2
ATOM      2  N   UNL A   1      34.924  20.293  25.413  1.00  0.00    -0.354 N 
ATOM      3  C   UNL A   1      33.657  20.243  24.927  1.00  0.00     0.242 C 
ATOM      4  O   UNL A   1      33.277  19.113  24.588  1.00  0.00    -0.273 OA
ATOM      5  H   UNL A   1      35.264  19.411  25.689  1.00  0.00     0.163 HD
BRANCH   3   6
ATOM      6  C   UNL A   1      32.678  21.449  24.816  1.00  0.00     0.168 C 
ATOM      7  C   UNL A   1      33.132  22.409  23.719  1.00  0.00     0.041 C 
BRANCH   6   8
ATOM      8  N   UNL A   1      32.171  22.043  26.055  1.00  0.00    -0.345 N 
ATOM      9  C   UNL A   1      31.509  23.162  26.431  1.00  0.00     0.222 C 
ATOM     10  H   UNL A   1      32.366  21.468  26.830  1.00  0.00     0.164 HD
ATOM     11  O   UNL A   1      31.514  23.409  27.642  1.00  0.00    -0.275 OA
BRANCH   9  12
ATOM     12  C   UNL A   1      30.766  24.077  25.487  1.00  0.00     0.122 C 
BRANCH  12  13
ATOM     13  C   UNL A   1      30.522  25.464  26.098  1.00  0.00     0.135 C 
BRANCH  13  14
ATOM     14  N   UNL A   1      31.684  26.370  26.077  1.00  0.00    -0.315 N 
ATOM     15  C   UNL A   1      32.712  26.120  25.195  1.00  0.00     0.089 A 
ATOM     16  C   UNL A   1      31.773  27.413  27.002  1.00  0.00     0.250 A 
ATOM     17  C   UNL A   1      33.827  26.853  25.145  1.00  0.00     0.018 A 
ATOM     18  C   UNL A   1      33.024  28.228  26.946  1.00  0.00     0.072 A 
ATOM     19  O   UNL A   1      30.915  27.689  27.835  1.00  0.00    -0.269 OA
ATOM     20  C   UNL A   1      33.987  27.948  26.059  1.00  0.00     0.007 A 
ENDBRANCH  13  14
ENDBRANCH  12  13
ENDBRANCH   9  12
ENDBRANCH   6   8
ENDBRANCH   3   6
ENDBRANCH   1   2
BRANCH   1  21
ATOM     21  C   UNL A   1      37.170  21.178  24.805  1.00  0.00     0.042 C 
BRANCH  21  22
ATOM     22  C   UNL A   1      38.433  21.270  25.654  1.00  0.00     0.118 C 
BRANCH  22  23
ATOM     23  N   UNL A   1      39.284  20.086  25.600  1.00  0.00    -0.352 N 
ATOM     24  C   UNL A   1      40.600  19.901  25.975  1.00  0.00     0.251 C 
ATOM     25  H   UNL A   1      38.848  19.285  25.231  1.00  0.00     0.163 HD
ATOM     26  O   UNL A   1      41.149  18.825  25.787  1.00  0.00    -0.269 OA
BRANCH  24  27
ATOM     27  C   UNL A   1      41.369  21.032  26.541  1.00  0.00     0.039 A 
ATOM     28  C   UNL A   1      41.405  21.250  27.914  1.00  0.00     0.014 A 
ATOM     29  C   UNL A   1      41.989  21.937  25.676  1.00  0.00     0.014 A 
ATOM     30  C   UNL A   1      41.776  22.497  28.393  1.00  0.00     0.010 A 
ATOM     31  C   UNL A   1      42.506  23.133  26.182  1.00  0.00     0.010 A 
ATOM     32  C   UNL A   1      42.322  23.464  27.532  1.00  0.00    -0.014 A 
BRANCH  32  33
ATOM     33  C   UNL A   1      42.655  24.812  28.068  1.00  0.00     0.031 A 
ATOM     34  C   UNL A   1      41.575  25.839  28.305  1.00  0.00     0.074 A 
ATOM     35  C   UNL A   1      43.926  25.087  28.423  1.00  0.00     0.049 A 
ATOM     36  N   UNL A   1      41.690  27.061  28.764  1.00  0.00    -0.248 NA
ATOM     37  C   UNL A   1      40.189  25.456  27.986  1.00  0.00     0.031 C 
ATOM     38  C   UNL A   1      45.057  24.166  28.283  1.00  0.00     0.029 A 
ATOM     39  N   UNL A   1      44.475  26.197  29.012  1.00  0.00    -0.354 N 
ATOM     40  C   UNL A   1      40.408  27.598  28.754  1.00  0.00     0.074 A 
ATOM     41  C   UNL A   1      39.527  26.579  28.227  1.00  0.00     0.031 C 
ATOM     42  C   UNL A   1      46.142  24.714  28.848  1.00  0.00     0.029 A 
ATOM     43  C   UNL A   1      45.812  26.061  29.298  1.00  0.00     0.049 A 
ATOM     44  H   UNL A   1      43.962  27.013  29.211  1.00  0.00     0.167 HD
ATOM     45  C   UNL A   1      40.000  28.825  29.154  1.00  0.00     0.031 A 
ATOM     46  C   UNL A   1      46.691  26.924  29.839  1.00  0.00     0.031 A 
ATOM     47  C   UNL A   1      40.871  29.827  29.708  1.00  0.00     0.049 A 
ATOM     48  C   UNL A   1      46.225  28.295  30.226  1.00  0.00     0.074 A 
ATOM     49  C   UNL A   1      40.544  31.095  30.154  1.00  0.00     0.029 A 
ATOM     50  N   UNL A   1      42.235  29.673  29.902  1.00  0.00    -0.354 N 
ATOM     51  N   UNL A   1      45.014  28.792  30.181  1.00  0.00    -0.248 NA
ATOM     52  C   UNL A   1      47.244  29.228  30.726  1.00  0.00     0.031 C 
ATOM     53  C   UNL A   1      41.717  31.730  30.566  1.00  0.00     0.029 A 
ATOM     54  C   UNL A   1      42.765  30.833  30.439  1.00  0.00     0.049 A 
ATOM     55  H   UNL A   1      42.748  28.860  29.690  1.00  0.00     0.167 HD
ATOM     56  C   UNL A   1      45.121  30.094  30.650  1.00  0.00     0.074 A 
ATOM     57  C   UNL A   1      46.512  30.302  30.996  1.00  0.00     0.031 C 
ATOM     58  C   UNL A   1      44.151  31.030  30.776  1.00  0.00     0.031 A 
BRANCH  45  59
ATOM     59  C   UNL A   1      38.546  29.181  28.996  1.00  0.00    -0.014 A 
ATOM     60  C   UNL A   1      38.084  29.684  27.769  1.00  0.00     0.009 A 
ATOM     61  C   UNL A   1      37.657  29.121  30.080  1.00  0.00     0.009 A 
ATOM     62  C   UNL A   1      36.771  30.135  27.633  1.00  0.00     0.001 A 
ATOM     63  C   UNL A   1      36.334  29.547  29.934  1.00  0.00     0.001 A 
ATOM     64  C   UNL A   1      35.895  30.063  28.714  1.00  0.00     0.000 A 
ENDBRANCH  45  59
BRANCH  46  65
ATOM     65  C   UNL A   1      48.105  26.501  30.021  1.00  0.00    -0.014 A 
ATOM     66  C   UNL A   1      49.035  26.655  28.978  1.00  0.00     0.009 A 
ATOM     67  C   UNL A   1      48.515  25.874  31.206  1.00  0.00     0.009 A 
ATOM     68  C   UNL A   1      50.332  26.155  29.101  1.00  0.00     0.001 A 
ATOM     69  C   UNL A   1      49.825  25.403  31.339  1.00  0.00     0.001 A 
ATOM     70  C   UNL A   1      50.726  25.533  30.284  1.00  0.00     0.000 A 
ENDBRANCH  46  65
BRANCH  58  71
ATOM     71  C   UNL A   1      44.541  32.373  31.323  1.00  0.00    -0.014 A 
ATOM     72  C   UNL A   1      44.449  32.616  32.703  1.00  0.00     0.009 A 
ATOM     73  C   UNL A   1      44.893  33.427  30.467  1.00  0.00     0.009 A 
ATOM     74  C   UNL A   1      44.684  33.891  33.214  1.00  0.00     0.001 A 
ATOM     75  C   UNL A   1      45.154  34.696  30.985  1.00  0.00     0.001 A 
ATOM     76  C   UNL A   1      45.038  34.930  32.355  1.00  0.00     0.000 A 
ENDBRANCH  58  71
ENDBRANCH  32  33
ENDBRANCH  24  27
ENDBRANCH  22  23
ENDBRANCH  21  22
ENDBRANCH   1  21
TORSDOF 14
ENDMDL
MODEL 2
REMARK VINA RESULT:     -10.6      3.144      8.622
REMARK SMILES C[C@H](NC(=O)CCn1ccccc1=O)C(=O)NCCCNC(=O)c1ccc(-c2c3nc(c(-c4ccccc4)c4ccc([nH]4)c(-c4ccccc4)c4nc(c(-c5ccccc5)c5ccc2[nH]5)C=C4)C=C3)cc1
REMARK SMILES IDX 18 1 17 2 15 3 16 4 2 6 1 7 3 8 4 9 5 11 6 12 7 13 8 14 9 15
REMARK SMILES IDX 13 16 10 17 12 18 14 19 11 20 19 21 20 22 21 23 22 24 23 26
REMARK SMILES IDX 24 27 25 28 71 29 26 30 70 31 27 32 28 33 29 34 64 35 30 36
REMARK SMILES IDX 69 37 63 38 65 39 31 40 68 41 62 42 61 43 32 45 54 46 39 47
REMARK SMILES IDX 53 48 40 49 43 50 52 51 66 52 41 53 42 54 51 56 67 57 44 58
REMARK SMILES IDX 33 59 34 60 38 61 35 62 37 63 36 64 55 65 56 66 60 67 57 68
REMARK SMILES IDX 59 69 58 70 45 71 46 72 50 73 47 74 49 75 48 76
REMARK H PARENT 17 5 3 10 21 25 65 44 43 55
REMARK Flexibility Score: inf
ROOT
ATOM      1  C   UNL A   1      32.379  29.547  25.496  1.00  0.00     0.117 C 
ENDROOT
BRANCH   1   2
ATOM      2  N   UNL A   1      31.391  29.942  24.493  1.00  0.00    -0.354 N 
ATOM      3  C   UNL A   1      30.513  29.266  23.708  1.00  0.00     0.242 C 
ATOM      4  O   UNL A   1      29.602  29.960  23.235  1.00  0.00    -0.273 OA
ATOM      5  H   UNL A   1      31.355  30.916  24.357  1.00  0.00     0.163 HD
BRANCH   3   6
ATOM      6  C   UNL A   1      30.597  27.754  23.344  1.00  0.00     0.168 C 
ATOM      7  C   UNL A   1      30.240  26.890  24.552  1.00  0.00     0.041 C 
BRANCH   6   8
ATOM      8  N   UNL A   1      31.713  27.305  22.510  1.00  0.00    -0.345 N 
ATOM      9  C   UNL A   1      33.003  26.931  22.679  1.00  0.00     0.222 C 
ATOM     10  H   UNL A   1      31.453  27.264  21.561  1.00  0.00     0.164 HD
ATOM     11  O   UNL A   1      33.689  26.885  21.651  1.00  0.00    -0.275 OA
BRANCH   9  12
ATOM     12  C   UNL A   1      33.620  26.554  24.004  1.00  0.00     0.122 C 
BRANCH  12  13
ATOM     13  C   UNL A   1      33.398  25.074  24.346  1.00  0.00     0.135 C 
BRANCH  13  14
ATOM     14  N   UNL A   1      34.615  24.242  24.342  1.00  0.00    -0.315 N 
ATOM     15  C   UNL A   1      35.441  24.257  25.444  1.00  0.00     0.089 A 
ATOM     16  C   UNL A   1      34.962  23.520  23.197  1.00  0.00     0.250 A 
ATOM     17  C   UNL A   1      36.590  23.581  25.505  1.00  0.00     0.018 A 
ATOM     18  C   UNL A   1      36.252  22.767  23.269  1.00  0.00     0.072 A 
ATOM     19  O   UNL A   1      34.296  23.471  22.168  1.00  0.00    -0.269 OA
ATOM     20  C   UNL A   1      37.010  22.808  24.371  1.00  0.00     0.007 A 
ENDBRANCH  13  14
ENDBRANCH  12  13
ENDBRANCH   9  12
ENDBRANCH   6   8
ENDBRANCH   3   6
ENDBRANCH   1   2
BRANCH   1  21
ATOM     21  C   UNL A   1      32.154  30.202  26.848  1.00  0.00     0.042 C 
BRANCH  21  22
ATOM     22  C   UNL A   1      33.222  31.234  27.191  1.00  0.00     0.118 C 
BRANCH  22  23
ATOM     23  N   UNL A   1      32.705  32.573  27.457  1.00  0.00    -0.352 N 
ATOM     24  C   UNL A   1      33.231  33.615  28.194  1.00  0.00     0.251 C 
ATOM     25  H   UNL A   1      31.832  32.764  27.043  1.00  0.00     0.163 HD
ATOM     26  O   UNL A   1      32.595  34.650  28.340  1.00  0.00    -0.269 OA
BRANCH  24  27
ATOM     27  C   UNL A   1      34.537  33.451  28.870  1.00  0.00     0.039 A 
ATOM     28  C   UNL A   1      35.712  33.871  28.255  1.00  0.00     0.014 A 
ATOM     29  C   UNL A   1      34.592  32.788  30.098  1.00  0.00     0.014 A 
ATOM     30  C   UNL A   1      36.925  33.367  28.697  1.00  0.00     0.010 A 
ATOM     31  C   UNL A   1      35.832  32.413  30.626  1.00  0.00     0.010 A 
ATOM     32  C   UNL A   1      37.004  32.619  29.884  1.00  0.00    -0.014 A 
BRANCH  32  33
ATOM     33  C   UNL A   1      38.312  32.043  30.298  1.00  0.00     0.031 A 
ATOM     34  C   UNL A   1      38.804  30.741  29.715  1.00  0.00     0.074 A 
ATOM     35  C   UNL A   1      39.103  32.738  31.141  1.00  0.00     0.049 A 
ATOM     36  N   UNL A   1      39.918  30.097  29.967  1.00  0.00    -0.248 NA
ATOM     37  C   UNL A   1      37.942  30.068  28.728  1.00  0.00     0.031 C 
ATOM     38  C   UNL A   1      38.762  34.029  31.743  1.00  0.00     0.029 A 
ATOM     39  N   UNL A   1      40.369  32.481  31.603  1.00  0.00    -0.354 N 
ATOM     40  C   UNL A   1      39.872  28.937  29.202  1.00  0.00     0.074 A 
ATOM     41  C   UNL A   1      38.614  28.950  28.489  1.00  0.00     0.031 C 
ATOM     42  C   UNL A   1      39.821  34.490  32.423  1.00  0.00     0.029 A 
ATOM     43  C   UNL A   1      40.878  33.485  32.391  1.00  0.00     0.049 A 
ATOM     44  H   UNL A   1      40.865  31.658  31.391  1.00  0.00     0.167 HD
ATOM     45  C   UNL A   1      40.796  27.954  29.099  1.00  0.00     0.031 A 
ATOM     46  C   UNL A   1      42.052  33.588  33.041  1.00  0.00     0.031 A 
ATOM     47  C   UNL A   1      42.062  27.957  29.783  1.00  0.00     0.049 A 
ATOM     48  C   UNL A   1      43.037  32.462  32.951  1.00  0.00     0.074 A 
ATOM     49  C   UNL A   1      43.068  27.009  29.727  1.00  0.00     0.029 A 
ATOM     50  N   UNL A   1      42.499  28.957  30.637  1.00  0.00    -0.354 N 
ATOM     51  N   UNL A   1      42.961  31.361  32.246  1.00  0.00    -0.248 NA
ATOM     52  C   UNL A   1      44.262  32.584  33.752  1.00  0.00     0.031 C 
ATOM     53  C   UNL A   1      44.091  27.407  30.591  1.00  0.00     0.029 A 
ATOM     54  C   UNL A   1      43.751  28.636  31.132  1.00  0.00     0.049 A 
ATOM     55  H   UNL A   1      41.995  29.773  30.857  1.00  0.00     0.167 HD
ATOM     56  C   UNL A   1      44.128  30.659  32.513  1.00  0.00     0.074 A 
ATOM     57  C   UNL A   1      44.906  31.470  33.427  1.00  0.00     0.031 C 
ATOM     58  C   UNL A   1      44.514  29.449  32.044  1.00  0.00     0.031 A 
BRANCH  45  59
ATOM     59  C   UNL A   1      40.482  26.768  28.227  1.00  0.00    -0.014 A 
ATOM     60  C   UNL A   1      40.932  26.748  26.896  1.00  0.00     0.009 A 
ATOM     61  C   UNL A   1      39.660  25.724  28.679  1.00  0.00     0.009 A 
ATOM     62  C   UNL A   1      40.552  25.720  26.032  1.00  0.00     0.001 A 
ATOM     63  C   UNL A   1      39.305  24.681  27.820  1.00  0.00     0.001 A 
ATOM     64  C   UNL A   1      39.742  24.685  26.495  1.00  0.00     0.000 A 
ENDBRANCH  45  59
BRANCH  46  65
ATOM     65  C   UNL A   1      42.332  34.806  33.845  1.00  0.00    -0.014 A 
ATOM     66  C   UNL A   1      41.930  34.881  35.190  1.00  0.00     0.009 A 
ATOM     67  C   UNL A   1      42.932  35.928  33.256  1.00  0.00     0.009 A 
ATOM     68  C   UNL A   1      42.086  36.063  35.915  1.00  0.00     0.001 A 
ATOM     69  C   UNL A   1      43.117  37.100  33.994  1.00  0.00     0.001 A 
ATOM     70  C   UNL A   1      42.683  37.170  35.317  1.00  0.00     0.000 A 
ENDBRANCH  46  65
BRANCH  58  71
ATOM     71  C   UNL A   1      45.843  28.915  32.492  1.00  0.00    -0.014 A 
ATOM     72  C   UNL A   1      46.991  29.172  31.725  1.00  0.00     0.009 A 
ATOM     73  C   UNL A   1      45.943  28.070  33.608  1.00  0.00     0.009 A 
ATOM     74  C   UNL A   1      48.210  28.581  32.055  1.00  0.00     0.001 A 
ATOM     75  C   UNL A   1      47.171  27.501  33.951  1.00  0.00     0.001 A 
ATOM     76  C   UNL A   1      48.299  27.748  33.169  1.00  0.00     0.000 A 
ENDBRANCH  58  71
ENDBRANCH  32  33
ENDBRANCH  24  27
ENDBRANCH  22  23
ENDBRANCH  21  22
ENDBRANCH   1  21
TORSDOF 14
ENDMDL
MODEL 3
REMARK VINA RESULT:     -10.6      1.994      6.837
REMARK SMILES C[C@H](NC(=O)CCn1ccccc1=O)C(=O)NCCCNC(=O)c1ccc(-c2c3nc(c(-c4ccccc4)c4ccc([nH]4)c(-c4ccccc4)c4nc(c(-c5ccccc5)c5ccc2[nH]5)C=C4)C=C3)cc1
REMARK SMILES IDX 18 1 17 2 15 3 16 4 2 6 1 7 3 8 4 9 5 11 6 12 7 13 8 14 9 15
REMARK SMILES IDX 13 16 10 17 12 18 14 19 11 20 19 21 20 22 21 23 22 24 23 26
REMARK SMILES IDX 24 27 25 28 71 29 26 30 70 31 27 32 28 33 29 34 64 35 30 36
REMARK SMILES IDX 69 37 63 38 65 39 31 40 68 41 62 42 61 43 32 45 54 46 39 47
REMARK SMILES IDX 53 48 40 49 43 50 52 51 66 52 41 53 42 54 51 56 67 57 44 58
REMARK SMILES IDX 33 59 34 60 38 61 35 62 37 63 36 64 55 65 56 66 60 67 57 68
REMARK SMILES IDX 59 69 58 70 45 71 46 72 50 73 47 74 49 75 48 76
REMARK H PARENT 17 5 3 10 21 25 65 44 43 55
REMARK Flexibility Score: inf
ROOT
ATOM      1  C   UNL A   1      35.319  21.732  26.034  1.00  0.00     0.117 C 
ENDROOT
BRANCH   1   2
ATOM      2  N   UNL A   1      34.548  20.491  26.109  1.00  0.00    -0.354 N 
ATOM      3  C   UNL A   1      33.360  20.079  25.596  1.00  0.00     0.242 C 
ATOM      4  O   UNL A   1      33.198  18.851  25.590  1.00  0.00    -0.273 OA
ATOM      5  H   UNL A   1      34.990  19.800  26.654  1.00  0.00     0.163 HD
BRANCH   3   6
ATOM      6  C   UNL A   1      32.223  21.009  25.079  1.00  0.00     0.168 C 
ATOM      7  C   UNL A   1      32.551  21.533  23.683  1.00  0.00     0.041 C 
BRANCH   6   8
ATOM      8  N   UNL A   1      31.620  21.953  26.022  1.00  0.00    -0.345 N 
ATOM      9  C   UNL A   1      31.933  23.143  26.585  1.00  0.00     0.222 C 
ATOM     10  H   UNL A   1      30.742  21.632  26.332  1.00  0.00     0.164 HD
ATOM     11  O   UNL A   1      31.248  23.473  27.560  1.00  0.00    -0.275 OA
BRANCH   9  12
ATOM     12  C   UNL A   1      33.017  24.069  26.088  1.00  0.00     0.122 C 
BRANCH  12  13
ATOM     13  C   UNL A   1      32.446  25.271  25.324  1.00  0.00     0.135 C 
BRANCH  13  14
ATOM     14  N   UNL A   1      32.626  26.576  25.985  1.00  0.00    -0.315 N 
ATOM     15  C   UNL A   1      33.855  27.194  25.924  1.00  0.00     0.089 A 
ATOM     16  C   UNL A   1      31.584  27.128  26.734  1.00  0.00     0.250 A 
ATOM     17  C   UNL A   1      34.125  28.347  26.539  1.00  0.00     0.018 A 
ATOM     18  C   UNL A   1      31.892  28.417  27.425  1.00  0.00     0.072 A 
ATOM     19  O   UNL A   1      30.469  26.633  26.859  1.00  0.00    -0.269 OA
ATOM     20  C   UNL A   1      33.102  28.980  27.322  1.00  0.00     0.007 A 
ENDBRANCH  13  14
ENDBRANCH  12  13
ENDBRANCH   9  12
ENDBRANCH   6   8
ENDBRANCH   3   6
ENDBRANCH   1   2
BRANCH   1  21
ATOM     21  C   UNL A   1      36.313  21.751  24.885  1.00  0.00     0.042 C 
BRANCH  21  22
ATOM     22  C   UNL A   1      37.441  22.754  25.095  1.00  0.00     0.118 C 
BRANCH  22  23
ATOM     23  N   UNL A   1      38.718  22.156  25.472  1.00  0.00    -0.352 N 
ATOM     24  C   UNL A   1      39.772  22.662  26.207  1.00  0.00     0.251 C 
ATOM     25  H   UNL A   1      38.851  21.236  25.146  1.00  0.00     0.163 HD
ATOM     26  O   UNL A   1      40.791  22.003  26.359  1.00  0.00    -0.269 OA
BRANCH  24  27
ATOM     27  C   UNL A   1      39.694  24.036  26.751  1.00  0.00     0.039 A 
ATOM     28  C   UNL A   1      40.232  25.109  26.048  1.00  0.00     0.014 A 
ATOM     29  C   UNL A   1      39.151  24.238  28.022  1.00  0.00     0.014 A 
ATOM     30  C   UNL A   1      40.508  26.289  26.721  1.00  0.00     0.010 A 
ATOM     31  C   UNL A   1      39.292  25.483  28.643  1.00  0.00     0.010 A 
ATOM     32  C   UNL A   1      40.053  26.492  28.034  1.00  0.00    -0.014 A 
BRANCH  32  33
ATOM     33  C   UNL A   1      40.416  27.746  28.748  1.00  0.00     0.031 A 
ATOM     34  C   UNL A   1      41.825  27.979  29.237  1.00  0.00     0.074 A 
ATOM     35  C   UNL A   1      39.494  28.721  28.882  1.00  0.00     0.049 A 
ATOM     36  N   UNL A   1      42.312  29.013  29.877  1.00  0.00    -0.248 NA
ATOM     37  C   UNL A   1      42.817  26.920  28.982  1.00  0.00     0.031 C 
ATOM     38  C   UNL A   1      38.108  28.638  28.417  1.00  0.00     0.029 A 
ATOM     39  N   UNL A   1      39.591  29.984  29.408  1.00  0.00    -0.354 N 
ATOM     40  C   UNL A   1      43.646  28.715  30.130  1.00  0.00     0.074 A 
ATOM     41  C   UNL A   1      43.894  27.396  29.593  1.00  0.00     0.031 C 
ATOM     42  C   UNL A   1      37.511  29.824  28.599  1.00  0.00     0.029 A 
ATOM     43  C   UNL A   1      38.436  30.718  29.286  1.00  0.00     0.049 A 
ATOM     44  H   UNL A   1      40.409  30.332  29.832  1.00  0.00     0.167 HD
ATOM     45  C   UNL A   1      44.581  29.473  30.749  1.00  0.00     0.031 A 
ATOM     46  C   UNL A   1      38.135  31.964  29.696  1.00  0.00     0.031 A 
ATOM     47  C   UNL A   1      44.343  30.800  31.255  1.00  0.00     0.049 A 
ATOM     48  C   UNL A   1      39.172  32.765  30.424  1.00  0.00     0.074 A 
ATOM     49  C   UNL A   1      45.235  31.650  31.884  1.00  0.00     0.029 A 
ATOM     50  N   UNL A   1      43.132  31.470  31.181  1.00  0.00    -0.354 N 
ATOM     51  N   UNL A   1      40.418  32.451  30.679  1.00  0.00    -0.248 NA
ATOM     52  C   UNL A   1      38.762  34.081  30.931  1.00  0.00     0.031 C 
ATOM     53  C   UNL A   1      44.551  32.813  32.242  1.00  0.00     0.029 A 
ATOM     54  C   UNL A   1      43.250  32.715  31.776  1.00  0.00     0.049 A 
ATOM     55  H   UNL A   1      42.313  31.115  30.768  1.00  0.00     0.167 HD
ATOM     56  C   UNL A   1      40.946  33.533  31.371  1.00  0.00     0.074 A 
ATOM     57  C   UNL A   1      39.890  34.519  31.477  1.00  0.00     0.031 C 
ATOM     58  C   UNL A   1      42.192  33.687  31.877  1.00  0.00     0.031 A 
BRANCH  45  59
ATOM     59  C   UNL A   1      45.957  28.896  30.939  1.00  0.00    -0.014 A 
ATOM     60  C   UNL A   1      46.262  28.207  32.125  1.00  0.00     0.009 A 
ATOM     61  C   UNL A   1      46.980  29.118  30.005  1.00  0.00     0.009 A 
ATOM     62  C   UNL A   1      47.562  27.769  32.380  1.00  0.00     0.001 A 
ATOM     63  C   UNL A   1      48.275  28.653  30.249  1.00  0.00     0.001 A 
ATOM     64  C   UNL A   1      48.567  27.988  31.441  1.00  0.00     0.000 A 
ENDBRANCH  45  59
BRANCH  46  65
ATOM     65  C   UNL A   1      36.775  32.505  29.434  1.00  0.00    -0.014 A 
ATOM     66  C   UNL A   1      36.483  33.139  28.214  1.00  0.00     0.009 A 
ATOM     67  C   UNL A   1      35.786  32.460  30.427  1.00  0.00     0.009 A 
ATOM     68  C   UNL A   1      35.245  33.750  28.008  1.00  0.00     0.001 A 
ATOM     69  C   UNL A   1      34.535  33.043  30.205  1.00  0.00     0.001 A 
ATOM     70  C   UNL A   1      34.271  33.698  29.003  1.00  0.00     0.000 A 
ENDBRANCH  46  65
BRANCH  58  71
ATOM     71  C   UNL A   1      42.506  34.972  32.586  1.00  0.00    -0.014 A 
ATOM     72  C   UNL A   1      43.220  35.979  31.917  1.00  0.00     0.009 A 
ATOM     73  C   UNL A   1      42.195  35.144  33.943  1.00  0.00     0.009 A 
ATOM     74  C   UNL A   1      43.631  37.126  32.596  1.00  0.00     0.001 A 
ATOM     75  C   UNL A   1      42.584  36.304  34.613  1.00  0.00     0.001 A 
ATOM     76  C   UNL A   1      43.311  37.288  33.942  1.00  0.00     0.000 A 
ENDBRANCH  58  71
ENDBRANCH  32  33
ENDBRANCH  24  27
ENDBRANCH  22  23
ENDBRANCH  21  22
ENDBRANCH   1  21
TORSDOF 14
ENDMDL
