MODEL 1
REMARK VINA RESULT:     -12.6      0.000      0.000
REMARK SMILES CN1C(=O)C[C@@H](C(=O)NCCCNC(=O)c2ccc(-c3c4nc(c(-c5ccccc5)c5ccc([nH]5)c(-c5ccccc5)c5nc(c(-c6ccccc6)c6ccc3[nH]6)C=C5)C=C4)cc2)C12CCN(S(=O)(=O)c1ccccc1F)CC2
REMARK SMILES IDX 11 1 10 2 9 3 7 4 8 5 6 7 1 8 2 9 3 10 64 11 4 12 5 13 65 14
REMARK SMILES IDX 79 15 66 16 78 17 67 18 68 19 69 20 70 21 71 22 72 23 76 24
REMARK SMILES IDX 73 25 75 26 77 27 74 28 12 29 13 30 14 31 15 33 16 34 17 35
REMARK SMILES IDX 63 36 18 37 62 38 19 39 20 40 21 41 56 42 22 43 61 44 55 45
REMARK SMILES IDX 57 46 23 47 60 48 54 49 53 50 24 52 46 53 31 54 45 55 32 56
REMARK SMILES IDX 35 57 44 58 58 59 33 60 34 61 43 63 59 64 36 65 25 66 26 67
REMARK SMILES IDX 30 68 27 69 29 70 28 71 47 72 48 73 52 74 49 75 51 76 50 77
REMARK SMILES IDX 37 78 38 79 42 80 39 81 41 82 40 83
REMARK H PARENT 9 6 13 32 57 51 35 62
REMARK Flexibility Score: inf
ROOT
ATOM      1  C   UNL A   1      37.138  19.711  24.957  1.00  0.00     0.042 C 
ENDROOT
BRANCH   1   2
ATOM      2  C   UNL A   1      35.926  20.645  24.920  1.00  0.00     0.117 C 
BRANCH   2   3
ATOM      3  N   UNL A   1      35.574  21.214  26.215  1.00  0.00    -0.356 N 
ATOM      4  C   UNL A   1      34.411  21.527  26.837  1.00  0.00     0.226 C 
ATOM      5  O   UNL A   1      34.525  22.020  27.967  1.00  0.00    -0.275 OA
ATOM      6  H   UNL A   1      36.364  21.416  26.767  1.00  0.00     0.163 HD
BRANCH   4   7
ATOM      7  C   UNL A   1      33.007  21.392  26.244  1.00  0.00     0.113 C 
ATOM      8  C   UNL A   1      32.611  22.269  22.617  1.00  0.00     0.147 C 
ATOM      9  N   UNL A   1      32.790  21.705  23.945  1.00  0.00    -0.339 N 
ATOM     10  C   UNL A   1      32.745  20.327  24.126  1.00  0.00     0.223 C 
ATOM     11  C   UNL A   1      32.569  22.448  25.197  1.00  0.00     0.057 C 
ATOM     12  O   UNL A   1      32.707  19.480  23.249  1.00  0.00    -0.275 OA
ATOM     13  C   UNL A   1      32.755  20.031  25.599  1.00  0.00     0.116 C 
ATOM     14  C   UNL A   1      33.383  23.756  25.298  1.00  0.00     0.046 C 
ATOM     15  C   UNL A   1      31.040  22.753  25.315  1.00  0.00     0.046 C 
ATOM     16  C   UNL A   1      32.920  24.655  26.432  1.00  0.00     0.105 C 
ATOM     17  C   UNL A   1      30.662  23.786  26.378  1.00  0.00     0.105 C 
ATOM     18  N   UNL A   1      31.498  25.015  26.269  1.00  0.00    -0.198 NA
BRANCH  18  19
ATOM     19  S   UNL A   1      31.035  26.097  25.018  1.00  0.00     0.245 S 
ATOM     20  O   UNL A   1      31.815  25.811  23.833  1.00  0.00    -0.207 OA
ATOM     21  O   UNL A   1      29.588  26.034  24.946  1.00  0.00    -0.207 OA
BRANCH  19  22
ATOM     22  C   UNL A   1      31.462  27.720  25.576  1.00  0.00     0.118 A 
ATOM     23  C   UNL A   1      31.918  27.912  26.884  1.00  0.00     0.025 A 
ATOM     24  C   UNL A   1      31.216  28.826  24.767  1.00  0.00     0.143 A 
ATOM     25  C   UNL A   1      32.160  29.207  27.354  1.00  0.00     0.002 A 
ATOM     26  C   UNL A   1      31.481  30.115  25.224  1.00  0.00     0.041 A 
ATOM     27  F   UNL A   1      30.740  28.698  23.522  1.00  0.00    -0.206 F 
ATOM     28  C   UNL A   1      31.952  30.308  26.520  1.00  0.00     0.003 A 
ENDBRANCH  19  22
ENDBRANCH  18  19
ENDBRANCH   4   7
ENDBRANCH   2   3
ENDBRANCH   1   2
BRANCH   1  29
ATOM     29  C   UNL A   1      38.441  20.392  25.375  1.00  0.00     0.118 C 
BRANCH  29  30
ATOM     30  N   UNL A   1      39.504  19.427  25.609  1.00  0.00    -0.352 N 
ATOM     31  C   UNL A   1      40.808  19.622  25.994  1.00  0.00     0.251 C 
ATOM     32  H   UNL A   1      39.250  18.486  25.468  1.00  0.00     0.163 HD
ATOM     33  O   UNL A   1      41.614  18.702  25.882  1.00  0.00    -0.269 OA
BRANCH  31  34
ATOM     34  C   UNL A   1      41.258  20.917  26.552  1.00  0.00     0.039 A 
ATOM     35  C   UNL A   1      41.137  21.136  27.928  1.00  0.00     0.014 A 
ATOM     36  C   UNL A   1      41.713  21.948  25.723  1.00  0.00     0.014 A 
ATOM     37  C   UNL A   1      41.505  22.368  28.477  1.00  0.00     0.010 A 
ATOM     38  C   UNL A   1      42.134  23.156  26.278  1.00  0.00     0.010 A 
ATOM     39  C   UNL A   1      42.024  23.384  27.658  1.00  0.00    -0.014 A 
BRANCH  39  40
ATOM     40  C   UNL A   1      42.434  24.696  28.223  1.00  0.00     0.031 A 
ATOM     41  C   UNL A   1      41.415  25.787  28.424  1.00  0.00     0.074 A 
ATOM     42  C   UNL A   1      43.730  24.932  28.502  1.00  0.00     0.049 A 
ATOM     43  N   UNL A   1      41.595  27.023  28.818  1.00  0.00    -0.248 NA
ATOM     44  C   UNL A   1      40.016  25.451  28.118  1.00  0.00     0.031 C 
ATOM     45  C   UNL A   1      44.824  23.974  28.330  1.00  0.00     0.029 A 
ATOM     46  N   UNL A   1      44.348  26.059  28.984  1.00  0.00    -0.354 N 
ATOM     47  C   UNL A   1      40.339  27.617  28.783  1.00  0.00     0.074 A 
ATOM     48  C   UNL A   1      39.413  26.617  28.297  1.00  0.00     0.031 C 
ATOM     49  C   UNL A   1      45.974  24.549  28.715  1.00  0.00     0.029 A 
ATOM     50  C   UNL A   1      45.707  25.923  29.128  1.00  0.00     0.049 A 
ATOM     51  H   UNL A   1      43.863  26.888  29.204  1.00  0.00     0.167 HD
ATOM     52  C   UNL A   1      39.984  28.875  29.138  1.00  0.00     0.031 A 
ATOM     53  C   UNL A   1      46.636  26.807  29.539  1.00  0.00     0.031 A 
ATOM     54  C   UNL A   1      40.895  29.865  29.647  1.00  0.00     0.049 A 
ATOM     55  C   UNL A   1      46.215  28.193  29.935  1.00  0.00     0.074 A 
ATOM     56  C   UNL A   1      40.618  31.150  30.080  1.00  0.00     0.029 A 
ATOM     57  N   UNL A   1      42.258  29.676  29.800  1.00  0.00    -0.354 N 
ATOM     58  N   UNL A   1      45.018  28.724  29.935  1.00  0.00    -0.248 NA
ATOM     59  C   UNL A   1      47.278  29.099  30.397  1.00  0.00     0.031 C 
ATOM     60  C   UNL A   1      41.821  31.753  30.464  1.00  0.00     0.029 A 
ATOM     61  C   UNL A   1      42.839  30.826  30.308  1.00  0.00     0.049 A 
ATOM     62  H   UNL A   1      42.742  28.848  29.580  1.00  0.00     0.167 HD
ATOM     63  C   UNL A   1      45.177  30.016  30.418  1.00  0.00     0.074 A 
ATOM     64  C   UNL A   1      46.585  30.185  30.714  1.00  0.00     0.031 C 
ATOM     65  C   UNL A   1      44.240  30.977  30.600  1.00  0.00     0.031 A 
BRANCH  52  66
ATOM     66  C   UNL A   1      38.538  29.255  28.982  1.00  0.00    -0.014 A 
ATOM     67  C   UNL A   1      37.648  29.182  30.065  1.00  0.00     0.009 A 
ATOM     68  C   UNL A   1      38.069  29.726  27.746  1.00  0.00     0.009 A 
ATOM     69  C   UNL A   1      36.309  29.542  29.903  1.00  0.00     0.001 A 
ATOM     70  C   UNL A   1      36.735  30.109  27.594  1.00  0.00     0.001 A 
ATOM     71  C   UNL A   1      35.854  30.008  28.670  1.00  0.00     0.000 A 
ENDBRANCH  52  66
BRANCH  53  72
ATOM     72  C   UNL A   1      48.064  26.403  29.610  1.00  0.00    -0.014 A 
ATOM     73  C   UNL A   1      48.909  26.586  28.505  1.00  0.00     0.009 A 
ATOM     74  C   UNL A   1      48.586  25.825  30.777  1.00  0.00     0.009 A 
ATOM     75  C   UNL A   1      50.242  26.178  28.559  1.00  0.00     0.001 A 
ATOM     76  C   UNL A   1      49.927  25.440  30.837  1.00  0.00     0.001 A 
ATOM     77  C   UNL A   1      50.751  25.608  29.726  1.00  0.00     0.000 A 
ENDBRANCH  53  72
BRANCH  65  78
ATOM     78  C   UNL A   1      44.703  32.284  31.175  1.00  0.00    -0.014 A 
ATOM     79  C   UNL A   1      45.103  33.341  30.343  1.00  0.00     0.009 A 
ATOM     80  C   UNL A   1      44.701  32.471  32.565  1.00  0.00     0.009 A 
ATOM     81  C   UNL A   1      45.521  34.553  30.897  1.00  0.00     0.001 A 
ATOM     82  C   UNL A   1      45.098  33.691  33.115  1.00  0.00     0.001 A 
ATOM     83  C   UNL A   1      45.515  34.728  32.280  1.00  0.00     0.000 A 
ENDBRANCH  65  78
ENDBRANCH  39  40
ENDBRANCH  31  34
ENDBRANCH  29  30
ENDBRANCH   1  29
TORSDOF 12
ENDMDL
MODEL 2
REMARK VINA RESULT:     -12.6      3.251      8.748
REMARK SMILES CN1C(=O)C[C@@H](C(=O)NCCCNC(=O)c2ccc(-c3c4nc(c(-c5ccccc5)c5ccc([nH]5)c(-c5ccccc5)c5nc(c(-c6ccccc6)c6ccc3[nH]6)C=C5)C=C4)cc2)C12CCN(S(=O)(=O)c1ccccc1F)CC2
REMARK SMILES IDX 11 1 10 2 9 3 7 4 8 5 6 7 1 8 2 9 3 10 64 11 4 12 5 13 65 14
REMARK SMILES IDX 79 15 66 16 78 17 67 18 68 19 69 20 70 21 71 22 72 23 76 24
REMARK SMILES IDX 73 25 75 26 77 27 74 28 12 29 13 30 14 31 15 33 16 34 17 35
REMARK SMILES IDX 63 36 18 37 62 38 19 39 20 40 21 41 56 42 22 43 61 44 55 45
REMARK SMILES IDX 57 46 23 47 60 48 54 49 53 50 24 52 46 53 31 54 45 55 32 56
REMARK SMILES IDX 35 57 44 58 58 59 33 60 34 61 43 63 59 64 36 65 25 66 26 67
REMARK SMILES IDX 30 68 27 69 29 70 28 71 47 72 48 73 52 74 49 75 51 76 50 77
REMARK SMILES IDX 37 78 38 79 42 80 39 81 41 82 40 83
REMARK H PARENT 9 6 13 32 57 51 35 62
REMARK Flexibility Score: inf
ROOT
ATOM      1  C   UNL A   1      31.207  31.268  25.993  1.00  0.00     0.042 C 
ENDROOT
BRANCH   1   2
ATOM      2  C   UNL A   1      31.410  29.876  25.390  1.00  0.00     0.117 C 
BRANCH   2   3
ATOM      3  N   UNL A   1      32.613  29.751  24.576  1.00  0.00    -0.356 N 
ATOM      4  C   UNL A   1      32.934  29.081  23.442  1.00  0.00     0.226 C 
ATOM      5  O   UNL A   1      34.099  29.220  23.050  1.00  0.00    -0.275 OA
ATOM      6  H   UNL A   1      33.366  30.277  24.929  1.00  0.00     0.163 HD
BRANCH   4   7
ATOM      7  C   UNL A   1      32.018  28.130  22.667  1.00  0.00     0.113 C 
ATOM      8  C   UNL A   1      29.594  26.097  24.683  1.00  0.00     0.147 C 
ATOM      9  N   UNL A   1      30.352  27.038  23.876  1.00  0.00    -0.339 N 
ATOM     10  C   UNL A   1      29.696  28.066  23.208  1.00  0.00     0.223 C 
ATOM     11  C   UNL A   1      31.688  26.764  23.320  1.00  0.00     0.057 C 
ATOM     12  O   UNL A   1      28.522  28.377  23.327  1.00  0.00    -0.275 OA
ATOM     13  C   UNL A   1      30.675  28.757  22.300  1.00  0.00     0.116 C 
ATOM     14  C   UNL A   1      32.731  26.347  24.381  1.00  0.00     0.046 C 
ATOM     15  C   UNL A   1      31.541  25.646  22.238  1.00  0.00     0.046 C 
ATOM     16  C   UNL A   1      33.998  25.774  23.769  1.00  0.00     0.105 C 
ATOM     17  C   UNL A   1      32.853  25.005  21.781  1.00  0.00     0.105 C 
ATOM     18  N   UNL A   1      33.694  24.592  22.940  1.00  0.00    -0.198 NA
BRANCH  18  19
ATOM     19  S   UNL A   1      33.213  23.126  23.696  1.00  0.00     0.245 S 
ATOM     20  O   UNL A   1      32.449  23.436  24.885  1.00  0.00    -0.207 OA
ATOM     21  O   UNL A   1      32.608  22.316  22.656  1.00  0.00    -0.207 OA
BRANCH  19  22
ATOM     22  C   UNL A   1      34.699  22.311  24.198  1.00  0.00     0.118 A 
ATOM     23  C   UNL A   1      35.942  22.897  23.936  1.00  0.00     0.025 A 
ATOM     24  C   UNL A   1      34.648  21.025  24.729  1.00  0.00     0.143 A 
ATOM     25  C   UNL A   1      37.118  22.205  24.244  1.00  0.00     0.002 A 
ATOM     26  C   UNL A   1      35.817  20.345  25.062  1.00  0.00     0.041 A 
ATOM     27  F   UNL A   1      33.486  20.403  24.962  1.00  0.00    -0.206 F 
ATOM     28  C   UNL A   1      37.055  20.933  24.817  1.00  0.00     0.003 A 
ENDBRANCH  19  22
ENDBRANCH  18  19
ENDBRANCH   4   7
ENDBRANCH   2   3
ENDBRANCH   1   2
BRANCH   1  29
ATOM     29  C   UNL A   1      32.317  31.705  26.949  1.00  0.00     0.118 C 
BRANCH  29  30
ATOM     30  N   UNL A   1      32.201  33.110  27.307  1.00  0.00    -0.352 N 
ATOM     31  C   UNL A   1      32.963  33.874  28.156  1.00  0.00     0.251 C 
ATOM     32  H   UNL A   1      31.458  33.590  26.872  1.00  0.00     0.163 HD
ATOM     33  O   UNL A   1      32.543  34.968  28.524  1.00  0.00    -0.269 OA
BRANCH  31  34
ATOM     34  C   UNL A   1      34.285  33.406  28.631  1.00  0.00     0.039 A 
ATOM     35  C   UNL A   1      35.420  33.714  27.873  1.00  0.00     0.014 A 
ATOM     36  C   UNL A   1      34.406  32.595  29.763  1.00  0.00     0.014 A 
ATOM     37  C   UNL A   1      36.675  33.243  28.269  1.00  0.00     0.010 A 
ATOM     38  C   UNL A   1      35.666  32.173  30.189  1.00  0.00     0.010 A 
ATOM     39  C   UNL A   1      36.813  32.483  29.441  1.00  0.00    -0.014 A 
BRANCH  39  40
ATOM     40  C   UNL A   1      38.139  31.983  29.885  1.00  0.00     0.031 A 
ATOM     41  C   UNL A   1      38.657  30.660  29.388  1.00  0.00     0.074 A 
ATOM     42  C   UNL A   1      38.856  32.689  30.781  1.00  0.00     0.049 A 
ATOM     43  N   UNL A   1      39.746  30.017  29.730  1.00  0.00    -0.248 NA
ATOM     44  C   UNL A   1      37.830  29.956  28.395  1.00  0.00     0.031 C 
ATOM     45  C   UNL A   1      38.461  33.972  31.365  1.00  0.00     0.029 A 
ATOM     46  N   UNL A   1      40.069  32.417  31.365  1.00  0.00    -0.354 N 
ATOM     47  C   UNL A   1      39.722  28.826  29.015  1.00  0.00     0.074 A 
ATOM     48  C   UNL A   1      38.495  28.819  28.248  1.00  0.00     0.031 C 
ATOM     49  C   UNL A   1      39.420  34.383  32.210  1.00  0.00     0.029 A 
ATOM     50  C   UNL A   1      40.480  33.380  32.254  1.00  0.00     0.049 A 
ATOM     51  H   UNL A   1      40.595  31.608  31.165  1.00  0.00     0.167 HD
ATOM     52  C   UNL A   1      40.643  27.834  28.987  1.00  0.00     0.031 A 
ATOM     53  C   UNL A   1      41.581  33.445  33.026  1.00  0.00     0.031 A 
ATOM     54  C   UNL A   1      41.877  27.846  29.727  1.00  0.00     0.049 A 
ATOM     55  C   UNL A   1      42.592  32.336  32.969  1.00  0.00     0.074 A 
ATOM     56  C   UNL A   1      42.895  26.908  29.722  1.00  0.00     0.029 A 
ATOM     57  N   UNL A   1      42.263  28.852  30.596  1.00  0.00    -0.354 N 
ATOM     58  N   UNL A   1      42.572  31.237  32.257  1.00  0.00    -0.248 NA
ATOM     59  C   UNL A   1      43.782  32.483  33.820  1.00  0.00     0.031 C 
ATOM     60  C   UNL A   1      43.885  27.331  30.616  1.00  0.00     0.029 A 
ATOM     61  C   UNL A   1      43.499  28.552  31.144  1.00  0.00     0.049 A 
ATOM     62  H   UNL A   1      41.738  29.660  30.795  1.00  0.00     0.167 HD
ATOM     63  C   UNL A   1      43.755  30.573  32.553  1.00  0.00     0.074 A 
ATOM     64  C   UNL A   1      44.477  31.399  33.500  1.00  0.00     0.031 C 
ATOM     65  C   UNL A   1      44.204  29.385  32.083  1.00  0.00     0.031 A 
BRANCH  52  66
ATOM     66  C   UNL A   1      40.346  26.640  28.124  1.00  0.00    -0.014 A 
ATOM     67  C   UNL A   1      39.568  25.574  28.603  1.00  0.00     0.009 A 
ATOM     68  C   UNL A   1      40.819  26.597  26.803  1.00  0.00     0.009 A 
ATOM     69  C   UNL A   1      39.299  24.474  27.786  1.00  0.00     0.001 A 
ATOM     70  C   UNL A   1      40.527  25.507  25.981  1.00  0.00     0.001 A 
ATOM     71  C   UNL A   1      39.775  24.442  26.476  1.00  0.00     0.000 A 
ENDBRANCH  52  66
BRANCH  53  72
ATOM     72  C   UNL A   1      41.795  34.616  33.916  1.00  0.00    -0.014 A 
ATOM     73  C   UNL A   1      41.316  34.601  35.235  1.00  0.00     0.009 A 
ATOM     74  C   UNL A   1      42.469  35.754  33.449  1.00  0.00     0.009 A 
ATOM     75  C   UNL A   1      41.488  35.713  36.061  1.00  0.00     0.001 A 
ATOM     76  C   UNL A   1      42.661  36.855  34.286  1.00  0.00     0.001 A 
ATOM     77  C   UNL A   1      42.164  36.837  35.588  1.00  0.00     0.000 A 
ENDBRANCH  53  72
BRANCH  65  78
ATOM     78  C   UNL A   1      45.551  28.924  32.560  1.00  0.00    -0.014 A 
ATOM     79  C   UNL A   1      45.684  28.164  33.731  1.00  0.00     0.009 A 
ATOM     80  C   UNL A   1      46.695  29.224  31.806  1.00  0.00     0.009 A 
ATOM     81  C   UNL A   1      46.944  27.736  34.153  1.00  0.00     0.001 A 
ATOM     82  C   UNL A   1      47.951  28.777  32.218  1.00  0.00     0.001 A 
ATOM     83  C   UNL A   1      48.075  28.040  33.396  1.00  0.00     0.000 A 
ENDBRANCH  65  78
ENDBRANCH  39  40
ENDBRANCH  31  34
ENDBRANCH  29  30
ENDBRANCH   1  29
TORSDOF 12
ENDMDL
MODEL 3
REMARK VINA RESULT:     -12.5      2.312      7.433
REMARK SMILES CN1C(=O)C[C@@H](C(=O)NCCCNC(=O)c2ccc(-c3c4nc(c(-c5ccccc5)c5ccc([nH]5)c(-c5ccccc5)c5nc(c(-c6ccccc6)c6ccc3[nH]6)C=C5)C=C4)cc2)C12CCN(S(=O)(=O)c1ccccc1F)CC2
REMARK SMILES IDX 11 1 10 2 9 3 7 4 8 5 6 7 1 8 2 9 3 10 64 11 4 12 5 13 65 14
REMARK SMILES IDX 79 15 66 16 78 17 67 18 68 19 69 20 70 21 71 22 72 23 76 24
REMARK SMILES IDX 73 25 75 26 77 27 74 28 12 29 13 30 14 31 15 33 16 34 17 35
REMARK SMILES IDX 63 36 18 37 62 38 19 39 20 40 21 41 56 42 22 43 61 44 55 45
REMARK SMILES IDX 57 46 23 47 60 48 54 49 53 50 24 52 46 53 31 54 45 55 32 56
REMARK SMILES IDX 35 57 44 58 58 59 33 60 34 61 43 63 59 64 36 65 25 66 26 67
REMARK SMILES IDX 30 68 27 69 29 70 28 71 47 72 48 73 52 74 49 75 51 76 50 77
REMARK SMILES IDX 37 78 38 79 42 80 39 81 41 82 40 83
REMARK H PARENT 9 6 13 32 57 51 35 62
REMARK Flexibility Score: inf
ROOT
ATOM      1  C   UNL A   1      34.134  28.244  25.319  1.00  0.00     0.042 C 
ENDROOT
BRANCH   1   2
ATOM      2  C   UNL A   1      33.005  28.208  24.286  1.00  0.00     0.117 C 
BRANCH   2   3
ATOM      3  N   UNL A   1      33.386  27.615  23.010  1.00  0.00    -0.356 N 
ATOM      4  C   UNL A   1      33.019  26.506  22.324  1.00  0.00     0.226 C 
ATOM      5  O   UNL A   1      33.596  26.329  21.244  1.00  0.00    -0.275 OA
ATOM      6  H   UNL A   1      34.068  28.144  22.536  1.00  0.00     0.163 HD
BRANCH   4   7
ATOM      7  C   UNL A   1      32.026  25.441  22.797  1.00  0.00     0.113 C 
ATOM      8  C   UNL A   1      31.686  24.973  26.505  1.00  0.00     0.147 C 
ATOM      9  N   UNL A   1      31.631  25.301  25.090  1.00  0.00    -0.339 N 
ATOM     10  C   UNL A   1      30.525  25.969  24.575  1.00  0.00     0.223 C 
ATOM     11  C   UNL A   1      32.411  24.611  24.049  1.00  0.00     0.057 C 
ATOM     12  O   UNL A   1      29.610  26.460  25.214  1.00  0.00    -0.275 OA
ATOM     13  C   UNL A   1      30.633  25.999  23.076  1.00  0.00     0.116 C 
ATOM     14  C   UNL A   1      33.933  24.605  24.312  1.00  0.00     0.046 C 
ATOM     15  C   UNL A   1      31.877  23.145  23.936  1.00  0.00     0.046 C 
ATOM     16  C   UNL A   1      34.685  23.639  23.411  1.00  0.00     0.105 C 
ATOM     17  C   UNL A   1      32.767  22.187  23.141  1.00  0.00     0.105 C 
ATOM     18  N   UNL A   1      34.186  22.261  23.588  1.00  0.00    -0.198 NA
BRANCH  18  19
ATOM     19  S   UNL A   1      34.532  21.415  25.043  1.00  0.00     0.245 S 
ATOM     20  O   UNL A   1      33.610  21.846  26.072  1.00  0.00    -0.207 OA
ATOM     21  O   UNL A   1      34.590  20.010  24.687  1.00  0.00    -0.207 OA
BRANCH  19  22
ATOM     22  C   UNL A   1      36.161  21.900  25.530  1.00  0.00     0.118 A 
ATOM     23  C   UNL A   1      36.374  23.159  26.101  1.00  0.00     0.025 A 
ATOM     24  C   UNL A   1      37.253  21.094  25.224  1.00  0.00     0.143 A 
ATOM     25  C   UNL A   1      37.676  23.580  26.393  1.00  0.00     0.002 A 
ATOM     26  C   UNL A   1      38.548  21.500  25.538  1.00  0.00     0.041 A 
ATOM     27  F   UNL A   1      37.107  19.898  24.640  1.00  0.00    -0.206 F 
ATOM     28  C   UNL A   1      38.762  22.745  26.122  1.00  0.00     0.003 A 
ENDBRANCH  19  22
ENDBRANCH  18  19
ENDBRANCH   4   7
ENDBRANCH   2   3
ENDBRANCH   1   2
BRANCH   1  29
ATOM     29  C   UNL A   1      33.657  28.394  26.764  1.00  0.00     0.118 C 
BRANCH  29  30
ATOM     30  N   UNL A   1      33.583  29.790  27.167  1.00  0.00    -0.352 N 
ATOM     31  C   UNL A   1      34.443  30.537  27.933  1.00  0.00     0.251 C 
ATOM     32  H   UNL A   1      32.790  30.275  26.840  1.00  0.00     0.163 HD
ATOM     33  O   UNL A   1      34.070  31.620  28.376  1.00  0.00    -0.269 OA
BRANCH  31  34
ATOM     34  C   UNL A   1      35.815  30.066  28.227  1.00  0.00     0.039 A 
ATOM     35  C   UNL A   1      36.107  29.608  29.517  1.00  0.00     0.014 A 
ATOM     36  C   UNL A   1      36.835  30.154  27.275  1.00  0.00     0.014 A 
ATOM     37  C   UNL A   1      37.406  29.204  29.840  1.00  0.00     0.010 A 
ATOM     38  C   UNL A   1      38.118  29.698  27.581  1.00  0.00     0.010 A 
ATOM     39  C   UNL A   1      38.420  29.229  28.869  1.00  0.00    -0.014 A 
BRANCH  39  40
ATOM     40  C   UNL A   1      39.804  28.793  29.187  1.00  0.00     0.031 A 
ATOM     41  C   UNL A   1      40.747  29.723  29.903  1.00  0.00     0.074 A 
ATOM     42  C   UNL A   1      40.236  27.582  28.784  1.00  0.00     0.049 A 
ATOM     43  N   UNL A   1      42.015  29.557  30.188  1.00  0.00    -0.248 NA
ATOM     44  C   UNL A   1      40.199  31.019  30.333  1.00  0.00     0.031 C 
ATOM     45  C   UNL A   1      39.437  26.594  28.058  1.00  0.00     0.029 A 
ATOM     46  N   UNL A   1      41.464  26.982  28.921  1.00  0.00    -0.354 N 
ATOM     47  C   UNL A   1      42.420  30.733  30.806  1.00  0.00     0.074 A 
ATOM     48  C   UNL A   1      41.275  31.618  30.824  1.00  0.00     0.031 C 
ATOM     49  C   UNL A   1      40.189  25.505  27.829  1.00  0.00     0.029 A 
ATOM     50  C   UNL A   1      41.530  25.731  28.358  1.00  0.00     0.049 A 
ATOM     51  H   UNL A   1      42.224  27.409  29.378  1.00  0.00     0.167 HD
ATOM     52  C   UNL A   1      43.631  31.046  31.326  1.00  0.00     0.031 A 
ATOM     53  C   UNL A   1      42.557  24.865  28.271  1.00  0.00     0.031 A 
ATOM     54  C   UNL A   1      44.766  30.162  31.336  1.00  0.00     0.049 A 
ATOM     55  C   UNL A   1      43.888  25.232  28.864  1.00  0.00     0.074 A 
ATOM     56  C   UNL A   1      46.019  30.373  31.885  1.00  0.00     0.029 A 
ATOM     57  N   UNL A   1      44.782  28.895  30.778  1.00  0.00    -0.354 N 
ATOM     58  N   UNL A   1      44.242  26.332  29.480  1.00  0.00    -0.248 NA
ATOM     59  C   UNL A   1      44.959  24.230  28.754  1.00  0.00     0.031 C 
ATOM     60  C   UNL A   1      46.806  29.244  31.629  1.00  0.00     0.029 A 
ATOM     61  C   UNL A   1      46.027  28.316  30.957  1.00  0.00     0.049 A 
ATOM     62  H   UNL A   1      44.021  28.468  30.321  1.00  0.00     0.167 HD
ATOM     63  C   UNL A   1      45.566  26.147  29.853  1.00  0.00     0.074 A 
ATOM     64  C   UNL A   1      45.949  24.823  29.407  1.00  0.00     0.031 C 
ATOM     65  C   UNL A   1      46.392  26.998  30.509  1.00  0.00     0.031 A 
BRANCH  52  66
ATOM     66  C   UNL A   1      43.792  32.413  31.928  1.00  0.00    -0.014 A 
ATOM     67  C   UNL A   1      43.544  32.639  33.292  1.00  0.00     0.009 A 
ATOM     68  C   UNL A   1      44.233  33.480  31.131  1.00  0.00     0.009 A 
ATOM     69  C   UNL A   1      43.702  33.915  33.836  1.00  0.00     0.001 A 
ATOM     70  C   UNL A   1      44.414  34.750  31.684  1.00  0.00     0.001 A 
ATOM     71  C   UNL A   1      44.139  34.968  33.033  1.00  0.00     0.000 A 
ENDBRANCH  52  66
BRANCH  53  72
ATOM     72  C   UNL A   1      42.366  23.552  27.603  1.00  0.00    -0.014 A 
ATOM     73  C   UNL A   1      41.910  22.445  28.334  1.00  0.00     0.009 A 
ATOM     74  C   UNL A   1      42.646  23.397  26.237  1.00  0.00     0.009 A 
ATOM     75  C   UNL A   1      41.760  21.202  27.715  1.00  0.00     0.001 A 
ATOM     76  C   UNL A   1      42.472  22.160  25.615  1.00  0.00     0.001 A 
ATOM     77  C   UNL A   1      42.038  21.061  26.355  1.00  0.00     0.000 A 
ENDBRANCH  53  72
BRANCH  65  78
ATOM     78  C   UNL A   1      47.779  26.510  30.810  1.00  0.00    -0.014 A 
ATOM     79  C   UNL A   1      48.077  25.879  32.027  1.00  0.00     0.009 A 
ATOM     80  C   UNL A   1      48.790  26.652  29.847  1.00  0.00     0.009 A 
ATOM     81  C   UNL A   1      49.372  25.424  32.284  1.00  0.00     0.001 A 
ATOM     82  C   UNL A   1      50.077  26.176  30.099  1.00  0.00     0.001 A 
ATOM     83  C   UNL A   1      50.369  25.569  31.320  1.00  0.00     0.000 A 
ENDBRANCH  65  78
ENDBRANCH  39  40
ENDBRANCH  31  34
ENDBRANCH  29  30
ENDBRANCH   1  29
TORSDOF 12
ENDMDL
