MODEL 1
REMARK VINA RESULT:     -11.5      0.000      0.000
REMARK SMILES CC1(C)CCN(C(=O)N[C@H]2COC[C@@]2(C)C(=O)NCCCNC(=O)c2ccc(-c3c4nc(c(-c5ccccc5)c5ccc([nH]5)c(-c5ccccc5)c5nc(c(-c6ccccc6)c6ccc3[nH]6)C=C5)C=C4)cc2)C1
REMARK SMILES IDX 20 1 19 2 18 3 16 4 17 5 14 7 10 8 11 9 12 10 13 11 15 12
REMARK SMILES IDX 9 13 7 14 8 15 6 17 1 18 2 19 3 20 4 21 73 22 5 23 21 24
REMARK SMILES IDX 22 25 23 26 24 28 25 29 26 30 72 31 27 32 71 33 28 34 29 35
REMARK SMILES IDX 30 36 65 37 31 38 70 39 64 40 66 41 32 42 69 43 63 44 62 45
REMARK SMILES IDX 33 47 55 48 40 49 54 50 41 51 44 52 53 53 67 54 42 55 43 56
REMARK SMILES IDX 52 58 68 59 45 60 34 61 35 62 39 63 36 64 38 65 37 66 56 67
REMARK SMILES IDX 57 68 61 69 58 70 60 71 59 72 46 73 47 74 51 75 48 76 50 77
REMARK SMILES IDX 49 78
REMARK H PARENT 18 6 9 16 22 27 66 46 44 57
REMARK Flexibility Score: inf
ROOT
ATOM      1  C   UNL A   1      31.506  31.891  26.519  1.00  0.00     0.042 C 
ENDROOT
BRANCH   1   2
ATOM      2  C   UNL A   1      31.647  30.425  26.161  1.00  0.00     0.117 C 
BRANCH   2   3
ATOM      3  N   UNL A   1      32.771  30.128  25.290  1.00  0.00    -0.355 N 
ATOM      4  C   UNL A   1      33.331  28.936  24.921  1.00  0.00     0.230 C 
ATOM      5  O   UNL A   1      34.228  28.976  24.076  1.00  0.00    -0.274 OA
ATOM      6  H   UNL A   1      33.204  30.921  24.899  1.00  0.00     0.163 HD
BRANCH   4   7
ATOM      7  C   UNL A   1      32.962  27.641  25.630  1.00  0.00     0.092 C 
ATOM      8  C   UNL A   1      31.654  26.960  25.205  1.00  0.00     0.127 C 
ATOM      9  C   UNL A   1      31.845  25.566  25.765  1.00  0.00     0.186 C 
ATOM     10  O   UNL A   1      33.248  25.272  25.638  1.00  0.00    -0.378 OA
ATOM     11  C   UNL A   1      33.931  26.505  25.300  1.00  0.00     0.179 C 
ATOM     12  C   UNL A   1      33.046  27.919  27.150  1.00  0.00     0.026 C 
BRANCH   8  13
ATOM     13  N   UNL A   1      31.296  27.164  23.779  1.00  0.00    -0.332 N 
ATOM     14  C   UNL A   1      30.422  27.662  22.900  1.00  0.00     0.317 C 
ATOM     15  O   UNL A   1      30.650  27.308  21.735  1.00  0.00    -0.249 OA
ATOM     16  H   UNL A   1      32.018  26.752  23.250  1.00  0.00     0.165 HD
BRANCH  14  17
ATOM     17  N   UNL A   1      29.413  28.513  23.163  1.00  0.00    -0.324 N 
ATOM     18  C   UNL A   1      28.172  30.448  21.206  1.00  0.00     0.013 C 
ATOM     19  C   UNL A   1      28.057  30.391  22.744  1.00  0.00    -0.016 C 
ATOM     20  C   UNL A   1      27.664  31.766  23.275  1.00  0.00     0.013 C 
ATOM     21  C   UNL A   1      27.138  29.255  23.200  1.00  0.00     0.030 C 
ATOM     22  C   UNL A   1      29.382  29.939  23.355  1.00  0.00     0.127 C 
ATOM     23  C   UNL A   1      28.035  28.014  23.121  1.00  0.00     0.122 C 
ENDBRANCH  14  17
ENDBRANCH   8  13
ENDBRANCH   4   7
ENDBRANCH   2   3
ENDBRANCH   1   2
BRANCH   1  24
ATOM     24  C   UNL A   1      32.746  32.504  27.143  1.00  0.00     0.118 C 
BRANCH  24  25
ATOM     25  N   UNL A   1      32.515  33.836  27.688  1.00  0.00    -0.352 N 
ATOM     26  C   UNL A   1      33.214  34.546  28.636  1.00  0.00     0.251 C 
ATOM     27  H   UNL A   1      31.733  34.304  27.317  1.00  0.00     0.163 HD
ATOM     28  O   UNL A   1      32.763  35.605  29.063  1.00  0.00    -0.269 OA
BRANCH  26  29
ATOM     29  C   UNL A   1      34.488  34.021  29.171  1.00  0.00     0.039 A 
ATOM     30  C   UNL A   1      34.471  33.263  30.346  1.00  0.00     0.014 A 
ATOM     31  C   UNL A   1      35.694  34.262  28.514  1.00  0.00     0.014 A 
ATOM     32  C   UNL A   1      35.651  32.670  30.804  1.00  0.00     0.010 A 
ATOM     33  C   UNL A   1      36.839  33.580  28.904  1.00  0.00     0.010 A 
ATOM     34  C   UNL A   1      36.834  32.782  30.057  1.00  0.00    -0.014 A 
BRANCH  34  35
ATOM     35  C   UNL A   1      38.088  32.097  30.459  1.00  0.00     0.031 A 
ATOM     36  C   UNL A   1      39.037  32.776  31.408  1.00  0.00     0.074 A 
ATOM     37  C   UNL A   1      38.419  30.916  29.900  1.00  0.00     0.049 A 
ATOM     38  N   UNL A   1      40.241  32.415  31.772  1.00  0.00    -0.248 NA
ATOM     39  C   UNL A   1      38.589  34.050  31.995  1.00  0.00     0.031 C 
ATOM     40  C   UNL A   1      37.609  30.170  28.935  1.00  0.00     0.029 A 
ATOM     41  N   UNL A   1      39.543  30.143  30.055  1.00  0.00    -0.354 N 
ATOM     42  C   UNL A   1      40.702  33.432  32.600  1.00  0.00     0.074 A 
ATOM     43  C   UNL A   1      39.673  34.447  32.642  1.00  0.00     0.031 C 
ATOM     44  C   UNL A   1      38.247  29.035  28.607  1.00  0.00     0.029 A 
ATOM     45  C   UNL A   1      39.532  28.997  29.297  1.00  0.00     0.049 A 
ATOM     46  H   UNL A   1      40.286  30.385  30.653  1.00  0.00     0.167 HD
ATOM     47  C   UNL A   1      41.869  33.507  33.282  1.00  0.00     0.031 A 
ATOM     48  C   UNL A   1      40.458  28.028  29.164  1.00  0.00     0.031 A 
ATOM     49  C   UNL A   1      42.878  32.484  33.266  1.00  0.00     0.049 A 
ATOM     50  C   UNL A   1      41.746  28.132  29.934  1.00  0.00     0.074 A 
ATOM     51  C   UNL A   1      44.066  32.435  33.975  1.00  0.00     0.029 A 
ATOM     52  N   UNL A   1      42.814  31.327  32.507  1.00  0.00    -0.354 N 
ATOM     53  N   UNL A   1      42.142  29.072  30.756  1.00  0.00    -0.248 NA
ATOM     54  C   UNL A   1      42.708  27.035  29.762  1.00  0.00     0.031 C 
ATOM     55  C   UNL A   1      44.742  31.266  33.609  1.00  0.00     0.029 A 
ATOM     56  C   UNL A   1      43.950  30.565  32.715  1.00  0.00     0.049 A 
ATOM     57  H   UNL A   1      42.071  31.083  31.908  1.00  0.00     0.167 HD
ATOM     58  C   UNL A   1      43.385  28.666  31.224  1.00  0.00     0.074 A 
ATOM     59  C   UNL A   1      43.671  27.390  30.602  1.00  0.00     0.031 C 
ATOM     60  C   UNL A   1      44.213  29.293  32.095  1.00  0.00     0.031 A 
BRANCH  47  61
ATOM     61  C   UNL A   1      42.112  34.742  34.103  1.00  0.00    -0.014 A 
ATOM     62  C   UNL A   1      42.726  35.877  33.547  1.00  0.00     0.009 A 
ATOM     63  C   UNL A   1      41.700  34.782  35.444  1.00  0.00     0.009 A 
ATOM     64  C   UNL A   1      42.959  37.010  34.330  1.00  0.00     0.001 A 
ATOM     65  C   UNL A   1      41.907  35.928  36.215  1.00  0.00     0.001 A 
ATOM     66  C   UNL A   1      42.545  37.036  35.661  1.00  0.00     0.000 A 
ENDBRANCH  47  61
BRANCH  48  67
ATOM     67  C   UNL A   1      40.198  26.864  28.278  1.00  0.00    -0.014 A 
ATOM     68  C   UNL A   1      40.654  26.867  26.950  1.00  0.00     0.009 A 
ATOM     69  C   UNL A   1      39.491  25.747  28.749  1.00  0.00     0.009 A 
ATOM     70  C   UNL A   1      40.382  25.789  26.105  1.00  0.00     0.001 A 
ATOM     71  C   UNL A   1      39.245  24.657  27.910  1.00  0.00     0.001 A 
ATOM     72  C   UNL A   1      39.683  24.683  26.586  1.00  0.00     0.000 A 
ENDBRANCH  48  67
BRANCH  60  73
ATOM     73  C   UNL A   1      45.487  28.589  32.462  1.00  0.00    -0.014 A 
ATOM     74  C   UNL A   1      46.678  28.814  31.755  1.00  0.00     0.009 A 
ATOM     75  C   UNL A   1      45.506  27.730  33.573  1.00  0.00     0.009 A 
ATOM     76  C   UNL A   1      47.856  28.172  32.137  1.00  0.00     0.001 A 
ATOM     77  C   UNL A   1      46.691  27.111  33.970  1.00  0.00     0.001 A 
ATOM     78  C   UNL A   1      47.864  27.327  33.247  1.00  0.00     0.000 A 
ENDBRANCH  60  73
ENDBRANCH  34  35
ENDBRANCH  26  29
ENDBRANCH  24  25
ENDBRANCH   1  24
TORSDOF 12
ENDMDL
MODEL 2
REMARK VINA RESULT:     -11.4      1.398      6.126
REMARK SMILES CC1(C)CCN(C(=O)N[C@H]2COC[C@@]2(C)C(=O)NCCCNC(=O)c2ccc(-c3c4nc(c(-c5ccccc5)c5ccc([nH]5)c(-c5ccccc5)c5nc(c(-c6ccccc6)c6ccc3[nH]6)C=C5)C=C4)cc2)C1
REMARK SMILES IDX 20 1 19 2 18 3 16 4 17 5 14 7 10 8 11 9 12 10 13 11 15 12
REMARK SMILES IDX 9 13 7 14 8 15 6 17 1 18 2 19 3 20 4 21 73 22 5 23 21 24
REMARK SMILES IDX 22 25 23 26 24 28 25 29 26 30 72 31 27 32 71 33 28 34 29 35
REMARK SMILES IDX 30 36 65 37 31 38 70 39 64 40 66 41 32 42 69 43 63 44 62 45
REMARK SMILES IDX 33 47 55 48 40 49 54 50 41 51 44 52 53 53 67 54 42 55 43 56
REMARK SMILES IDX 52 58 68 59 45 60 34 61 35 62 39 63 36 64 38 65 37 66 56 67
REMARK SMILES IDX 57 68 61 69 58 70 60 71 59 72 46 73 47 74 51 75 48 76 50 77
REMARK SMILES IDX 49 78
REMARK H PARENT 18 6 9 16 22 27 66 46 44 57
REMARK Flexibility Score: inf
ROOT
ATOM      1  C   UNL A   1      31.572  31.929  26.566  1.00  0.00     0.042 C 
ENDROOT
BRANCH   1   2
ATOM      2  C   UNL A   1      31.792  30.444  26.355  1.00  0.00     0.117 C 
BRANCH   2   3
ATOM      3  N   UNL A   1      32.838  30.125  25.399  1.00  0.00    -0.355 N 
ATOM      4  C   UNL A   1      33.331  28.922  24.974  1.00  0.00     0.230 C 
ATOM      5  O   UNL A   1      34.163  28.947  24.064  1.00  0.00    -0.274 OA
ATOM      6  H   UNL A   1      33.266  30.910  24.986  1.00  0.00     0.163 HD
BRANCH   4   7
ATOM      7  C   UNL A   1      32.973  27.629  25.691  1.00  0.00     0.092 C 
ATOM      8  C   UNL A   1      31.672  26.933  25.271  1.00  0.00     0.127 C 
ATOM      9  C   UNL A   1      31.876  25.545  25.840  1.00  0.00     0.186 C 
ATOM     10  O   UNL A   1      33.282  25.262  25.716  1.00  0.00    -0.378 OA
ATOM     11  C   UNL A   1      33.954  26.500  25.369  1.00  0.00     0.179 C 
ATOM     12  C   UNL A   1      33.055  27.918  27.209  1.00  0.00     0.026 C 
BRANCH   8  13
ATOM     13  N   UNL A   1      31.313  27.123  23.843  1.00  0.00    -0.332 N 
ATOM     14  C   UNL A   1      30.438  27.614  22.961  1.00  0.00     0.317 C 
ATOM     15  O   UNL A   1      30.664  27.249  21.799  1.00  0.00    -0.249 OA
ATOM     16  H   UNL A   1      32.033  26.706  23.318  1.00  0.00     0.165 HD
BRANCH  14  17
ATOM     17  N   UNL A   1      29.429  28.468  23.217  1.00  0.00    -0.324 N 
ATOM     18  C   UNL A   1      28.255  30.457  21.274  1.00  0.00     0.013 C 
ATOM     19  C   UNL A   1      28.101  30.367  22.806  1.00  0.00    -0.016 C 
ATOM     20  C   UNL A   1      27.706  31.734  23.358  1.00  0.00     0.013 C 
ATOM     21  C   UNL A   1      27.161  29.230  23.214  1.00  0.00     0.030 C 
ATOM     22  C   UNL A   1      29.406  29.890  23.440  1.00  0.00     0.127 C 
ATOM     23  C   UNL A   1      28.049  27.983  23.130  1.00  0.00     0.122 C 
ENDBRANCH  14  17
ENDBRANCH   8  13
ENDBRANCH   4   7
ENDBRANCH   2   3
ENDBRANCH   1   2
BRANCH   1  24
ATOM     24  C   UNL A   1      32.717  32.639  27.262  1.00  0.00     0.118 C 
BRANCH  24  25
ATOM     25  N   UNL A   1      32.409  34.020  27.610  1.00  0.00    -0.352 N 
ATOM     26  C   UNL A   1      32.994  34.861  28.527  1.00  0.00     0.251 C 
ATOM     27  H   UNL A   1      31.661  34.416  27.107  1.00  0.00     0.163 HD
ATOM     28  O   UNL A   1      32.484  35.952  28.771  1.00  0.00    -0.269 OA
BRANCH  26  29
ATOM     29  C   UNL A   1      34.215  34.444  29.248  1.00  0.00     0.039 A 
ATOM     30  C   UNL A   1      34.093  33.873  30.518  1.00  0.00     0.014 A 
ATOM     31  C   UNL A   1      35.476  34.602  28.673  1.00  0.00     0.014 A 
ATOM     32  C   UNL A   1      35.227  33.376  31.166  1.00  0.00     0.010 A 
ATOM     33  C   UNL A   1      36.583  34.007  29.263  1.00  0.00     0.010 A 
ATOM     34  C   UNL A   1      36.474  33.392  30.519  1.00  0.00    -0.014 A 
BRANCH  34  35
ATOM     35  C   UNL A   1      37.687  32.796  31.132  1.00  0.00     0.031 A 
ATOM     36  C   UNL A   1      38.323  31.586  30.502  1.00  0.00     0.074 A 
ATOM     37  C   UNL A   1      38.157  33.276  32.300  1.00  0.00     0.049 A 
ATOM     38  N   UNL A   1      39.295  30.834  30.953  1.00  0.00    -0.248 NA
ATOM     39  C   UNL A   1      37.766  31.140  29.214  1.00  0.00     0.031 C 
ATOM     40  C   UNL A   1      37.609  34.417  33.036  1.00  0.00     0.029 A 
ATOM     41  N   UNL A   1      39.201  32.848  33.082  1.00  0.00    -0.354 N 
ATOM     42  C   UNL A   1      39.439  29.812  30.022  1.00  0.00     0.074 A 
ATOM     43  C   UNL A   1      38.423  30.009  29.012  1.00  0.00     0.031 C 
ATOM     44  C   UNL A   1      38.339  34.616  34.147  1.00  0.00     0.029 A 
ATOM     45  C   UNL A   1      39.371  33.589  34.227  1.00  0.00     0.049 A 
ATOM     46  H   UNL A   1      39.775  32.084  32.846  1.00  0.00     0.167 HD
ATOM     47  C   UNL A   1      40.349  28.810  29.998  1.00  0.00     0.031 A 
ATOM     48  C   UNL A   1      40.254  33.450  35.235  1.00  0.00     0.031 A 
ATOM     49  C   UNL A   1      41.379  28.633  30.984  1.00  0.00     0.049 A 
ATOM     50  C   UNL A   1      41.257  32.331  35.184  1.00  0.00     0.074 A 
ATOM     51  C   UNL A   1      42.390  27.688  31.014  1.00  0.00     0.029 A 
ATOM     52  N   UNL A   1      41.532  29.422  32.112  1.00  0.00    -0.354 N 
ATOM     53  N   UNL A   1      41.416  31.407  34.269  1.00  0.00    -0.248 NA
ATOM     54  C   UNL A   1      42.206  32.242  36.302  1.00  0.00     0.031 C 
ATOM     55  C   UNL A   1      43.129  27.880  32.185  1.00  0.00     0.029 A 
ATOM     56  C   UNL A   1      42.610  28.976  32.855  1.00  0.00     0.049 A 
ATOM     57  H   UNL A   1      40.959  30.187  32.350  1.00  0.00     0.167 HD
ATOM     58  C   UNL A   1      42.502  30.647  34.683  1.00  0.00     0.074 A 
ATOM     59  C   UNL A   1      42.968  31.224  35.928  1.00  0.00     0.031 C 
ATOM     60  C   UNL A   1      43.065  29.569  34.085  1.00  0.00     0.031 A 
BRANCH  47  61
ATOM     61  C   UNL A   1      40.265  27.828  28.863  1.00  0.00    -0.014 A 
ATOM     62  C   UNL A   1      40.933  28.059  27.649  1.00  0.00     0.009 A 
ATOM     63  C   UNL A   1      39.528  26.644  29.017  1.00  0.00     0.009 A 
ATOM     64  C   UNL A   1      40.829  27.144  26.599  1.00  0.00     0.001 A 
ATOM     65  C   UNL A   1      39.452  25.716  27.976  1.00  0.00     0.001 A 
ATOM     66  C   UNL A   1      40.093  25.972  26.766  1.00  0.00     0.000 A 
ENDBRANCH  47  61
BRANCH  48  67
ATOM     67  C   UNL A   1      40.243  34.405  36.373  1.00  0.00    -0.014 A 
ATOM     68  C   UNL A   1      39.437  34.160  37.496  1.00  0.00     0.009 A 
ATOM     69  C   UNL A   1      41.031  35.566  36.344  1.00  0.00     0.009 A 
ATOM     70  C   UNL A   1      39.400  35.073  38.553  1.00  0.00     0.001 A 
ATOM     71  C   UNL A   1      41.013  36.463  37.415  1.00  0.00     0.001 A 
ATOM     72  C   UNL A   1      40.190  36.220  38.515  1.00  0.00     0.000 A 
ENDBRANCH  48  67
BRANCH  60  73
ATOM     73  C   UNL A   1      44.275  28.970  34.742  1.00  0.00    -0.014 A 
ATOM     74  C   UNL A   1      44.160  27.927  35.674  1.00  0.00     0.009 A 
ATOM     75  C   UNL A   1      45.554  29.420  34.376  1.00  0.00     0.009 A 
ATOM     76  C   UNL A   1      45.303  27.366  36.246  1.00  0.00     0.001 A 
ATOM     77  C   UNL A   1      46.695  28.838  34.928  1.00  0.00     0.001 A 
ATOM     78  C   UNL A   1      46.568  27.816  35.868  1.00  0.00     0.000 A 
ENDBRANCH  60  73
ENDBRANCH  34  35
ENDBRANCH  26  29
ENDBRANCH  24  25
ENDBRANCH   1  24
TORSDOF 12
ENDMDL
MODEL 3
REMARK VINA RESULT:     -11.4      4.573      9.648
REMARK SMILES CC1(C)CCN(C(=O)N[C@H]2COC[C@@]2(C)C(=O)NCCCNC(=O)c2ccc(-c3c4nc(c(-c5ccccc5)c5ccc([nH]5)c(-c5ccccc5)c5nc(c(-c6ccccc6)c6ccc3[nH]6)C=C5)C=C4)cc2)C1
REMARK SMILES IDX 20 1 19 2 18 3 16 4 17 5 14 7 10 8 11 9 12 10 13 11 15 12
REMARK SMILES IDX 9 13 7 14 8 15 6 17 1 18 2 19 3 20 4 21 73 22 5 23 21 24
REMARK SMILES IDX 22 25 23 26 24 28 25 29 26 30 72 31 27 32 71 33 28 34 29 35
REMARK SMILES IDX 30 36 65 37 31 38 70 39 64 40 66 41 32 42 69 43 63 44 62 45
REMARK SMILES IDX 33 47 55 48 40 49 54 50 41 51 44 52 53 53 67 54 42 55 43 56
REMARK SMILES IDX 52 58 68 59 45 60 34 61 35 62 39 63 36 64 38 65 37 66 56 67
REMARK SMILES IDX 57 68 61 69 58 70 60 71 59 72 46 73 47 74 51 75 48 76 50 77
REMARK SMILES IDX 49 78
REMARK H PARENT 18 6 9 16 22 27 66 46 44 57
REMARK Flexibility Score: inf
ROOT
ATOM      1  C   UNL A   1      38.032  19.696  25.001  1.00  0.00     0.042 C 
ENDROOT
BRANCH   1   2
ATOM      2  C   UNL A   1      37.022  20.756  24.606  1.00  0.00     0.117 C 
BRANCH   2   3
ATOM      3  N   UNL A   1      36.446  21.478  25.727  1.00  0.00    -0.355 N 
ATOM      4  C   UNL A   1      35.550  22.510  25.765  1.00  0.00     0.230 C 
ATOM      5  O   UNL A   1      35.153  22.868  26.877  1.00  0.00    -0.274 OA
ATOM      6  H   UNL A   1      36.754  21.172  26.611  1.00  0.00     0.163 HD
BRANCH   4   7
ATOM      7  C   UNL A   1      35.175  23.273  24.503  1.00  0.00     0.092 C 
ATOM      8  C   UNL A   1      34.099  22.652  23.604  1.00  0.00     0.127 C 
ATOM      9  C   UNL A   1      33.699  23.837  22.751  1.00  0.00     0.186 C 
ATOM     10  O   UNL A   1      33.788  24.994  23.603  1.00  0.00    -0.378 OA
ATOM     11  C   UNL A   1      34.480  24.599  24.815  1.00  0.00     0.179 C 
ATOM     12  C   UNL A   1      36.495  23.587  23.757  1.00  0.00     0.026 C 
BRANCH   8  13
ATOM     13  N   UNL A   1      33.076  21.862  24.335  1.00  0.00    -0.332 N 
ATOM     14  C   UNL A   1      32.533  20.663  24.561  1.00  0.00     0.317 C 
ATOM     15  O   UNL A   1      31.489  20.720  25.225  1.00  0.00    -0.249 OA
ATOM     16  H   UNL A   1      32.583  22.501  24.900  1.00  0.00     0.165 HD
BRANCH  14  17
ATOM     17  N   UNL A   1      33.036  19.470  24.193  1.00  0.00    -0.324 N 
ATOM     18  C   UNL A   1      32.528  16.832  25.572  1.00  0.00     0.013 C 
ATOM     19  C   UNL A   1      33.604  17.211  24.534  1.00  0.00    -0.016 C 
ATOM     20  C   UNL A   1      34.778  16.242  24.643  1.00  0.00     0.013 C 
ATOM     21  C   UNL A   1      33.015  17.328  23.126  1.00  0.00     0.030 C 
ATOM     22  C   UNL A   1      34.073  18.647  24.759  1.00  0.00     0.127 C 
ATOM     23  C   UNL A   1      32.376  18.722  23.120  1.00  0.00     0.122 C 
ENDBRANCH  14  17
ENDBRANCH   8  13
ENDBRANCH   4   7
ENDBRANCH   2   3
ENDBRANCH   1   2
BRANCH   1  24
ATOM     24  C   UNL A   1      39.193  20.215  25.827  1.00  0.00     0.118 C 
BRANCH  24  25
ATOM     25  N   UNL A   1      40.325  19.297  25.867  1.00  0.00    -0.352 N 
ATOM     26  C   UNL A   1      41.655  19.531  26.126  1.00  0.00     0.251 C 
ATOM     27  H   UNL A   1      40.101  18.358  25.677  1.00  0.00     0.163 HD
ATOM     28  O   UNL A   1      42.477  18.633  25.964  1.00  0.00    -0.269 OA
BRANCH  26  29
ATOM     29  C   UNL A   1      42.105  20.869  26.564  1.00  0.00     0.039 A 
ATOM     30  C   UNL A   1      42.495  21.804  25.601  1.00  0.00     0.014 A 
ATOM     31  C   UNL A   1      42.132  21.208  27.917  1.00  0.00     0.014 A 
ATOM     32  C   UNL A   1      42.819  23.106  25.992  1.00  0.00     0.010 A 
ATOM     33  C   UNL A   1      42.342  22.528  28.292  1.00  0.00     0.010 A 
ATOM     34  C   UNL A   1      42.694  23.492  27.336  1.00  0.00    -0.014 A 
BRANCH  34  35
ATOM     35  C   UNL A   1      42.942  24.885  27.783  1.00  0.00     0.031 A 
ATOM     36  C   UNL A   1      44.340  25.316  28.137  1.00  0.00     0.074 A 
ATOM     37  C   UNL A   1      41.908  25.730  27.962  1.00  0.00     0.049 A 
ATOM     38  N   UNL A   1      44.747  26.436  28.679  1.00  0.00    -0.248 NA
ATOM     39  C   UNL A   1      45.417  24.344  27.887  1.00  0.00     0.031 C 
ATOM     40  C   UNL A   1      40.501  25.425  27.695  1.00  0.00     0.029 A 
ATOM     41  N   UNL A   1      41.884  27.020  28.432  1.00  0.00    -0.354 N 
ATOM     42  C   UNL A   1      46.116  26.287  28.863  1.00  0.00     0.074 A 
ATOM     43  C   UNL A   1      46.462  24.952  28.427  1.00  0.00     0.031 C 
ATOM     44  C   UNL A   1      39.755  26.506  27.977  1.00  0.00     0.029 A 
ATOM     45  C   UNL A   1      40.622  27.561  28.491  1.00  0.00     0.049 A 
ATOM     46  H   UNL A   1      42.693  27.512  28.699  1.00  0.00     0.167 HD
ATOM     47  C   UNL A   1      47.012  27.186  29.333  1.00  0.00     0.031 A 
ATOM     48  C   UNL A   1      40.208  28.768  28.922  1.00  0.00     0.031 A 
ATOM     49  C   UNL A   1      46.675  28.523  29.737  1.00  0.00     0.049 A 
ATOM     50  C   UNL A   1      41.222  29.751  29.438  1.00  0.00     0.074 A 
ATOM     51  C   UNL A   1      47.519  29.533  30.166  1.00  0.00     0.029 A 
ATOM     52  N   UNL A   1      45.389  29.039  29.756  1.00  0.00    -0.354 N 
ATOM     53  N   UNL A   1      42.520  29.614  29.552  1.00  0.00    -0.248 NA
ATOM     54  C   UNL A   1      40.712  31.058  29.876  1.00  0.00     0.031 C 
ATOM     55  C   UNL A   1      46.736  30.647  30.486  1.00  0.00     0.029 A 
ATOM     56  C   UNL A   1      45.413  30.347  30.205  1.00  0.00     0.049 A 
ATOM     57  H   UNL A   1      44.578  28.548  29.488  1.00  0.00     0.167 HD
ATOM     58  C   UNL A   1      42.986  30.826  30.045  1.00  0.00     0.074 A 
ATOM     59  C   UNL A   1      41.832  31.689  30.198  1.00  0.00     0.031 C 
ATOM     60  C   UNL A   1      44.257  31.193  30.341  1.00  0.00     0.031 A 
BRANCH  47  61
ATOM     61  C   UNL A   1      48.445  26.746  29.435  1.00  0.00    -0.014 A 
ATOM     62  C   UNL A   1      49.355  26.977  28.391  1.00  0.00     0.009 A 
ATOM     63  C   UNL A   1      48.899  26.111  30.602  1.00  0.00     0.009 A 
ATOM     64  C   UNL A   1      50.679  26.545  28.497  1.00  0.00     0.001 A 
ATOM     65  C   UNL A   1      50.231  25.708  30.718  1.00  0.00     0.001 A 
ATOM     66  C   UNL A   1      51.116  25.915  29.661  1.00  0.00     0.000 A 
ENDBRANCH  47  61
BRANCH  48  67
ATOM     67  C   UNL A   1      38.766  29.124  28.870  1.00  0.00    -0.014 A 
ATOM     68  C   UNL A   1      38.199  29.610  27.681  1.00  0.00     0.009 A 
ATOM     69  C   UNL A   1      37.951  28.987  30.003  1.00  0.00     0.009 A 
ATOM     70  C   UNL A   1      36.852  29.976  27.637  1.00  0.00     0.001 A 
ATOM     71  C   UNL A   1      36.597  29.328  29.949  1.00  0.00     0.001 A 
ATOM     72  C   UNL A   1      36.051  29.831  28.769  1.00  0.00     0.000 A 
ENDBRANCH  48  67
BRANCH  60  73
ATOM     73  C   UNL A   1      44.475  32.600  30.817  1.00  0.00    -0.014 A 
ATOM     74  C   UNL A   1      44.691  33.652  29.913  1.00  0.00     0.009 A 
ATOM     75  C   UNL A   1      44.405  32.884  32.190  1.00  0.00     0.009 A 
ATOM     76  C   UNL A   1      44.859  34.956  30.379  1.00  0.00     0.001 A 
ATOM     77  C   UNL A   1      44.545  34.193  32.651  1.00  0.00     0.001 A 
ATOM     78  C   UNL A   1      44.779  35.227  31.745  1.00  0.00     0.000 A 
ENDBRANCH  60  73
ENDBRANCH  34  35
ENDBRANCH  26  29
ENDBRANCH  24  25
ENDBRANCH   1  24
TORSDOF 12
ENDMDL
