MODEL 1
REMARK VINA RESULT:     -13.0      0.000      0.000
REMARK SMILES Cc1ccc2c(CC(=O)N3CCC(C(=O)NCCCNC(=O)c4ccc(-c5c6nc(c(-c7ccccc7)c7ccc([nH]7)c(-c7ccccc7)c7nc(c(-c8ccccc8)c8ccc5[nH]8)C=C7)C=C6)cc4)CC3)coc2c1
REMARK SMILES IDX 18 1 17 2 16 3 14 4 15 5 13 7 8 8 9 9 10 10 11 11 72 12
REMARK SMILES IDX 12 13 71 14 7 15 6 16 1 17 2 18 3 19 76 20 4 21 75 22 5 23
REMARK SMILES IDX 74 24 73 25 19 26 20 27 21 28 22 30 23 31 24 32 70 33 25 34
REMARK SMILES IDX 69 35 26 36 27 37 28 38 63 39 29 40 68 41 62 42 64 43 30 44
REMARK SMILES IDX 67 45 61 46 60 47 31 49 53 50 38 51 52 52 39 53 42 54 51 55
REMARK SMILES IDX 65 56 40 57 41 58 50 60 66 61 43 62 32 63 33 64 37 65 34 66
REMARK SMILES IDX 36 67 35 68 54 69 55 70 59 71 56 72 58 73 57 74 44 75 45 76
REMARK SMILES IDX 49 77 46 78 48 79 47 80
REMARK H PARENT 16 6 20 29 64 48 42 59
REMARK Flexibility Score: inf
ROOT
ATOM      1  C   UNL A   1      33.030  30.402  26.214  1.00  0.00     0.042 C 
ENDROOT
BRANCH   1   2
ATOM      2  C   UNL A   1      31.519  30.583  26.086  1.00  0.00     0.117 C 
BRANCH   2   3
ATOM      3  N   UNL A   1      31.027  30.294  24.749  1.00  0.00    -0.356 N 
ATOM      4  C   UNL A   1      31.025  29.155  24.009  1.00  0.00     0.223 C 
ATOM      5  O   UNL A   1      30.493  29.205  22.897  1.00  0.00    -0.275 OA
ATOM      6  H   UNL A   1      30.617  31.068  24.297  1.00  0.00     0.163 HD
BRANCH   4   7
ATOM      7  C   UNL A   1      31.639  27.851  24.502  1.00  0.00     0.082 C 
ATOM      8  C   UNL A   1      31.499  24.108  23.278  1.00  0.00     0.227 C 
ATOM      9  O   UNL A   1      30.277  23.993  23.126  1.00  0.00    -0.275 OA
ATOM     10  N   UNL A   1      32.019  25.024  24.189  1.00  0.00    -0.342 N 
ATOM     11  C   UNL A   1      31.168  25.484  25.277  1.00  0.00     0.120 C 
ATOM     12  C   UNL A   1      33.157  25.897  23.929  1.00  0.00     0.120 C 
ATOM     13  C   UNL A   1      30.573  26.851  24.971  1.00  0.00     0.035 C 
ATOM     14  C   UNL A   1      32.662  27.281  23.507  1.00  0.00     0.035 C 
BRANCH   8  15
ATOM     15  C   UNL A   1      32.434  23.081  22.646  1.00  0.00     0.139 C 
BRANCH  15  16
ATOM     16  C   UNL A   1      33.171  22.184  23.572  1.00  0.00     0.008 A 
ATOM     17  C   UNL A   1      38.528  21.452  25.377  1.00  0.00     0.044 C 
ATOM     18  C   UNL A   1      37.137  21.748  24.893  1.00  0.00    -0.047 A 
ATOM     19  C   UNL A   1      36.889  22.882  24.108  1.00  0.00     0.004 A 
ATOM     20  C   UNL A   1      36.083  20.886  25.246  1.00  0.00     0.051 A 
ATOM     21  C   UNL A   1      35.605  23.168  23.625  1.00  0.00     0.012 A 
ATOM     22  C   UNL A   1      34.820  21.195  24.746  1.00  0.00     0.134 A 
ATOM     23  C   UNL A   1      34.550  22.293  23.940  1.00  0.00     0.024 A 
ATOM     24  O   UNL A   1      33.685  20.471  24.947  1.00  0.00    -0.464 OA
ATOM     25  C   UNL A   1      32.692  21.079  24.248  1.00  0.00     0.200 A 
ENDBRANCH  15  16
ENDBRANCH   8  15
ENDBRANCH   4   7
ENDBRANCH   2   3
ENDBRANCH   1   2
BRANCH   1  26
ATOM     26  C   UNL A   1      33.582  30.568  27.630  1.00  0.00     0.118 C 
BRANCH  26  27
ATOM     27  N   UNL A   1      34.350  31.779  27.843  1.00  0.00    -0.352 N 
ATOM     28  C   UNL A   1      35.678  32.077  28.006  1.00  0.00     0.251 C 
ATOM     29  H   UNL A   1      33.780  32.581  27.879  1.00  0.00     0.163 HD
ATOM     30  O   UNL A   1      35.961  33.271  28.021  1.00  0.00    -0.269 OA
BRANCH  28  31
ATOM     31  C   UNL A   1      36.771  31.081  28.209  1.00  0.00     0.039 A 
ATOM     32  C   UNL A   1      36.794  29.784  27.707  1.00  0.00     0.014 A 
ATOM     33  C   UNL A   1      37.840  31.492  29.031  1.00  0.00     0.014 A 
ATOM     34  C   UNL A   1      37.797  28.895  28.088  1.00  0.00     0.010 A 
ATOM     35  C   UNL A   1      38.865  30.616  29.391  1.00  0.00     0.010 A 
ATOM     36  C   UNL A   1      38.822  29.298  28.951  1.00  0.00    -0.014 A 
BRANCH  36  37
ATOM     37  C   UNL A   1      39.840  28.302  29.293  1.00  0.00     0.031 A 
ATOM     38  C   UNL A   1      40.203  28.199  30.735  1.00  0.00     0.074 A 
ATOM     39  C   UNL A   1      40.413  27.439  28.433  1.00  0.00     0.049 A 
ATOM     40  N   UNL A   1      41.354  28.420  31.287  1.00  0.00    -0.248 NA
ATOM     41  C   UNL A   1      39.139  27.837  31.680  1.00  0.00     0.031 C 
ATOM     42  C   UNL A   1      40.021  27.117  27.061  1.00  0.00     0.029 A 
ATOM     43  N   UNL A   1      41.456  26.585  28.670  1.00  0.00    -0.354 N 
ATOM     44  C   UNL A   1      41.203  28.106  32.635  1.00  0.00     0.074 A 
ATOM     45  C   UNL A   1      39.802  27.825  32.836  1.00  0.00     0.031 C 
ATOM     46  C   UNL A   1      40.667  25.996  26.667  1.00  0.00     0.029 A 
ATOM     47  C   UNL A   1      41.628  25.622  27.692  1.00  0.00     0.049 A 
ATOM     48  H   UNL A   1      42.031  26.650  29.466  1.00  0.00     0.167 HD
ATOM     49  C   UNL A   1      42.258  27.953  33.480  1.00  0.00     0.031 A 
ATOM     50  C   UNL A   1      42.468  24.564  27.740  1.00  0.00     0.031 A 
ATOM     51  C   UNL A   1      43.474  28.511  32.959  1.00  0.00     0.049 A 
ATOM     52  C   UNL A   1      43.534  24.852  28.723  1.00  0.00     0.074 A 
ATOM     53  C   UNL A   1      43.903  29.777  32.622  1.00  0.00     0.029 A 
ATOM     54  N   UNL A   1      44.386  27.643  32.416  1.00  0.00    -0.354 N 
ATOM     55  N   UNL A   1      44.459  25.751  28.553  1.00  0.00    -0.248 NA
ATOM     56  C   UNL A   1      43.420  24.323  30.072  1.00  0.00     0.031 C 
ATOM     57  C   UNL A   1      44.796  29.592  31.527  1.00  0.00     0.029 A 
ATOM     58  C   UNL A   1      44.872  28.221  31.270  1.00  0.00     0.049 A 
ATOM     59  H   UNL A   1      44.647  26.767  32.782  1.00  0.00     0.167 HD
ATOM     60  C   UNL A   1      44.750  26.203  29.830  1.00  0.00     0.074 A 
ATOM     61  C   UNL A   1      44.209  25.184  30.719  1.00  0.00     0.031 C 
ATOM     62  C   UNL A   1      45.146  27.492  30.047  1.00  0.00     0.031 A 
BRANCH  49  63
ATOM     63  C   UNL A   1      42.249  27.035  34.673  1.00  0.00    -0.014 A 
ATOM     64  C   UNL A   1      41.855  27.465  35.954  1.00  0.00     0.009 A 
ATOM     65  C   UNL A   1      42.395  25.649  34.486  1.00  0.00     0.009 A 
ATOM     66  C   UNL A   1      41.640  26.566  37.003  1.00  0.00     0.001 A 
ATOM     67  C   UNL A   1      42.141  24.742  35.524  1.00  0.00     0.001 A 
ATOM     68  C   UNL A   1      41.767  25.202  36.783  1.00  0.00     0.000 A 
ENDBRANCH  49  63
BRANCH  50  69
ATOM     69  C   UNL A   1      42.261  23.209  27.192  1.00  0.00    -0.014 A 
ATOM     70  C   UNL A   1      41.346  22.339  27.811  1.00  0.00     0.009 A 
ATOM     71  C   UNL A   1      43.158  22.669  26.259  1.00  0.00     0.009 A 
ATOM     72  C   UNL A   1      41.356  20.968  27.540  1.00  0.00     0.001 A 
ATOM     73  C   UNL A   1      43.170  21.294  25.991  1.00  0.00     0.001 A 
ATOM     74  C   UNL A   1      42.281  20.443  26.645  1.00  0.00     0.000 A 
ENDBRANCH  50  69
BRANCH  62  75
ATOM     75  C   UNL A   1      45.599  28.308  28.858  1.00  0.00    -0.014 A 
ATOM     76  C   UNL A   1      44.625  28.910  28.045  1.00  0.00     0.009 A 
ATOM     77  C   UNL A   1      46.941  28.378  28.443  1.00  0.00     0.009 A 
ATOM     78  C   UNL A   1      44.980  29.563  26.860  1.00  0.00     0.001 A 
ATOM     79  C   UNL A   1      47.300  29.057  27.275  1.00  0.00     0.001 A 
ATOM     80  C   UNL A   1      46.318  29.643  26.480  1.00  0.00     0.000 A 
ENDBRANCH  62  75
ENDBRANCH  36  37
ENDBRANCH  28  31
ENDBRANCH  26  27
ENDBRANCH   1  26
TORSDOF 12
ENDMDL
MODEL 2
REMARK VINA RESULT:     -12.7      2.694      8.296
REMARK SMILES Cc1ccc2c(CC(=O)N3CCC(C(=O)NCCCNC(=O)c4ccc(-c5c6nc(c(-c7ccccc7)c7ccc([nH]7)c(-c7ccccc7)c7nc(c(-c8ccccc8)c8ccc5[nH]8)C=C7)C=C6)cc4)CC3)coc2c1
REMARK SMILES IDX 18 1 17 2 16 3 14 4 15 5 13 7 8 8 9 9 10 10 11 11 72 12
REMARK SMILES IDX 12 13 71 14 7 15 6 16 1 17 2 18 3 19 76 20 4 21 75 22 5 23
REMARK SMILES IDX 74 24 73 25 19 26 20 27 21 28 22 30 23 31 24 32 70 33 25 34
REMARK SMILES IDX 69 35 26 36 27 37 28 38 63 39 29 40 68 41 62 42 64 43 30 44
REMARK SMILES IDX 67 45 61 46 60 47 31 49 53 50 38 51 52 52 39 53 42 54 51 55
REMARK SMILES IDX 65 56 40 57 41 58 50 60 66 61 43 62 32 63 33 64 37 65 34 66
REMARK SMILES IDX 36 67 35 68 54 69 55 70 59 71 56 72 58 73 57 74 44 75 45 76
REMARK SMILES IDX 49 77 46 78 48 79 47 80
REMARK H PARENT 16 6 20 29 64 48 42 59
REMARK Flexibility Score: inf
ROOT
ATOM      1  C   UNL A   1      38.534  22.556  25.798  1.00  0.00     0.042 C 
ENDROOT
BRANCH   1   2
ATOM      2  C   UNL A   1      37.498  21.540  25.323  1.00  0.00     0.117 C 
BRANCH   2   3
ATOM      3  N   UNL A   1      36.329  21.481  26.185  1.00  0.00    -0.356 N 
ATOM      4  C   UNL A   1      35.003  21.634  25.929  1.00  0.00     0.223 C 
ATOM      5  O   UNL A   1      34.225  21.489  26.875  1.00  0.00    -0.275 OA
ATOM      6  H   UNL A   1      36.537  21.293  27.129  1.00  0.00     0.163 HD
BRANCH   4   7
ATOM      7  C   UNL A   1      34.464  21.963  24.543  1.00  0.00     0.082 C 
ATOM      8  C   UNL A   1      31.602  24.307  23.187  1.00  0.00     0.227 C 
ATOM      9  O   UNL A   1      30.689  23.968  23.949  1.00  0.00    -0.275 OA
ATOM     10  N   UNL A   1      32.638  23.427  22.884  1.00  0.00    -0.342 N 
ATOM     11  C   UNL A   1      32.413  21.999  23.055  1.00  0.00     0.120 C 
ATOM     12  C   UNL A   1      34.048  23.793  22.832  1.00  0.00     0.120 C 
ATOM     13  C   UNL A   1      33.012  21.500  24.362  1.00  0.00     0.035 C 
ATOM     14  C   UNL A   1      34.727  23.425  24.152  1.00  0.00     0.035 C 
BRANCH   8  15
ATOM     15  C   UNL A   1      31.473  25.602  22.389  1.00  0.00     0.139 C 
BRANCH  15  16
ATOM     16  C   UNL A   1      31.312  26.857  23.167  1.00  0.00     0.008 A 
ATOM     17  C   UNL A   1      33.979  29.569  27.412  1.00  0.00     0.044 C 
ATOM     18  C   UNL A   1      33.370  28.818  26.262  1.00  0.00    -0.047 A 
ATOM     19  C   UNL A   1      34.019  27.695  25.730  1.00  0.00     0.004 A 
ATOM     20  C   UNL A   1      32.153  29.259  25.714  1.00  0.00     0.051 A 
ATOM     21  C   UNL A   1      33.460  26.964  24.673  1.00  0.00     0.012 A 
ATOM     22  C   UNL A   1      31.622  28.508  24.668  1.00  0.00     0.134 A 
ATOM     23  C   UNL A   1      32.224  27.373  24.142  1.00  0.00     0.024 A 
ATOM     24  O   UNL A   1      30.444  28.752  24.031  1.00  0.00    -0.464 OA
ATOM     25  C   UNL A   1      30.269  27.761  23.118  1.00  0.00     0.200 A 
ENDBRANCH  15  16
ENDBRANCH   8  15
ENDBRANCH   4   7
ENDBRANCH   2   3
ENDBRANCH   1   2
BRANCH   1  26
ATOM     26  C   UNL A   1      39.678  21.971  26.628  1.00  0.00     0.118 C 
BRANCH  26  27
ATOM     27  N   UNL A   1      40.986  22.067  26.009  1.00  0.00    -0.352 N 
ATOM     28  C   UNL A   1      42.001  22.987  26.011  1.00  0.00     0.251 C 
ATOM     29  H   UNL A   1      41.195  21.282  25.454  1.00  0.00     0.163 HD
ATOM     30  O   UNL A   1      43.042  22.639  25.462  1.00  0.00    -0.269 OA
BRANCH  28  31
ATOM     31  C   UNL A   1      41.919  24.367  26.577  1.00  0.00     0.039 A 
ATOM     32  C   UNL A   1      42.280  24.740  27.867  1.00  0.00     0.014 A 
ATOM     33  C   UNL A   1      41.374  25.353  25.729  1.00  0.00     0.014 A 
ATOM     34  C   UNL A   1      42.017  26.028  28.331  1.00  0.00     0.010 A 
ATOM     35  C   UNL A   1      41.138  26.654  26.178  1.00  0.00     0.010 A 
ATOM     36  C   UNL A   1      41.422  26.982  27.498  1.00  0.00    -0.014 A 
BRANCH  36  37
ATOM     37  C   UNL A   1      41.191  28.313  28.063  1.00  0.00     0.031 A 
ATOM     38  C   UNL A   1      42.273  29.317  27.853  1.00  0.00     0.074 A 
ATOM     39  C   UNL A   1      40.067  28.717  28.687  1.00  0.00     0.049 A 
ATOM     40  N   UNL A   1      42.991  29.918  28.747  1.00  0.00    -0.248 NA
ATOM     41  C   UNL A   1      42.618  29.664  26.468  1.00  0.00     0.031 C 
ATOM     42  C   UNL A   1      38.765  28.053  28.747  1.00  0.00     0.029 A 
ATOM     43  N   UNL A   1      39.850  29.896  29.345  1.00  0.00    -0.354 N 
ATOM     44  C   UNL A   1      43.798  30.817  28.056  1.00  0.00     0.074 A 
ATOM     45  C   UNL A   1      43.582  30.567  26.652  1.00  0.00     0.031 C 
ATOM     46  C   UNL A   1      37.843  28.928  29.210  1.00  0.00     0.029 A 
ATOM     47  C   UNL A   1      38.519  30.147  29.625  1.00  0.00     0.049 A 
ATOM     48  H   UNL A   1      40.576  30.511  29.597  1.00  0.00     0.167 HD
ATOM     49  C   UNL A   1      44.489  31.814  28.673  1.00  0.00     0.031 A 
ATOM     50  C   UNL A   1      38.000  31.293  30.120  1.00  0.00     0.031 A 
ATOM     51  C   UNL A   1      44.612  31.612  30.089  1.00  0.00     0.049 A 
ATOM     52  C   UNL A   1      39.076  32.043  30.800  1.00  0.00     0.074 A 
ATOM     53  C   UNL A   1      45.217  30.669  30.893  1.00  0.00     0.029 A 
ATOM     54  N   UNL A   1      43.774  32.327  30.905  1.00  0.00    -0.354 N 
ATOM     55  N   UNL A   1      39.643  31.663  31.907  1.00  0.00    -0.248 NA
ATOM     56  C   UNL A   1      39.754  33.118  30.092  1.00  0.00     0.031 C 
ATOM     57  C   UNL A   1      44.388  30.575  32.049  1.00  0.00     0.029 A 
ATOM     58  C   UNL A   1      43.334  31.477  31.889  1.00  0.00     0.049 A 
ATOM     59  H   UNL A   1      43.533  33.277  30.805  1.00  0.00     0.167 HD
ATOM     60  C   UNL A   1      40.941  32.138  31.821  1.00  0.00     0.074 A 
ATOM     61  C   UNL A   1      40.899  33.151  30.775  1.00  0.00     0.031 C 
ATOM     62  C   UNL A   1      41.978  31.465  32.403  1.00  0.00     0.031 A 
BRANCH  49  63
ATOM     63  C   UNL A   1      44.815  33.132  28.024  1.00  0.00    -0.014 A 
ATOM     64  C   UNL A   1      46.045  33.376  27.385  1.00  0.00     0.009 A 
ATOM     65  C   UNL A   1      43.794  34.078  27.818  1.00  0.00     0.009 A 
ATOM     66  C   UNL A   1      46.259  34.514  26.601  1.00  0.00     0.001 A 
ATOM     67  C   UNL A   1      43.993  35.199  27.001  1.00  0.00     0.001 A 
ATOM     68  C   UNL A   1      45.226  35.418  26.395  1.00  0.00     0.000 A 
ENDBRANCH  49  63
BRANCH  50  69
ATOM     69  C   UNL A   1      36.696  31.912  29.811  1.00  0.00    -0.014 A 
ATOM     70  C   UNL A   1      36.408  32.314  28.495  1.00  0.00     0.009 A 
ATOM     71  C   UNL A   1      35.861  32.374  30.839  1.00  0.00     0.009 A 
ATOM     72  C   UNL A   1      35.350  33.185  28.219  1.00  0.00     0.001 A 
ATOM     73  C   UNL A   1      34.803  33.250  30.563  1.00  0.00     0.001 A 
ATOM     74  C   UNL A   1      34.560  33.667  29.256  1.00  0.00     0.000 A 
ENDBRANCH  50  69
BRANCH  62  75
ATOM     75  C   UNL A   1      41.652  30.402  33.428  1.00  0.00    -0.014 A 
ATOM     76  C   UNL A   1      41.727  30.737  34.790  1.00  0.00     0.009 A 
ATOM     77  C   UNL A   1      41.414  29.059  33.089  1.00  0.00     0.009 A 
ATOM     78  C   UNL A   1      41.566  29.762  35.780  1.00  0.00     0.001 A 
ATOM     79  C   UNL A   1      41.223  28.089  34.079  1.00  0.00     0.001 A 
ATOM     80  C   UNL A   1      41.307  28.441  35.424  1.00  0.00     0.000 A 
ENDBRANCH  62  75
ENDBRANCH  36  37
ENDBRANCH  28  31
ENDBRANCH  26  27
ENDBRANCH   1  26
TORSDOF 12
ENDMDL
MODEL 3
REMARK VINA RESULT:     -12.6      1.799      2.668
REMARK SMILES Cc1ccc2c(CC(=O)N3CCC(C(=O)NCCCNC(=O)c4ccc(-c5c6nc(c(-c7ccccc7)c7ccc([nH]7)c(-c7ccccc7)c7nc(c(-c8ccccc8)c8ccc5[nH]8)C=C7)C=C6)cc4)CC3)coc2c1
REMARK SMILES IDX 18 1 17 2 16 3 14 4 15 5 13 7 8 8 9 9 10 10 11 11 72 12
REMARK SMILES IDX 12 13 71 14 7 15 6 16 1 17 2 18 3 19 76 20 4 21 75 22 5 23
REMARK SMILES IDX 74 24 73 25 19 26 20 27 21 28 22 30 23 31 24 32 70 33 25 34
REMARK SMILES IDX 69 35 26 36 27 37 28 38 63 39 29 40 68 41 62 42 64 43 30 44
REMARK SMILES IDX 67 45 61 46 60 47 31 49 53 50 38 51 52 52 39 53 42 54 51 55
REMARK SMILES IDX 65 56 40 57 41 58 50 60 66 61 43 62 32 63 33 64 37 65 34 66
REMARK SMILES IDX 36 67 35 68 54 69 55 70 59 71 56 72 58 73 57 74 44 75 45 76
REMARK SMILES IDX 49 77 46 78 48 79 47 80
REMARK H PARENT 16 6 20 29 64 48 42 59
REMARK Flexibility Score: inf
ROOT
ATOM      1  C   UNL A   1      31.842  30.470  26.041  1.00  0.00     0.042 C 
ENDROOT
BRANCH   1   2
ATOM      2  C   UNL A   1      31.584  29.410  24.973  1.00  0.00     0.117 C 
BRANCH   2   3
ATOM      3  N   UNL A   1      32.684  29.276  24.033  1.00  0.00    -0.356 N 
ATOM      4  C   UNL A   1      33.282  28.186  23.484  1.00  0.00     0.223 C 
ATOM      5  O   UNL A   1      34.188  28.389  22.671  1.00  0.00    -0.275 OA
ATOM      6  H   UNL A   1      33.066  30.135  23.738  1.00  0.00     0.163 HD
BRANCH   4   7
ATOM      7  C   UNL A   1      32.872  26.760  23.828  1.00  0.00     0.082 C 
ATOM      8  C   UNL A   1      34.641  23.249  23.572  1.00  0.00     0.227 C 
ATOM      9  O   UNL A   1      35.061  23.322  22.411  1.00  0.00    -0.275 OA
ATOM     10  N   UNL A   1      33.515  23.968  23.966  1.00  0.00    -0.342 N 
ATOM     11  C   UNL A   1      32.574  24.404  22.945  1.00  0.00     0.120 C 
ATOM     12  C   UNL A   1      33.398  24.702  25.220  1.00  0.00     0.120 C 
ATOM     13  C   UNL A   1      32.791  25.866  22.583  1.00  0.00     0.035 C 
ATOM     14  C   UNL A   1      33.704  26.182  24.983  1.00  0.00     0.035 C 
BRANCH   8  15
ATOM     15  C   UNL A   1      35.210  22.189  24.511  1.00  0.00     0.139 C 
BRANCH  15  16
ATOM     16  C   UNL A   1      36.517  22.488  25.148  1.00  0.00     0.008 A 
ATOM     17  C   UNL A   1      41.248  19.665  26.614  1.00  0.00     0.044 C 
ATOM     18  C   UNL A   1      39.991  20.343  26.146  1.00  0.00    -0.047 A 
ATOM     19  C   UNL A   1      39.049  19.636  25.386  1.00  0.00     0.004 A 
ATOM     20  C   UNL A   1      39.774  21.695  26.464  1.00  0.00     0.051 A 
ATOM     21  C   UNL A   1      37.858  20.238  24.958  1.00  0.00     0.012 A 
ATOM     22  C   UNL A   1      38.579  22.263  26.028  1.00  0.00     0.134 A 
ATOM     23  C   UNL A   1      37.613  21.580  25.302  1.00  0.00     0.024 A 
ATOM     24  O   UNL A   1      38.173  23.541  26.262  1.00  0.00    -0.464 OA
ATOM     25  C   UNL A   1      36.935  23.674  25.717  1.00  0.00     0.200 A 
ENDBRANCH  15  16
ENDBRANCH   8  15
ENDBRANCH   4   7
ENDBRANCH   2   3
ENDBRANCH   1   2
BRANCH   1  26
ATOM     26  C   UNL A   1      33.218  30.396  26.705  1.00  0.00     0.118 C 
BRANCH  26  27
ATOM     27  N   UNL A   1      33.475  31.433  27.685  1.00  0.00    -0.352 N 
ATOM     28  C   UNL A   1      34.559  31.835  28.420  1.00  0.00     0.251 C 
ATOM     29  H   UNL A   1      32.678  31.982  27.866  1.00  0.00     0.163 HD
ATOM     30  O   UNL A   1      34.420  32.874  29.057  1.00  0.00    -0.269 OA
BRANCH  28  31
ATOM     31  C   UNL A   1      35.850  31.093  28.536  1.00  0.00     0.039 A 
ATOM     32  C   UNL A   1      36.007  29.714  28.436  1.00  0.00     0.014 A 
ATOM     33  C   UNL A   1      36.989  31.871  28.829  1.00  0.00     0.014 A 
ATOM     34  C   UNL A   1      37.238  29.121  28.712  1.00  0.00     0.010 A 
ATOM     35  C   UNL A   1      38.231  31.284  29.075  1.00  0.00     0.010 A 
ATOM     36  C   UNL A   1      38.348  29.900  29.058  1.00  0.00    -0.014 A 
BRANCH  36  37
ATOM     37  C   UNL A   1      39.604  29.195  29.323  1.00  0.00     0.031 A 
ATOM     38  C   UNL A   1      39.934  28.953  30.757  1.00  0.00     0.074 A 
ATOM     39  C   UNL A   1      40.436  28.693  28.390  1.00  0.00     0.049 A 
ATOM     40  N   UNL A   1      40.948  29.397  31.429  1.00  0.00    -0.248 NA
ATOM     41  C   UNL A   1      38.994  28.144  31.544  1.00  0.00     0.031 C 
ATOM     42  C   UNL A   1      40.201  28.514  26.957  1.00  0.00     0.029 A 
ATOM     43  N   UNL A   1      41.676  28.148  28.577  1.00  0.00    -0.354 N 
ATOM     44  C   UNL A   1      40.853  28.826  32.695  1.00  0.00     0.074 A 
ATOM     45  C   UNL A   1      39.593  28.124  32.735  1.00  0.00     0.031 C 
ATOM     46  C   UNL A   1      41.164  27.711  26.449  1.00  0.00     0.029 A 
ATOM     47  C   UNL A   1      42.158  27.458  27.479  1.00  0.00     0.049 A 
ATOM     48  H   UNL A   1      42.179  28.237  29.417  1.00  0.00     0.167 HD
ATOM     49  C   UNL A   1      41.878  28.839  33.590  1.00  0.00     0.031 A 
ATOM     50  C   UNL A   1      43.272  26.694  27.432  1.00  0.00     0.031 A 
ATOM     51  C   UNL A   1      42.890  29.804  33.263  1.00  0.00     0.049 A 
ATOM     52  C   UNL A   1      44.171  27.101  28.531  1.00  0.00     0.074 A 
ATOM     53  C   UNL A   1      42.934  31.178  33.163  1.00  0.00     0.029 A 
ATOM     54  N   UNL A   1      44.036  29.341  32.669  1.00  0.00    -0.354 N 
ATOM     55  N   UNL A   1      44.793  28.243  28.579  1.00  0.00    -0.248 NA
ATOM     56  C   UNL A   1      44.176  26.338  29.769  1.00  0.00     0.031 C 
ATOM     57  C   UNL A   1      43.878  31.448  32.129  1.00  0.00     0.029 A 
ATOM     58  C   UNL A   1      44.366  30.223  31.670  1.00  0.00     0.049 A 
ATOM     59  H   UNL A   1      44.532  28.527  32.915  1.00  0.00     0.167 HD
ATOM     60  C   UNL A   1      44.895  28.533  29.929  1.00  0.00     0.074 A 
ATOM     61  C   UNL A   1      44.652  27.265  30.603  1.00  0.00     0.031 C 
ATOM     62  C   UNL A   1      44.884  29.824  30.376  1.00  0.00     0.031 A 
BRANCH  49  63
ATOM     63  C   UNL A   1      42.102  27.766  34.622  1.00  0.00    -0.014 A 
ATOM     64  C   UNL A   1      41.734  27.927  35.971  1.00  0.00     0.009 A 
ATOM     65  C   UNL A   1      42.459  26.469  34.211  1.00  0.00     0.009 A 
ATOM     66  C   UNL A   1      41.743  26.859  36.873  1.00  0.00     0.001 A 
ATOM     67  C   UNL A   1      42.430  25.389  35.103  1.00  0.00     0.001 A 
ATOM     68  C   UNL A   1      42.075  25.585  36.434  1.00  0.00     0.000 A 
ENDBRANCH  49  63
BRANCH  50  69
ATOM     69  C   UNL A   1      43.494  25.451  26.666  1.00  0.00    -0.014 A 
ATOM     70  C   UNL A   1      44.583  25.362  25.780  1.00  0.00     0.009 A 
ATOM     71  C   UNL A   1      42.491  24.475  26.578  1.00  0.00     0.009 A 
ATOM     72  C   UNL A   1      44.645  24.359  24.809  1.00  0.00     0.001 A 
ATOM     73  C   UNL A   1      42.552  23.472  25.603  1.00  0.00     0.001 A 
ATOM     74  C   UNL A   1      43.620  23.425  24.708  1.00  0.00     0.000 A 
ENDBRANCH  50  69
BRANCH  62  75
ATOM     75  C   UNL A   1      45.113  30.928  29.368  1.00  0.00    -0.014 A 
ATOM     76  C   UNL A   1      46.399  31.481  29.257  1.00  0.00     0.009 A 
ATOM     77  C   UNL A   1      44.071  31.526  28.637  1.00  0.00     0.009 A 
ATOM     78  C   UNL A   1      46.637  32.591  28.440  1.00  0.00     0.001 A 
ATOM     79  C   UNL A   1      44.314  32.616  27.796  1.00  0.00     0.001 A 
ATOM     80  C   UNL A   1      45.597  33.153  27.704  1.00  0.00     0.000 A 
ENDBRANCH  62  75
ENDBRANCH  36  37
ENDBRANCH  28  31
ENDBRANCH  26  27
ENDBRANCH   1  26
TORSDOF 12
ENDMDL
