MODEL 1
REMARK VINA RESULT:     -12.5      0.000      0.000
REMARK SMILES O=C(Cc1c(C(=O)c2cc3c(cn2)CCCC3)[nH]c2cc(Cl)ccc12)NCCCNC(=O)c1ccc(-c2c3nc(c(-c4ccccc4)c4ccc([nH]4)c(-c4ccccc4)c4nc(c(-c5ccccc5)c5ccc2[nH]5)C=C4)C=C3)cc1
REMARK SMILES IDX 27 1 26 2 1 3 2 4 3 6 4 7 5 8 25 9 18 10 19 11 24 12 20 14
REMARK SMILES IDX 23 15 21 16 22 17 6 18 7 19 8 20 9 21 13 22 10 23 12 24
REMARK SMILES IDX 11 25 17 26 14 27 16 28 15 29 28 30 29 31 30 32 31 33 32 35
REMARK SMILES IDX 33 36 34 37 80 38 35 39 79 40 36 41 37 42 38 43 73 44 39 45
REMARK SMILES IDX 78 46 72 47 74 48 40 49 77 50 71 51 70 52 41 54 63 55 48 56
REMARK SMILES IDX 62 57 49 58 52 59 61 60 75 61 50 62 51 63 60 65 76 66 53 67
REMARK SMILES IDX 42 68 43 69 47 70 44 71 46 72 45 73 64 74 65 75 69 76 66 77
REMARK SMILES IDX 68 78 67 79 54 80 55 81 59 82 56 83 58 84 57 85
REMARK H PARENT 26 5 18 13 30 34 74 53 52 64
REMARK Flexibility Score: inf
ROOT
ATOM      1  C   UNL A   1      37.976  22.896  25.678  1.00  0.00     0.117 C 
ENDROOT
BRANCH   1   2
ATOM      2  N   UNL A   1      36.805  22.904  26.527  1.00  0.00    -0.356 N 
ATOM      3  O   UNL A   1      35.568  24.294  25.199  1.00  0.00    -0.275 OA
ATOM      4  C   UNL A   1      35.614  23.456  26.101  1.00  0.00     0.224 C 
ATOM      5  H   UNL A   1      36.857  22.509  27.427  1.00  0.00     0.163 HD
BRANCH   4   6
ATOM      6  C   UNL A   1      34.352  23.034  26.849  1.00  0.00     0.138 C 
BRANCH   6   7
ATOM      7  C   UNL A   1      33.339  22.216  26.078  1.00  0.00    -0.002 A 
ATOM      8  C   UNL A   1      31.964  22.437  25.961  1.00  0.00     0.093 A 
ATOM      9  C   UNL A   1      33.622  20.980  25.406  1.00  0.00     0.004 A 
ATOM     10  N   UNL A   1      31.487  21.499  25.070  1.00  0.00    -0.351 N 
ATOM     11  C   UNL A   1      32.445  20.553  24.799  1.00  0.00     0.048 A 
ATOM     12  C   UNL A   1      34.771  20.167  25.282  1.00  0.00     0.012 A 
ATOM     13  H   UNL A   1      30.583  21.506  24.681  1.00  0.00     0.167 HD
ATOM     14  C   UNL A   1      32.348  19.358  24.075  1.00  0.00     0.047 A 
ATOM     15  C   UNL A   1      34.690  18.956  24.582  1.00  0.00     0.021 A 
ATOM     16  C   UNL A   1      33.494  18.564  23.991  1.00  0.00     0.043 A 
ATOM     17  Cl  UNL A   1      33.415  17.062  23.150  1.00  0.00    -0.084 Cl
BRANCH   8  18
ATOM     18  C   UNL A   1      31.142  23.442  26.624  1.00  0.00     0.227 C 
ATOM     19  O   UNL A   1      30.355  23.184  27.537  1.00  0.00    -0.285 OA
BRANCH  18  20
ATOM     20  C   UNL A   1      31.191  24.837  26.136  1.00  0.00     0.113 A 
ATOM     21  C   UNL A   1      32.173  25.683  26.637  1.00  0.00     0.036 A 
ATOM     22  N   UNL A   1      30.256  25.200  25.225  1.00  0.00    -0.252 NA
ATOM     23  C   UNL A   1      32.229  26.988  26.150  1.00  0.00    -0.041 A 
ATOM     24  C   UNL A   1      30.355  26.459  24.746  1.00  0.00     0.115 A 
ATOM     25  C   UNL A   1      31.303  27.389  25.173  1.00  0.00    -0.026 A 
ATOM     26  C   UNL A   1      33.243  27.948  26.715  1.00  0.00     0.036 C 
ATOM     27  C   UNL A   1      31.377  28.745  24.522  1.00  0.00     0.037 C 
ATOM     28  C   UNL A   1      33.499  29.148  25.806  1.00  0.00     0.005 C 
ATOM     29  C   UNL A   1      32.182  29.757  25.338  1.00  0.00     0.005 C 
ENDBRANCH  18  20
ENDBRANCH   8  18
ENDBRANCH   6   7
ENDBRANCH   4   6
ENDBRANCH   1   2
BRANCH   1  30
ATOM     30  C   UNL A   1      38.264  21.545  25.044  1.00  0.00     0.042 C 
BRANCH  30  31
ATOM     31  C   UNL A   1      38.398  20.398  26.036  1.00  0.00     0.118 C 
BRANCH  31  32
ATOM     32  N   UNL A   1      39.519  19.505  25.763  1.00  0.00    -0.352 N 
ATOM     33  C   UNL A   1      40.867  19.680  25.960  1.00  0.00     0.251 C 
ATOM     34  H   UNL A   1      39.267  18.636  25.373  1.00  0.00     0.163 HD
ATOM     35  O   UNL A   1      41.653  18.814  25.582  1.00  0.00    -0.269 OA
BRANCH  33  36
ATOM     36  C   UNL A   1      41.389  20.918  26.582  1.00  0.00     0.039 A 
ATOM     37  C   UNL A   1      41.397  21.094  27.967  1.00  0.00     0.014 A 
ATOM     38  C   UNL A   1      41.881  21.932  25.753  1.00  0.00     0.014 A 
ATOM     39  C   UNL A   1      41.721  22.336  28.506  1.00  0.00     0.010 A 
ATOM     40  C   UNL A   1      42.289  23.152  26.301  1.00  0.00     0.010 A 
ATOM     41  C   UNL A   1      42.160  23.383  27.678  1.00  0.00    -0.014 A 
BRANCH  41  42
ATOM     42  C   UNL A   1      42.462  24.711  28.277  1.00  0.00     0.031 A 
ATOM     43  C   UNL A   1      43.874  25.091  28.636  1.00  0.00     0.074 A 
ATOM     44  C   UNL A   1      41.467  25.604  28.438  1.00  0.00     0.049 A 
ATOM     45  N   UNL A   1      44.324  26.228  29.110  1.00  0.00    -0.248 NA
ATOM     46  C   UNL A   1      44.917  24.071  28.443  1.00  0.00     0.031 C 
ATOM     47  C   UNL A   1      40.059  25.365  28.117  1.00  0.00     0.029 A 
ATOM     48  N   UNL A   1      41.493  26.905  28.877  1.00  0.00    -0.354 N 
ATOM     49  C   UNL A   1      45.691  26.054  29.282  1.00  0.00     0.074 A 
ATOM     50  C   UNL A   1      45.997  24.695  28.893  1.00  0.00     0.031 C 
ATOM     51  C   UNL A   1      39.367  26.499  28.308  1.00  0.00     0.029 A 
ATOM     52  C   UNL A   1      40.270  27.527  28.817  1.00  0.00     0.049 A 
ATOM     53  H   UNL A   1      42.309  27.348  29.203  1.00  0.00     0.167 HD
ATOM     54  C   UNL A   1      46.611  26.949  29.711  1.00  0.00     0.031 A 
ATOM     55  C   UNL A   1      39.908  28.784  29.134  1.00  0.00     0.031 A 
ATOM     56  C   UNL A   1      46.316  28.307  30.083  1.00  0.00     0.049 A 
ATOM     57  C   UNL A   1      40.941  29.745  29.645  1.00  0.00     0.074 A 
ATOM     58  C   UNL A   1      47.194  29.291  30.506  1.00  0.00     0.029 A 
ATOM     59  N   UNL A   1      45.053  28.874  30.074  1.00  0.00    -0.354 N 
ATOM     60  N   UNL A   1      42.230  29.565  29.792  1.00  0.00    -0.248 NA
ATOM     61  C   UNL A   1      40.469  31.081  30.038  1.00  0.00     0.031 C 
ATOM     62  C   UNL A   1      46.454  30.439  30.799  1.00  0.00     0.029 A 
ATOM     63  C   UNL A   1      45.123  30.187  30.508  1.00  0.00     0.049 A 
ATOM     64  H   UNL A   1      44.228  28.412  29.799  1.00  0.00     0.167 HD
ATOM     65  C   UNL A   1      42.725  30.763  30.287  1.00  0.00     0.074 A 
ATOM     66  C   UNL A   1      41.602  31.671  30.396  1.00  0.00     0.031 C 
ATOM     67  C   UNL A   1      44.000  31.077  30.624  1.00  0.00     0.031 A 
BRANCH  54  68
ATOM     68  C   UNL A   1      48.040  26.493  29.814  1.00  0.00    -0.014 A 
ATOM     69  C   UNL A   1      48.886  26.595  28.698  1.00  0.00     0.009 A 
ATOM     70  C   UNL A   1      48.524  25.884  30.982  1.00  0.00     0.009 A 
ATOM     71  C   UNL A   1      50.187  26.091  28.747  1.00  0.00     0.001 A 
ATOM     72  C   UNL A   1      49.834  25.401  31.035  1.00  0.00     0.001 A 
ATOM     73  C   UNL A   1      50.661  25.499  29.916  1.00  0.00     0.000 A 
ENDBRANCH  54  68
BRANCH  55  74
ATOM     74  C   UNL A   1      38.493  29.199  28.959  1.00  0.00    -0.014 A 
ATOM     75  C   UNL A   1      38.040  29.686  27.723  1.00  0.00     0.009 A 
ATOM     76  C   UNL A   1      37.602  29.157  30.043  1.00  0.00     0.009 A 
ATOM     77  C   UNL A   1      36.730  30.146  27.580  1.00  0.00     0.001 A 
ATOM     78  C   UNL A   1      36.284  29.594  29.888  1.00  0.00     0.001 A 
ATOM     79  C   UNL A   1      35.851  30.096  28.661  1.00  0.00     0.000 A 
ENDBRANCH  55  74
BRANCH  67  80
ATOM     80  C   UNL A   1      44.262  32.460  31.145  1.00  0.00    -0.014 A 
ATOM     81  C   UNL A   1      44.148  32.724  32.519  1.00  0.00     0.009 A 
ATOM     82  C   UNL A   1      44.533  33.521  30.267  1.00  0.00     0.009 A 
ATOM     83  C   UNL A   1      44.287  34.025  33.003  1.00  0.00     0.001 A 
ATOM     84  C   UNL A   1      44.695  34.818  30.757  1.00  0.00     0.001 A 
ATOM     85  C   UNL A   1      44.564  35.070  32.123  1.00  0.00     0.000 A 
ENDBRANCH  67  80
ENDBRANCH  41  42
ENDBRANCH  33  36
ENDBRANCH  31  32
ENDBRANCH  30  31
ENDBRANCH   1  30
TORSDOF 13
ENDMDL
MODEL 2
REMARK VINA RESULT:     -12.3      1.727      4.103
REMARK SMILES O=C(Cc1c(C(=O)c2cc3c(cn2)CCCC3)[nH]c2cc(Cl)ccc12)NCCCNC(=O)c1ccc(-c2c3nc(c(-c4ccccc4)c4ccc([nH]4)c(-c4ccccc4)c4nc(c(-c5ccccc5)c5ccc2[nH]5)C=C4)C=C3)cc1
REMARK SMILES IDX 27 1 26 2 1 3 2 4 3 6 4 7 5 8 25 9 18 10 19 11 24 12 20 14
REMARK SMILES IDX 23 15 21 16 22 17 6 18 7 19 8 20 9 21 13 22 10 23 12 24
REMARK SMILES IDX 11 25 17 26 14 27 16 28 15 29 28 30 29 31 30 32 31 33 32 35
REMARK SMILES IDX 33 36 34 37 80 38 35 39 79 40 36 41 37 42 38 43 73 44 39 45
REMARK SMILES IDX 78 46 72 47 74 48 40 49 77 50 71 51 70 52 41 54 63 55 48 56
REMARK SMILES IDX 62 57 49 58 52 59 61 60 75 61 50 62 51 63 60 65 76 66 53 67
REMARK SMILES IDX 42 68 43 69 47 70 44 71 46 72 45 73 64 74 65 75 69 76 66 77
REMARK SMILES IDX 68 78 67 79 54 80 55 81 59 82 56 83 58 84 57 85
REMARK H PARENT 26 5 18 13 30 34 74 53 52 64
REMARK Flexibility Score: inf
ROOT
ATOM      1  C   UNL A   1      37.029  21.153  24.160  1.00  0.00     0.117 C 
ENDROOT
BRANCH   1   2
ATOM      2  N   UNL A   1      36.856  22.383  24.901  1.00  0.00    -0.356 N 
ATOM      3  O   UNL A   1      35.740  23.494  23.243  1.00  0.00    -0.275 OA
ATOM      4  C   UNL A   1      36.037  23.391  24.434  1.00  0.00     0.224 C 
ATOM      5  H   UNL A   1      37.331  22.505  25.754  1.00  0.00     0.163 HD
BRANCH   4   6
ATOM      6  C   UNL A   1      35.568  24.425  25.455  1.00  0.00     0.138 C 
BRANCH   6   7
ATOM      7  C   UNL A   1      34.076  24.658  25.560  1.00  0.00    -0.002 A 
ATOM      8  C   UNL A   1      33.101  23.780  26.040  1.00  0.00     0.093 A 
ATOM      9  C   UNL A   1      33.390  25.819  25.070  1.00  0.00     0.004 A 
ATOM     10  N   UNL A   1      31.910  24.477  26.045  1.00  0.00    -0.351 N 
ATOM     11  C   UNL A   1      32.041  25.669  25.377  1.00  0.00     0.048 A 
ATOM     12  C   UNL A   1      33.791  26.976  24.366  1.00  0.00     0.012 A 
ATOM     13  H   UNL A   1      31.080  24.163  26.471  1.00  0.00     0.167 HD
ATOM     14  C   UNL A   1      31.066  26.610  25.019  1.00  0.00     0.047 A 
ATOM     15  C   UNL A   1      32.830  27.918  23.978  1.00  0.00     0.021 A 
ATOM     16  C   UNL A   1      31.490  27.731  24.301  1.00  0.00     0.043 A 
ATOM     17  Cl  UNL A   1      30.324  28.895  23.797  1.00  0.00    -0.084 Cl
BRANCH   8  18
ATOM     18  C   UNL A   1      33.249  22.393  26.464  1.00  0.00     0.227 C 
ATOM     19  O   UNL A   1      33.550  22.060  27.611  1.00  0.00    -0.285 OA
BRANCH  18  20
ATOM     20  C   UNL A   1      33.102  21.321  25.455  1.00  0.00     0.113 A 
ATOM     21  C   UNL A   1      33.832  20.151  25.617  1.00  0.00     0.036 A 
ATOM     22  N   UNL A   1      32.257  21.564  24.425  1.00  0.00    -0.252 NA
ATOM     23  C   UNL A   1      33.665  19.135  24.676  1.00  0.00    -0.041 A 
ATOM     24  C   UNL A   1      32.090  20.551  23.546  1.00  0.00     0.115 A 
ATOM     25  C   UNL A   1      32.765  19.333  23.616  1.00  0.00    -0.026 A 
ATOM     26  C   UNL A   1      34.486  17.877  24.789  1.00  0.00     0.036 C 
ATOM     27  C   UNL A   1      32.453  18.239  22.630  1.00  0.00     0.037 C 
ATOM     28  C   UNL A   1      33.895  16.708  24.006  1.00  0.00     0.005 C 
ATOM     29  C   UNL A   1      33.519  17.143  22.594  1.00  0.00     0.005 C 
ENDBRANCH  18  20
ENDBRANCH   8  18
ENDBRANCH   6   7
ENDBRANCH   4   6
ENDBRANCH   1   2
BRANCH   1  30
ATOM     30  C   UNL A   1      37.660  20.032  24.970  1.00  0.00     0.042 C 
BRANCH  30  31
ATOM     31  C   UNL A   1      38.883  20.448  25.775  1.00  0.00     0.118 C 
BRANCH  31  32
ATOM     32  N   UNL A   1      39.972  19.478  25.742  1.00  0.00    -0.352 N 
ATOM     33  C   UNL A   1      41.294  19.609  26.094  1.00  0.00     0.251 C 
ATOM     34  H   UNL A   1      39.718  18.584  25.414  1.00  0.00     0.163 HD
ATOM     35  O   UNL A   1      42.067  18.669  25.911  1.00  0.00    -0.269 OA
BRANCH  33  36
ATOM     36  C   UNL A   1      41.810  20.881  26.648  1.00  0.00     0.039 A 
ATOM     37  C   UNL A   1      41.862  21.112  28.023  1.00  0.00     0.014 A 
ATOM     38  C   UNL A   1      42.251  21.871  25.762  1.00  0.00     0.014 A 
ATOM     39  C   UNL A   1      42.178  22.381  28.501  1.00  0.00     0.010 A 
ATOM     40  C   UNL A   1      42.651  23.120  26.248  1.00  0.00     0.010 A 
ATOM     41  C   UNL A   1      42.565  23.403  27.619  1.00  0.00    -0.014 A 
BRANCH  41  42
ATOM     42  C   UNL A   1      42.859  24.759  28.154  1.00  0.00     0.031 A 
ATOM     43  C   UNL A   1      44.277  25.207  28.383  1.00  0.00     0.074 A 
ATOM     44  C   UNL A   1      41.843  25.616  28.374  1.00  0.00     0.049 A 
ATOM     45  N   UNL A   1      44.716  26.374  28.787  1.00  0.00    -0.248 NA
ATOM     46  C   UNL A   1      45.343  24.224  28.131  1.00  0.00     0.031 C 
ATOM     47  C   UNL A   1      40.424  25.311  28.178  1.00  0.00     0.029 A 
ATOM     48  N   UNL A   1      41.849  26.929  28.773  1.00  0.00    -0.354 N 
ATOM     49  C   UNL A   1      46.099  26.261  28.848  1.00  0.00     0.074 A 
ATOM     50  C   UNL A   1      46.429  24.905  28.472  1.00  0.00     0.031 C 
ATOM     51  C   UNL A   1      39.703  26.421  28.396  1.00  0.00     0.029 A 
ATOM     52  C   UNL A   1      40.600  27.500  28.799  1.00  0.00     0.049 A 
ATOM     53  H   UNL A   1      42.670  27.415  29.018  1.00  0.00     0.167 HD
ATOM     54  C   UNL A   1      47.013  27.206  29.175  1.00  0.00     0.031 A 
ATOM     55  C   UNL A   1      40.212  28.750  29.111  1.00  0.00     0.031 A 
ATOM     56  C   UNL A   1      46.691  28.561  29.533  1.00  0.00     0.049 A 
ATOM     57  C   UNL A   1      41.242  29.767  29.508  1.00  0.00     0.074 A 
ATOM     58  C   UNL A   1      47.558  29.592  29.855  1.00  0.00     0.029 A 
ATOM     59  N   UNL A   1      45.409  29.076  29.614  1.00  0.00    -0.354 N 
ATOM     60  N   UNL A   1      42.545  29.644  29.552  1.00  0.00    -0.248 NA
ATOM     61  C   UNL A   1      40.747  31.095  29.903  1.00  0.00     0.031 C 
ATOM     62  C   UNL A   1      46.797  30.718  30.178  1.00  0.00     0.029 A 
ATOM     63  C   UNL A   1      45.459  30.403  30.005  1.00  0.00     0.049 A 
ATOM     64  H   UNL A   1      44.584  28.573  29.422  1.00  0.00     0.167 HD
ATOM     65  C   UNL A   1      43.028  30.876  29.971  1.00  0.00     0.074 A 
ATOM     66  C   UNL A   1      41.880  31.740  30.149  1.00  0.00     0.031 C 
ATOM     67  C   UNL A   1      44.311  31.251  30.191  1.00  0.00     0.031 A 
BRANCH  54  68
ATOM     68  C   UNL A   1      48.463  26.811  29.170  1.00  0.00    -0.014 A 
ATOM     69  C   UNL A   1      49.217  26.942  27.993  1.00  0.00     0.009 A 
ATOM     70  C   UNL A   1      49.060  26.229  30.300  1.00  0.00     0.009 A 
ATOM     71  C   UNL A   1      50.538  26.493  27.944  1.00  0.00     0.001 A 
ATOM     72  C   UNL A   1      50.389  25.802  30.254  1.00  0.00     0.001 A 
ATOM     73  C   UNL A   1      51.123  25.928  29.075  1.00  0.00     0.000 A 
ENDBRANCH  54  68
BRANCH  55  74
ATOM     74  C   UNL A   1      38.771  29.103  29.045  1.00  0.00    -0.014 A 
ATOM     75  C   UNL A   1      38.213  29.603  27.857  1.00  0.00     0.009 A 
ATOM     76  C   UNL A   1      37.959  28.988  30.183  1.00  0.00     0.009 A 
ATOM     77  C   UNL A   1      36.877  30.004  27.816  1.00  0.00     0.001 A 
ATOM     78  C   UNL A   1      36.615  29.366  30.130  1.00  0.00     0.001 A 
ATOM     79  C   UNL A   1      36.078  29.882  28.952  1.00  0.00     0.000 A 
ENDBRANCH  55  74
BRANCH  67  80
ATOM     80  C   UNL A   1      44.557  32.659  30.651  1.00  0.00    -0.014 A 
ATOM     81  C   UNL A   1      44.593  32.950  32.023  1.00  0.00     0.009 A 
ATOM     82  C   UNL A   1      44.660  33.710  29.727  1.00  0.00     0.009 A 
ATOM     83  C   UNL A   1      44.716  34.268  32.463  1.00  0.00     0.001 A 
ATOM     84  C   UNL A   1      44.807  35.025  30.170  1.00  0.00     0.001 A 
ATOM     85  C   UNL A   1      44.827  35.305  31.537  1.00  0.00     0.000 A 
ENDBRANCH  67  80
ENDBRANCH  41  42
ENDBRANCH  33  36
ENDBRANCH  31  32
ENDBRANCH  30  31
ENDBRANCH   1  30
TORSDOF 13
ENDMDL
MODEL 3
REMARK VINA RESULT:     -12.3      1.724      7.014
REMARK SMILES O=C(Cc1c(C(=O)c2cc3c(cn2)CCCC3)[nH]c2cc(Cl)ccc12)NCCCNC(=O)c1ccc(-c2c3nc(c(-c4ccccc4)c4ccc([nH]4)c(-c4ccccc4)c4nc(c(-c5ccccc5)c5ccc2[nH]5)C=C4)C=C3)cc1
REMARK SMILES IDX 27 1 26 2 1 3 2 4 3 6 4 7 5 8 25 9 18 10 19 11 24 12 20 14
REMARK SMILES IDX 23 15 21 16 22 17 6 18 7 19 8 20 9 21 13 22 10 23 12 24
REMARK SMILES IDX 11 25 17 26 14 27 16 28 15 29 28 30 29 31 30 32 31 33 32 35
REMARK SMILES IDX 33 36 34 37 80 38 35 39 79 40 36 41 37 42 38 43 73 44 39 45
REMARK SMILES IDX 78 46 72 47 74 48 40 49 77 50 71 51 70 52 41 54 63 55 48 56
REMARK SMILES IDX 62 57 49 58 52 59 61 60 75 61 50 62 51 63 60 65 76 66 53 67
REMARK SMILES IDX 42 68 43 69 47 70 44 71 46 72 45 73 64 74 65 75 69 76 66 77
REMARK SMILES IDX 68 78 67 79 54 80 55 81 59 82 56 83 58 84 57 85
REMARK H PARENT 26 5 18 13 30 34 74 53 52 64
REMARK Flexibility Score: inf
ROOT
ATOM      1  C   UNL A   1      36.987  21.243  24.162  1.00  0.00     0.117 C 
ENDROOT
BRANCH   1   2
ATOM      2  N   UNL A   1      36.813  22.474  24.901  1.00  0.00    -0.356 N 
ATOM      3  O   UNL A   1      35.586  23.535  23.291  1.00  0.00    -0.275 OA
ATOM      4  C   UNL A   1      35.943  23.453  24.467  1.00  0.00     0.224 C 
ATOM      5  H   UNL A   1      37.324  22.618  25.730  1.00  0.00     0.163 HD
BRANCH   4   6
ATOM      6  C   UNL A   1      35.492  24.482  25.500  1.00  0.00     0.138 C 
BRANCH   6   7
ATOM      7  C   UNL A   1      34.007  24.757  25.594  1.00  0.00    -0.002 A 
ATOM      8  C   UNL A   1      33.002  23.905  26.060  1.00  0.00     0.093 A 
ATOM      9  C   UNL A   1      33.359  25.940  25.104  1.00  0.00     0.004 A 
ATOM     10  N   UNL A   1      31.832  24.636  26.058  1.00  0.00    -0.351 N 
ATOM     11  C   UNL A   1      32.003  25.827  25.398  1.00  0.00     0.048 A 
ATOM     12  C   UNL A   1      33.799  27.089  24.410  1.00  0.00     0.012 A 
ATOM     13  H   UNL A   1      30.990  24.343  26.474  1.00  0.00     0.167 HD
ATOM     14  C   UNL A   1      31.059  26.797  25.036  1.00  0.00     0.047 A 
ATOM     15  C   UNL A   1      32.869  28.060  24.017  1.00  0.00     0.021 A 
ATOM     16  C   UNL A   1      31.521  27.909  24.328  1.00  0.00     0.043 A 
ATOM     17  Cl  UNL A   1      30.393  29.108  23.820  1.00  0.00    -0.084 Cl
BRANCH   8  18
ATOM     18  C   UNL A   1      33.107  22.512  26.478  1.00  0.00     0.227 C 
ATOM     19  O   UNL A   1      33.351  22.164  27.634  1.00  0.00    -0.285 OA
BRANCH  18  20
ATOM     20  C   UNL A   1      32.987  21.451  25.454  1.00  0.00     0.113 A 
ATOM     21  C   UNL A   1      33.661  20.254  25.655  1.00  0.00     0.036 A 
ATOM     22  N   UNL A   1      32.221  21.730  24.372  1.00  0.00    -0.252 NA
ATOM     23  C   UNL A   1      33.518  19.249  24.698  1.00  0.00    -0.041 A 
ATOM     24  C   UNL A   1      32.074  20.728  23.478  1.00  0.00     0.115 A 
ATOM     25  C   UNL A   1      32.698  19.485  23.583  1.00  0.00    -0.026 A 
ATOM     26  C   UNL A   1      34.283  17.960  24.855  1.00  0.00     0.036 C 
ATOM     27  C   UNL A   1      32.410  18.408  22.571  1.00  0.00     0.037 C 
ATOM     28  C   UNL A   1      33.702  16.818  24.026  1.00  0.00     0.005 C 
ATOM     29  C   UNL A   1      33.435  17.274  22.596  1.00  0.00     0.005 C 
ENDBRANCH  18  20
ENDBRANCH   8  18
ENDBRANCH   6   7
ENDBRANCH   4   6
ENDBRANCH   1   2
BRANCH   1  30
ATOM     30  C   UNL A   1      37.586  20.113  24.985  1.00  0.00     0.042 C 
BRANCH  30  31
ATOM     31  C   UNL A   1      38.816  20.505  25.791  1.00  0.00     0.118 C 
BRANCH  31  32
ATOM     32  N   UNL A   1      39.875  19.501  25.784  1.00  0.00    -0.352 N 
ATOM     33  C   UNL A   1      41.204  19.604  26.113  1.00  0.00     0.251 C 
ATOM     34  H   UNL A   1      39.589  18.603  25.495  1.00  0.00     0.163 HD
ATOM     35  O   UNL A   1      41.946  18.635  25.958  1.00  0.00    -0.269 OA
BRANCH  33  36
ATOM     36  C   UNL A   1      41.767  20.880  26.609  1.00  0.00     0.039 A 
ATOM     37  C   UNL A   1      41.790  21.190  27.970  1.00  0.00     0.014 A 
ATOM     38  C   UNL A   1      42.283  21.794  25.683  1.00  0.00     0.014 A 
ATOM     39  C   UNL A   1      42.154  22.468  28.384  1.00  0.00     0.010 A 
ATOM     40  C   UNL A   1      42.730  23.049  26.109  1.00  0.00     0.010 A 
ATOM     41  C   UNL A   1      42.618  23.416  27.457  1.00  0.00    -0.014 A 
BRANCH  41  42
ATOM     42  C   UNL A   1      42.963  24.786  27.923  1.00  0.00     0.031 A 
ATOM     43  C   UNL A   1      41.887  25.809  28.173  1.00  0.00     0.074 A 
ATOM     44  C   UNL A   1      44.249  25.090  28.185  1.00  0.00     0.049 A 
ATOM     45  N   UNL A   1      42.005  27.029  28.637  1.00  0.00    -0.248 NA
ATOM     46  C   UNL A   1      40.502  25.420  27.862  1.00  0.00     0.031 C 
ATOM     47  C   UNL A   1      45.384  24.184  27.999  1.00  0.00     0.029 A 
ATOM     48  N   UNL A   1      44.813  26.230  28.699  1.00  0.00    -0.354 N 
ATOM     49  C   UNL A   1      40.719  27.553  28.661  1.00  0.00     0.074 A 
ATOM     50  C   UNL A   1      39.837  26.534  28.137  1.00  0.00     0.031 C 
ATOM     51  C   UNL A   1      46.498  24.779  28.452  1.00  0.00     0.029 A 
ATOM     52  C   UNL A   1      46.167  26.126  28.908  1.00  0.00     0.049 A 
ATOM     53  H   UNL A   1      44.298  27.045  28.899  1.00  0.00     0.167 HD
ATOM     54  C   UNL A   1      40.307  28.768  29.094  1.00  0.00     0.031 A 
ATOM     55  C   UNL A   1      47.049  27.010  29.410  1.00  0.00     0.031 A 
ATOM     56  C   UNL A   1      41.177  29.779  29.632  1.00  0.00     0.049 A 
ATOM     57  C   UNL A   1      46.572  28.364  29.846  1.00  0.00     0.074 A 
ATOM     58  C   UNL A   1      40.840  31.031  30.119  1.00  0.00     0.029 A 
ATOM     59  N   UNL A   1      42.550  29.656  29.760  1.00  0.00    -0.354 N 
ATOM     60  N   UNL A   1      45.351  28.838  29.869  1.00  0.00    -0.248 NA
ATOM     61  C   UNL A   1      47.595  29.308  30.321  1.00  0.00     0.031 C 
ATOM     62  C   UNL A   1      42.015  31.684  30.496  1.00  0.00     0.029 A 
ATOM     63  C   UNL A   1      43.079  30.820  30.294  1.00  0.00     0.049 A 
ATOM     64  H   UNL A   1      43.073  28.860  29.509  1.00  0.00     0.167 HD
ATOM     65  C   UNL A   1      45.456  30.130  30.366  1.00  0.00     0.074 A 
ATOM     66  C   UNL A   1      46.857  30.359  30.651  1.00  0.00     0.031 C 
ATOM     67  C   UNL A   1      44.474  31.042  30.564  1.00  0.00     0.031 A 
BRANCH  54  68
ATOM     68  C   UNL A   1      38.842  29.087  29.000  1.00  0.00    -0.014 A 
ATOM     69  C   UNL A   1      38.325  29.651  27.822  1.00  0.00     0.009 A 
ATOM     70  C   UNL A   1      37.990  28.912  30.102  1.00  0.00     0.009 A 
ATOM     71  C   UNL A   1      36.986  30.040  27.751  1.00  0.00     0.001 A 
ATOM     72  C   UNL A   1      36.645  29.281  30.019  1.00  0.00     0.001 A 
ATOM     73  C   UNL A   1      36.147  29.850  28.848  1.00  0.00     0.000 A 
ENDBRANCH  54  68
BRANCH  55  74
ATOM     74  C   UNL A   1      48.477  26.622  29.534  1.00  0.00    -0.014 A 
ATOM     75  C   UNL A   1      48.957  26.037  30.715  1.00  0.00     0.009 A 
ATOM     76  C   UNL A   1      49.376  26.883  28.488  1.00  0.00     0.009 A 
ATOM     77  C   UNL A   1      50.314  25.741  30.859  1.00  0.00     0.001 A 
ATOM     78  C   UNL A   1      50.729  26.561  28.626  1.00  0.00     0.001 A 
ATOM     79  C   UNL A   1      51.198  25.999  29.813  1.00  0.00     0.000 A 
ENDBRANCH  55  74
BRANCH  67  80
ATOM     80  C   UNL A   1      44.868  32.382  31.115  1.00  0.00    -0.014 A 
ATOM     81  C   UNL A   1      44.815  32.611  32.499  1.00  0.00     0.009 A 
ATOM     82  C   UNL A   1      45.202  33.443  30.260  1.00  0.00     0.009 A 
ATOM     83  C   UNL A   1      45.078  33.881  33.015  1.00  0.00     0.001 A 
ATOM     84  C   UNL A   1      45.488  34.705  30.781  1.00  0.00     0.001 A 
ATOM     85  C   UNL A   1      45.417  34.926  32.157  1.00  0.00     0.000 A 
ENDBRANCH  67  80
ENDBRANCH  41  42
ENDBRANCH  33  36
ENDBRANCH  31  32
ENDBRANCH  30  31
ENDBRANCH   1  30
TORSDOF 13
ENDMDL
