MODEL 1
REMARK VINA RESULT:     -11.7      0.000      0.000
REMARK SMILES C[C@@H](Nc1ccc(C(=O)NCCCNC(=O)c2ccc(-c3c4nc(c(-c5ccccc5)c5ccc([nH]5)c(-c5ccccc5)c5nc(c(-c6ccccc6)c6ccc3[nH]6)C=C5)C=C4)cc2)cc1)C1CC[NH+](C)CC1
REMARK SMILES IDX 11 1 10 2 8 3 9 4 7 6 4 7 5 8 66 9 6 10 65 11 3 12 2 14 1 15
REMARK SMILES IDX 67 16 68 17 73 18 69 19 72 20 70 21 71 22 12 24 13 25 14 26
REMARK SMILES IDX 15 27 16 29 17 30 18 31 64 32 19 33 63 34 20 35 21 36 22 37
REMARK SMILES IDX 57 38 23 39 62 40 56 41 58 42 24 43 61 44 55 45 54 46 25 48
REMARK SMILES IDX 47 49 32 50 46 51 33 52 36 53 45 54 59 55 34 56 35 57 44 59
REMARK SMILES IDX 60 60 37 61 26 62 27 63 31 64 28 65 30 66 29 67 48 68 49 69
REMARK SMILES IDX 53 70 50 71 52 72 51 73 38 74 39 75 43 76 40 77 42 78 41 79
REMARK H PARENT 10 5 3 13 70 23 14 28 58 47 36 58
REMARK Flexibility Score: inf
ROOT
ATOM      1  C   UNL A   1      36.086  20.507  24.990  1.00  0.00     0.118 C 
ENDROOT
BRANCH   1   2
ATOM      2  N   UNL A   1      35.108  19.442  24.988  1.00  0.00    -0.352 N 
ATOM      3  C   UNL A   1      33.746  19.512  24.909  1.00  0.00     0.251 C 
ATOM      4  O   UNL A   1      33.091  18.477  24.812  1.00  0.00    -0.269 OA
ATOM      5  H   UNL A   1      35.479  18.532  25.053  1.00  0.00     0.163 HD
BRANCH   3   6
ATOM      6  C   UNL A   1      33.043  20.798  24.862  1.00  0.00     0.039 A 
ATOM      7  C   UNL A   1      31.216  23.932  25.085  1.00  0.00     0.034 A 
ATOM      8  C   UNL A   1      31.990  23.230  26.577  1.00  0.00     0.026 A 
ATOM      9  C   UNL A   1      31.484  23.169  23.458  1.00  0.00     0.026 A 
ATOM     10  C   UNL A   1      32.886  21.646  26.464  1.00  0.00     0.016 A 
ATOM     11  C   UNL A   1      32.416  21.578  23.349  1.00  0.00     0.016 A 
BRANCH   7  12
ATOM     12  N   UNL A   1      30.199  24.854  25.289  1.00  0.00    -0.382 N 
ATOM     13  H   UNL A   1      29.320  24.561  25.623  1.00  0.00     0.160 HD
BRANCH  12  14
ATOM     14  C   UNL A   1      30.450  26.273  25.000  1.00  0.00     0.079 C 
ATOM     15  C   UNL A   1      29.934  26.561  23.581  1.00  0.00     0.031 C 
BRANCH  14  16
ATOM     16  C   UNL A   1      31.876  26.887  25.184  1.00  0.00     0.022 C 
ATOM     17  C   UNL A   1      32.115  27.957  26.255  1.00  0.00     0.067 C 
ATOM     18  C   UNL A   1      32.534  27.342  23.890  1.00  0.00     0.067 C 
ATOM     19  C   UNL A   1      31.737  29.409  25.884  1.00  0.00     0.262 C 
ATOM     20  C   UNL A   1      32.504  28.868  23.703  1.00  0.00     0.262 C 
ATOM     21  N   UNL A   1      31.261  29.642  24.381  1.00  0.00    -0.337 N 
ATOM     22  C   UNL A   1      29.497  30.412  23.581  1.00  0.00     0.332 C 
ATOM     23  H   UNL A   1      30.643  30.356  23.994  1.00  0.00     0.347 HD
ENDBRANCH  14  16
ENDBRANCH  12  14
ENDBRANCH   7  12
ENDBRANCH   3   6
ENDBRANCH   1   2
BRANCH   1  24
ATOM     24  C   UNL A   1      37.477  19.980  24.675  1.00  0.00     0.042 C 
BRANCH  24  25
ATOM     25  C   UNL A   1      38.520  20.426  25.684  1.00  0.00     0.118 C 
BRANCH  25  26
ATOM     26  N   UNL A   1      39.608  19.469  25.806  1.00  0.00    -0.352 N 
ATOM     27  C   UNL A   1      40.934  19.688  26.070  1.00  0.00     0.251 C 
ATOM     28  H   UNL A   1      39.354  18.525  25.680  1.00  0.00     0.163 HD
ATOM     29  O   UNL A   1      41.755  18.798  25.872  1.00  0.00    -0.269 OA
BRANCH  27  30
ATOM     30  C   UNL A   1      41.371  20.998  26.591  1.00  0.00     0.039 A 
ATOM     31  C   UNL A   1      41.877  21.946  25.701  1.00  0.00     0.014 A 
ATOM     32  C   UNL A   1      41.309  21.280  27.960  1.00  0.00     0.014 A 
ATOM     33  C   UNL A   1      42.290  23.188  26.183  1.00  0.00     0.010 A 
ATOM     34  C   UNL A   1      41.609  22.553  28.421  1.00  0.00     0.010 A 
ATOM     35  C   UNL A   1      42.136  23.508  27.543  1.00  0.00    -0.014 A 
BRANCH  35  36
ATOM     36  C   UNL A   1      42.558  24.826  28.069  1.00  0.00     0.031 A 
ATOM     37  C   UNL A   1      41.541  25.911  28.290  1.00  0.00     0.074 A 
ATOM     38  C   UNL A   1      43.861  25.052  28.318  1.00  0.00     0.049 A 
ATOM     39  N   UNL A   1      41.713  27.120  28.763  1.00  0.00    -0.248 NA
ATOM     40  C   UNL A   1      40.152  25.612  27.904  1.00  0.00     0.031 C 
ATOM     41  C   UNL A   1      44.943  24.088  28.102  1.00  0.00     0.029 A 
ATOM     42  N   UNL A   1      44.494  26.158  28.819  1.00  0.00    -0.354 N 
ATOM     43  C   UNL A   1      40.461  27.722  28.719  1.00  0.00     0.074 A 
ATOM     44  C   UNL A   1      39.558  26.778  28.103  1.00  0.00     0.031 C 
ATOM     45  C   UNL A   1      46.098  24.625  28.527  1.00  0.00     0.029 A 
ATOM     46  C   UNL A   1      45.845  25.983  28.997  1.00  0.00     0.049 A 
ATOM     47  H   UNL A   1      44.026  26.998  29.032  1.00  0.00     0.167 HD
ATOM     48  C   UNL A   1      40.089  28.941  29.176  1.00  0.00     0.031 A 
ATOM     49  C   UNL A   1      46.773  26.821  29.492  1.00  0.00     0.031 A 
ATOM     50  C   UNL A   1      40.998  29.880  29.776  1.00  0.00     0.049 A 
ATOM     51  C   UNL A   1      46.347  28.184  29.957  1.00  0.00     0.074 A 
ATOM     52  C   UNL A   1      40.724  31.126  30.312  1.00  0.00     0.029 A 
ATOM     53  N   UNL A   1      42.364  29.677  29.908  1.00  0.00    -0.354 N 
ATOM     54  N   UNL A   1      45.147  28.713  29.980  1.00  0.00    -0.248 NA
ATOM     55  C   UNL A   1      47.404  29.062  30.475  1.00  0.00     0.031 C 
ATOM     56  C   UNL A   1      41.936  31.705  30.704  1.00  0.00     0.029 A 
ATOM     57  C   UNL A   1      42.953  30.789  30.486  1.00  0.00     0.049 A 
ATOM     58  H   UNL A   1      42.844  28.863  29.631  1.00  0.00     0.167 HD
ATOM     59  C   UNL A   1      45.298  29.973  30.545  1.00  0.00     0.074 A 
ATOM     60  C   UNL A   1      46.705  30.119  30.862  1.00  0.00     0.031 C 
ATOM     61  C   UNL A   1      44.358  30.920  30.785  1.00  0.00     0.031 A 
BRANCH  48  62
ATOM     62  C   UNL A   1      38.640  29.321  29.016  1.00  0.00    -0.014 A 
ATOM     63  C   UNL A   1      37.728  29.200  30.079  1.00  0.00     0.009 A 
ATOM     64  C   UNL A   1      38.174  29.797  27.781  1.00  0.00     0.009 A 
ATOM     65  C   UNL A   1      36.375  29.488  29.892  1.00  0.00     0.001 A 
ATOM     66  C   UNL A   1      36.826  30.122  27.607  1.00  0.00     0.001 A 
ATOM     67  C   UNL A   1      35.925  29.951  28.657  1.00  0.00     0.000 A 
ENDBRANCH  48  62
BRANCH  49  68
ATOM     68  C   UNL A   1      48.185  26.371  29.613  1.00  0.00    -0.014 A 
ATOM     69  C   UNL A   1      49.084  26.568  28.554  1.00  0.00     0.009 A 
ATOM     70  C   UNL A   1      48.649  25.769  30.793  1.00  0.00     0.009 A 
ATOM     71  C   UNL A   1      50.412  26.152  28.666  1.00  0.00     0.001 A 
ATOM     72  C   UNL A   1      49.985  25.383  30.914  1.00  0.00     0.001 A 
ATOM     73  C   UNL A   1      50.864  25.566  29.848  1.00  0.00     0.000 A 
ENDBRANCH  49  68
BRANCH  61  74
ATOM     74  C   UNL A   1      44.815  32.187  31.457  1.00  0.00    -0.014 A 
ATOM     75  C   UNL A   1      44.845  32.307  32.855  1.00  0.00     0.009 A 
ATOM     76  C   UNL A   1      45.260  33.262  30.672  1.00  0.00     0.009 A 
ATOM     77  C   UNL A   1      45.276  33.493  33.451  1.00  0.00     0.001 A 
ATOM     78  C   UNL A   1      45.725  34.433  31.271  1.00  0.00     0.001 A 
ATOM     79  C   UNL A   1      45.722  34.552  32.660  1.00  0.00     0.000 A 
ENDBRANCH  61  74
ENDBRANCH  35  36
ENDBRANCH  27  30
ENDBRANCH  25  26
ENDBRANCH  24  25
ENDBRANCH   1  24
TORSDOF 13
ENDMDL
MODEL 2
REMARK VINA RESULT:     -11.7      0.354      6.028
REMARK SMILES C[C@@H](Nc1ccc(C(=O)NCCCNC(=O)c2ccc(-c3c4nc(c(-c5ccccc5)c5ccc([nH]5)c(-c5ccccc5)c5nc(c(-c6ccccc6)c6ccc3[nH]6)C=C5)C=C4)cc2)cc1)C1CC[NH+](C)CC1
REMARK SMILES IDX 11 1 10 2 8 3 9 4 7 6 4 7 5 8 66 9 6 10 65 11 3 12 2 14 1 15
REMARK SMILES IDX 67 16 68 17 73 18 69 19 72 20 70 21 71 22 12 24 13 25 14 26
REMARK SMILES IDX 15 27 16 29 17 30 18 31 64 32 19 33 63 34 20 35 21 36 22 37
REMARK SMILES IDX 57 38 23 39 62 40 56 41 58 42 24 43 61 44 55 45 54 46 25 48
REMARK SMILES IDX 47 49 32 50 46 51 33 52 36 53 45 54 59 55 34 56 35 57 44 59
REMARK SMILES IDX 60 60 37 61 26 62 27 63 31 64 28 65 30 66 29 67 48 68 49 69
REMARK SMILES IDX 53 70 50 71 52 72 51 73 38 74 39 75 43 76 40 77 42 78 41 79
REMARK H PARENT 10 5 3 13 70 23 14 28 58 47 36 58
REMARK Flexibility Score: inf
ROOT
ATOM      1  C   UNL A   1      36.074  20.396  24.989  1.00  0.00     0.118 C 
ENDROOT
BRANCH   1   2
ATOM      2  N   UNL A   1      35.072  19.354  24.995  1.00  0.00    -0.352 N 
ATOM      3  C   UNL A   1      33.711  19.456  24.942  1.00  0.00     0.251 C 
ATOM      4  O   UNL A   1      33.031  18.436  24.849  1.00  0.00    -0.269 OA
ATOM      5  H   UNL A   1      35.423  18.435  25.046  1.00  0.00     0.163 HD
BRANCH   3   6
ATOM      6  C   UNL A   1      33.037  20.757  24.919  1.00  0.00     0.039 A 
ATOM      7  C   UNL A   1      31.274  23.924  25.199  1.00  0.00     0.034 A 
ATOM      8  C   UNL A   1      32.013  23.167  26.682  1.00  0.00     0.026 A 
ATOM      9  C   UNL A   1      31.548  23.197  23.556  1.00  0.00     0.026 A 
ATOM     10  C   UNL A   1      32.875  21.568  26.540  1.00  0.00     0.016 A 
ATOM     11  C   UNL A   1      32.447  21.589  23.419  1.00  0.00     0.016 A 
BRANCH   7  12
ATOM     12  N   UNL A   1      30.275  24.863  25.413  1.00  0.00    -0.382 N 
ATOM     13  H   UNL A   1      29.412  24.592  25.803  1.00  0.00     0.160 HD
BRANCH  12  14
ATOM     14  C   UNL A   1      30.521  26.266  25.051  1.00  0.00     0.079 C 
ATOM     15  C   UNL A   1      29.987  26.483  23.626  1.00  0.00     0.031 C 
BRANCH  14  16
ATOM     16  C   UNL A   1      31.948  26.890  25.187  1.00  0.00     0.022 C 
ATOM     17  C   UNL A   1      32.208  27.979  26.233  1.00  0.00     0.067 C 
ATOM     18  C   UNL A   1      32.570  27.325  23.869  1.00  0.00     0.067 C 
ATOM     19  C   UNL A   1      31.814  29.423  25.846  1.00  0.00     0.262 C 
ATOM     20  C   UNL A   1      32.527  28.847  23.657  1.00  0.00     0.262 C 
ATOM     21  N   UNL A   1      31.298  29.627  24.352  1.00  0.00    -0.337 N 
ATOM     22  C   UNL A   1      29.510  30.374  23.584  1.00  0.00     0.332 C 
ATOM     23  H   UNL A   1      30.667  30.331  23.969  1.00  0.00     0.347 HD
ENDBRANCH  14  16
ENDBRANCH  12  14
ENDBRANCH   7  12
ENDBRANCH   3   6
ENDBRANCH   1   2
BRANCH   1  24
ATOM     24  C   UNL A   1      37.449  19.839  24.658  1.00  0.00     0.042 C 
BRANCH  24  25
ATOM     25  C   UNL A   1      38.547  20.415  25.534  1.00  0.00     0.118 C 
BRANCH  25  26
ATOM     26  N   UNL A   1      39.634  19.472  25.739  1.00  0.00    -0.352 N 
ATOM     27  C   UNL A   1      40.935  19.710  26.096  1.00  0.00     0.251 C 
ATOM     28  H   UNL A   1      39.402  18.525  25.600  1.00  0.00     0.163 HD
ATOM     29  O   UNL A   1      41.779  18.829  25.963  1.00  0.00    -0.269 OA
BRANCH  27  30
ATOM     30  C   UNL A   1      41.318  21.027  26.639  1.00  0.00     0.039 A 
ATOM     31  C   UNL A   1      41.824  21.997  25.771  1.00  0.00     0.014 A 
ATOM     32  C   UNL A   1      41.205  21.297  28.007  1.00  0.00     0.014 A 
ATOM     33  C   UNL A   1      42.185  23.246  26.274  1.00  0.00     0.010 A 
ATOM     34  C   UNL A   1      41.454  22.575  28.485  1.00  0.00     0.010 A 
ATOM     35  C   UNL A   1      41.980  23.551  27.631  1.00  0.00    -0.014 A 
BRANCH  35  36
ATOM     36  C   UNL A   1      42.348  24.877  28.179  1.00  0.00     0.031 A 
ATOM     37  C   UNL A   1      43.782  25.186  28.506  1.00  0.00     0.074 A 
ATOM     38  C   UNL A   1      41.384  25.787  28.409  1.00  0.00     0.049 A 
ATOM     39  N   UNL A   1      44.302  26.294  28.971  1.00  0.00    -0.248 NA
ATOM     40  C   UNL A   1      44.759  24.102  28.312  1.00  0.00     0.031 C 
ATOM     41  C   UNL A   1      39.953  25.584  28.170  1.00  0.00     0.029 A 
ATOM     42  N   UNL A   1      41.465  27.070  28.883  1.00  0.00    -0.354 N 
ATOM     43  C   UNL A   1      45.658  26.032  29.133  1.00  0.00     0.074 A 
ATOM     44  C   UNL A   1      45.866  24.645  28.793  1.00  0.00     0.031 C 
ATOM     45  C   UNL A   1      39.299  26.724  28.441  1.00  0.00     0.029 A 
ATOM     46  C   UNL A   1      40.255  27.718  28.917  1.00  0.00     0.049 A 
ATOM     47  H   UNL A   1      42.309  27.488  29.170  1.00  0.00     0.167 HD
ATOM     48  C   UNL A   1      46.647  26.879  29.505  1.00  0.00     0.031 A 
ATOM     49  C   UNL A   1      39.952  28.977  29.282  1.00  0.00     0.031 A 
ATOM     50  C   UNL A   1      46.429  28.257  29.855  1.00  0.00     0.049 A 
ATOM     51  C   UNL A   1      41.059  29.889  29.730  1.00  0.00     0.074 A 
ATOM     52  C   UNL A   1      47.360  29.218  30.205  1.00  0.00     0.029 A 
ATOM     53  N   UNL A   1      45.183  28.867  29.908  1.00  0.00    -0.354 N 
ATOM     54  N   UNL A   1      42.346  29.653  29.806  1.00  0.00    -0.248 NA
ATOM     55  C   UNL A   1      40.668  31.247  30.131  1.00  0.00     0.031 C 
ATOM     56  C   UNL A   1      46.672  30.389  30.539  1.00  0.00     0.029 A 
ATOM     57  C   UNL A   1      45.319  30.182  30.319  1.00  0.00     0.049 A 
ATOM     58  H   UNL A   1      44.330  28.429  29.686  1.00  0.00     0.167 HD
ATOM     59  C   UNL A   1      42.925  30.841  30.233  1.00  0.00     0.074 A 
ATOM     60  C   UNL A   1      41.847  31.799  30.383  1.00  0.00     0.031 C 
ATOM     61  C   UNL A   1      44.231  31.117  30.473  1.00  0.00     0.031 A 
BRANCH  48  62
ATOM     62  C   UNL A   1      48.044  26.318  29.569  1.00  0.00    -0.014 A 
ATOM     63  C   UNL A   1      48.867  26.267  28.430  1.00  0.00     0.009 A 
ATOM     64  C   UNL A   1      48.542  25.821  30.783  1.00  0.00     0.009 A 
ATOM     65  C   UNL A   1      50.131  25.677  28.493  1.00  0.00     0.001 A 
ATOM     66  C   UNL A   1      49.823  25.266  30.851  1.00  0.00     0.001 A 
ATOM     67  C   UNL A   1      50.609  25.179  29.703  1.00  0.00     0.000 A 
ENDBRANCH  48  62
BRANCH  49  68
ATOM     68  C   UNL A   1      38.547  29.454  29.195  1.00  0.00    -0.014 A 
ATOM     69  C   UNL A   1      38.062  30.016  28.004  1.00  0.00     0.009 A 
ATOM     70  C   UNL A   1      37.676  29.330  30.289  1.00  0.00     0.009 A 
ATOM     71  C   UNL A   1      36.742  30.461  27.917  1.00  0.00     0.001 A 
ATOM     72  C   UNL A   1      36.348  29.746  30.188  1.00  0.00     0.001 A 
ATOM     73  C   UNL A   1      35.883  30.320  29.006  1.00  0.00     0.000 A 
ENDBRANCH  49  68
BRANCH  61  74
ATOM     74  C   UNL A   1      44.571  32.523  30.887  1.00  0.00    -0.014 A 
ATOM     75  C   UNL A   1      44.797  33.534  29.940  1.00  0.00     0.009 A 
ATOM     76  C   UNL A   1      44.626  32.846  32.252  1.00  0.00     0.009 A 
ATOM     77  C   UNL A   1      45.108  34.831  30.353  1.00  0.00     0.001 A 
ATOM     78  C   UNL A   1      44.901  34.151  32.663  1.00  0.00     0.001 A 
ATOM     79  C   UNL A   1      45.153  35.139  31.713  1.00  0.00     0.000 A 
ENDBRANCH  61  74
ENDBRANCH  35  36
ENDBRANCH  27  30
ENDBRANCH  25  26
ENDBRANCH  24  25
ENDBRANCH   1  24
TORSDOF 13
ENDMDL
MODEL 3
REMARK VINA RESULT:     -11.6      1.482      6.312
REMARK SMILES C[C@@H](Nc1ccc(C(=O)NCCCNC(=O)c2ccc(-c3c4nc(c(-c5ccccc5)c5ccc([nH]5)c(-c5ccccc5)c5nc(c(-c6ccccc6)c6ccc3[nH]6)C=C5)C=C4)cc2)cc1)C1CC[NH+](C)CC1
REMARK SMILES IDX 11 1 10 2 8 3 9 4 7 6 4 7 5 8 66 9 6 10 65 11 3 12 2 14 1 15
REMARK SMILES IDX 67 16 68 17 73 18 69 19 72 20 70 21 71 22 12 24 13 25 14 26
REMARK SMILES IDX 15 27 16 29 17 30 18 31 64 32 19 33 63 34 20 35 21 36 22 37
REMARK SMILES IDX 57 38 23 39 62 40 56 41 58 42 24 43 61 44 55 45 54 46 25 48
REMARK SMILES IDX 47 49 32 50 46 51 33 52 36 53 45 54 59 55 34 56 35 57 44 59
REMARK SMILES IDX 60 60 37 61 26 62 27 63 31 64 28 65 30 66 29 67 48 68 49 69
REMARK SMILES IDX 53 70 50 71 52 72 51 73 38 74 39 75 43 76 40 77 42 78 41 79
REMARK H PARENT 10 5 3 13 70 23 14 28 58 47 36 58
REMARK Flexibility Score: inf
ROOT
ATOM      1  C   UNL A   1      37.325  20.673  24.823  1.00  0.00     0.118 C 
ENDROOT
BRANCH   1   2
ATOM      2  N   UNL A   1      37.856  21.938  25.278  1.00  0.00    -0.352 N 
ATOM      3  C   UNL A   1      37.208  23.115  25.525  1.00  0.00     0.251 C 
ATOM      4  O   UNL A   1      37.828  24.057  26.014  1.00  0.00    -0.269 OA
ATOM      5  H   UNL A   1      38.829  21.954  25.432  1.00  0.00     0.163 HD
BRANCH   3   6
ATOM      6  C   UNL A   1      35.768  23.265  25.290  1.00  0.00     0.039 A 
ATOM      7  C   UNL A   1      32.283  23.837  24.430  1.00  0.00     0.034 A 
ATOM      8  C   UNL A   1      33.554  23.877  23.125  1.00  0.00     0.026 A 
ATOM      9  C   UNL A   1      32.716  23.354  26.128  1.00  0.00     0.026 A 
ATOM     10  C   UNL A   1      35.303  23.612  23.566  1.00  0.00     0.016 A 
ATOM     11  C   UNL A   1      34.488  23.061  26.559  1.00  0.00     0.016 A 
BRANCH   7  12
ATOM     12  N   UNL A   1      31.082  24.471  24.146  1.00  0.00    -0.382 N 
ATOM     13  H   UNL A   1      30.298  23.949  23.858  1.00  0.00     0.160 HD
BRANCH  12  14
ATOM     14  C   UNL A   1      30.995  25.932  24.281  1.00  0.00     0.079 C 
ATOM     15  C   UNL A   1      29.878  26.245  25.289  1.00  0.00     0.031 C 
BRANCH  14  16
ATOM     16  C   UNL A   1      30.846  26.845  23.020  1.00  0.00     0.022 C 
ATOM     17  C   UNL A   1      32.087  27.489  22.393  1.00  0.00     0.067 C 
ATOM     18  C   UNL A   1      29.758  27.902  23.136  1.00  0.00     0.067 C 
ATOM     19  C   UNL A   1      32.602  28.791  23.048  1.00  0.00     0.262 C 
ATOM     20  C   UNL A   1      30.313  29.309  23.407  1.00  0.00     0.262 C 
ATOM     21  N   UNL A   1      31.702  29.380  24.225  1.00  0.00    -0.337 N 
ATOM     22  C   UNL A   1      32.123  29.807  26.221  1.00  0.00     0.332 C 
ATOM     23  H   UNL A   1      31.966  29.961  25.021  1.00  0.00     0.347 HD
ENDBRANCH  14  16
ENDBRANCH  12  14
ENDBRANCH   7  12
ENDBRANCH   3   6
ENDBRANCH   1   2
BRANCH   1  24
ATOM     24  C   UNL A   1      38.337  19.553  25.001  1.00  0.00     0.042 C 
BRANCH  24  25
ATOM     25  C   UNL A   1      39.354  19.843  26.091  1.00  0.00     0.118 C 
BRANCH  25  26
ATOM     26  N   UNL A   1      40.595  19.112  25.890  1.00  0.00    -0.352 N 
ATOM     27  C   UNL A   1      41.883  19.577  25.860  1.00  0.00     0.251 C 
ATOM     28  H   UNL A   1      40.495  18.141  25.755  1.00  0.00     0.163 HD
ATOM     29  O   UNL A   1      42.781  18.870  25.415  1.00  0.00    -0.269 OA
BRANCH  27  30
ATOM     30  C   UNL A   1      42.186  20.931  26.363  1.00  0.00     0.039 A 
ATOM     31  C   UNL A   1      42.408  21.960  25.447  1.00  0.00     0.014 A 
ATOM     32  C   UNL A   1      42.279  21.179  27.737  1.00  0.00     0.014 A 
ATOM     33  C   UNL A   1      42.691  23.244  25.913  1.00  0.00     0.010 A 
ATOM     34  C   UNL A   1      42.445  22.477  28.198  1.00  0.00     0.010 A 
ATOM     35  C   UNL A   1      42.688  23.515  27.292  1.00  0.00    -0.014 A 
BRANCH  35  36
ATOM     36  C   UNL A   1      42.976  24.876  27.803  1.00  0.00     0.031 A 
ATOM     37  C   UNL A   1      44.398  25.320  28.003  1.00  0.00     0.074 A 
ATOM     38  C   UNL A   1      41.954  25.695  28.113  1.00  0.00     0.049 A 
ATOM     39  N   UNL A   1      44.850  26.476  28.419  1.00  0.00    -0.248 NA
ATOM     40  C   UNL A   1      45.452  24.330  27.728  1.00  0.00     0.031 C 
ATOM     41  C   UNL A   1      40.534  25.357  28.000  1.00  0.00     0.029 A 
ATOM     42  N   UNL A   1      41.955  26.984  28.575  1.00  0.00    -0.354 N 
ATOM     43  C   UNL A   1      46.233  26.344  28.463  1.00  0.00     0.074 A 
ATOM     44  C   UNL A   1      46.540  24.978  28.110  1.00  0.00     0.031 C 
ATOM     45  C   UNL A   1      39.801  26.434  28.323  1.00  0.00     0.029 A 
ATOM     46  C   UNL A   1      40.697  27.517  28.712  1.00  0.00     0.049 A 
ATOM     47  H   UNL A   1      42.778  27.481  28.787  1.00  0.00     0.167 HD
ATOM     48  C   UNL A   1      47.166  27.283  28.746  1.00  0.00     0.031 A 
ATOM     49  C   UNL A   1      40.311  28.746  29.099  1.00  0.00     0.031 A 
ATOM     50  C   UNL A   1      46.852  28.638  29.110  1.00  0.00     0.049 A 
ATOM     51  C   UNL A   1      41.361  29.762  29.447  1.00  0.00     0.074 A 
ATOM     52  C   UNL A   1      47.716  29.685  29.376  1.00  0.00     0.029 A 
ATOM     53  N   UNL A   1      45.563  29.130  29.269  1.00  0.00    -0.354 N 
ATOM     54  N   UNL A   1      42.667  29.647  29.412  1.00  0.00    -0.248 NA
ATOM     55  C   UNL A   1      40.882  31.082  29.877  1.00  0.00     0.031 C 
ATOM     56  C   UNL A   1      46.952  30.790  29.765  1.00  0.00     0.029 A 
ATOM     57  C   UNL A   1      45.610  30.456  29.663  1.00  0.00     0.049 A 
ATOM     58  H   UNL A   1      44.739  28.612  29.123  1.00  0.00     0.167 HD
ATOM     59  C   UNL A   1      43.167  30.889  29.784  1.00  0.00     0.074 A 
ATOM     60  C   UNL A   1      42.021  31.743  30.024  1.00  0.00     0.031 C 
ATOM     61  C   UNL A   1      44.457  31.287  29.909  1.00  0.00     0.031 A 
BRANCH  48  62
ATOM     62  C   UNL A   1      48.610  26.854  28.690  1.00  0.00    -0.014 A 
ATOM     63  C   UNL A   1      49.368  26.981  27.512  1.00  0.00     0.009 A 
ATOM     64  C   UNL A   1      49.221  26.305  29.828  1.00  0.00     0.009 A 
ATOM     65  C   UNL A   1      50.682  26.511  27.459  1.00  0.00     0.001 A 
ATOM     66  C   UNL A   1      50.548  25.872  29.782  1.00  0.00     0.001 A 
ATOM     67  C   UNL A   1      51.272  25.960  28.594  1.00  0.00     0.000 A 
ENDBRANCH  48  62
BRANCH  49  68
ATOM     68  C   UNL A   1      38.865  29.090  29.133  1.00  0.00    -0.014 A 
ATOM     69  C   UNL A   1      38.144  29.005  30.333  1.00  0.00     0.009 A 
ATOM     70  C   UNL A   1      38.204  29.529  27.975  1.00  0.00     0.009 A 
ATOM     71  C   UNL A   1      36.787  29.332  30.369  1.00  0.00     0.001 A 
ATOM     72  C   UNL A   1      36.855  29.886  28.021  1.00  0.00     0.001 A 
ATOM     73  C   UNL A   1      36.145  29.778  29.215  1.00  0.00     0.000 A 
ENDBRANCH  49  68
BRANCH  61  74
ATOM     74  C   UNL A   1      44.699  32.723  30.289  1.00  0.00    -0.014 A 
ATOM     75  C   UNL A   1      44.850  33.114  31.628  1.00  0.00     0.009 A 
ATOM     76  C   UNL A   1      44.816  33.693  29.281  1.00  0.00     0.009 A 
ATOM     77  C   UNL A   1      45.076  34.453  31.952  1.00  0.00     0.001 A 
ATOM     78  C   UNL A   1      45.079  35.025  29.604  1.00  0.00     0.001 A 
ATOM     79  C   UNL A   1      45.196  35.405  30.940  1.00  0.00     0.000 A 
ENDBRANCH  61  74
ENDBRANCH  35  36
ENDBRANCH  27  30
ENDBRANCH  25  26
ENDBRANCH  24  25
ENDBRANCH   1  24
TORSDOF 13
ENDMDL
