MODEL 1
REMARK VINA RESULT:     -12.1      0.000      0.000
REMARK SMILES CCCc1cc(C(N)=O)c(NC(=O)[C@H]2CC(C)=C(C)C[C@@H]2C(=O)NCCCNC(=O)c2ccc(-c3c4nc(c(-c5ccccc5)c5ccc([nH]5)c(-c5ccccc5)c5nc(c(-c6ccccc6)c6ccc3[nH]6)C=C5)C=C4)cc2)s1
REMARK SMILES IDX 25 1 24 2 22 3 23 4 21 6 14 7 15 8 16 9 20 10 17 11 18 12
REMARK SMILES IDX 19 13 12 14 11 15 13 17 10 18 4 19 5 20 79 21 6 22 3 23 2 24
REMARK SMILES IDX 1 25 7 26 8 27 9 28 26 31 27 32 28 33 29 34 30 36 31 37
REMARK SMILES IDX 32 38 78 39 33 40 77 41 34 42 35 43 36 44 71 45 37 46 76 47
REMARK SMILES IDX 70 48 72 49 38 50 75 51 69 52 68 53 39 55 61 56 46 57 60 58
REMARK SMILES IDX 47 59 50 60 59 61 73 62 48 63 49 64 58 66 74 67 51 68 40 69
REMARK SMILES IDX 41 70 45 71 42 72 44 73 43 74 62 75 63 76 67 77 64 78 66 79
REMARK SMILES IDX 65 80 52 81 53 82 57 83 54 84 56 85 55 86
REMARK H PARENT 24 5 11 16 8 29 8 30 28 35 72 54 50 65
REMARK Flexibility Score: inf
ROOT
ATOM      1  C   UNL A   1      36.246  20.331  25.045  1.00  0.00     0.117 C 
ENDROOT
BRANCH   1   2
ATOM      2  N   UNL A   1      35.215  19.335  24.864  1.00  0.00    -0.356 N 
ATOM      3  C   UNL A   1      33.878  19.504  24.660  1.00  0.00     0.224 C 
ATOM      4  O   UNL A   1      33.217  18.491  24.416  1.00  0.00    -0.275 OA
ATOM      5  H   UNL A   1      35.522  18.399  24.890  1.00  0.00     0.163 HD
BRANCH   3   6
ATOM      6  C   UNL A   1      33.181  20.861  24.837  1.00  0.00     0.095 C 
ATOM      7  C   UNL A   1      33.519  21.885  23.739  1.00  0.00     0.095 C 
ATOM      8  C   UNL A   1      34.278  23.165  24.145  1.00  0.00     0.045 C 
ATOM      9  C   UNL A   1      34.585  23.367  25.619  1.00  0.00    -0.074 C 
ATOM     10  C   UNL A   1      33.350  21.290  26.299  1.00  0.00     0.045 C 
ATOM     11  C   UNL A   1      35.416  24.594  25.902  1.00  0.00     0.039 C 
ATOM     12  C   UNL A   1      34.155  22.530  26.585  1.00  0.00    -0.074 C 
ATOM     13  C   UNL A   1      34.411  22.760  28.056  1.00  0.00     0.039 C 
BRANCH   7  14
ATOM     14  C   UNL A   1      32.355  22.019  22.747  1.00  0.00     0.229 C 
ATOM     15  N   UNL A   1      31.600  23.120  22.515  1.00  0.00    -0.317 N 
ATOM     16  H   UNL A   1      30.997  23.039  21.742  1.00  0.00     0.170 HD
ATOM     17  O   UNL A   1      32.100  21.044  22.022  1.00  0.00    -0.274 OA
BRANCH  15  18
ATOM     18  C   UNL A   1      31.525  24.328  23.163  1.00  0.00     0.108 A 
ATOM     19  C   UNL A   1      31.099  26.050  24.867  1.00  0.00     0.008 A 
ATOM     20  C   UNL A   1      31.645  26.571  23.712  1.00  0.00     0.031 A 
ATOM     21  S   UNL A   1      30.657  24.424  24.617  1.00  0.00    -0.122 S 
ATOM     22  C   UNL A   1      31.916  25.576  22.704  1.00  0.00     0.074 A 
BRANCH  19  23
ATOM     23  C   UNL A   1      30.792  26.725  26.171  1.00  0.00     0.046 C 
BRANCH  23  24
ATOM     24  C   UNL A   1      32.012  27.371  26.840  1.00  0.00     0.002 C 
ATOM     25  C   UNL A   1      31.863  28.862  27.107  1.00  0.00     0.004 C 
ENDBRANCH  23  24
ENDBRANCH  19  23
BRANCH  22  26
ATOM     26  C   UNL A   1      32.562  25.898  21.435  1.00  0.00     0.251 C 
ATOM     27  N   UNL A   1      31.816  25.776  20.299  1.00  0.00    -0.366 N 
ATOM     28  O   UNL A   1      33.744  26.223  21.357  1.00  0.00    -0.269 OA
ATOM     29  H   UNL A   1      30.868  25.515  20.358  1.00  0.00     0.159 HD
ATOM     30  H   UNL A   1      32.225  25.950  19.420  1.00  0.00     0.159 HD
ENDBRANCH  22  26
ENDBRANCH  15  18
ENDBRANCH   7  14
ENDBRANCH   3   6
ENDBRANCH   1   2
BRANCH   1  31
ATOM     31  C   UNL A   1      37.629  19.902  24.620  1.00  0.00     0.042 C 
BRANCH  31  32
ATOM     32  C   UNL A   1      38.715  20.313  25.590  1.00  0.00     0.118 C 
BRANCH  32  33
ATOM     33  N   UNL A   1      39.796  19.340  25.693  1.00  0.00    -0.352 N 
ATOM     34  C   UNL A   1      41.115  19.490  26.055  1.00  0.00     0.251 C 
ATOM     35  H   UNL A   1      39.539  18.417  25.466  1.00  0.00     0.163 HD
ATOM     36  O   UNL A   1      41.896  18.552  25.924  1.00  0.00    -0.269 OA
BRANCH  34  37
ATOM     37  C   UNL A   1      41.607  20.789  26.561  1.00  0.00     0.039 A 
ATOM     38  C   UNL A   1      41.914  21.808  25.655  1.00  0.00     0.014 A 
ATOM     39  C   UNL A   1      41.744  21.017  27.928  1.00  0.00     0.014 A 
ATOM     40  C   UNL A   1      42.260  23.076  26.132  1.00  0.00     0.010 A 
ATOM     41  C   UNL A   1      41.933  22.307  28.398  1.00  0.00     0.010 A 
ATOM     42  C   UNL A   1      42.217  23.351  27.508  1.00  0.00    -0.014 A 
BRANCH  42  43
ATOM     43  C   UNL A   1      42.498  24.703  28.051  1.00  0.00     0.031 A 
ATOM     44  C   UNL A   1      43.896  25.061  28.491  1.00  0.00     0.074 A 
ATOM     45  C   UNL A   1      41.491  25.582  28.222  1.00  0.00     0.049 A 
ATOM     46  N   UNL A   1      44.328  26.157  29.060  1.00  0.00    -0.248 NA
ATOM     47  C   UNL A   1      44.937  24.034  28.308  1.00  0.00     0.031 C 
ATOM     48  C   UNL A   1      40.082  25.339  27.900  1.00  0.00     0.029 A 
ATOM     49  N   UNL A   1      41.500  26.864  28.712  1.00  0.00    -0.354 N 
ATOM     50  C   UNL A   1      45.673  25.934  29.331  1.00  0.00     0.074 A 
ATOM     51  C   UNL A   1      45.969  24.578  28.932  1.00  0.00     0.031 C 
ATOM     52  C   UNL A   1      39.373  26.452  28.156  1.00  0.00     0.029 A 
ATOM     53  C   UNL A   1      40.267  27.469  28.697  1.00  0.00     0.049 A 
ATOM     54  H   UNL A   1      42.313  27.308  29.043  1.00  0.00     0.167 HD
ATOM     55  C   UNL A   1      46.593  26.790  29.834  1.00  0.00     0.031 A 
ATOM     56  C   UNL A   1      39.898  28.709  29.071  1.00  0.00     0.031 A 
ATOM     57  C   UNL A   1      46.309  28.153  30.193  1.00  0.00     0.049 A 
ATOM     58  C   UNL A   1      40.944  29.653  29.595  1.00  0.00     0.074 A 
ATOM     59  C   UNL A   1      47.181  29.125  30.648  1.00  0.00     0.029 A 
ATOM     60  N   UNL A   1      45.054  28.736  30.125  1.00  0.00    -0.354 N 
ATOM     61  N   UNL A   1      42.226  29.450  29.778  1.00  0.00    -0.248 NA
ATOM     62  C   UNL A   1      40.492  31.008  29.944  1.00  0.00     0.031 C 
ATOM     63  C   UNL A   1      46.445  30.288  30.893  1.00  0.00     0.029 A 
ATOM     64  C   UNL A   1      45.125  30.055  30.539  1.00  0.00     0.049 A 
ATOM     65  H   UNL A   1      44.233  28.281  29.826  1.00  0.00     0.167 HD
ATOM     66  C   UNL A   1      42.740  30.657  30.229  1.00  0.00     0.074 A 
ATOM     67  C   UNL A   1      41.634  31.591  30.278  1.00  0.00     0.031 C 
ATOM     68  C   UNL A   1      44.014  30.968  30.570  1.00  0.00     0.031 A 
BRANCH  55  69
ATOM     69  C   UNL A   1      47.994  26.273  30.012  1.00  0.00    -0.014 A 
ATOM     70  C   UNL A   1      48.433  25.771  31.250  1.00  0.00     0.009 A 
ATOM     71  C   UNL A   1      48.883  26.272  28.927  1.00  0.00     0.009 A 
ATOM     72  C   UNL A   1      49.745  25.321  31.406  1.00  0.00     0.001 A 
ATOM     73  C   UNL A   1      50.184  25.790  29.078  1.00  0.00     0.001 A 
ATOM     74  C   UNL A   1      50.618  25.326  30.320  1.00  0.00     0.000 A 
ENDBRANCH  55  69
BRANCH  56  75
ATOM     75  C   UNL A   1      38.485  29.146  28.923  1.00  0.00    -0.014 A 
ATOM     76  C   UNL A   1      38.022  29.644  27.694  1.00  0.00     0.009 A 
ATOM     77  C   UNL A   1      37.595  29.078  30.005  1.00  0.00     0.009 A 
ATOM     78  C   UNL A   1      36.706  30.094  27.561  1.00  0.00     0.001 A 
ATOM     79  C   UNL A   1      36.271  29.501  29.860  1.00  0.00     0.001 A 
ATOM     80  C   UNL A   1      35.832  30.019  28.642  1.00  0.00     0.000 A 
ENDBRANCH  56  75
BRANCH  68  81
ATOM     81  C   UNL A   1      44.289  32.389  30.975  1.00  0.00    -0.014 A 
ATOM     82  C   UNL A   1      44.253  32.788  32.320  1.00  0.00     0.009 A 
ATOM     83  C   UNL A   1      44.622  33.333  29.992  1.00  0.00     0.009 A 
ATOM     84  C   UNL A   1      44.508  34.115  32.667  1.00  0.00     0.001 A 
ATOM     85  C   UNL A   1      44.907  34.652  30.345  1.00  0.00     0.001 A 
ATOM     86  C   UNL A   1      44.839  35.045  31.680  1.00  0.00     0.000 A 
ENDBRANCH  68  81
ENDBRANCH  42  43
ENDBRANCH  34  37
ENDBRANCH  32  33
ENDBRANCH  31  32
ENDBRANCH   1  31
TORSDOF 15
ENDMDL
MODEL 2
REMARK VINA RESULT:     -11.9      2.639      4.017
REMARK SMILES CCCc1cc(C(N)=O)c(NC(=O)[C@H]2CC(C)=C(C)C[C@@H]2C(=O)NCCCNC(=O)c2ccc(-c3c4nc(c(-c5ccccc5)c5ccc([nH]5)c(-c5ccccc5)c5nc(c(-c6ccccc6)c6ccc3[nH]6)C=C5)C=C4)cc2)s1
REMARK SMILES IDX 25 1 24 2 22 3 23 4 21 6 14 7 15 8 16 9 20 10 17 11 18 12
REMARK SMILES IDX 19 13 12 14 11 15 13 17 10 18 4 19 5 20 79 21 6 22 3 23 2 24
REMARK SMILES IDX 1 25 7 26 8 27 9 28 26 31 27 32 28 33 29 34 30 36 31 37
REMARK SMILES IDX 32 38 78 39 33 40 77 41 34 42 35 43 36 44 71 45 37 46 76 47
REMARK SMILES IDX 70 48 72 49 38 50 75 51 69 52 68 53 39 55 61 56 46 57 60 58
REMARK SMILES IDX 47 59 50 60 59 61 73 62 48 63 49 64 58 66 74 67 51 68 40 69
REMARK SMILES IDX 41 70 45 71 42 72 44 73 43 74 62 75 63 76 67 77 64 78 66 79
REMARK SMILES IDX 65 80 52 81 53 82 57 83 54 84 56 85 55 86
REMARK H PARENT 24 5 11 16 8 29 8 30 28 35 72 54 50 65
REMARK Flexibility Score: inf
ROOT
ATOM      1  C   UNL A   1      34.313  24.929  24.674  1.00  0.00     0.117 C 
ENDROOT
BRANCH   1   2
ATOM      2  N   UNL A   1      33.410  24.862  23.547  1.00  0.00    -0.356 N 
ATOM      3  C   UNL A   1      32.179  24.285  23.462  1.00  0.00     0.224 C 
ATOM      4  O   UNL A   1      31.550  24.464  22.414  1.00  0.00    -0.275 OA
ATOM      5  H   UNL A   1      33.730  25.297  22.723  1.00  0.00     0.163 HD
BRANCH   3   6
ATOM      6  C   UNL A   1      31.625  23.354  24.549  1.00  0.00     0.095 C 
ATOM      7  C   UNL A   1      31.693  23.944  25.970  1.00  0.00     0.095 C 
ATOM      8  C   UNL A   1      32.596  23.245  27.007  1.00  0.00     0.045 C 
ATOM      9  C   UNL A   1      33.311  21.975  26.579  1.00  0.00    -0.074 C 
ATOM     10  C   UNL A   1      32.215  21.958  24.321  1.00  0.00     0.045 C 
ATOM     11  C   UNL A   1      34.247  21.424  27.627  1.00  0.00     0.039 C 
ATOM     12  C   UNL A   1      33.128  21.393  25.377  1.00  0.00    -0.074 C 
ATOM     13  C   UNL A   1      33.795  20.099  24.971  1.00  0.00     0.039 C 
BRANCH   7  14
ATOM     14  C   UNL A   1      30.306  24.421  26.425  1.00  0.00     0.229 C 
ATOM     15  N   UNL A   1      29.656  25.543  26.031  1.00  0.00    -0.317 N 
ATOM     16  H   UNL A   1      28.721  25.594  26.332  1.00  0.00     0.170 HD
ATOM     17  O   UNL A   1      29.664  23.682  27.188  1.00  0.00    -0.274 OA
BRANCH  15  18
ATOM     18  C   UNL A   1      30.067  26.621  25.287  1.00  0.00     0.108 A 
ATOM     19  C   UNL A   1      30.240  28.312  23.509  1.00  0.00     0.008 A 
ATOM     20  C   UNL A   1      31.181  28.489  24.502  1.00  0.00     0.031 A 
ATOM     21  S   UNL A   1      29.449  26.817  23.720  1.00  0.00    -0.122 S 
ATOM     22  C   UNL A   1      31.088  27.517  25.563  1.00  0.00     0.074 A 
BRANCH  19  23
ATOM     23  C   UNL A   1      29.932  29.168  22.317  1.00  0.00     0.046 C 
BRANCH  23  24
ATOM     24  C   UNL A   1      29.191  30.467  22.658  1.00  0.00     0.002 C 
ATOM     25  C   UNL A   1      27.784  30.262  23.202  1.00  0.00     0.004 C 
ENDBRANCH  23  24
ENDBRANCH  19  23
BRANCH  22  26
ATOM     26  C   UNL A   1      31.937  27.564  26.749  1.00  0.00     0.251 C 
ATOM     27  N   UNL A   1      33.283  27.688  26.557  1.00  0.00    -0.366 N 
ATOM     28  O   UNL A   1      31.492  27.453  27.888  1.00  0.00    -0.269 OA
ATOM     29  H   UNL A   1      33.644  27.777  25.645  1.00  0.00     0.159 HD
ATOM     30  H   UNL A   1      33.893  27.689  27.330  1.00  0.00     0.159 HD
ENDBRANCH  22  26
ENDBRANCH  15  18
ENDBRANCH   7  14
ENDBRANCH   3   6
ENDBRANCH   1   2
BRANCH   1  31
ATOM     31  C   UNL A   1      35.542  24.062  24.557  1.00  0.00     0.042 C 
BRANCH  31  32
ATOM     32  C   UNL A   1      36.315  23.931  25.851  1.00  0.00     0.118 C 
BRANCH  32  33
ATOM     33  N   UNL A   1      37.318  22.871  25.821  1.00  0.00    -0.352 N 
ATOM     34  C   UNL A   1      38.653  22.882  26.153  1.00  0.00     0.251 C 
ATOM     35  H   UNL A   1      36.982  22.000  25.511  1.00  0.00     0.163 HD
ATOM     36  O   UNL A   1      39.352  21.905  25.903  1.00  0.00    -0.269 OA
BRANCH  34  37
ATOM     37  C   UNL A   1      39.259  24.080  26.770  1.00  0.00     0.039 A 
ATOM     38  C   UNL A   1      39.981  24.974  25.974  1.00  0.00     0.014 A 
ATOM     39  C   UNL A   1      39.100  24.342  28.129  1.00  0.00     0.014 A 
ATOM     40  C   UNL A   1      40.449  26.169  26.527  1.00  0.00     0.010 A 
ATOM     41  C   UNL A   1      39.426  25.590  28.636  1.00  0.00     0.010 A 
ATOM     42  C   UNL A   1      40.126  26.512  27.849  1.00  0.00    -0.014 A 
BRANCH  42  43
ATOM     43  C   UNL A   1      40.535  27.807  28.450  1.00  0.00     0.031 A 
ATOM     44  C   UNL A   1      41.961  28.012  28.894  1.00  0.00     0.074 A 
ATOM     45  C   UNL A   1      39.615  28.767  28.668  1.00  0.00     0.049 A 
ATOM     46  N   UNL A   1      42.496  29.036  29.509  1.00  0.00    -0.248 NA
ATOM     47  C   UNL A   1      42.901  26.902  28.658  1.00  0.00     0.031 C 
ATOM     48  C   UNL A   1      38.189  28.672  28.347  1.00  0.00     0.029 A 
ATOM     49  N   UNL A   1      39.746  30.019  29.215  1.00  0.00    -0.354 N 
ATOM     50  C   UNL A   1      43.816  28.677  29.759  1.00  0.00     0.074 A 
ATOM     51  C   UNL A   1      43.982  27.318  29.297  1.00  0.00     0.031 C 
ATOM     52  C   UNL A   1      37.588  29.833  28.657  1.00  0.00     0.029 A 
ATOM     53  C   UNL A   1      38.575  30.737  29.236  1.00  0.00     0.049 A 
ATOM     54  H   UNL A   1      40.599  30.370  29.559  1.00  0.00     0.167 HD
ATOM     55  C   UNL A   1      44.814  29.419  30.293  1.00  0.00     0.031 A 
ATOM     56  C   UNL A   1      38.326  31.987  29.669  1.00  0.00     0.031 A 
ATOM     57  C   UNL A   1      44.660  30.784  30.715  1.00  0.00     0.049 A 
ATOM     58  C   UNL A   1      39.457  32.805  30.227  1.00  0.00     0.074 A 
ATOM     59  C   UNL A   1      45.621  31.649  31.206  1.00  0.00     0.029 A 
ATOM     60  N   UNL A   1      43.465  31.485  30.683  1.00  0.00    -0.354 N 
ATOM     61  N   UNL A   1      40.715  32.474  30.390  1.00  0.00    -0.248 NA
ATOM     62  C   UNL A   1      39.136  34.179  30.640  1.00  0.00     0.031 C 
ATOM     63  C   UNL A   1      44.998  32.863  31.509  1.00  0.00     0.029 A 
ATOM     64  C   UNL A   1      43.661  32.771  31.154  1.00  0.00     0.049 A 
ATOM     65  H   UNL A   1      42.604  31.123  30.370  1.00  0.00     0.167 HD
ATOM     66  C   UNL A   1      41.342  33.607  30.891  1.00  0.00     0.074 A 
ATOM     67  C   UNL A   1      40.328  34.637  30.991  1.00  0.00     0.031 C 
ATOM     68  C   UNL A   1      42.641  33.782  31.236  1.00  0.00     0.031 A 
BRANCH  55  69
ATOM     69  C   UNL A   1      46.161  28.765  30.437  1.00  0.00    -0.014 A 
ATOM     70  C   UNL A   1      47.134  28.875  29.429  1.00  0.00     0.009 A 
ATOM     71  C   UNL A   1      46.469  28.044  31.600  1.00  0.00     0.009 A 
ATOM     72  C   UNL A   1      48.369  28.240  29.565  1.00  0.00     0.001 A 
ATOM     73  C   UNL A   1      47.717  27.437  31.747  1.00  0.00     0.001 A 
ATOM     74  C   UNL A   1      48.662  27.525  30.724  1.00  0.00     0.000 A 
ENDBRANCH  55  69
BRANCH  56  75
ATOM     75  C   UNL A   1      36.959  32.561  29.552  1.00  0.00    -0.014 A 
ATOM     76  C   UNL A   1      36.037  32.415  30.600  1.00  0.00     0.009 A 
ATOM     77  C   UNL A   1      36.566  33.249  28.394  1.00  0.00     0.009 A 
ATOM     78  C   UNL A   1      34.739  32.917  30.479  1.00  0.00     0.001 A 
ATOM     79  C   UNL A   1      35.276  33.776  28.288  1.00  0.00     0.001 A 
ATOM     80  C   UNL A   1      34.361  33.600  29.325  1.00  0.00     0.000 A 
ENDBRANCH  56  75
BRANCH  68  81
ATOM     81  C   UNL A   1      43.049  35.151  31.702  1.00  0.00    -0.014 A 
ATOM     82  C   UNL A   1      42.963  35.521  33.053  1.00  0.00     0.009 A 
ATOM     83  C   UNL A   1      43.559  36.071  30.773  1.00  0.00     0.009 A 
ATOM     84  C   UNL A   1      43.345  36.801  33.456  1.00  0.00     0.001 A 
ATOM     85  C   UNL A   1      43.970  37.338  31.185  1.00  0.00     0.001 A 
ATOM     86  C   UNL A   1      43.852  37.706  32.524  1.00  0.00     0.000 A 
ENDBRANCH  68  81
ENDBRANCH  42  43
ENDBRANCH  34  37
ENDBRANCH  32  33
ENDBRANCH  31  32
ENDBRANCH   1  31
TORSDOF 15
ENDMDL
MODEL 3
REMARK VINA RESULT:     -11.8      2.122      7.606
REMARK SMILES CCCc1cc(C(N)=O)c(NC(=O)[C@H]2CC(C)=C(C)C[C@@H]2C(=O)NCCCNC(=O)c2ccc(-c3c4nc(c(-c5ccccc5)c5ccc([nH]5)c(-c5ccccc5)c5nc(c(-c6ccccc6)c6ccc3[nH]6)C=C5)C=C4)cc2)s1
REMARK SMILES IDX 25 1 24 2 22 3 23 4 21 6 14 7 15 8 16 9 20 10 17 11 18 12
REMARK SMILES IDX 19 13 12 14 11 15 13 17 10 18 4 19 5 20 79 21 6 22 3 23 2 24
REMARK SMILES IDX 1 25 7 26 8 27 9 28 26 31 27 32 28 33 29 34 30 36 31 37
REMARK SMILES IDX 32 38 78 39 33 40 77 41 34 42 35 43 36 44 71 45 37 46 76 47
REMARK SMILES IDX 70 48 72 49 38 50 75 51 69 52 68 53 39 55 61 56 46 57 60 58
REMARK SMILES IDX 47 59 50 60 59 61 73 62 48 63 49 64 58 66 74 67 51 68 40 69
REMARK SMILES IDX 41 70 45 71 42 72 44 73 43 74 62 75 63 76 67 77 64 78 66 79
REMARK SMILES IDX 65 80 52 81 53 82 57 83 54 84 56 85 55 86
REMARK H PARENT 24 5 11 16 8 29 8 30 28 35 72 54 50 65
REMARK Flexibility Score: inf
ROOT
ATOM      1  C   UNL A   1      32.388  26.982  26.791  1.00  0.00     0.117 C 
ENDROOT
BRANCH   1   2
ATOM      2  N   UNL A   1      31.176  26.223  27.005  1.00  0.00    -0.356 N 
ATOM      3  C   UNL A   1      30.393  25.576  26.097  1.00  0.00     0.224 C 
ATOM      4  O   UNL A   1      29.465  24.896  26.545  1.00  0.00    -0.275 OA
ATOM      5  H   UNL A   1      30.873  26.166  27.940  1.00  0.00     0.163 HD
BRANCH   3   6
ATOM      6  C   UNL A   1      30.559  25.760  24.582  1.00  0.00     0.095 C 
ATOM      7  C   UNL A   1      31.960  25.392  24.058  1.00  0.00     0.095 C 
ATOM      8  C   UNL A   1      32.825  26.511  23.444  1.00  0.00     0.045 C 
ATOM      9  C   UNL A   1      32.213  27.897  23.334  1.00  0.00    -0.074 C 
ATOM     10  C   UNL A   1      29.988  27.132  24.208  1.00  0.00     0.045 C 
ATOM     11  C   UNL A   1      33.171  28.942  22.816  1.00  0.00     0.039 C 
ATOM     12  C   UNL A   1      30.935  28.169  23.665  1.00  0.00    -0.074 C 
ATOM     13  C   UNL A   1      30.308  29.535  23.502  1.00  0.00     0.039 C 
BRANCH   7  14
ATOM     14  C   UNL A   1      31.932  24.030  23.350  1.00  0.00     0.229 C 
ATOM     15  N   UNL A   1      32.691  22.943  23.634  1.00  0.00    -0.317 N 
ATOM     16  H   UNL A   1      32.421  22.127  23.155  1.00  0.00     0.170 HD
ATOM     17  O   UNL A   1      31.085  23.861  22.458  1.00  0.00    -0.274 OA
BRANCH  15  18
ATOM     18  C   UNL A   1      33.767  22.776  24.469  1.00  0.00     0.108 A 
ATOM     19  C   UNL A   1      35.929  23.096  25.598  1.00  0.00     0.008 A 
ATOM     20  C   UNL A   1      35.244  21.994  26.067  1.00  0.00     0.031 A 
ATOM     21  S   UNL A   1      35.160  23.707  24.205  1.00  0.00    -0.122 S 
ATOM     22  C   UNL A   1      33.967  21.796  25.428  1.00  0.00     0.074 A 
BRANCH  19  23
ATOM     23  C   UNL A   1      37.213  23.703  26.080  1.00  0.00     0.046 C 
BRANCH  23  24
ATOM     24  C   UNL A   1      38.402  22.733  26.070  1.00  0.00     0.002 C 
ATOM     25  C   UNL A   1      38.186  21.485  25.225  1.00  0.00     0.004 C 
ENDBRANCH  23  24
ENDBRANCH  19  23
BRANCH  22  26
ATOM     26  C   UNL A   1      33.046  20.734  25.824  1.00  0.00     0.251 C 
ATOM     27  N   UNL A   1      33.313  20.071  26.987  1.00  0.00    -0.366 N 
ATOM     28  O   UNL A   1      32.087  20.397  25.136  1.00  0.00    -0.269 OA
ATOM     29  H   UNL A   1      34.081  20.337  27.542  1.00  0.00     0.159 HD
ATOM     30  H   UNL A   1      32.736  19.324  27.272  1.00  0.00     0.159 HD
ENDBRANCH  22  26
ENDBRANCH  15  18
ENDBRANCH   7  14
ENDBRANCH   3   6
ENDBRANCH   1   2
BRANCH   1  31
ATOM     31  C   UNL A   1      32.330  28.418  27.249  1.00  0.00     0.042 C 
BRANCH  31  32
ATOM     32  C   UNL A   1      33.602  29.191  26.979  1.00  0.00     0.118 C 
BRANCH  32  33
ATOM     33  N   UNL A   1      33.668  30.463  27.691  1.00  0.00    -0.352 N 
ATOM     34  C   UNL A   1      34.657  31.009  28.476  1.00  0.00     0.251 C 
ATOM     35  H   UNL A   1      32.868  31.028  27.592  1.00  0.00     0.163 HD
ATOM     36  O   UNL A   1      34.438  32.037  29.109  1.00  0.00    -0.269 OA
BRANCH  34  37
ATOM     37  C   UNL A   1      35.971  30.339  28.594  1.00  0.00     0.039 A 
ATOM     38  C   UNL A   1      36.860  30.374  27.516  1.00  0.00     0.014 A 
ATOM     39  C   UNL A   1      36.341  29.697  29.773  1.00  0.00     0.014 A 
ATOM     40  C   UNL A   1      38.147  29.852  27.664  1.00  0.00     0.010 A 
ATOM     41  C   UNL A   1      37.661  29.322  29.970  1.00  0.00     0.010 A 
ATOM     42  C   UNL A   1      38.577  29.372  28.912  1.00  0.00    -0.014 A 
BRANCH  42  43
ATOM     43  C   UNL A   1      39.961  28.883  29.134  1.00  0.00     0.031 A 
ATOM     44  C   UNL A   1      40.987  29.792  29.762  1.00  0.00     0.074 A 
ATOM     45  C   UNL A   1      40.318  27.657  28.705  1.00  0.00     0.049 A 
ATOM     46  N   UNL A   1      42.263  29.581  29.968  1.00  0.00    -0.248 NA
ATOM     47  C   UNL A   1      40.532  31.133  30.170  1.00  0.00     0.031 C 
ATOM     48  C   UNL A   1      39.440  26.702  28.023  1.00  0.00     0.029 A 
ATOM     49  N   UNL A   1      41.521  27.002  28.780  1.00  0.00    -0.354 N 
ATOM     50  C   UNL A   1      42.760  30.768  30.494  1.00  0.00     0.074 A 
ATOM     51  C   UNL A   1      41.670  31.716  30.509  1.00  0.00     0.031 C 
ATOM     52  C   UNL A   1      40.121  25.568  27.787  1.00  0.00     0.029 A 
ATOM     53  C   UNL A   1      41.490  25.730  28.262  1.00  0.00     0.049 A 
ATOM     54  H   UNL A   1      42.330  27.404  29.169  1.00  0.00     0.167 HD
ATOM     55  C   UNL A   1      44.002  31.039  30.958  1.00  0.00     0.031 A 
ATOM     56  C   UNL A   1      42.456  24.795  28.183  1.00  0.00     0.031 A 
ATOM     57  C   UNL A   1      45.075  30.084  30.982  1.00  0.00     0.049 A 
ATOM     58  C   UNL A   1      43.819  25.107  28.736  1.00  0.00     0.074 A 
ATOM     59  C   UNL A   1      46.352  30.233  31.492  1.00  0.00     0.029 A 
ATOM     60  N   UNL A   1      44.988  28.794  30.482  1.00  0.00    -0.354 N 
ATOM     61  N   UNL A   1      44.252  26.210  29.296  1.00  0.00    -0.248 NA
ATOM     62  C   UNL A   1      44.820  24.033  28.665  1.00  0.00     0.031 C 
ATOM     63  C   UNL A   1      47.052  29.044  31.265  1.00  0.00     0.029 A 
ATOM     64  C   UNL A   1      46.193  28.138  30.663  1.00  0.00     0.049 A 
ATOM     65  H   UNL A   1      44.189  28.403  30.061  1.00  0.00     0.167 HD
ATOM     66  C   UNL A   1      45.562  25.953  29.674  1.00  0.00     0.074 A 
ATOM     67  C   UNL A   1      45.847  24.584  29.294  1.00  0.00     0.031 C 
ATOM     68  C   UNL A   1      46.451  26.773  30.285  1.00  0.00     0.031 A 
BRANCH  55  69
ATOM     69  C   UNL A   1      44.255  32.424  31.487  1.00  0.00    -0.014 A 
ATOM     70  C   UNL A   1      44.711  33.453  30.644  1.00  0.00     0.009 A 
ATOM     71  C   UNL A   1      44.022  32.711  32.840  1.00  0.00     0.009 A 
ATOM     72  C   UNL A   1      44.968  34.726  31.156  1.00  0.00     0.001 A 
ATOM     73  C   UNL A   1      44.249  33.993  33.342  1.00  0.00     0.001 A 
ATOM     74  C   UNL A   1      44.733  34.996  32.502  1.00  0.00     0.000 A 
ENDBRANCH  55  69
BRANCH  56  75
ATOM     75  C   UNL A   1      42.160  23.460  27.599  1.00  0.00    -0.014 A 
ATOM     76  C   UNL A   1      42.471  23.190  26.257  1.00  0.00     0.009 A 
ATOM     77  C   UNL A   1      41.560  22.454  28.371  1.00  0.00     0.009 A 
ATOM     78  C   UNL A   1      42.159  21.951  25.691  1.00  0.00     0.001 A 
ATOM     79  C   UNL A   1      41.276  21.206  27.811  1.00  0.00     0.001 A 
ATOM     80  C   UNL A   1      41.565  20.960  26.470  1.00  0.00     0.000 A 
ENDBRANCH  56  75
BRANCH  68  81
ATOM     81  C   UNL A   1      47.795  26.196  30.627  1.00  0.00    -0.014 A 
ATOM     82  C   UNL A   1      48.077  25.705  31.911  1.00  0.00     0.009 A 
ATOM     83  C   UNL A   1      48.782  26.114  29.633  1.00  0.00     0.009 A 
ATOM     84  C   UNL A   1      49.336  25.178  32.201  1.00  0.00     0.001 A 
ATOM     85  C   UNL A   1      50.029  25.559  29.918  1.00  0.00     0.001 A 
ATOM     86  C   UNL A   1      50.309  25.101  31.204  1.00  0.00     0.000 A 
ENDBRANCH  68  81
ENDBRANCH  42  43
ENDBRANCH  34  37
ENDBRANCH  32  33
ENDBRANCH  31  32
ENDBRANCH   1  31
TORSDOF 15
ENDMDL
