MODEL 1
REMARK VINA RESULT:     -10.2      0.000      0.000
REMARK SMILES C=CCN(CC(=O)NCCCNC(=O)c1ccc(-c2c3nc(c(-c4ccccc4)c4ccc([nH]4)c(-c4ccccc4)c4nc(c(-c5ccccc5)c5ccc2[nH]5)C=C4)C=C3)cc1)C(=O)N(C)[C@H]1CCC[N@H+](C)C1
REMARK SMILES IDX 9 1 8 2 6 3 7 4 5 6 4 7 3 8 2 9 1 10 63 11 64 12 65 13 66 14
REMARK SMILES IDX 67 15 68 16 73 17 69 18 71 19 70 20 72 21 10 23 11 24 12 25
REMARK SMILES IDX 13 26 14 28 15 29 16 30 62 31 17 32 61 33 18 34 19 35 20 36
REMARK SMILES IDX 55 37 21 38 60 39 54 40 56 41 22 42 59 43 53 44 52 45 23 47
REMARK SMILES IDX 45 48 30 49 44 50 31 51 34 52 43 53 57 54 32 55 33 56 42 58
REMARK SMILES IDX 58 59 35 60 24 61 25 62 29 63 26 64 28 65 27 66 46 67 47 68
REMARK SMILES IDX 51 69 48 70 50 71 49 72 36 73 37 74 41 75 38 76 40 77 39 78
REMARK H PARENT 8 5 71 22 12 27 56 46 34 57
REMARK Flexibility Score: inf
ROOT
ATOM      1  C   UNL A   1      31.728  30.654  26.028  1.00  0.00     0.117 C 
ENDROOT
BRANCH   1   2
ATOM      2  N   UNL A   1      30.946  30.275  24.869  1.00  0.00    -0.354 N 
ATOM      3  C   UNL A   1      31.140  29.243  23.997  1.00  0.00     0.239 C 
ATOM      4  O   UNL A   1      30.169  28.879  23.326  1.00  0.00    -0.273 OA
ATOM      5  H   UNL A   1      30.163  30.842  24.684  1.00  0.00     0.163 HD
BRANCH   3   6
ATOM      6  C   UNL A   1      32.468  28.472  23.939  1.00  0.00     0.221 C 
BRANCH   6   7
ATOM      7  N   UNL A   1      32.447  27.179  24.627  1.00  0.00    -0.312 N 
BRANCH   7   8
ATOM      8  C   UNL A   1      32.755  27.224  26.063  1.00  0.00     0.149 C 
BRANCH   8   9
ATOM      9  C   UNL A   1      34.090  27.863  26.311  1.00  0.00    -0.013 C 
ATOM     10  C   UNL A   1      34.297  28.781  27.267  1.00  0.00     0.006 C 
ENDBRANCH   8   9
ENDBRANCH   7   8
BRANCH   7  11
ATOM     11  C   UNL A   1      32.219  25.916  24.101  1.00  0.00     0.320 C 
ATOM     12  O   UNL A   1      31.277  25.280  24.591  1.00  0.00    -0.248 OA
BRANCH  11  13
ATOM     13  N   UNL A   1      32.985  25.367  23.086  1.00  0.00    -0.319 N 
ATOM     14  C   UNL A   1      32.854  25.648  21.661  1.00  0.00     0.149 C 
BRANCH  13  15
ATOM     15  C   UNL A   1      34.143  24.452  23.381  1.00  0.00     0.141 C 
ATOM     16  C   UNL A   1      34.911  24.561  24.716  1.00  0.00     0.037 C 
ATOM     17  C   UNL A   1      33.754  22.954  23.195  1.00  0.00     0.287 C 
ATOM     18  C   UNL A   1      34.206  23.871  25.891  1.00  0.00     0.064 C 
ATOM     19  N   UNL A   1      32.919  22.465  24.302  1.00  0.00    -0.336 N 
ATOM     20  C   UNL A   1      33.693  22.472  25.549  1.00  0.00     0.262 C 
ATOM     21  C   UNL A   1      32.401  21.131  24.015  1.00  0.00     0.332 C 
ATOM     22  H   UNL A   1      32.118  23.088  24.409  1.00  0.00     0.347 HD
ENDBRANCH  13  15
ENDBRANCH  11  13
ENDBRANCH   7  11
ENDBRANCH   6   7
ENDBRANCH   3   6
ENDBRANCH   1   2
BRANCH   1  23
ATOM     23  C   UNL A   1      31.447  32.066  26.527  1.00  0.00     0.042 C 
BRANCH  23  24
ATOM     24  C   UNL A   1      32.577  32.685  27.344  1.00  0.00     0.118 C 
BRANCH  24  25
ATOM     25  N   UNL A   1      32.359  34.099  27.624  1.00  0.00    -0.352 N 
ATOM     26  C   UNL A   1      32.962  34.938  28.528  1.00  0.00     0.251 C 
ATOM     27  H   UNL A   1      31.664  34.523  27.073  1.00  0.00     0.163 HD
ATOM     28  O   UNL A   1      32.474  36.042  28.749  1.00  0.00    -0.269 OA
BRANCH  26  29
ATOM     29  C   UNL A   1      34.182  34.520  29.251  1.00  0.00     0.039 A 
ATOM     30  C   UNL A   1      34.057  34.018  30.549  1.00  0.00     0.014 A 
ATOM     31  C   UNL A   1      35.445  34.645  28.668  1.00  0.00     0.014 A 
ATOM     32  C   UNL A   1      35.189  33.555  31.227  1.00  0.00     0.010 A 
ATOM     33  C   UNL A   1      36.562  34.121  29.315  1.00  0.00     0.010 A 
ATOM     34  C   UNL A   1      36.441  33.554  30.592  1.00  0.00    -0.014 A 
BRANCH  34  35
ATOM     35  C   UNL A   1      37.623  32.909  31.215  1.00  0.00     0.031 A 
ATOM     36  C   UNL A   1      38.244  31.688  30.598  1.00  0.00     0.074 A 
ATOM     37  C   UNL A   1      38.077  33.373  32.396  1.00  0.00     0.049 A 
ATOM     38  N   UNL A   1      39.206  30.930  31.060  1.00  0.00    -0.248 NA
ATOM     39  C   UNL A   1      37.701  31.251  29.302  1.00  0.00     0.031 C 
ATOM     40  C   UNL A   1      37.540  34.533  33.113  1.00  0.00     0.029 A 
ATOM     41  N   UNL A   1      39.081  32.916  33.212  1.00  0.00    -0.354 N 
ATOM     42  C   UNL A   1      39.375  29.920  30.122  1.00  0.00     0.074 A 
ATOM     43  C   UNL A   1      38.390  30.139  29.084  1.00  0.00     0.031 C 
ATOM     44  C   UNL A   1      38.230  34.704  34.251  1.00  0.00     0.029 A 
ATOM     45  C   UNL A   1      39.218  33.637  34.374  1.00  0.00     0.049 A 
ATOM     46  H   UNL A   1      39.650  32.143  32.987  1.00  0.00     0.167 HD
ATOM     47  C   UNL A   1      40.276  28.908  30.120  1.00  0.00     0.031 A 
ATOM     48  C   UNL A   1      40.027  33.449  35.432  1.00  0.00     0.031 A 
ATOM     49  C   UNL A   1      41.249  28.689  31.158  1.00  0.00     0.049 A 
ATOM     50  C   UNL A   1      40.974  32.283  35.432  1.00  0.00     0.074 A 
ATOM     51  C   UNL A   1      42.242  27.726  31.217  1.00  0.00     0.029 A 
ATOM     52  N   UNL A   1      41.343  29.432  32.324  1.00  0.00    -0.354 N 
ATOM     53  N   UNL A   1      41.173  31.381  34.503  1.00  0.00    -0.248 NA
ATOM     54  C   UNL A   1      41.808  32.109  36.631  1.00  0.00     0.031 C 
ATOM     55  C   UNL A   1      42.893  27.846  32.449  1.00  0.00     0.029 A 
ATOM     56  C   UNL A   1      42.347  28.922  33.130  1.00  0.00     0.049 A 
ATOM     57  H   UNL A   1      40.780  30.208  32.546  1.00  0.00     0.167 HD
ATOM     58  C   UNL A   1      42.163  30.540  34.996  1.00  0.00     0.074 A 
ATOM     59  C   UNL A   1      42.542  31.057  36.296  1.00  0.00     0.031 C 
ATOM     60  C   UNL A   1      42.705  29.438  34.426  1.00  0.00     0.031 A 
BRANCH  47  61
ATOM     61  C   UNL A   1      40.240  27.946  28.964  1.00  0.00    -0.014 A 
ATOM     62  C   UNL A   1      39.500  26.756  29.030  1.00  0.00     0.009 A 
ATOM     63  C   UNL A   1      40.918  28.258  27.775  1.00  0.00     0.009 A 
ATOM     64  C   UNL A   1      39.468  25.881  27.941  1.00  0.00     0.001 A 
ATOM     65  C   UNL A   1      40.860  27.397  26.678  1.00  0.00     0.001 A 
ATOM     66  C   UNL A   1      40.143  26.205  26.765  1.00  0.00     0.000 A 
ENDBRANCH  47  61
BRANCH  48  67
ATOM     67  C   UNL A   1      39.963  34.376  36.592  1.00  0.00    -0.014 A 
ATOM     68  C   UNL A   1      39.103  34.114  37.668  1.00  0.00     0.009 A 
ATOM     69  C   UNL A   1      40.759  35.533  36.628  1.00  0.00     0.009 A 
ATOM     70  C   UNL A   1      39.022  35.002  38.744  1.00  0.00     0.001 A 
ATOM     71  C   UNL A   1      40.700  36.402  37.718  1.00  0.00     0.001 A 
ATOM     72  C   UNL A   1      39.824  36.142  38.771  1.00  0.00     0.000 A 
ENDBRANCH  48  67
BRANCH  60  73
ATOM     73  C   UNL A   1      43.774  28.718  35.200  1.00  0.00    -0.014 A 
ATOM     74  C   UNL A   1      43.453  27.672  36.078  1.00  0.00     0.009 A 
ATOM     75  C   UNL A   1      45.123  29.060  35.011  1.00  0.00     0.009 A 
ATOM     76  C   UNL A   1      44.460  26.998  36.772  1.00  0.00     0.001 A 
ATOM     77  C   UNL A   1      46.129  28.364  35.684  1.00  0.00     0.001 A 
ATOM     78  C   UNL A   1      45.796  27.339  36.568  1.00  0.00     0.000 A 
ENDBRANCH  60  73
ENDBRANCH  34  35
ENDBRANCH  26  29
ENDBRANCH  24  25
ENDBRANCH  23  24
ENDBRANCH   1  23
TORSDOF 16
ENDMDL
MODEL 2
REMARK VINA RESULT:     -10.2      4.499      9.459
REMARK SMILES C=CCN(CC(=O)NCCCNC(=O)c1ccc(-c2c3nc(c(-c4ccccc4)c4ccc([nH]4)c(-c4ccccc4)c4nc(c(-c5ccccc5)c5ccc2[nH]5)C=C4)C=C3)cc1)C(=O)N(C)[C@H]1CCC[N@H+](C)C1
REMARK SMILES IDX 9 1 8 2 6 3 7 4 5 6 4 7 3 8 2 9 1 10 63 11 64 12 65 13 66 14
REMARK SMILES IDX 67 15 68 16 73 17 69 18 71 19 70 20 72 21 10 23 11 24 12 25
REMARK SMILES IDX 13 26 14 28 15 29 16 30 62 31 17 32 61 33 18 34 19 35 20 36
REMARK SMILES IDX 55 37 21 38 60 39 54 40 56 41 22 42 59 43 53 44 52 45 23 47
REMARK SMILES IDX 45 48 30 49 44 50 31 51 34 52 43 53 57 54 32 55 33 56 42 58
REMARK SMILES IDX 58 59 35 60 24 61 25 62 29 63 26 64 28 65 27 66 46 67 47 68
REMARK SMILES IDX 51 69 48 70 50 71 49 72 36 73 37 74 41 75 38 76 40 77 39 78
REMARK H PARENT 8 5 71 22 12 27 56 46 34 57
REMARK Flexibility Score: inf
ROOT
ATOM      1  C   UNL A   1      35.751  20.650  24.993  1.00  0.00     0.117 C 
ENDROOT
BRANCH   1   2
ATOM      2  N   UNL A   1      35.463  21.221  26.292  1.00  0.00    -0.354 N 
ATOM      3  C   UNL A   1      34.333  21.852  26.726  1.00  0.00     0.239 C 
ATOM      4  O   UNL A   1      34.155  21.918  27.947  1.00  0.00    -0.273 OA
ATOM      5  H   UNL A   1      36.185  21.145  26.957  1.00  0.00     0.163 HD
BRANCH   3   6
ATOM      6  C   UNL A   1      33.254  22.343  25.748  1.00  0.00     0.221 C 
BRANCH   6   7
ATOM      7  N   UNL A   1      33.048  23.793  25.754  1.00  0.00    -0.312 N 
BRANCH   7   8
ATOM      8  C   UNL A   1      34.209  24.598  25.350  1.00  0.00     0.149 C 
BRANCH   8   9
ATOM      9  C   UNL A   1      34.676  24.221  23.974  1.00  0.00    -0.013 C 
ATOM     10  C   UNL A   1      33.838  24.006  22.949  1.00  0.00     0.006 C 
ENDBRANCH   8   9
ENDBRANCH   7   8
BRANCH   7  11
ATOM     11  C   UNL A   1      31.920  24.511  26.128  1.00  0.00     0.320 C 
ATOM     12  O   UNL A   1      31.430  24.227  27.228  1.00  0.00    -0.248 OA
BRANCH  11  13
ATOM     13  N   UNL A   1      31.351  25.494  25.336  1.00  0.00    -0.319 N 
ATOM     14  C   UNL A   1      30.703  25.292  24.046  1.00  0.00     0.149 C 
BRANCH  13  15
ATOM     15  C   UNL A   1      31.264  26.924  25.798  1.00  0.00     0.141 C 
ATOM     16  C   UNL A   1      32.199  27.450  26.908  1.00  0.00     0.037 C 
ATOM     17  C   UNL A   1      31.360  27.921  24.604  1.00  0.00     0.287 C 
ATOM     18  C   UNL A   1      33.605  27.810  26.411  1.00  0.00     0.064 C 
ATOM     19  N   UNL A   1      32.736  28.035  24.097  1.00  0.00    -0.336 N 
ATOM     20  C   UNL A   1      33.596  28.635  25.124  1.00  0.00     0.262 C 
ATOM     21  C   UNL A   1      32.775  28.812  22.862  1.00  0.00     0.332 C 
ATOM     22  H   UNL A   1      33.085  27.100  23.883  1.00  0.00     0.347 HD
ENDBRANCH  13  15
ENDBRANCH  11  13
ENDBRANCH   7  11
ENDBRANCH   6   7
ENDBRANCH   3   6
ENDBRANCH   1   2
BRANCH   1  23
ATOM     23  C   UNL A   1      37.187  20.865  24.528  1.00  0.00     0.042 C 
BRANCH  23  24
ATOM     24  C   UNL A   1      38.201  21.019  25.656  1.00  0.00     0.118 C 
BRANCH  24  25
ATOM     25  N   UNL A   1      39.195  19.953  25.667  1.00  0.00    -0.352 N 
ATOM     26  C   UNL A   1      40.534  19.978  25.970  1.00  0.00     0.251 C 
ATOM     27  H   UNL A   1      38.849  19.067  25.417  1.00  0.00     0.163 HD
ATOM     28  O   UNL A   1      41.233  19.005  25.703  1.00  0.00    -0.269 OA
BRANCH  26  29
ATOM     29  C   UNL A   1      41.146  21.169  26.596  1.00  0.00     0.039 A 
ATOM     30  C   UNL A   1      41.769  22.115  25.777  1.00  0.00     0.014 A 
ATOM     31  C   UNL A   1      41.134  21.344  27.981  1.00  0.00     0.014 A 
ATOM     32  C   UNL A   1      42.296  23.281  26.339  1.00  0.00     0.010 A 
ATOM     33  C   UNL A   1      41.596  22.536  28.533  1.00  0.00     0.010 A 
ATOM     34  C   UNL A   1      42.164  23.524  27.715  1.00  0.00    -0.014 A 
BRANCH  34  35
ATOM     35  C   UNL A   1      42.553  24.826  28.312  1.00  0.00     0.031 A 
ATOM     36  C   UNL A   1      41.533  25.909  28.519  1.00  0.00     0.074 A 
ATOM     37  C   UNL A   1      43.852  25.063  28.579  1.00  0.00     0.049 A 
ATOM     38  N   UNL A   1      41.710  27.142  28.921  1.00  0.00    -0.248 NA
ATOM     39  C   UNL A   1      40.134  25.568  28.217  1.00  0.00     0.031 C 
ATOM     40  C   UNL A   1      44.944  24.103  28.393  1.00  0.00     0.029 A 
ATOM     41  N   UNL A   1      44.480  26.190  29.045  1.00  0.00    -0.354 N 
ATOM     42  C   UNL A   1      40.452  27.729  28.907  1.00  0.00     0.074 A 
ATOM     43  C   UNL A   1      39.525  26.729  28.419  1.00  0.00     0.031 C 
ATOM     44  C   UNL A   1      46.101  24.676  28.757  1.00  0.00     0.029 A 
ATOM     45  C   UNL A   1      45.844  26.059  29.146  1.00  0.00     0.049 A 
ATOM     46  H   UNL A   1      43.998  27.016  29.285  1.00  0.00     0.167 HD
ATOM     47  C   UNL A   1      40.099  28.983  29.278  1.00  0.00     0.031 A 
ATOM     48  C   UNL A   1      46.788  26.955  29.488  1.00  0.00     0.031 A 
ATOM     49  C   UNL A   1      41.024  29.977  29.755  1.00  0.00     0.049 A 
ATOM     50  C   UNL A   1      46.375  28.358  29.835  1.00  0.00     0.074 A 
ATOM     51  C   UNL A   1      40.754  31.257  30.208  1.00  0.00     0.029 A 
ATOM     52  N   UNL A   1      42.398  29.809  29.826  1.00  0.00    -0.354 N 
ATOM     53  N   UNL A   1      45.173  28.875  29.888  1.00  0.00    -0.248 NA
ATOM     54  C   UNL A   1      47.454  29.301  30.165  1.00  0.00     0.031 C 
ATOM     55  C   UNL A   1      41.971  31.885  30.491  1.00  0.00     0.029 A 
ATOM     56  C   UNL A   1      42.995  30.977  30.273  1.00  0.00     0.049 A 
ATOM     57  H   UNL A   1      42.879  28.983  29.593  1.00  0.00     0.167 HD
ATOM     58  C   UNL A   1      45.346  30.199  30.273  1.00  0.00     0.074 A 
ATOM     59  C   UNL A   1      46.769  30.397  30.463  1.00  0.00     0.031 C 
ATOM     60  C   UNL A   1      44.411  31.164  30.447  1.00  0.00     0.031 A 
BRANCH  47  61
ATOM     61  C   UNL A   1      38.647  29.360  29.163  1.00  0.00    -0.014 A 
ATOM     62  C   UNL A   1      37.782  29.269  30.265  1.00  0.00     0.009 A 
ATOM     63  C   UNL A   1      38.148  29.858  27.949  1.00  0.00     0.009 A 
ATOM     64  C   UNL A   1      36.439  29.636  30.142  1.00  0.00     0.001 A 
ATOM     65  C   UNL A   1      36.814  30.252  27.838  1.00  0.00     0.001 A 
ATOM     66  C   UNL A   1      35.958  30.131  28.931  1.00  0.00     0.000 A 
ENDBRANCH  47  61
BRANCH  48  67
ATOM     67  C   UNL A   1      48.221  26.560  29.500  1.00  0.00    -0.014 A 
ATOM     68  C   UNL A   1      48.796  26.001  30.650  1.00  0.00     0.009 A 
ATOM     69  C   UNL A   1      49.024  26.744  28.362  1.00  0.00     0.009 A 
ATOM     70  C   UNL A   1      50.150  25.658  30.671  1.00  0.00     0.001 A 
ATOM     71  C   UNL A   1      50.369  26.371  28.374  1.00  0.00     0.001 A 
ATOM     72  C   UNL A   1      50.934  25.838  29.531  1.00  0.00     0.000 A 
ENDBRANCH  48  67
BRANCH  60  73
ATOM     73  C   UNL A   1      44.897  32.521  30.873  1.00  0.00    -0.014 A 
ATOM     74  C   UNL A   1      45.045  32.844  32.230  1.00  0.00     0.009 A 
ATOM     75  C   UNL A   1      45.257  33.470  29.904  1.00  0.00     0.009 A 
ATOM     76  C   UNL A   1      45.520  34.101  32.610  1.00  0.00     0.001 A 
ATOM     77  C   UNL A   1      45.759  34.715  30.286  1.00  0.00     0.001 A 
ATOM     78  C   UNL A   1      45.884  35.032  31.638  1.00  0.00     0.000 A 
ENDBRANCH  60  73
ENDBRANCH  34  35
ENDBRANCH  26  29
ENDBRANCH  24  25
ENDBRANCH  23  24
ENDBRANCH   1  23
TORSDOF 16
ENDMDL
MODEL 3
REMARK VINA RESULT:     -10.1      1.890      2.622
REMARK SMILES C=CCN(CC(=O)NCCCNC(=O)c1ccc(-c2c3nc(c(-c4ccccc4)c4ccc([nH]4)c(-c4ccccc4)c4nc(c(-c5ccccc5)c5ccc2[nH]5)C=C4)C=C3)cc1)C(=O)N(C)[C@H]1CCC[N@H+](C)C1
REMARK SMILES IDX 9 1 8 2 6 3 7 4 5 6 4 7 3 8 2 9 1 10 63 11 64 12 65 13 66 14
REMARK SMILES IDX 67 15 68 16 73 17 69 18 71 19 70 20 72 21 10 23 11 24 12 25
REMARK SMILES IDX 13 26 14 28 15 29 16 30 62 31 17 32 61 33 18 34 19 35 20 36
REMARK SMILES IDX 55 37 21 38 60 39 54 40 56 41 22 42 59 43 53 44 52 45 23 47
REMARK SMILES IDX 45 48 30 49 44 50 31 51 34 52 43 53 57 54 32 55 33 56 42 58
REMARK SMILES IDX 58 59 35 60 24 61 25 62 29 63 26 64 28 65 27 66 46 67 47 68
REMARK SMILES IDX 51 69 48 70 50 71 49 72 36 73 37 74 41 75 38 76 40 77 39 78
REMARK H PARENT 8 5 71 22 12 27 56 46 34 57
REMARK Flexibility Score: inf
ROOT
ATOM      1  C   UNL A   1      31.964  29.538  25.529  1.00  0.00     0.117 C 
ENDROOT
BRANCH   1   2
ATOM      2  N   UNL A   1      33.056  29.613  24.580  1.00  0.00    -0.354 N 
ATOM      3  C   UNL A   1      33.665  28.608  23.885  1.00  0.00     0.239 C 
ATOM      4  O   UNL A   1      34.297  28.924  22.871  1.00  0.00    -0.273 OA
ATOM      5  H   UNL A   1      33.409  30.516  24.411  1.00  0.00     0.163 HD
BRANCH   3   6
ATOM      6  C   UNL A   1      33.471  27.131  24.261  1.00  0.00     0.221 C 
BRANCH   6   7
ATOM      7  N   UNL A   1      32.833  26.321  23.221  1.00  0.00    -0.312 N 
BRANCH   7   8
ATOM      8  C   UNL A   1      31.672  26.938  22.563  1.00  0.00     0.149 C 
BRANCH   8   9
ATOM      9  C   UNL A   1      30.397  26.583  23.271  1.00  0.00    -0.013 C 
ATOM     10  C   UNL A   1      29.443  27.482  23.556  1.00  0.00     0.006 C 
ENDBRANCH   8   9
ENDBRANCH   7   8
BRANCH   7  11
ATOM     11  C   UNL A   1      33.148  25.036  22.801  1.00  0.00     0.320 C 
ATOM     12  O   UNL A   1      33.454  24.909  21.610  1.00  0.00    -0.248 OA
BRANCH  11  13
ATOM     13  N   UNL A   1      33.127  23.938  23.644  1.00  0.00    -0.319 N 
ATOM     14  C   UNL A   1      32.037  23.557  24.535  1.00  0.00     0.149 C 
BRANCH  13  15
ATOM     15  C   UNL A   1      34.248  22.934  23.656  1.00  0.00     0.141 C 
ATOM     16  C   UNL A   1      35.720  23.398  23.628  1.00  0.00     0.037 C 
ATOM     17  C   UNL A   1      34.106  21.926  24.837  1.00  0.00     0.287 C 
ATOM     18  C   UNL A   1      36.252  23.845  24.995  1.00  0.00     0.064 C 
ATOM     19  N   UNL A   1      34.470  22.537  26.123  1.00  0.00    -0.336 N 
ATOM     20  C   UNL A   1      35.898  22.879  26.125  1.00  0.00     0.262 C 
ATOM     21  C   UNL A   1      34.143  21.650  27.235  1.00  0.00     0.332 C 
ATOM     22  H   UNL A   1      33.928  23.393  26.245  1.00  0.00     0.347 HD
ENDBRANCH  13  15
ENDBRANCH  11  13
ENDBRANCH   7  11
ENDBRANCH   6   7
ENDBRANCH   3   6
ENDBRANCH   1   2
BRANCH   1  23
ATOM     23  C   UNL A   1      31.583  30.882  26.138  1.00  0.00     0.042 C 
BRANCH  23  24
ATOM     24  C   UNL A   1      32.652  31.496  27.037  1.00  0.00     0.118 C 
BRANCH  24  25
ATOM     25  N   UNL A   1      32.365  32.882  27.386  1.00  0.00    -0.352 N 
ATOM     26  C   UNL A   1      33.032  33.757  28.208  1.00  0.00     0.251 C 
ATOM     27  H   UNL A   1      31.559  33.253  26.961  1.00  0.00     0.163 HD
ATOM     28  O   UNL A   1      32.495  34.812  28.532  1.00  0.00    -0.269 OA
BRANCH  26  29
ATOM     29  C   UNL A   1      34.380  33.434  28.721  1.00  0.00     0.039 A 
ATOM     30  C   UNL A   1      34.494  32.762  29.941  1.00  0.00     0.014 A 
ATOM     31  C   UNL A   1      35.528  33.813  28.023  1.00  0.00     0.014 A 
ATOM     32  C   UNL A   1      35.755  32.388  30.414  1.00  0.00     0.010 A 
ATOM     33  C   UNL A   1      36.779  33.381  28.458  1.00  0.00     0.010 A 
ATOM     34  C   UNL A   1      36.902  32.648  29.648  1.00  0.00    -0.014 A 
BRANCH  34  35
ATOM     35  C   UNL A   1      38.229  32.110  30.035  1.00  0.00     0.031 A 
ATOM     36  C   UNL A   1      38.698  30.780  29.516  1.00  0.00     0.074 A 
ATOM     37  C   UNL A   1      38.972  32.781  30.937  1.00  0.00     0.049 A 
ATOM     38  N   UNL A   1      39.773  30.104  29.833  1.00  0.00    -0.248 NA
ATOM     39  C   UNL A   1      37.838  30.115  28.525  1.00  0.00     0.031 C 
ATOM     40  C   UNL A   1      38.613  34.068  31.539  1.00  0.00     0.029 A 
ATOM     41  N   UNL A   1      40.174  32.468  31.519  1.00  0.00    -0.354 N 
ATOM     42  C   UNL A   1      39.714  28.930  29.094  1.00  0.00     0.074 A 
ATOM     43  C   UNL A   1      38.477  28.967  28.342  1.00  0.00     0.031 C 
ATOM     44  C   UNL A   1      39.580  34.441  32.391  1.00  0.00     0.029 A 
ATOM     45  C   UNL A   1      40.597  33.396  32.440  1.00  0.00     0.049 A 
ATOM     46  H   UNL A   1      40.685  31.655  31.298  1.00  0.00     0.167 HD
ATOM     47  C   UNL A   1      40.613  27.918  29.039  1.00  0.00     0.031 A 
ATOM     48  C   UNL A   1      41.669  33.397  33.253  1.00  0.00     0.031 A 
ATOM     49  C   UNL A   1      41.838  27.881  29.794  1.00  0.00     0.049 A 
ATOM     50  C   UNL A   1      42.619  32.233  33.216  1.00  0.00     0.074 A 
ATOM     51  C   UNL A   1      42.840  26.927  29.762  1.00  0.00     0.029 A 
ATOM     52  N   UNL A   1      42.220  28.832  30.726  1.00  0.00    -0.354 N 
ATOM     53  N   UNL A   1      42.586  31.165  32.458  1.00  0.00    -0.248 NA
ATOM     54  C   UNL A   1      43.752  32.274  34.153  1.00  0.00     0.031 C 
ATOM     55  C   UNL A   1      43.797  27.267  30.723  1.00  0.00     0.029 A 
ATOM     56  C   UNL A   1      43.422  28.465  31.310  1.00  0.00     0.049 A 
ATOM     57  H   UNL A   1      41.714  29.648  30.943  1.00  0.00     0.167 HD
ATOM     58  C   UNL A   1      43.700  30.414  32.812  1.00  0.00     0.074 A 
ATOM     59  C   UNL A   1      44.401  31.162  33.837  1.00  0.00     0.031 C 
ATOM     60  C   UNL A   1      44.102  29.212  32.336  1.00  0.00     0.031 A 
BRANCH  47  61
ATOM     61  C   UNL A   1      40.295  26.753  28.141  1.00  0.00    -0.014 A 
ATOM     62  C   UNL A   1      40.794  26.685  26.832  1.00  0.00     0.009 A 
ATOM     63  C   UNL A   1      39.523  25.687  28.630  1.00  0.00     0.009 A 
ATOM     64  C   UNL A   1      40.499  25.588  26.018  1.00  0.00     0.001 A 
ATOM     65  C   UNL A   1      39.254  24.578  27.825  1.00  0.00     0.001 A 
ATOM     66  C   UNL A   1      39.734  24.534  26.517  1.00  0.00     0.000 A 
ENDBRANCH  47  61
BRANCH  48  67
ATOM     67  C   UNL A   1      41.894  34.531  34.188  1.00  0.00    -0.014 A 
ATOM     68  C   UNL A   1      42.598  35.670  33.771  1.00  0.00     0.009 A 
ATOM     69  C   UNL A   1      41.409  34.479  35.506  1.00  0.00     0.009 A 
ATOM     70  C   UNL A   1      42.835  36.721  34.659  1.00  0.00     0.001 A 
ATOM     71  C   UNL A   1      41.620  35.545  36.382  1.00  0.00     0.001 A 
ATOM     72  C   UNL A   1      42.341  36.661  35.961  1.00  0.00     0.000 A 
ENDBRANCH  48  67
BRANCH  60  73
ATOM     73  C   UNL A   1      45.364  28.632  32.911  1.00  0.00    -0.014 A 
ATOM     74  C   UNL A   1      45.326  27.764  34.013  1.00  0.00     0.009 A 
ATOM     75  C   UNL A   1      46.601  28.919  32.313  1.00  0.00     0.009 A 
ATOM     76  C   UNL A   1      46.505  27.214  34.521  1.00  0.00     0.001 A 
ATOM     77  C   UNL A   1      47.774  28.344  32.804  1.00  0.00     0.001 A 
ATOM     78  C   UNL A   1      47.726  27.499  33.911  1.00  0.00     0.000 A 
ENDBRANCH  60  73
ENDBRANCH  34  35
ENDBRANCH  26  29
ENDBRANCH  24  25
ENDBRANCH  23  24
ENDBRANCH   1  23
TORSDOF 16
ENDMDL
