MODEL 1
REMARK VINA RESULT:     -13.0      0.000      0.000
REMARK SMILES O=C(Cn1c(=O)[nH]c2ccccc2c1=O)NC[C@H]1CC[C@@H](C(=O)N2CCC(C(=O)NCCCNC(=O)c3ccc(-c4c5nc(c(-c6ccccc6)c6ccc([nH]6)c(-c6ccccc6)c6nc(c(-c7ccccc7)c7ccc4[nH]7)C=C6)C=C5)cc3)CC2)CC1
REMARK SMILES IDX 28 1 29 2 30 3 27 5 22 6 23 7 24 8 25 9 86 10 26 11 85 12
REMARK SMILES IDX 21 13 18 14 19 15 88 16 20 17 87 18 17 19 16 20 1 21 2 22
REMARK SMILES IDX 3 24 4 25 5 26 14 27 6 28 7 29 13 30 15 31 8 32 12 34 9 35
REMARK SMILES IDX 11 36 10 37 31 38 32 39 33 40 34 41 35 42 36 44 37 45 38 46
REMARK SMILES IDX 84 47 39 48 83 49 40 50 41 51 42 52 77 53 43 54 82 55 76 56
REMARK SMILES IDX 78 57 44 58 81 59 75 60 74 61 45 63 67 64 52 65 66 66 53 67
REMARK SMILES IDX 56 68 65 69 79 70 54 71 55 72 64 74 80 75 57 76 46 77 47 78
REMARK SMILES IDX 51 79 48 80 50 81 49 82 68 83 69 84 73 85 70 86 72 87 71 88
REMARK SMILES IDX 58 89 59 90 63 91 60 92 62 93 61 94
REMARK H PARENT 30 4 16 23 7 33 34 43 78 62 56 73
REMARK Flexibility Score: inf
ROOT
ATOM      1  C   UNL A   1      34.631  21.447  25.962  1.00  0.00     0.223 C 
ATOM      2  O   UNL A   1      34.029  21.249  27.017  1.00  0.00    -0.275 OA
ATOM      3  N   UNL A   1      35.718  20.677  25.688  1.00  0.00    -0.356 N 
ATOM      4  H   UNL A   1      35.757  19.821  26.176  1.00  0.00     0.163 HD
ENDROOT
BRANCH   1   5
ATOM      5  C   UNL A   1      34.197  22.516  24.981  1.00  0.00     0.082 C 
ATOM      6  C   UNL A   1      32.217  26.238  24.850  1.00  0.00     0.225 C 
ATOM      7  O   UNL A   1      31.106  26.166  25.387  1.00  0.00    -0.275 OA
ATOM      8  N   UNL A   1      32.948  25.092  24.624  1.00  0.00    -0.342 N 
ATOM      9  C   UNL A   1      32.256  23.899  24.157  1.00  0.00     0.120 C 
ATOM     10  C   UNL A   1      34.382  25.040  24.607  1.00  0.00     0.120 C 
ATOM     11  C   UNL A   1      32.676  22.669  24.934  1.00  0.00     0.035 C 
ATOM     12  C   UNL A   1      34.977  23.811  25.237  1.00  0.00     0.035 C 
BRANCH   6  13
ATOM     13  C   UNL A   1      32.647  27.572  24.198  1.00  0.00     0.078 C 
ATOM     14  C   UNL A   1      32.763  30.091  25.884  1.00  0.00     0.008 C 
ATOM     15  C   UNL A   1      33.654  28.871  26.142  1.00  0.00     0.006 C 
ATOM     16  C   UNL A   1      31.520  29.805  25.025  1.00  0.00     0.006 C 
ATOM     17  C   UNL A   1      33.926  28.071  24.873  1.00  0.00     0.014 C 
ATOM     18  C   UNL A   1      31.665  28.720  23.943  1.00  0.00     0.014 C 
BRANCH  14  19
ATOM     19  C   UNL A   1      32.420  30.867  27.187  1.00  0.00     0.119 C 
BRANCH  19  20
ATOM     20  N   UNL A   1      33.360  31.906  27.615  1.00  0.00    -0.354 N 
ATOM     21  O   UNL A   1      31.916  33.637  27.279  1.00  0.00    -0.273 OA
ATOM     22  C   UNL A   1      32.987  33.233  27.733  1.00  0.00     0.240 C 
ATOM     23  H   UNL A   1      34.288  31.651  27.825  1.00  0.00     0.163 HD
BRANCH  22  24
ATOM     24  C   UNL A   1      34.054  34.234  28.220  1.00  0.00     0.230 C 
BRANCH  24  25
ATOM     25  N   UNL A   1      34.666  34.004  29.527  1.00  0.00    -0.250 N 
ATOM     26  C   UNL A   1      34.006  34.530  30.623  1.00  0.00     0.329 A 
ATOM     27  C   UNL A   1      36.001  33.626  29.589  1.00  0.00     0.264 A 
ATOM     28  O   UNL A   1      32.925  35.107  30.552  1.00  0.00    -0.248 OA
ATOM     29  N   UNL A   1      34.623  34.401  31.836  1.00  0.00    -0.307 N 
ATOM     30  C   UNL A   1      36.556  33.325  30.916  1.00  0.00     0.064 A 
ATOM     31  O   UNL A   1      36.758  33.577  28.627  1.00  0.00    -0.268 OA
ATOM     32  C   UNL A   1      35.847  33.762  32.024  1.00  0.00     0.055 A 
ATOM     33  H   UNL A   1      34.174  34.781  32.627  1.00  0.00     0.171 HD
ATOM     34  C   UNL A   1      37.777  32.656  31.065  1.00  0.00     0.016 A 
ATOM     35  C   UNL A   1      36.361  33.562  33.302  1.00  0.00     0.027 A 
ATOM     36  C   UNL A   1      38.278  32.423  32.345  1.00  0.00     0.001 A 
ATOM     37  C   UNL A   1      37.574  32.884  33.460  1.00  0.00     0.002 A 
ENDBRANCH  24  25
ENDBRANCH  22  24
ENDBRANCH  19  20
ENDBRANCH  14  19
ENDBRANCH   6  13
ENDBRANCH   1   5
BRANCH   3  38
ATOM     38  C   UNL A   1      36.832  20.924  24.784  1.00  0.00     0.117 C 
BRANCH  38  39
ATOM     39  C   UNL A   1      37.895  19.857  24.941  1.00  0.00     0.042 C 
BRANCH  39  40
ATOM     40  C   UNL A   1      39.072  20.353  25.751  1.00  0.00     0.118 C 
BRANCH  40  41
ATOM     41  N   UNL A   1      40.105  19.335  25.881  1.00  0.00    -0.352 N 
ATOM     42  C   UNL A   1      41.454  19.495  26.109  1.00  0.00     0.251 C 
ATOM     43  H   UNL A   1      39.797  18.404  25.795  1.00  0.00     0.163 HD
ATOM     44  O   UNL A   1      42.230  18.574  25.929  1.00  0.00    -0.269 OA
BRANCH  42  45
ATOM     45  C   UNL A   1      41.936  20.818  26.552  1.00  0.00     0.039 A 
ATOM     46  C   UNL A   1      41.938  21.126  27.912  1.00  0.00     0.014 A 
ATOM     47  C   UNL A   1      42.336  21.767  25.612  1.00  0.00     0.014 A 
ATOM     48  C   UNL A   1      42.110  22.438  28.311  1.00  0.00     0.010 A 
ATOM     49  C   UNL A   1      42.671  23.055  26.038  1.00  0.00     0.010 A 
ATOM     50  C   UNL A   1      42.519  23.412  27.387  1.00  0.00    -0.014 A 
BRANCH  50  51
ATOM     51  C   UNL A   1      42.841  24.769  27.894  1.00  0.00     0.031 A 
ATOM     52  C   UNL A   1      41.763  25.776  28.176  1.00  0.00     0.074 A 
ATOM     53  C   UNL A   1      44.130  25.054  28.167  1.00  0.00     0.049 A 
ATOM     54  N   UNL A   1      41.886  26.991  28.647  1.00  0.00    -0.248 NA
ATOM     55  C   UNL A   1      40.373  25.384  27.891  1.00  0.00     0.031 C 
ATOM     56  C   UNL A   1      45.258  24.141  27.946  1.00  0.00     0.029 A 
ATOM     57  N   UNL A   1      44.709  26.158  28.733  1.00  0.00    -0.354 N 
ATOM     58  C   UNL A   1      40.601  27.517  28.689  1.00  0.00     0.074 A 
ATOM     59  C   UNL A   1      39.711  26.499  28.175  1.00  0.00     0.031 C 
ATOM     60  C   UNL A   1      46.369  24.680  28.463  1.00  0.00     0.029 A 
ATOM     61  C   UNL A   1      46.059  26.015  28.953  1.00  0.00     0.049 A 
ATOM     62  H   UNL A   1      44.208  26.975  28.961  1.00  0.00     0.167 HD
ATOM     63  C   UNL A   1      40.206  28.737  29.122  1.00  0.00     0.031 A 
ATOM     64  C   UNL A   1      46.959  26.867  29.473  1.00  0.00     0.031 A 
ATOM     65  C   UNL A   1      41.100  29.733  29.653  1.00  0.00     0.049 A 
ATOM     66  C   UNL A   1      46.496  28.225  29.906  1.00  0.00     0.074 A 
ATOM     67  C   UNL A   1      40.791  30.993  30.134  1.00  0.00     0.029 A 
ATOM     68  N   UNL A   1      42.473  29.581  29.778  1.00  0.00    -0.354 N 
ATOM     69  N   UNL A   1      45.279  28.709  29.924  1.00  0.00    -0.248 NA
ATOM     70  C   UNL A   1      47.529  29.157  30.374  1.00  0.00     0.031 C 
ATOM     71  C   UNL A   1      41.982  31.627  30.495  1.00  0.00     0.029 A 
ATOM     72  C   UNL A   1      43.027  30.737  30.302  1.00  0.00     0.049 A 
ATOM     73  H   UNL A   1      42.977  28.772  29.532  1.00  0.00     0.167 HD
ATOM     74  C   UNL A   1      45.396  30.006  30.402  1.00  0.00     0.074 A 
ATOM     75  C   UNL A   1      46.799  30.219  30.695  1.00  0.00     0.031 C 
ATOM     76  C   UNL A   1      44.428  30.937  30.572  1.00  0.00     0.031 A 
BRANCH  63  77
ATOM     77  C   UNL A   1      38.745  29.085  29.033  1.00  0.00    -0.014 A 
ATOM     78  C   UNL A   1      38.228  29.606  27.836  1.00  0.00     0.009 A 
ATOM     79  C   UNL A   1      37.904  28.998  30.154  1.00  0.00     0.009 A 
ATOM     80  C   UNL A   1      36.905  30.049  27.765  1.00  0.00     0.001 A 
ATOM     81  C   UNL A   1      36.574  29.416  30.072  1.00  0.00     0.001 A 
ATOM     82  C   UNL A   1      36.078  29.951  28.882  1.00  0.00     0.000 A 
ENDBRANCH  63  77
BRANCH  64  83
ATOM     83  C   UNL A   1      48.381  26.450  29.587  1.00  0.00    -0.014 A 
ATOM     84  C   UNL A   1      48.848  25.820  30.754  1.00  0.00     0.009 A 
ATOM     85  C   UNL A   1      49.294  26.739  28.564  1.00  0.00     0.009 A 
ATOM     86  C   UNL A   1      50.202  25.522  30.909  1.00  0.00     0.001 A 
ATOM     87  C   UNL A   1      50.643  26.407  28.707  1.00  0.00     0.001 A 
ATOM     88  C   UNL A   1      51.098  25.811  29.882  1.00  0.00     0.000 A 
ENDBRANCH  64  83
BRANCH  76  89
ATOM     89  C   UNL A   1      44.850  32.281  31.092  1.00  0.00    -0.014 A 
ATOM     90  C   UNL A   1      44.986  32.485  32.474  1.00  0.00     0.009 A 
ATOM     91  C   UNL A   1      45.030  33.365  30.220  1.00  0.00     0.009 A 
ATOM     92  C   UNL A   1      45.284  33.753  32.974  1.00  0.00     0.001 A 
ATOM     93  C   UNL A   1      45.358  34.625  30.722  1.00  0.00     0.001 A 
ATOM     94  C   UNL A   1      45.475  34.820  32.097  1.00  0.00     0.000 A 
ENDBRANCH  76  89
ENDBRANCH  50  51
ENDBRANCH  42  45
ENDBRANCH  40  41
ENDBRANCH  39  40
ENDBRANCH  38  39
ENDBRANCH   3  38
TORSDOF 15
ENDMDL
MODEL 2
REMARK VINA RESULT:     -12.8      0.688      5.516
REMARK SMILES O=C(Cn1c(=O)[nH]c2ccccc2c1=O)NC[C@H]1CC[C@@H](C(=O)N2CCC(C(=O)NCCCNC(=O)c3ccc(-c4c5nc(c(-c6ccccc6)c6ccc([nH]6)c(-c6ccccc6)c6nc(c(-c7ccccc7)c7ccc4[nH]7)C=C6)C=C5)cc3)CC2)CC1
REMARK SMILES IDX 28 1 29 2 30 3 27 5 22 6 23 7 24 8 25 9 86 10 26 11 85 12
REMARK SMILES IDX 21 13 18 14 19 15 88 16 20 17 87 18 17 19 16 20 1 21 2 22
REMARK SMILES IDX 3 24 4 25 5 26 14 27 6 28 7 29 13 30 15 31 8 32 12 34 9 35
REMARK SMILES IDX 11 36 10 37 31 38 32 39 33 40 34 41 35 42 36 44 37 45 38 46
REMARK SMILES IDX 84 47 39 48 83 49 40 50 41 51 42 52 77 53 43 54 82 55 76 56
REMARK SMILES IDX 78 57 44 58 81 59 75 60 74 61 45 63 67 64 52 65 66 66 53 67
REMARK SMILES IDX 56 68 65 69 79 70 54 71 55 72 64 74 80 75 57 76 46 77 47 78
REMARK SMILES IDX 51 79 48 80 50 81 49 82 68 83 69 84 73 85 70 86 72 87 71 88
REMARK SMILES IDX 58 89 59 90 63 91 60 92 62 93 61 94
REMARK H PARENT 30 4 16 23 7 33 34 43 78 62 56 73
REMARK Flexibility Score: inf
ROOT
ATOM      1  C   UNL A   1      34.361  21.561  25.698  1.00  0.00     0.223 C 
ATOM      2  O   UNL A   1      33.624  21.312  26.652  1.00  0.00    -0.275 OA
ATOM      3  N   UNL A   1      35.493  20.822  25.551  1.00  0.00    -0.356 N 
ATOM      4  H   UNL A   1      35.485  19.950  26.008  1.00  0.00     0.163 HD
ENDROOT
BRANCH   1   5
ATOM      5  C   UNL A   1      34.041  22.660  24.705  1.00  0.00     0.082 C 
ATOM      6  C   UNL A   1      31.931  26.299  24.407  1.00  0.00     0.225 C 
ATOM      7  O   UNL A   1      30.752  26.155  24.751  1.00  0.00    -0.275 OA
ATOM      8  N   UNL A   1      32.744  25.196  24.257  1.00  0.00    -0.342 N 
ATOM      9  C   UNL A   1      32.195  24.001  23.632  1.00  0.00     0.120 C 
ATOM     10  C   UNL A   1      34.162  25.204  24.474  1.00  0.00     0.120 C 
ATOM     11  C   UNL A   1      32.542  22.752  24.415  1.00  0.00     0.035 C 
ATOM     12  C   UNL A   1      34.706  23.970  25.140  1.00  0.00     0.035 C 
BRANCH   6  13
ATOM     13  C   UNL A   1      32.396  27.681  23.892  1.00  0.00     0.078 C 
ATOM     14  C   UNL A   1      32.690  29.983  25.845  1.00  0.00     0.008 C 
ATOM     15  C   UNL A   1      33.534  28.707  25.925  1.00  0.00     0.006 C 
ATOM     16  C   UNL A   1      31.404  29.848  25.013  1.00  0.00     0.006 C 
ATOM     17  C   UNL A   1      33.721  28.046  24.564  1.00  0.00     0.014 C 
ATOM     18  C   UNL A   1      31.459  28.889  23.810  1.00  0.00     0.014 C 
BRANCH  14  19
ATOM     19  C   UNL A   1      32.432  30.618  27.240  1.00  0.00     0.119 C 
BRANCH  19  20
ATOM     20  N   UNL A   1      33.285  31.744  27.632  1.00  0.00    -0.354 N 
ATOM     21  O   UNL A   1      31.777  33.351  27.052  1.00  0.00    -0.273 OA
ATOM     22  C   UNL A   1      32.835  33.051  27.607  1.00  0.00     0.240 C 
ATOM     23  H   UNL A   1      34.209  31.563  27.922  1.00  0.00     0.163 HD
BRANCH  22  24
ATOM     24  C   UNL A   1      33.811  34.151  28.069  1.00  0.00     0.230 C 
BRANCH  24  25
ATOM     25  N   UNL A   1      33.959  34.381  29.504  1.00  0.00    -0.250 N 
ATOM     26  C   UNL A   1      33.290  35.471  30.030  1.00  0.00     0.329 A 
ATOM     27  C   UNL A   1      35.006  33.768  30.181  1.00  0.00     0.264 A 
ATOM     28  O   UNL A   1      32.545  36.194  29.373  1.00  0.00    -0.248 OA
ATOM     29  N   UNL A   1      33.500  35.746  31.353  1.00  0.00    -0.307 N 
ATOM     30  C   UNL A   1      35.071  33.958  31.637  1.00  0.00     0.064 A 
ATOM     31  O   UNL A   1      35.903  33.128  29.646  1.00  0.00    -0.268 OA
ATOM     32  C   UNL A   1      34.322  34.988  32.185  1.00  0.00     0.055 A 
ATOM     33  H   UNL A   1      33.043  36.527  31.743  1.00  0.00     0.171 HD
ATOM     34  C   UNL A   1      35.888  33.158  32.445  1.00  0.00     0.016 A 
ATOM     35  C   UNL A   1      34.399  35.254  33.550  1.00  0.00     0.027 A 
ATOM     36  C   UNL A   1      35.941  33.399  33.817  1.00  0.00     0.001 A 
ATOM     37  C   UNL A   1      35.204  34.451  34.365  1.00  0.00     0.002 A 
ENDBRANCH  24  25
ENDBRANCH  22  24
ENDBRANCH  19  20
ENDBRANCH  14  19
ENDBRANCH   6  13
ENDBRANCH   1   5
BRANCH   3  38
ATOM     38  C   UNL A   1      36.715  21.125  24.819  1.00  0.00     0.117 C 
BRANCH  38  39
ATOM     39  C   UNL A   1      37.735  20.022  25.003  1.00  0.00     0.042 C 
BRANCH  39  40
ATOM     40  C   UNL A   1      38.970  20.515  25.724  1.00  0.00     0.118 C 
BRANCH  40  41
ATOM     41  N   UNL A   1      39.971  19.465  25.863  1.00  0.00    -0.352 N 
ATOM     42  C   UNL A   1      41.318  19.582  26.122  1.00  0.00     0.251 C 
ATOM     43  H   UNL A   1      39.637  18.545  25.757  1.00  0.00     0.163 HD
ATOM     44  O   UNL A   1      42.071  18.641  25.946  1.00  0.00    -0.269 OA
BRANCH  42  45
ATOM     45  C   UNL A   1      41.829  20.885  26.594  1.00  0.00     0.039 A 
ATOM     46  C   UNL A   1      41.864  21.152  27.961  1.00  0.00     0.014 A 
ATOM     47  C   UNL A   1      42.222  21.856  25.673  1.00  0.00     0.014 A 
ATOM     48  C   UNL A   1      42.063  22.449  28.395  1.00  0.00     0.010 A 
ATOM     49  C   UNL A   1      42.586  23.126  26.130  1.00  0.00     0.010 A 
ATOM     50  C   UNL A   1      42.467  23.444  27.492  1.00  0.00    -0.014 A 
BRANCH  50  51
ATOM     51  C   UNL A   1      42.819  24.781  28.031  1.00  0.00     0.031 A 
ATOM     52  C   UNL A   1      44.249  25.188  28.243  1.00  0.00     0.074 A 
ATOM     53  C   UNL A   1      41.818  25.655  28.261  1.00  0.00     0.049 A 
ATOM     54  N   UNL A   1      44.714  26.332  28.681  1.00  0.00    -0.248 NA
ATOM     55  C   UNL A   1      45.293  24.197  27.936  1.00  0.00     0.031 C 
ATOM     56  C   UNL A   1      40.392  25.368  28.072  1.00  0.00     0.029 A 
ATOM     57  N   UNL A   1      41.840  26.969  28.647  1.00  0.00    -0.354 N 
ATOM     58  C   UNL A   1      46.095  26.189  28.729  1.00  0.00     0.074 A 
ATOM     59  C   UNL A   1      46.396  24.841  28.297  1.00  0.00     0.031 C 
ATOM     60  C   UNL A   1      39.689  26.495  28.242  1.00  0.00     0.029 A 
ATOM     61  C   UNL A   1      40.596  27.555  28.658  1.00  0.00     0.049 A 
ATOM     62  H   UNL A   1      42.664  27.447  28.893  1.00  0.00     0.167 HD
ATOM     63  C   UNL A   1      47.022  27.104  29.096  1.00  0.00     0.031 A 
ATOM     64  C   UNL A   1      40.216  28.803  28.982  1.00  0.00     0.031 A 
ATOM     65  C   UNL A   1      46.711  28.449  29.503  1.00  0.00     0.049 A 
ATOM     66  C   UNL A   1      41.262  29.780  29.424  1.00  0.00     0.074 A 
ATOM     67  C   UNL A   1      47.583  29.456  29.877  1.00  0.00     0.029 A 
ATOM     68  N   UNL A   1      45.431  28.978  29.584  1.00  0.00    -0.354 N 
ATOM     69  N   UNL A   1      42.562  29.622  29.476  1.00  0.00    -0.248 NA
ATOM     70  C   UNL A   1      40.791  31.099  29.864  1.00  0.00     0.031 C 
ATOM     71  C   UNL A   1      46.830  30.574  30.241  1.00  0.00     0.029 A 
ATOM     72  C   UNL A   1      45.490  30.287  30.030  1.00  0.00     0.049 A 
ATOM     73  H   UNL A   1      44.604  28.494  29.357  1.00  0.00     0.167 HD
ATOM     74  C   UNL A   1      43.068  30.820  29.959  1.00  0.00     0.074 A 
ATOM     75  C   UNL A   1      41.937  31.706  30.150  1.00  0.00     0.031 C 
ATOM     76  C   UNL A   1      44.353  31.149  30.230  1.00  0.00     0.031 A 
BRANCH  63  77
ATOM     77  C   UNL A   1      48.469  26.691  29.096  1.00  0.00    -0.014 A 
ATOM     78  C   UNL A   1      49.248  26.897  27.945  1.00  0.00     0.009 A 
ATOM     79  C   UNL A   1      49.034  26.009  30.184  1.00  0.00     0.009 A 
ATOM     80  C   UNL A   1      50.557  26.415  27.877  1.00  0.00     0.001 A 
ATOM     81  C   UNL A   1      50.353  25.553  30.123  1.00  0.00     0.001 A 
ATOM     82  C   UNL A   1      51.110  25.746  28.968  1.00  0.00     0.000 A 
ENDBRANCH  63  77
BRANCH  64  83
ATOM     83  C   UNL A   1      38.778  29.171  28.913  1.00  0.00    -0.014 A 
ATOM     84  C   UNL A   1      37.954  29.048  30.045  1.00  0.00     0.009 A 
ATOM     85  C   UNL A   1      38.204  29.581  27.702  1.00  0.00     0.009 A 
ATOM     86  C   UNL A   1      36.583  29.292  29.958  1.00  0.00     0.001 A 
ATOM     87  C   UNL A   1      36.837  29.859  27.626  1.00  0.00     0.001 A 
ATOM     88  C   UNL A   1      36.026  29.702  28.749  1.00  0.00     0.000 A 
ENDBRANCH  64  83
BRANCH  76  89
ATOM     89  C   UNL A   1      44.612  32.525  30.771  1.00  0.00    -0.014 A 
ATOM     90  C   UNL A   1      44.813  33.598  29.888  1.00  0.00     0.009 A 
ATOM     91  C   UNL A   1      44.738  32.743  32.151  1.00  0.00     0.009 A 
ATOM     92  C   UNL A   1      45.148  34.861  30.377  1.00  0.00     0.001 A 
ATOM     93  C   UNL A   1      45.044  34.015  32.638  1.00  0.00     0.001 A 
ATOM     94  C   UNL A   1      45.258  35.069  31.752  1.00  0.00     0.000 A 
ENDBRANCH  76  89
ENDBRANCH  50  51
ENDBRANCH  42  45
ENDBRANCH  40  41
ENDBRANCH  39  40
ENDBRANCH  38  39
ENDBRANCH   3  38
TORSDOF 15
ENDMDL
MODEL 3
REMARK VINA RESULT:     -11.9      4.038      8.044
REMARK SMILES O=C(Cn1c(=O)[nH]c2ccccc2c1=O)NC[C@H]1CC[C@@H](C(=O)N2CCC(C(=O)NCCCNC(=O)c3ccc(-c4c5nc(c(-c6ccccc6)c6ccc([nH]6)c(-c6ccccc6)c6nc(c(-c7ccccc7)c7ccc4[nH]7)C=C6)C=C5)cc3)CC2)CC1
REMARK SMILES IDX 28 1 29 2 30 3 27 5 22 6 23 7 24 8 25 9 86 10 26 11 85 12
REMARK SMILES IDX 21 13 18 14 19 15 88 16 20 17 87 18 17 19 16 20 1 21 2 22
REMARK SMILES IDX 3 24 4 25 5 26 14 27 6 28 7 29 13 30 15 31 8 32 12 34 9 35
REMARK SMILES IDX 11 36 10 37 31 38 32 39 33 40 34 41 35 42 36 44 37 45 38 46
REMARK SMILES IDX 84 47 39 48 83 49 40 50 41 51 42 52 77 53 43 54 82 55 76 56
REMARK SMILES IDX 78 57 44 58 81 59 75 60 74 61 45 63 67 64 52 65 66 66 53 67
REMARK SMILES IDX 56 68 65 69 79 70 54 71 55 72 64 74 80 75 57 76 46 77 47 78
REMARK SMILES IDX 51 79 48 80 50 81 49 82 68 83 69 84 73 85 70 86 72 87 71 88
REMARK SMILES IDX 58 89 59 90 63 91 60 92 62 93 61 94
REMARK H PARENT 30 4 16 23 7 33 34 43 78 62 56 73
REMARK Flexibility Score: inf
ROOT
ATOM      1  C   UNL A   1      43.754  20.702  25.376  1.00  0.00     0.223 C 
ATOM      2  O   UNL A   1      44.807  20.392  24.820  1.00  0.00    -0.275 OA
ATOM      3  N   UNL A   1      42.884  19.710  25.703  1.00  0.00    -0.356 N 
ATOM      4  H   UNL A   1      43.282  18.811  25.772  1.00  0.00     0.163 HD
ENDROOT
BRANCH   1   5
ATOM      5  C   UNL A   1      43.411  22.143  25.692  1.00  0.00     0.082 C 
ATOM      6  C   UNL A   1      45.245  25.881  26.363  1.00  0.00     0.225 C 
ATOM      7  O   UNL A   1      46.093  25.803  27.259  1.00  0.00    -0.275 OA
ATOM      8  N   UNL A   1      44.404  24.818  26.115  1.00  0.00    -0.342 N 
ATOM      9  C   UNL A   1      43.855  24.081  27.243  1.00  0.00     0.120 C 
ATOM     10  C   UNL A   1      43.851  24.511  24.827  1.00  0.00     0.120 C 
ATOM     11  C   UNL A   1      43.973  22.584  27.044  1.00  0.00     0.035 C 
ATOM     12  C   UNL A   1      43.778  23.043  24.506  1.00  0.00     0.035 C 
BRANCH   6  13
ATOM     13  C   UNL A   1      44.961  27.259  25.721  1.00  0.00     0.078 C 
ATOM     14  C   UNL A   1      46.735  29.622  26.408  1.00  0.00     0.008 C 
ATOM     15  C   UNL A   1      47.252  28.370  25.692  1.00  0.00     0.006 C 
ATOM     16  C   UNL A   1      45.399  29.431  27.144  1.00  0.00     0.006 C 
ATOM     17  C   UNL A   1      46.167  27.676  24.876  1.00  0.00     0.014 C 
ATOM     18  C   UNL A   1      44.401  28.441  26.518  1.00  0.00     0.014 C 
BRANCH  14  19
ATOM     19  C   UNL A   1      47.818  30.289  27.302  1.00  0.00     0.119 C 
BRANCH  19  20
ATOM     20  N   UNL A   1      47.571  31.666  27.739  1.00  0.00    -0.354 N 
ATOM     21  O   UNL A   1      49.086  32.605  26.318  1.00  0.00    -0.273 OA
ATOM     22  C   UNL A   1      48.162  32.752  27.119  1.00  0.00     0.240 C 
ATOM     23  H   UNL A   1      46.965  31.822  28.500  1.00  0.00     0.163 HD
BRANCH  22  24
ATOM     24  C   UNL A   1      47.806  34.156  27.647  1.00  0.00     0.230 C 
BRANCH  24  25
ATOM     25  N   UNL A   1      46.462  34.667  27.388  1.00  0.00    -0.250 N 
ATOM     26  C   UNL A   1      46.311  35.485  26.283  1.00  0.00     0.329 A 
ATOM     27  C   UNL A   1      45.519  34.634  28.408  1.00  0.00     0.264 A 
ATOM     28  O   UNL A   1      47.219  35.738  25.496  1.00  0.00    -0.248 OA
ATOM     29  N   UNL A   1      45.077  36.042  26.090  1.00  0.00    -0.307 N 
ATOM     30  C   UNL A   1      44.157  35.081  28.083  1.00  0.00     0.064 A 
ATOM     31  O   UNL A   1      45.755  34.310  29.566  1.00  0.00    -0.268 OA
ATOM     32  C   UNL A   1      43.982  35.817  26.922  1.00  0.00     0.055 A 
ATOM     33  H   UNL A   1      44.954  36.638  25.316  1.00  0.00     0.171 HD
ATOM     34  C   UNL A   1      43.076  34.811  28.930  1.00  0.00     0.016 A 
ATOM     35  C   UNL A   1      42.725  36.321  26.601  1.00  0.00     0.027 A 
ATOM     36  C   UNL A   1      41.809  35.285  28.595  1.00  0.00     0.001 A 
ATOM     37  C   UNL A   1      41.636  36.046  27.436  1.00  0.00     0.002 A 
ENDBRANCH  24  25
ENDBRANCH  22  24
ENDBRANCH  19  20
ENDBRANCH  14  19
ENDBRANCH   6  13
ENDBRANCH   1   5
BRANCH   3  38
ATOM     38  C   UNL A   1      41.454  19.775  25.969  1.00  0.00     0.117 C 
BRANCH  38  39
ATOM     39  C   UNL A   1      41.195  20.097  27.425  1.00  0.00     0.042 C 
BRANCH  39  40
ATOM     40  C   UNL A   1      40.614  21.483  27.598  1.00  0.00     0.118 C 
BRANCH  40  41
ATOM     41  N   UNL A   1      39.645  21.796  26.556  1.00  0.00    -0.352 N 
ATOM     42  C   UNL A   1      39.004  22.988  26.299  1.00  0.00     0.251 C 
ATOM     43  H   UNL A   1      39.417  21.054  25.951  1.00  0.00     0.163 HD
ATOM     44  O   UNL A   1      38.030  23.028  25.570  1.00  0.00    -0.269 OA
BRANCH  42  45
ATOM     45  C   UNL A   1      39.514  24.210  26.952  1.00  0.00     0.039 A 
ATOM     46  C   UNL A   1      39.151  24.484  28.270  1.00  0.00     0.014 A 
ATOM     47  C   UNL A   1      40.306  25.107  26.235  1.00  0.00     0.014 A 
ATOM     48  C   UNL A   1      39.378  25.745  28.788  1.00  0.00     0.010 A 
ATOM     49  C   UNL A   1      40.676  26.318  26.827  1.00  0.00     0.010 A 
ATOM     50  C   UNL A   1      40.178  26.664  28.092  1.00  0.00    -0.014 A 
BRANCH  50  51
ATOM     51  C   UNL A   1      40.521  27.944  28.761  1.00  0.00     0.031 A 
ATOM     52  C   UNL A   1      39.505  29.038  28.927  1.00  0.00     0.074 A 
ATOM     53  C   UNL A   1      41.756  28.073  29.286  1.00  0.00     0.049 A 
ATOM     54  N   UNL A   1      39.647  30.200  29.513  1.00  0.00    -0.248 NA
ATOM     55  C   UNL A   1      38.164  28.813  28.364  1.00  0.00     0.031 C 
ATOM     56  C   UNL A   1      42.818  27.064  29.197  1.00  0.00     0.029 A 
ATOM     57  N   UNL A   1      42.316  29.072  30.038  1.00  0.00    -0.354 N 
ATOM     58  C   UNL A   1      38.431  30.854  29.366  1.00  0.00     0.074 A 
ATOM     59  C   UNL A   1      37.564  29.970  28.615  1.00  0.00     0.031 C 
ATOM     60  C   UNL A   1      43.856  27.448  29.950  1.00  0.00     0.029 A 
ATOM     61  C   UNL A   1      43.582  28.774  30.485  1.00  0.00     0.049 A 
ATOM     62  H   UNL A   1      41.858  29.920  30.239  1.00  0.00     0.167 HD
ATOM     63  C   UNL A   1      38.074  32.077  29.821  1.00  0.00     0.031 A 
ATOM     64  C   UNL A   1      44.441  29.491  31.229  1.00  0.00     0.031 A 
ATOM     65  C   UNL A   1      38.938  32.937  30.586  1.00  0.00     0.049 A 
ATOM     66  C   UNL A   1      44.031  30.858  31.684  1.00  0.00     0.074 A 
ATOM     67  C   UNL A   1      38.661  34.188  31.107  1.00  0.00     0.029 A 
ATOM     68  N   UNL A   1      40.244  32.635  30.944  1.00  0.00    -0.354 N 
ATOM     69  N   UNL A   1      42.881  31.465  31.522  1.00  0.00    -0.248 NA
ATOM     70  C   UNL A   1      45.037  31.644  32.407  1.00  0.00     0.031 C 
ATOM     71  C   UNL A   1      39.815  34.669  31.730  1.00  0.00     0.029 A 
ATOM     72  C   UNL A   1      40.793  33.689  31.655  1.00  0.00     0.049 A 
ATOM     73  H   UNL A   1      40.710  31.795  30.726  1.00  0.00     0.167 HD
ATOM     74  C   UNL A   1      43.023  32.708  32.120  1.00  0.00     0.074 A 
ATOM     75  C   UNL A   1      44.360  32.753  32.679  1.00  0.00     0.031 C 
ATOM     76  C   UNL A   1      42.130  33.723  32.190  1.00  0.00     0.031 A 
BRANCH  63  77
ATOM     77  C   UNL A   1      36.694  32.582  29.499  1.00  0.00    -0.014 A 
ATOM     78  C   UNL A   1      36.470  33.268  28.294  1.00  0.00     0.009 A 
ATOM     79  C   UNL A   1      35.642  32.474  30.423  1.00  0.00     0.009 A 
ATOM     80  C   UNL A   1      35.229  33.850  28.026  1.00  0.00     0.001 A 
ATOM     81  C   UNL A   1      34.394  33.034  30.140  1.00  0.00     0.001 A 
ATOM     82  C   UNL A   1      34.191  33.730  28.949  1.00  0.00     0.000 A 
ENDBRANCH  63  77
BRANCH  64  83
ATOM     83  C   UNL A   1      45.773  28.920  31.564  1.00  0.00    -0.014 A 
ATOM     84  C   UNL A   1      45.975  28.247  32.781  1.00  0.00     0.009 A 
ATOM     85  C   UNL A   1      46.864  29.103  30.704  1.00  0.00     0.009 A 
ATOM     86  C   UNL A   1      47.246  27.802  33.146  1.00  0.00     0.001 A 
ATOM     87  C   UNL A   1      48.128  28.625  31.056  1.00  0.00     0.001 A 
ATOM     88  C   UNL A   1      48.321  27.987  32.280  1.00  0.00     0.000 A 
ENDBRANCH  64  83
BRANCH  76  89
ATOM     89  C   UNL A   1      42.566  34.978  32.888  1.00  0.00    -0.014 A 
ATOM     90  C   UNL A   1      42.171  35.215  34.214  1.00  0.00     0.009 A 
ATOM     91  C   UNL A   1      43.298  35.963  32.207  1.00  0.00     0.009 A 
ATOM     92  C   UNL A   1      42.490  36.419  34.841  1.00  0.00     0.001 A 
ATOM     93  C   UNL A   1      43.641  37.154  32.848  1.00  0.00     0.001 A 
ATOM     94  C   UNL A   1      43.230  37.385  34.160  1.00  0.00     0.000 A 
ENDBRANCH  76  89
ENDBRANCH  50  51
ENDBRANCH  42  45
ENDBRANCH  40  41
ENDBRANCH  39  40
ENDBRANCH  38  39
ENDBRANCH   3  38
TORSDOF 15
ENDMDL
