MODEL 1
REMARK VINA RESULT:      -9.8      0.000      0.000
REMARK SMILES CC1=C(C)C(=O)N(C[C@H](CC(C)C)C(=O)NCCCNC(=O)c2ccc(-c3c4nc(c(-c5ccccc5)c5ccc([nH]5)c(-c5ccccc5)c5nc(c(-c6ccccc6)c6ccc3[nH]6)C=C5)C=C4)cc2)C1=O
REMARK SMILES IDX 18 1 17 2 16 3 14 4 15 5 9 7 8 8 7 9 1 10 2 11 3 12 71 13
REMARK SMILES IDX 4 14 5 15 72 16 6 17 10 18 11 19 12 20 13 21 19 22 20 23
REMARK SMILES IDX 21 24 22 26 23 27 24 28 70 29 25 30 69 31 26 32 27 33 28 34
REMARK SMILES IDX 63 35 29 36 68 37 62 38 64 39 30 40 67 41 61 42 60 43 31 45
REMARK SMILES IDX 53 46 38 47 52 48 39 49 42 50 51 51 65 52 40 53 41 54 50 56
REMARK SMILES IDX 66 57 43 58 32 59 33 60 37 61 34 62 36 63 35 64 54 65 55 66
REMARK SMILES IDX 59 67 56 68 58 69 57 70 44 71 45 72 49 73 46 74 48 75 47 76
REMARK H PARENT 16 6 20 25 64 44 42 55
REMARK Flexibility Score: inf
ROOT
ATOM      1  C   UNL A   1      44.936  20.708  24.385  1.00  0.00     0.042 C 
ENDROOT
BRANCH   1   2
ATOM      2  C   UNL A   1      45.751  21.846  25.020  1.00  0.00     0.117 C 
BRANCH   2   3
ATOM      3  N   UNL A   1      46.602  22.808  23.923  1.00  0.00    -0.356 N 
ATOM      4  C   UNL A   1      47.515  24.636  23.923  1.00  0.00     0.224 C 
ATOM      5  O   UNL A   1      48.161  25.285  23.057  1.00  0.00    -0.275 OA
ATOM      6  H   UNL A   1      46.679  22.369  23.045  1.00  0.00     0.163 HD
BRANCH   4   7
ATOM      7  C   UNL A   1      47.560  25.577  25.427  1.00  0.00     0.099 C 
BRANCH   7   8
ATOM      8  C   UNL A   1      47.198  26.889  24.879  1.00  0.00     0.142 C 
BRANCH   8   9
ATOM      9  N   UNL A   1      46.272  27.012  25.916  1.00  0.00    -0.274 N 
ATOM     10  C   UNL A   1      43.865  30.549  27.228  1.00  0.00     0.051 C 
ATOM     11  C   UNL A   1      44.281  29.208  26.758  1.00  0.00     0.023 C 
ATOM     12  C   UNL A   1      43.382  28.025  26.005  1.00  0.00     0.023 C 
ATOM     13  C   UNL A   1      46.237  28.679  26.832  1.00  0.00     0.256 C 
ATOM     14  C   UNL A   1      41.930  27.903  25.738  1.00  0.00     0.051 C 
ATOM     15  C   UNL A   1      44.561  26.519  25.388  1.00  0.00     0.256 C 
ATOM     16  O   UNL A   1      47.138  29.293  27.369  1.00  0.00    -0.269 OA
ATOM     17  O   UNL A   1      44.261  25.638  24.602  1.00  0.00    -0.269 OA
ENDBRANCH   8   9
ENDBRANCH   7   8
BRANCH   7  18
ATOM     18  C   UNL A   1      48.772  25.787  26.376  1.00  0.00     0.018 C 
BRANCH  18  19
ATOM     19  C   UNL A   1      50.165  26.285  25.941  1.00  0.00    -0.017 C 
ATOM     20  C   UNL A   1      50.551  27.720  26.262  1.00  0.00     0.007 C 
ATOM     21  C   UNL A   1      51.222  25.337  26.549  1.00  0.00     0.007 C 
ENDBRANCH  18  19
ENDBRANCH   7  18
ENDBRANCH   4   7
ENDBRANCH   2   3
ENDBRANCH   1   2
BRANCH   1  22
ATOM     22  C   UNL A   1      44.431  19.666  25.361  1.00  0.00     0.118 C 
BRANCH  22  23
ATOM     23  N   UNL A   1      43.030  19.380  25.125  1.00  0.00    -0.352 N 
ATOM     24  C   UNL A   1      41.956  19.903  25.796  1.00  0.00     0.251 C 
ATOM     25  H   UNL A   1      42.827  18.739  24.405  1.00  0.00     0.163 HD
ATOM     26  O   UNL A   1      40.889  19.302  25.812  1.00  0.00    -0.269 OA
BRANCH  24  27
ATOM     27  C   UNL A   1      42.102  21.198  26.493  1.00  0.00     0.039 A 
ATOM     28  C   UNL A   1      42.208  22.362  25.734  1.00  0.00     0.014 A 
ATOM     29  C   UNL A   1      42.173  21.254  27.890  1.00  0.00     0.014 A 
ATOM     30  C   UNL A   1      42.383  23.584  26.379  1.00  0.00     0.010 A 
ATOM     31  C   UNL A   1      42.257  22.485  28.534  1.00  0.00     0.010 A 
ATOM     32  C   UNL A   1      42.399  23.659  27.784  1.00  0.00    -0.014 A 
BRANCH  32  33
ATOM     33  C   UNL A   1      42.608  24.963  28.458  1.00  0.00     0.031 A 
ATOM     34  C   UNL A   1      43.973  25.346  28.970  1.00  0.00     0.074 A 
ATOM     35  C   UNL A   1      41.571  25.814  28.583  1.00  0.00     0.049 A 
ATOM     36  N   UNL A   1      44.364  26.476  29.503  1.00  0.00    -0.248 NA
ATOM     37  C   UNL A   1      45.032  24.326  28.892  1.00  0.00     0.031 C 
ATOM     38  C   UNL A   1      40.191  25.536  28.172  1.00  0.00     0.029 A 
ATOM     39  N   UNL A   1      41.519  27.095  29.069  1.00  0.00    -0.354 N 
ATOM     40  C   UNL A   1      45.708  26.303  29.813  1.00  0.00     0.074 A 
ATOM     41  C   UNL A   1      46.049  24.940  29.477  1.00  0.00     0.031 C 
ATOM     42  C   UNL A   1      39.444  26.632  28.371  1.00  0.00     0.029 A 
ATOM     43  C   UNL A   1      40.279  27.676  28.955  1.00  0.00     0.049 A 
ATOM     44  H   UNL A   1      42.297  27.555  29.460  1.00  0.00     0.167 HD
ATOM     45  C   UNL A   1      46.590  27.208  30.300  1.00  0.00     0.031 A 
ATOM     46  C   UNL A   1      39.866  28.915  29.277  1.00  0.00     0.031 A 
ATOM     47  C   UNL A   1      46.250  28.565  30.634  1.00  0.00     0.049 A 
ATOM     48  C   UNL A   1      40.867  29.893  29.830  1.00  0.00     0.074 A 
ATOM     49  C   UNL A   1      47.075  29.568  31.112  1.00  0.00     0.029 A 
ATOM     50  N   UNL A   1      44.981  29.109  30.519  1.00  0.00    -0.354 N 
ATOM     51  N   UNL A   1      42.150  29.732  30.049  1.00  0.00    -0.248 NA
ATOM     52  C   UNL A   1      40.362  31.231  30.161  1.00  0.00     0.031 C 
ATOM     53  C   UNL A   1      46.294  30.707  31.332  1.00  0.00     0.029 A 
ATOM     54  C   UNL A   1      44.996  30.431  30.931  1.00  0.00     0.049 A 
ATOM     55  H   UNL A   1      44.187  28.628  30.193  1.00  0.00     0.167 HD
ATOM     56  C   UNL A   1      42.609  30.956  30.517  1.00  0.00     0.074 A 
ATOM     57  C   UNL A   1      41.475  31.857  30.512  1.00  0.00     0.031 C 
ATOM     58  C   UNL A   1      43.855  31.306  30.923  1.00  0.00     0.031 A 
BRANCH  45  59
ATOM     59  C   UNL A   1      48.015  26.762  30.486  1.00  0.00    -0.014 A 
ATOM     60  C   UNL A   1      49.023  27.181  29.601  1.00  0.00     0.009 A 
ATOM     61  C   UNL A   1      48.368  25.968  31.587  1.00  0.00     0.009 A 
ATOM     62  C   UNL A   1      50.349  26.794  29.802  1.00  0.00     0.001 A 
ATOM     63  C   UNL A   1      49.701  25.607  31.802  1.00  0.00     0.001 A 
ATOM     64  C   UNL A   1      50.688  26.015  30.907  1.00  0.00     0.000 A 
ENDBRANCH  45  59
BRANCH  46  65
ATOM     65  C   UNL A   1      38.447  29.317  29.079  1.00  0.00    -0.014 A 
ATOM     66  C   UNL A   1      37.523  29.239  30.134  1.00  0.00     0.009 A 
ATOM     67  C   UNL A   1      37.998  29.733  27.816  1.00  0.00     0.009 A 
ATOM     68  C   UNL A   1      36.172  29.518  29.914  1.00  0.00     0.001 A 
ATOM     69  C   UNL A   1      36.654  30.049  27.609  1.00  0.00     0.001 A 
ATOM     70  C   UNL A   1      35.739  29.924  28.653  1.00  0.00     0.000 A 
ENDBRANCH  46  65
BRANCH  58  71
ATOM     71  C   UNL A   1      44.047  32.733  31.359  1.00  0.00    -0.014 A 
ATOM     72  C   UNL A   1      43.874  33.117  32.699  1.00  0.00     0.009 A 
ATOM     73  C   UNL A   1      44.403  33.706  30.412  1.00  0.00     0.009 A 
ATOM     74  C   UNL A   1      43.992  34.457  33.069  1.00  0.00     0.001 A 
ATOM     75  C   UNL A   1      44.557  35.040  30.793  1.00  0.00     0.001 A 
ATOM     76  C   UNL A   1      44.335  35.417  32.117  1.00  0.00     0.000 A 
ENDBRANCH  58  71
ENDBRANCH  32  33
ENDBRANCH  24  27
ENDBRANCH  22  23
ENDBRANCH   1  22
TORSDOF 14
ENDMDL
MODEL 2
REMARK VINA RESULT:      -9.6      4.463     10.683
REMARK SMILES CC1=C(C)C(=O)N(C[C@H](CC(C)C)C(=O)NCCCNC(=O)c2ccc(-c3c4nc(c(-c5ccccc5)c5ccc([nH]5)c(-c5ccccc5)c5nc(c(-c6ccccc6)c6ccc3[nH]6)C=C5)C=C4)cc2)C1=O
REMARK SMILES IDX 18 1 17 2 16 3 14 4 15 5 9 7 8 8 7 9 1 10 2 11 3 12 71 13
REMARK SMILES IDX 4 14 5 15 72 16 6 17 10 18 11 19 12 20 13 21 19 22 20 23
REMARK SMILES IDX 21 24 22 26 23 27 24 28 70 29 25 30 69 31 26 32 27 33 28 34
REMARK SMILES IDX 63 35 29 36 68 37 62 38 64 39 30 40 67 41 61 42 60 43 31 45
REMARK SMILES IDX 53 46 38 47 52 48 39 49 42 50 51 51 65 52 40 53 41 54 50 56
REMARK SMILES IDX 66 57 43 58 32 59 33 60 37 61 34 62 36 63 35 64 54 65 55 66
REMARK SMILES IDX 59 67 56 68 58 69 57 70 44 71 45 72 49 73 46 74 48 75 47 76
REMARK H PARENT 16 6 20 25 64 44 42 55
REMARK Flexibility Score: inf
ROOT
ATOM      1  C   UNL A   1      33.079  28.797  26.754  1.00  0.00     0.042 C 
ENDROOT
BRANCH   1   2
ATOM      2  C   UNL A   1      32.090  28.134  27.725  1.00  0.00     0.117 C 
BRANCH   2   3
ATOM      3  N   UNL A   1      31.054  27.000  27.022  1.00  0.00    -0.356 N 
ATOM      4  C   UNL A   1      31.162  25.561  25.575  1.00  0.00     0.224 C 
ATOM      5  O   UNL A   1      30.337  24.726  25.117  1.00  0.00    -0.275 OA
ATOM      6  H   UNL A   1      30.153  27.044  27.417  1.00  0.00     0.163 HD
BRANCH   4   7
ATOM      7  C   UNL A   1      32.717  25.258  24.776  1.00  0.00     0.099 C 
BRANCH   7   8
ATOM      8  C   UNL A   1      33.367  24.485  25.840  1.00  0.00     0.142 C 
BRANCH   8   9
ATOM      9  N   UNL A   1      33.848  23.623  24.853  1.00  0.00    -0.274 N 
ATOM     10  C   UNL A   1      37.140  20.597  25.023  1.00  0.00     0.051 C 
ATOM     11  C   UNL A   1      35.828  21.262  24.853  1.00  0.00     0.023 C 
ATOM     12  C   UNL A   1      34.304  20.593  24.788  1.00  0.00     0.023 C 
ATOM     13  C   UNL A   1      35.721  23.286  24.856  1.00  0.00     0.256 C 
ATOM     14  C   UNL A   1      33.840  19.189  24.721  1.00  0.00     0.051 C 
ATOM     15  C   UNL A   1      32.897  22.028  24.791  1.00  0.00     0.256 C 
ATOM     16  O   UNL A   1      36.653  24.066  24.836  1.00  0.00    -0.269 OA
ATOM     17  O   UNL A   1      31.706  21.877  24.998  1.00  0.00    -0.269 OA
ENDBRANCH   8   9
ENDBRANCH   7   8
BRANCH   7  18
ATOM     18  C   UNL A   1      33.743  26.309  24.271  1.00  0.00     0.018 C 
BRANCH  18  19
ATOM     19  C   UNL A   1      33.577  27.175  23.005  1.00  0.00    -0.017 C 
ATOM     20  C   UNL A   1      32.191  27.304  22.396  1.00  0.00     0.007 C 
ATOM     21  C   UNL A   1      34.118  28.587  23.319  1.00  0.00     0.007 C 
ENDBRANCH  18  19
ENDBRANCH   7  18
ENDBRANCH   4   7
ENDBRANCH   2   3
ENDBRANCH   1   2
BRANCH   1  22
ATOM     22  C   UNL A   1      34.450  29.077  27.333  1.00  0.00     0.118 C 
BRANCH  22  23
ATOM     23  N   UNL A   1      34.443  30.314  28.089  1.00  0.00    -0.352 N 
ATOM     24  C   UNL A   1      35.379  30.732  28.997  1.00  0.00     0.251 C 
ATOM     25  H   UNL A   1      33.681  30.919  27.934  1.00  0.00     0.163 HD
ATOM     26  O   UNL A   1      35.078  31.549  29.858  1.00  0.00    -0.269 OA
BRANCH  24  27
ATOM     27  C   UNL A   1      36.751  30.190  28.919  1.00  0.00     0.039 A 
ATOM     28  C   UNL A   1      37.350  29.705  30.080  1.00  0.00     0.014 A 
ATOM     29  C   UNL A   1      37.456  30.197  27.708  1.00  0.00     0.014 A 
ATOM     30  C   UNL A   1      38.657  29.226  30.026  1.00  0.00     0.010 A 
ATOM     31  C   UNL A   1      38.727  29.635  27.640  1.00  0.00     0.010 A 
ATOM     32  C   UNL A   1      39.354  29.177  28.805  1.00  0.00    -0.014 A 
BRANCH  32  33
ATOM     33  C   UNL A   1      40.752  28.685  28.765  1.00  0.00     0.031 A 
ATOM     34  C   UNL A   1      41.043  27.244  28.432  1.00  0.00     0.074 A 
ATOM     35  C   UNL A   1      41.761  29.545  29.002  1.00  0.00     0.049 A 
ATOM     36  N   UNL A   1      42.201  26.657  28.262  1.00  0.00    -0.248 NA
ATOM     37  C   UNL A   1      39.890  26.340  28.287  1.00  0.00     0.031 C 
ATOM     38  C   UNL A   1      41.604  30.952  29.384  1.00  0.00     0.029 A 
ATOM     39  N   UNL A   1      43.120  29.371  28.933  1.00  0.00    -0.354 N 
ATOM     40  C   UNL A   1      41.913  25.325  27.985  1.00  0.00     0.074 A 
ATOM     41  C   UNL A   1      40.479  25.173  28.079  1.00  0.00     0.031 C 
ATOM     42  C   UNL A   1      42.815  31.524  29.461  1.00  0.00     0.029 A 
ATOM     43  C   UNL A   1      43.833  30.521  29.169  1.00  0.00     0.049 A 
ATOM     44  H   UNL A   1      43.542  28.505  28.733  1.00  0.00     0.167 HD
ATOM     45  C   UNL A   1      42.761  24.326  27.647  1.00  0.00     0.031 A 
ATOM     46  C   UNL A   1      45.160  30.742  29.143  1.00  0.00     0.031 A 
ATOM     47  C   UNL A   1      44.188  24.478  27.553  1.00  0.00     0.049 A 
ATOM     48  C   UNL A   1      46.078  29.608  28.778  1.00  0.00     0.074 A 
ATOM     49  C   UNL A   1      45.135  23.534  27.196  1.00  0.00     0.029 A 
ATOM     50  N   UNL A   1      44.872  25.654  27.815  1.00  0.00    -0.354 N 
ATOM     51  N   UNL A   1      45.780  28.374  28.449  1.00  0.00    -0.248 NA
ATOM     52  C   UNL A   1      47.515  29.907  28.762  1.00  0.00     0.031 C 
ATOM     53  C   UNL A   1      46.398  24.127  27.288  1.00  0.00     0.029 A 
ATOM     54  C   UNL A   1      46.232  25.456  27.641  1.00  0.00     0.049 A 
ATOM     55  H   UNL A   1      44.455  26.504  28.084  1.00  0.00     0.167 HD
ATOM     56  C   UNL A   1      46.991  27.758  28.161  1.00  0.00     0.074 A 
ATOM     57  C   UNL A   1      48.020  28.766  28.317  1.00  0.00     0.031 C 
ATOM     58  C   UNL A   1      47.237  26.472  27.807  1.00  0.00     0.031 A 
BRANCH  45  59
ATOM     59  C   UNL A   1      42.165  22.980  27.336  1.00  0.00    -0.014 A 
ATOM     60  C   UNL A   1      41.915  22.049  28.358  1.00  0.00     0.009 A 
ATOM     61  C   UNL A   1      41.792  22.660  26.022  1.00  0.00     0.009 A 
ATOM     62  C   UNL A   1      41.325  20.817  28.067  1.00  0.00     0.001 A 
ATOM     63  C   UNL A   1      41.175  21.438  25.738  1.00  0.00     0.001 A 
ATOM     64  C   UNL A   1      40.948  20.517  26.760  1.00  0.00     0.000 A 
ENDBRANCH  45  59
BRANCH  46  65
ATOM     65  C   UNL A   1      45.711  32.089  29.458  1.00  0.00    -0.014 A 
ATOM     66  C   UNL A   1      46.025  32.447  30.779  1.00  0.00     0.009 A 
ATOM     67  C   UNL A   1      45.877  33.042  28.441  1.00  0.00     0.009 A 
ATOM     68  C   UNL A   1      46.442  33.746  31.079  1.00  0.00     0.001 A 
ATOM     69  C   UNL A   1      46.331  34.328  28.739  1.00  0.00     0.001 A 
ATOM     70  C   UNL A   1      46.597  34.684  30.061  1.00  0.00     0.000 A 
ENDBRANCH  46  65
BRANCH  58  71
ATOM     71  C   UNL A   1      48.670  26.108  27.534  1.00  0.00    -0.014 A 
ATOM     72  C   UNL A   1      49.204  26.169  26.236  1.00  0.00     0.009 A 
ATOM     73  C   UNL A   1      49.495  25.694  28.591  1.00  0.00     0.009 A 
ATOM     74  C   UNL A   1      50.517  25.762  25.994  1.00  0.00     0.001 A 
ATOM     75  C   UNL A   1      50.820  25.325  28.351  1.00  0.00     0.001 A 
ATOM     76  C   UNL A   1      51.324  25.343  27.052  1.00  0.00     0.000 A 
ENDBRANCH  58  71
ENDBRANCH  32  33
ENDBRANCH  24  27
ENDBRANCH  22  23
ENDBRANCH   1  22
TORSDOF 14
ENDMDL
MODEL 3
REMARK VINA RESULT:      -9.5      4.469     10.501
REMARK SMILES CC1=C(C)C(=O)N(C[C@H](CC(C)C)C(=O)NCCCNC(=O)c2ccc(-c3c4nc(c(-c5ccccc5)c5ccc([nH]5)c(-c5ccccc5)c5nc(c(-c6ccccc6)c6ccc3[nH]6)C=C5)C=C4)cc2)C1=O
REMARK SMILES IDX 18 1 17 2 16 3 14 4 15 5 9 7 8 8 7 9 1 10 2 11 3 12 71 13
REMARK SMILES IDX 4 14 5 15 72 16 6 17 10 18 11 19 12 20 13 21 19 22 20 23
REMARK SMILES IDX 21 24 22 26 23 27 24 28 70 29 25 30 69 31 26 32 27 33 28 34
REMARK SMILES IDX 63 35 29 36 68 37 62 38 64 39 30 40 67 41 61 42 60 43 31 45
REMARK SMILES IDX 53 46 38 47 52 48 39 49 42 50 51 51 65 52 40 53 41 54 50 56
REMARK SMILES IDX 66 57 43 58 32 59 33 60 37 61 34 62 36 63 35 64 54 65 55 66
REMARK SMILES IDX 59 67 56 68 58 69 57 70 44 71 45 72 49 73 46 74 48 75 47 76
REMARK H PARENT 16 6 20 25 64 44 42 55
REMARK Flexibility Score: inf
ROOT
ATOM      1  C   UNL A   1      33.309  27.893  26.925  1.00  0.00     0.042 C 
ENDROOT
BRANCH   1   2
ATOM      2  C   UNL A   1      31.785  28.056  26.823  1.00  0.00     0.117 C 
BRANCH   2   3
ATOM      3  N   UNL A   1      30.905  26.621  26.965  1.00  0.00    -0.356 N 
ATOM      4  C   UNL A   1      30.983  24.729  26.198  1.00  0.00     0.224 C 
ATOM      5  O   UNL A   1      30.292  23.690  26.375  1.00  0.00    -0.275 OA
ATOM      6  H   UNL A   1      30.148  26.724  27.587  1.00  0.00     0.163 HD
BRANCH   4   7
ATOM      7  C   UNL A   1      32.312  24.296  25.104  1.00  0.00     0.099 C 
BRANCH   7   8
ATOM      8  C   UNL A   1      33.207  23.665  26.080  1.00  0.00     0.142 C 
BRANCH   8   9
ATOM      9  N   UNL A   1      33.760  22.934  25.028  1.00  0.00    -0.274 N 
ATOM     10  C   UNL A   1      37.472  20.439  24.887  1.00  0.00     0.051 C 
ATOM     11  C   UNL A   1      36.068  20.904  24.812  1.00  0.00     0.023 C 
ATOM     12  C   UNL A   1      34.661  20.016  24.778  1.00  0.00     0.023 C 
ATOM     13  C   UNL A   1      35.660  22.887  24.930  1.00  0.00     0.256 C 
ATOM     14  C   UNL A   1      34.409  18.561  24.655  1.00  0.00     0.051 C 
ATOM     15  C   UNL A   1      33.057  21.218  24.921  1.00  0.00     0.256 C 
ATOM     16  O   UNL A   1      36.462  23.799  24.911  1.00  0.00    -0.269 OA
ATOM     17  O   UNL A   1      31.914  20.877  25.171  1.00  0.00    -0.269 OA
ENDBRANCH   8   9
ENDBRANCH   7   8
BRANCH   7  18
ATOM     18  C   UNL A   1      33.173  25.254  24.236  1.00  0.00     0.018 C 
BRANCH  18  19
ATOM     19  C   UNL A   1      32.642  26.494  23.488  1.00  0.00    -0.017 C 
ATOM     20  C   UNL A   1      33.560  27.183  22.491  1.00  0.00     0.007 C 
ATOM     21  C   UNL A   1      31.336  26.094  22.768  1.00  0.00     0.007 C 
ENDBRANCH  18  19
ENDBRANCH   7  18
ENDBRANCH   4   7
ENDBRANCH   2   3
ENDBRANCH   1   2
BRANCH   1  22
ATOM     22  C   UNL A   1      34.112  28.898  26.127  1.00  0.00     0.118 C 
BRANCH  22  23
ATOM     23  N   UNL A   1      33.927  30.235  26.653  1.00  0.00    -0.352 N 
ATOM     24  C   UNL A   1      34.571  30.797  27.723  1.00  0.00     0.251 C 
ATOM     25  H   UNL A   1      33.265  30.802  26.192  1.00  0.00     0.163 HD
ATOM     26  O   UNL A   1      34.059  31.734  28.326  1.00  0.00    -0.269 OA
BRANCH  24  27
ATOM     27  C   UNL A   1      35.887  30.265  28.134  1.00  0.00     0.039 A 
ATOM     28  C   UNL A   1      36.008  29.662  29.385  1.00  0.00     0.014 A 
ATOM     29  C   UNL A   1      37.004  30.398  27.301  1.00  0.00     0.014 A 
ATOM     30  C   UNL A   1      37.251  29.190  29.798  1.00  0.00     0.010 A 
ATOM     31  C   UNL A   1      38.224  29.845  27.679  1.00  0.00     0.010 A 
ATOM     32  C   UNL A   1      38.368  29.268  28.946  1.00  0.00    -0.014 A 
BRANCH  32  33
ATOM     33  C   UNL A   1      39.691  28.781  29.407  1.00  0.00     0.031 A 
ATOM     34  C   UNL A   1      40.196  27.427  28.978  1.00  0.00     0.074 A 
ATOM     35  C   UNL A   1      40.449  29.573  30.190  1.00  0.00     0.049 A 
ATOM     36  N   UNL A   1      41.360  26.874  29.206  1.00  0.00    -0.248 NA
ATOM     37  C   UNL A   1      39.272  26.576  28.209  1.00  0.00     0.031 C 
ATOM     38  C   UNL A   1      40.047  30.882  30.713  1.00  0.00     0.029 A 
ATOM     39  N   UNL A   1      41.724  29.404  30.664  1.00  0.00    -0.354 N 
ATOM     40  C   UNL A   1      41.308  25.622  28.604  1.00  0.00     0.074 A 
ATOM     41  C   UNL A   1      39.978  25.465  28.064  1.00  0.00     0.031 C 
ATOM     42  C   UNL A   1      41.076  31.420  31.386  1.00  0.00     0.029 A 
ATOM     43  C   UNL A   1      42.193  30.483  31.374  1.00  0.00     0.049 A 
ATOM     44  H   UNL A   1      42.253  28.589  30.510  1.00  0.00     0.167 HD
ATOM     45  C   UNL A   1      42.291  24.698  28.481  1.00  0.00     0.031 A 
ATOM     46  C   UNL A   1      43.394  30.695  31.943  1.00  0.00     0.031 A 
ATOM     47  C   UNL A   1      43.615  24.853  29.019  1.00  0.00     0.049 A 
ATOM     48  C   UNL A   1      44.460  29.643  31.800  1.00  0.00     0.074 A 
ATOM     49  C   UNL A   1      44.690  23.987  28.929  1.00  0.00     0.029 A 
ATOM     50  N   UNL A   1      44.044  25.953  29.744  1.00  0.00    -0.354 N 
ATOM     51  N   UNL A   1      44.413  28.496  31.166  1.00  0.00    -0.248 NA
ATOM     52  C   UNL A   1      45.751  29.928  32.438  1.00  0.00     0.031 C 
ATOM     53  C   UNL A   1      45.758  24.542  29.642  1.00  0.00     0.029 A 
ATOM     54  C   UNL A   1      45.366  25.781  30.121  1.00  0.00     0.049 A 
ATOM     55  H   UNL A   1      43.494  26.740  29.959  1.00  0.00     0.167 HD
ATOM     56  C   UNL A   1      45.677  27.937  31.306  1.00  0.00     0.074 A 
ATOM     57  C   UNL A   1      46.475  28.889  32.051  1.00  0.00     0.031 C 
ATOM     58  C   UNL A   1      46.138  26.739  30.867  1.00  0.00     0.031 A 
BRANCH  45  59
ATOM     59  C   UNL A   1      41.973  23.440  27.719  1.00  0.00    -0.014 A 
ATOM     60  C   UNL A   1      41.369  22.343  28.357  1.00  0.00     0.009 A 
ATOM     61  C   UNL A   1      42.221  23.369  26.340  1.00  0.00     0.009 A 
ATOM     62  C   UNL A   1      41.042  21.194  27.634  1.00  0.00     0.001 A 
ATOM     63  C   UNL A   1      41.865  22.228  25.614  1.00  0.00     0.001 A 
ATOM     64  C   UNL A   1      41.283  21.141  26.263  1.00  0.00     0.000 A 
ENDBRANCH  45  59
BRANCH  46  65
ATOM     65  C   UNL A   1      43.669  31.953  32.690  1.00  0.00    -0.014 A 
ATOM     66  C   UNL A   1      44.231  33.065  32.043  1.00  0.00     0.009 A 
ATOM     67  C   UNL A   1      43.417  32.027  34.068  1.00  0.00     0.009 A 
ATOM     68  C   UNL A   1      44.583  34.204  32.772  1.00  0.00     0.001 A 
ATOM     69  C   UNL A   1      43.734  33.182  34.787  1.00  0.00     0.001 A 
ATOM     70  C   UNL A   1      44.333  34.263  34.141  1.00  0.00     0.000 A 
ENDBRANCH  46  65
BRANCH  58  71
ATOM     71  C   UNL A   1      47.579  26.423  31.156  1.00  0.00    -0.014 A 
ATOM     72  C   UNL A   1      47.956  25.737  32.323  1.00  0.00     0.009 A 
ATOM     73  C   UNL A   1      48.574  26.821  30.250  1.00  0.00     0.009 A 
ATOM     74  C   UNL A   1      49.304  25.513  32.605  1.00  0.00     0.001 A 
ATOM     75  C   UNL A   1      49.919  26.561  30.517  1.00  0.00     0.001 A 
ATOM     76  C   UNL A   1      50.284  25.923  31.702  1.00  0.00     0.000 A 
ENDBRANCH  58  71
ENDBRANCH  32  33
ENDBRANCH  24  27
ENDBRANCH  22  23
ENDBRANCH   1  22
TORSDOF 14
ENDMDL
