MODEL 1
REMARK VINA RESULT:     -11.7      0.000      0.000
REMARK SMILES O=C(NCCCNC(=O)c1cnc2c(ccn2C2CCCCC2)c1)c1ccc(-c2c3nc(c(-c4ccccc4)c4ccc([nH]4)c(-c4ccccc4)c4nc(c(-c5ccccc5)c5ccc2[nH]5)C=C4)C=C3)cc1
REMARK SMILES IDX 4 1 3 2 1 3 2 4 25 6 26 7 72 8 27 9 71 10 28 11 29 12 30 13
REMARK SMILES IDX 65 14 31 15 70 16 64 17 66 18 32 19 69 20 63 21 62 22 33 24
REMARK SMILES IDX 55 25 40 26 54 27 41 28 44 29 53 30 67 31 42 32 43 33 52 35
REMARK SMILES IDX 68 36 45 37 34 38 35 39 39 40 36 41 38 42 37 43 56 44 57 45
REMARK SMILES IDX 61 46 58 47 60 48 59 49 46 50 47 51 51 52 48 53 50 54 49 55
REMARK SMILES IDX 5 56 6 57 7 58 8 59 9 61 10 62 11 63 24 64 12 65 14 66 13 67
REMARK SMILES IDX 15 68 17 69 16 70 18 71 19 72 23 73 20 74 22 75 21 76
REMARK H PARENT 3 5 66 23 44 34 7 60
REMARK Flexibility Score: inf
ROOT
ATOM      1  C   UNL A   1      34.570  32.233  28.001  1.00  0.00     0.118 C 
ENDROOT
BRANCH   1   2
ATOM      2  N   UNL A   1      34.742  32.267  29.445  1.00  0.00    -0.352 N 
ATOM      3  O   UNL A   1      35.656  32.194  31.477  1.00  0.00    -0.269 OA
ATOM      4  C   UNL A   1      35.750  31.883  30.289  1.00  0.00     0.251 C 
ATOM      5  H   UNL A   1      33.965  32.646  29.918  1.00  0.00     0.163 HD
BRANCH   4   6
ATOM      6  C   UNL A   1      36.849  30.988  29.868  1.00  0.00     0.039 A 
ATOM      7  C   UNL A   1      36.722  29.612  29.682  1.00  0.00     0.014 A 
ATOM      8  C   UNL A   1      38.115  31.588  29.770  1.00  0.00     0.014 A 
ATOM      9  C   UNL A   1      37.854  28.818  29.651  1.00  0.00     0.010 A 
ATOM     10  C   UNL A   1      39.250  30.803  29.689  1.00  0.00     0.010 A 
ATOM     11  C   UNL A   1      39.110  29.420  29.726  1.00  0.00    -0.014 A 
BRANCH  11  12
ATOM     12  C   UNL A   1      40.280  28.559  29.766  1.00  0.00     0.031 A 
ATOM     13  C   UNL A   1      40.868  28.369  31.123  1.00  0.00     0.074 A 
ATOM     14  C   UNL A   1      40.689  27.886  28.672  1.00  0.00     0.049 A 
ATOM     15  N   UNL A   1      42.084  28.572  31.514  1.00  0.00    -0.248 NA
ATOM     16  C   UNL A   1      39.942  27.990  32.206  1.00  0.00     0.031 C 
ATOM     17  C   UNL A   1      40.021  27.766  27.372  1.00  0.00     0.029 A 
ATOM     18  N   UNL A   1      41.742  27.040  28.546  1.00  0.00    -0.354 N 
ATOM     19  C   UNL A   1      42.113  28.225  32.863  1.00  0.00     0.074 A 
ATOM     20  C   UNL A   1      40.751  27.983  33.264  1.00  0.00     0.031 C 
ATOM     21  C   UNL A   1      40.528  26.700  26.711  1.00  0.00     0.029 A 
ATOM     22  C   UNL A   1      41.637  26.157  27.479  1.00  0.00     0.049 A 
ATOM     23  H   UNL A   1      42.514  27.051  29.157  1.00  0.00     0.167 HD
ATOM     24  C   UNL A   1      43.261  27.978  33.549  1.00  0.00     0.031 A 
ATOM     25  C   UNL A   1      42.343  25.008  27.326  1.00  0.00     0.031 A 
ATOM     26  C   UNL A   1      44.430  28.472  32.884  1.00  0.00     0.049 A 
ATOM     27  C   UNL A   1      43.522  25.099  28.224  1.00  0.00     0.074 A 
ATOM     28  C   UNL A   1      44.896  29.731  32.565  1.00  0.00     0.029 A 
ATOM     29  N   UNL A   1      45.125  27.600  32.083  1.00  0.00    -0.354 N 
ATOM     30  N   UNL A   1      44.482  25.966  28.067  1.00  0.00    -0.248 NA
ATOM     31  C   UNL A   1      43.393  24.539  29.561  1.00  0.00     0.031 C 
ATOM     32  C   UNL A   1      45.450  29.592  31.260  1.00  0.00     0.029 A 
ATOM     33  C   UNL A   1      45.347  28.249  30.894  1.00  0.00     0.049 A 
ATOM     34  H   UNL A   1      45.410  26.687  32.316  1.00  0.00     0.167 HD
ATOM     35  C   UNL A   1      44.809  26.369  29.354  1.00  0.00     0.074 A 
ATOM     36  C   UNL A   1      44.153  25.405  30.237  1.00  0.00     0.031 C 
ATOM     37  C   UNL A   1      45.335  27.603  29.601  1.00  0.00     0.031 A 
BRANCH  24  38
ATOM     38  C   UNL A   1      43.316  26.998  34.680  1.00  0.00    -0.014 A 
ATOM     39  C   UNL A   1      43.318  25.618  34.434  1.00  0.00     0.009 A 
ATOM     40  C   UNL A   1      43.131  27.417  36.014  1.00  0.00     0.009 A 
ATOM     41  C   UNL A   1      43.148  24.703  35.482  1.00  0.00     0.001 A 
ATOM     42  C   UNL A   1      42.997  26.509  37.063  1.00  0.00     0.001 A 
ATOM     43  C   UNL A   1      42.992  25.148  36.794  1.00  0.00     0.000 A 
ENDBRANCH  24  38
BRANCH  25  44
ATOM     44  C   UNL A   1      41.851  23.701  26.820  1.00  0.00    -0.014 A 
ATOM     45  C   UNL A   1      42.677  22.890  26.023  1.00  0.00     0.009 A 
ATOM     46  C   UNL A   1      40.691  23.114  27.360  1.00  0.00     0.009 A 
ATOM     47  C   UNL A   1      42.383  21.533  25.825  1.00  0.00     0.001 A 
ATOM     48  C   UNL A   1      40.395  21.761  27.157  1.00  0.00     0.001 A 
ATOM     49  C   UNL A   1      41.253  20.965  26.406  1.00  0.00     0.000 A 
ENDBRANCH  25  44
BRANCH  37  50
ATOM     50  C   UNL A   1      45.684  28.474  28.419  1.00  0.00    -0.014 A 
ATOM     51  C   UNL A   1      44.762  29.360  27.831  1.00  0.00     0.009 A 
ATOM     52  C   UNL A   1      47.026  28.550  28.023  1.00  0.00     0.009 A 
ATOM     53  C   UNL A   1      45.174  30.290  26.868  1.00  0.00     0.001 A 
ATOM     54  C   UNL A   1      47.439  29.487  27.074  1.00  0.00     0.001 A 
ATOM     55  C   UNL A   1      46.515  30.358  26.498  1.00  0.00     0.000 A 
ENDBRANCH  37  50
ENDBRANCH  11  12
ENDBRANCH   4   6
ENDBRANCH   1   2
BRANCH   1  56
ATOM     56  C   UNL A   1      33.142  32.009  27.508  1.00  0.00     0.042 C 
BRANCH  56  57
ATOM     57  C   UNL A   1      32.831  30.561  27.134  1.00  0.00     0.118 C 
BRANCH  57  58
ATOM     58  N   UNL A   1      31.776  30.460  26.133  1.00  0.00    -0.352 N 
ATOM     59  C   UNL A   1      31.491  29.477  25.219  1.00  0.00     0.252 C 
ATOM     60  H   UNL A   1      31.162  31.229  26.109  1.00  0.00     0.163 HD
ATOM     61  O   UNL A   1      30.702  29.705  24.312  1.00  0.00    -0.269 OA
BRANCH  59  62
ATOM     62  C   UNL A   1      32.129  28.157  25.314  1.00  0.00     0.058 A 
ATOM     63  C   UNL A   1      33.431  27.959  24.875  1.00  0.00     0.127 A 
ATOM     64  C   UNL A   1      31.447  27.103  25.927  1.00  0.00     0.027 A 
ATOM     65  N   UNL A   1      34.095  26.783  24.894  1.00  0.00    -0.238 NA
ATOM     66  C   UNL A   1      32.103  25.863  25.991  1.00  0.00     0.020 A 
ATOM     67  C   UNL A   1      33.388  25.780  25.454  1.00  0.00     0.140 A 
ATOM     68  C   UNL A   1      31.781  24.578  26.498  1.00  0.00     0.030 A 
ATOM     69  N   UNL A   1      33.824  24.485  25.607  1.00  0.00    -0.329 N 
ATOM     70  C   UNL A   1      32.849  23.747  26.242  1.00  0.00     0.088 A 
BRANCH  69  71
ATOM     71  C   UNL A   1      35.117  23.955  25.180  1.00  0.00     0.088 C 
ATOM     72  C   UNL A   1      35.652  22.876  26.136  1.00  0.00     0.025 C 
ATOM     73  C   UNL A   1      35.104  23.474  23.721  1.00  0.00     0.025 C 
ATOM     74  C   UNL A   1      37.014  22.354  25.682  1.00  0.00     0.002 C 
ATOM     75  C   UNL A   1      36.472  22.952  23.291  1.00  0.00     0.002 C 
ATOM     76  C   UNL A   1      36.977  21.866  24.236  1.00  0.00     0.000 C 
ENDBRANCH  69  71
ENDBRANCH  59  62
ENDBRANCH  57  58
ENDBRANCH  56  57
ENDBRANCH   1  56
TORSDOF 11
ENDMDL
MODEL 2
REMARK VINA RESULT:     -11.6      3.035      8.339
REMARK SMILES O=C(NCCCNC(=O)c1cnc2c(ccn2C2CCCCC2)c1)c1ccc(-c2c3nc(c(-c4ccccc4)c4ccc([nH]4)c(-c4ccccc4)c4nc(c(-c5ccccc5)c5ccc2[nH]5)C=C4)C=C3)cc1
REMARK SMILES IDX 4 1 3 2 1 3 2 4 25 6 26 7 72 8 27 9 71 10 28 11 29 12 30 13
REMARK SMILES IDX 65 14 31 15 70 16 64 17 66 18 32 19 69 20 63 21 62 22 33 24
REMARK SMILES IDX 55 25 40 26 54 27 41 28 44 29 53 30 67 31 42 32 43 33 52 35
REMARK SMILES IDX 68 36 45 37 34 38 35 39 39 40 36 41 38 42 37 43 56 44 57 45
REMARK SMILES IDX 61 46 58 47 60 48 59 49 46 50 47 51 51 52 48 53 50 54 49 55
REMARK SMILES IDX 5 56 6 57 7 58 8 59 9 61 10 62 11 63 24 64 12 65 14 66 13 67
REMARK SMILES IDX 15 68 17 69 16 70 18 71 19 72 23 73 20 74 22 75 21 76
REMARK H PARENT 3 5 66 23 44 34 7 60
REMARK Flexibility Score: inf
ROOT
ATOM      1  C   UNL A   1      40.033  21.585  26.670  1.00  0.00     0.118 C 
ENDROOT
BRANCH   1   2
ATOM      2  N   UNL A   1      41.181  22.138  25.969  1.00  0.00    -0.352 N 
ATOM      3  O   UNL A   1      42.952  23.389  25.451  1.00  0.00    -0.269 OA
ATOM      4  C   UNL A   1      41.921  23.281  26.116  1.00  0.00     0.251 C 
ATOM      5  H   UNL A   1      41.492  21.569  25.228  1.00  0.00     0.163 HD
BRANCH   4   6
ATOM      6  C   UNL A   1      41.456  24.440  26.909  1.00  0.00     0.039 A 
ATOM      7  C   UNL A   1      40.430  25.302  26.524  1.00  0.00     0.014 A 
ATOM      8  C   UNL A   1      42.201  24.720  28.067  1.00  0.00     0.014 A 
ATOM      9  C   UNL A   1      40.314  26.540  27.129  1.00  0.00     0.010 A 
ATOM     10  C   UNL A   1      42.056  25.936  28.707  1.00  0.00     0.010 A 
ATOM     11  C   UNL A   1      41.178  26.873  28.171  1.00  0.00    -0.014 A 
BRANCH  11  12
ATOM     12  C   UNL A   1      41.083  28.206  28.739  1.00  0.00     0.031 A 
ATOM     13  C   UNL A   1      42.148  29.150  28.295  1.00  0.00     0.074 A 
ATOM     14  C   UNL A   1      40.025  28.572  29.490  1.00  0.00     0.049 A 
ATOM     15  N   UNL A   1      42.964  29.848  29.016  1.00  0.00    -0.248 NA
ATOM     16  C   UNL A   1      42.390  29.251  26.844  1.00  0.00     0.031 C 
ATOM     17  C   UNL A   1      38.787  27.828  29.746  1.00  0.00     0.029 A 
ATOM     18  N   UNL A   1      39.780  29.770  30.077  1.00  0.00    -0.354 N 
ATOM     19  C   UNL A   1      43.741  30.576  28.117  1.00  0.00     0.074 A 
ATOM     20  C   UNL A   1      43.424  30.089  26.798  1.00  0.00     0.031 C 
ATOM     21  C   UNL A   1      37.838  28.687  30.185  1.00  0.00     0.029 A 
ATOM     22  C   UNL A   1      38.440  29.997  30.369  1.00  0.00     0.049 A 
ATOM     23  H   UNL A   1      40.490  30.423  30.280  1.00  0.00     0.167 HD
ATOM     24  C   UNL A   1      44.475  31.665  28.470  1.00  0.00     0.031 A 
ATOM     25  C   UNL A   1      37.876  31.205  30.622  1.00  0.00     0.031 A 
ATOM     26  C   UNL A   1      44.686  31.764  29.883  1.00  0.00     0.049 A 
ATOM     27  C   UNL A   1      38.978  32.135  30.976  1.00  0.00     0.074 A 
ATOM     28  C   UNL A   1      45.373  31.005  30.810  1.00  0.00     0.029 A 
ATOM     29  N   UNL A   1      43.817  32.543  30.606  1.00  0.00    -0.354 N 
ATOM     30  N   UNL A   1      39.712  32.009  32.045  1.00  0.00    -0.248 NA
ATOM     31  C   UNL A   1      39.564  32.922  29.901  1.00  0.00     0.031 C 
ATOM     32  C   UNL A   1      44.533  30.992  31.961  1.00  0.00     0.029 A 
ATOM     33  C   UNL A   1      43.423  31.795  31.688  1.00  0.00     0.049 A 
ATOM     34  H   UNL A   1      43.531  33.461  30.391  1.00  0.00     0.167 HD
ATOM     35  C   UNL A   1      40.996  32.339  31.636  1.00  0.00     0.074 A 
ATOM     36  C   UNL A   1      40.831  32.962  30.322  1.00  0.00     0.031 C 
ATOM     37  C   UNL A   1      42.096  31.826  32.257  1.00  0.00     0.031 A 
BRANCH  24  38
ATOM     38  C   UNL A   1      44.721  32.800  27.524  1.00  0.00    -0.014 A 
ATOM     39  C   UNL A   1      45.986  32.999  26.955  1.00  0.00     0.009 A 
ATOM     40  C   UNL A   1      43.768  33.828  27.361  1.00  0.00     0.009 A 
ATOM     41  C   UNL A   1      46.278  34.173  26.249  1.00  0.00     0.001 A 
ATOM     42  C   UNL A   1      44.045  34.982  26.629  1.00  0.00     0.001 A 
ATOM     43  C   UNL A   1      45.307  35.161  26.084  1.00  0.00     0.000 A 
ENDBRANCH  24  38
BRANCH  25  44
ATOM     44  C   UNL A   1      36.557  31.705  30.160  1.00  0.00    -0.014 A 
ATOM     45  C   UNL A   1      35.739  32.457  31.021  1.00  0.00     0.009 A 
ATOM     46  C   UNL A   1      36.229  31.705  28.791  1.00  0.00     0.009 A 
ATOM     47  C   UNL A   1      34.674  33.222  30.521  1.00  0.00     0.001 A 
ATOM     48  C   UNL A   1      35.163  32.463  28.293  1.00  0.00     0.001 A 
ATOM     49  C   UNL A   1      34.398  33.239  29.157  1.00  0.00     0.000 A 
ENDBRANCH  25  44
BRANCH  37  50
ATOM     50  C   UNL A   1      41.884  30.991  33.497  1.00  0.00    -0.014 A 
ATOM     51  C   UNL A   1      41.782  31.553  34.783  1.00  0.00     0.009 A 
ATOM     52  C   UNL A   1      41.580  29.633  33.338  1.00  0.00     0.009 A 
ATOM     53  C   UNL A   1      41.392  30.773  35.878  1.00  0.00     0.001 A 
ATOM     54  C   UNL A   1      41.176  28.858  34.428  1.00  0.00     0.001 A 
ATOM     55  C   UNL A   1      41.080  29.428  35.696  1.00  0.00     0.000 A 
ENDBRANCH  37  50
ENDBRANCH  11  12
ENDBRANCH   4   6
ENDBRANCH   1   2
BRANCH   1  56
ATOM     56  C   UNL A   1      39.064  20.770  25.816  1.00  0.00     0.042 C 
BRANCH  56  57
ATOM     57  C   UNL A   1      37.866  21.564  25.300  1.00  0.00     0.118 C 
BRANCH  57  58
ATOM     58  N   UNL A   1      36.717  20.714  25.014  1.00  0.00    -0.352 N 
ATOM     59  C   UNL A   1      35.374  20.992  24.989  1.00  0.00     0.252 C 
ATOM     60  H   UNL A   1      36.944  19.780  24.802  1.00  0.00     0.163 HD
ATOM     61  O   UNL A   1      34.566  20.073  24.959  1.00  0.00    -0.269 OA
BRANCH  59  62
ATOM     62  C   UNL A   1      34.894  22.381  25.004  1.00  0.00     0.058 A 
ATOM     63  C   UNL A   1      34.848  23.108  26.185  1.00  0.00     0.127 A 
ATOM     64  C   UNL A   1      34.555  23.008  23.802  1.00  0.00     0.027 A 
ATOM     65  N   UNL A   1      34.401  24.377  26.309  1.00  0.00    -0.238 NA
ATOM     66  C   UNL A   1      34.103  24.335  23.875  1.00  0.00     0.020 A 
ATOM     67  C   UNL A   1      34.042  24.933  25.133  1.00  0.00     0.140 A 
ATOM     68  C   UNL A   1      33.663  25.302  22.935  1.00  0.00     0.030 A 
ATOM     69  N   UNL A   1      33.559  26.210  24.969  1.00  0.00    -0.329 N 
ATOM     70  C   UNL A   1      33.326  26.441  23.632  1.00  0.00     0.088 A 
BRANCH  69  71
ATOM     71  C   UNL A   1      33.332  27.188  26.031  1.00  0.00     0.088 C 
ATOM     72  C   UNL A   1      33.843  28.589  25.655  1.00  0.00     0.025 C 
ATOM     73  C   UNL A   1      31.869  27.218  26.501  1.00  0.00     0.025 C 
ATOM     74  C   UNL A   1      33.615  29.588  26.788  1.00  0.00     0.002 C 
ATOM     75  C   UNL A   1      31.664  28.226  27.628  1.00  0.00     0.002 C 
ATOM     76  C   UNL A   1      32.155  29.615  27.231  1.00  0.00     0.000 C 
ENDBRANCH  69  71
ENDBRANCH  59  62
ENDBRANCH  57  58
ENDBRANCH  56  57
ENDBRANCH   1  56
TORSDOF 11
ENDMDL
MODEL 3
REMARK VINA RESULT:     -11.4      2.907      7.664
REMARK SMILES O=C(NCCCNC(=O)c1cnc2c(ccn2C2CCCCC2)c1)c1ccc(-c2c3nc(c(-c4ccccc4)c4ccc([nH]4)c(-c4ccccc4)c4nc(c(-c5ccccc5)c5ccc2[nH]5)C=C4)C=C3)cc1
REMARK SMILES IDX 4 1 3 2 1 3 2 4 25 6 26 7 72 8 27 9 71 10 28 11 29 12 30 13
REMARK SMILES IDX 65 14 31 15 70 16 64 17 66 18 32 19 69 20 63 21 62 22 33 24
REMARK SMILES IDX 55 25 40 26 54 27 41 28 44 29 53 30 67 31 42 32 43 33 52 35
REMARK SMILES IDX 68 36 45 37 34 38 35 39 39 40 36 41 38 42 37 43 56 44 57 45
REMARK SMILES IDX 61 46 58 47 60 48 59 49 46 50 47 51 51 52 48 53 50 54 49 55
REMARK SMILES IDX 5 56 6 57 7 58 8 59 9 61 10 62 11 63 24 64 12 65 14 66 13 67
REMARK SMILES IDX 15 68 17 69 16 70 18 71 19 72 23 73 20 74 22 75 21 76
REMARK H PARENT 3 5 66 23 44 34 7 60
REMARK Flexibility Score: inf
ROOT
ATOM      1  C   UNL A   1      38.609  20.417  25.731  1.00  0.00     0.118 C 
ENDROOT
BRANCH   1   2
ATOM      2  N   UNL A   1      39.772  19.591  25.443  1.00  0.00    -0.352 N 
ATOM      3  O   UNL A   1      41.766  18.606  25.592  1.00  0.00    -0.269 OA
ATOM      4  C   UNL A   1      41.047  19.544  25.939  1.00  0.00     0.251 C 
ATOM      5  H   UNL A   1      39.605  18.923  24.739  1.00  0.00     0.163 HD
BRANCH   4   6
ATOM      6  C   UNL A   1      41.639  20.642  26.734  1.00  0.00     0.039 A 
ATOM      7  C   UNL A   1      41.546  20.754  28.121  1.00  0.00     0.014 A 
ATOM      8  C   UNL A   1      42.226  21.679  25.991  1.00  0.00     0.014 A 
ATOM      9  C   UNL A   1      41.800  21.970  28.728  1.00  0.00     0.010 A 
ATOM     10  C   UNL A   1      42.529  22.883  26.600  1.00  0.00     0.010 A 
ATOM     11  C   UNL A   1      42.222  23.046  27.948  1.00  0.00    -0.014 A 
BRANCH  11  12
ATOM     12  C   UNL A   1      42.411  24.331  28.598  1.00  0.00     0.031 A 
ATOM     13  C   UNL A   1      41.372  25.351  28.275  1.00  0.00     0.074 A 
ATOM     14  C   UNL A   1      43.373  24.510  29.525  1.00  0.00     0.049 A 
ATOM     15  N   UNL A   1      41.530  26.547  27.809  1.00  0.00    -0.248 NA
ATOM     16  C   UNL A   1      39.963  24.936  28.406  1.00  0.00     0.031 C 
ATOM     17  C   UNL A   1      44.254  23.506  30.131  1.00  0.00     0.029 A 
ATOM     18  N   UNL A   1      43.669  25.632  30.228  1.00  0.00    -0.354 N 
ATOM     19  C   UNL A   1      40.249  27.088  27.705  1.00  0.00     0.074 A 
ATOM     20  C   UNL A   1      39.320  26.020  27.978  1.00  0.00     0.031 C 
ATOM     21  C   UNL A   1      44.768  24.006  31.279  1.00  0.00     0.029 A 
ATOM     22  C   UNL A   1      44.362  25.395  31.409  1.00  0.00     0.049 A 
ATOM     23  H   UNL A   1      43.416  26.535  29.928  1.00  0.00     0.167 HD
ATOM     24  C   UNL A   1      40.006  28.419  27.578  1.00  0.00     0.031 A 
ATOM     25  C   UNL A   1      44.477  26.259  32.449  1.00  0.00     0.031 A 
ATOM     26  C   UNL A   1      41.161  29.165  27.177  1.00  0.00     0.049 A 
ATOM     27  C   UNL A   1      44.140  27.610  31.933  1.00  0.00     0.074 A 
ATOM     28  C   UNL A   1      41.935  29.201  26.034  1.00  0.00     0.029 A 
ATOM     29  N   UNL A   1      41.919  29.747  28.163  1.00  0.00    -0.354 N 
ATOM     30  N   UNL A   1      44.856  28.242  31.047  1.00  0.00    -0.248 NA
ATOM     31  C   UNL A   1      42.758  28.050  32.055  1.00  0.00     0.031 C 
ATOM     32  C   UNL A   1      43.273  29.323  26.508  1.00  0.00     0.029 A 
ATOM     33  C   UNL A   1      43.226  29.420  27.900  1.00  0.00     0.049 A 
ATOM     34  H   UNL A   1      41.590  30.294  28.913  1.00  0.00     0.167 HD
ATOM     35  C   UNL A   1      43.930  28.863  30.220  1.00  0.00     0.074 A 
ATOM     36  C   UNL A   1      42.655  28.766  30.932  1.00  0.00     0.031 C 
ATOM     37  C   UNL A   1      44.215  29.142  28.916  1.00  0.00     0.031 A 
BRANCH  24  38
ATOM     38  C   UNL A   1      38.772  29.059  28.137  1.00  0.00    -0.014 A 
ATOM     39  C   UNL A   1      38.431  28.901  29.487  1.00  0.00     0.009 A 
ATOM     40  C   UNL A   1      37.803  29.633  27.287  1.00  0.00     0.009 A 
ATOM     41  C   UNL A   1      37.176  29.308  29.961  1.00  0.00     0.001 A 
ATOM     42  C   UNL A   1      36.568  30.070  27.763  1.00  0.00     0.001 A 
ATOM     43  C   UNL A   1      36.249  29.895  29.101  1.00  0.00     0.000 A 
ENDBRANCH  24  38
BRANCH  25  44
ATOM     44  C   UNL A   1      44.419  25.945  33.900  1.00  0.00    -0.014 A 
ATOM     45  C   UNL A   1      43.307  25.276  34.440  1.00  0.00     0.009 A 
ATOM     46  C   UNL A   1      45.574  26.031  34.699  1.00  0.00     0.009 A 
ATOM     47  C   UNL A   1      43.371  24.669  35.702  1.00  0.00     0.001 A 
ATOM     48  C   UNL A   1      45.636  25.431  35.962  1.00  0.00     0.001 A 
ATOM     49  C   UNL A   1      44.541  24.731  36.455  1.00  0.00     0.000 A 
ENDBRANCH  25  44
BRANCH  37  50
ATOM     50  C   UNL A   1      45.618  28.882  28.425  1.00  0.00    -0.014 A 
ATOM     51  C   UNL A   1      46.039  27.621  27.961  1.00  0.00     0.009 A 
ATOM     52  C   UNL A   1      46.470  29.978  28.239  1.00  0.00     0.009 A 
ATOM     53  C   UNL A   1      47.281  27.466  27.334  1.00  0.00     0.001 A 
ATOM     54  C   UNL A   1      47.702  29.826  27.600  1.00  0.00     0.001 A 
ATOM     55  C   UNL A   1      48.107  28.571  27.146  1.00  0.00     0.000 A 
ENDBRANCH  37  50
ENDBRANCH  11  12
ENDBRANCH   4   6
ENDBRANCH   1   2
BRANCH   1  56
ATOM     56  C   UNL A   1      37.367  20.130  24.891  1.00  0.00     0.042 C 
BRANCH  56  57
ATOM     57  C   UNL A   1      36.123  20.899  25.331  1.00  0.00     0.118 C 
BRANCH  57  58
ATOM     58  N   UNL A   1      34.889  20.244  24.919  1.00  0.00    -0.352 N 
ATOM     59  C   UNL A   1      33.635  20.748  24.684  1.00  0.00     0.252 C 
ATOM     60  H   UNL A   1      34.968  19.271  24.788  1.00  0.00     0.163 HD
ATOM     61  O   UNL A   1      32.685  19.984  24.579  1.00  0.00    -0.269 OA
BRANCH  59  62
ATOM     62  C   UNL A   1      33.419  22.196  24.562  1.00  0.00     0.058 A 
ATOM     63  C   UNL A   1      33.177  22.979  25.682  1.00  0.00     0.127 A 
ATOM     64  C   UNL A   1      33.540  22.810  23.312  1.00  0.00     0.027 A 
ATOM     65  N   UNL A   1      32.941  24.309  25.674  1.00  0.00    -0.238 NA
ATOM     66  C   UNL A   1      33.324  24.196  23.254  1.00  0.00     0.020 A 
ATOM     67  C   UNL A   1      33.023  24.858  24.444  1.00  0.00     0.140 A 
ATOM     68  C   UNL A   1      33.335  25.175  22.227  1.00  0.00     0.030 A 
ATOM     69  N   UNL A   1      32.834  26.188  24.150  1.00  0.00    -0.329 N 
ATOM     70  C   UNL A   1      33.023  26.388  22.801  1.00  0.00     0.088 A 
BRANCH  69  71
ATOM     71  C   UNL A   1      32.497  27.242  25.104  1.00  0.00     0.088 C 
ATOM     72  C   UNL A   1      33.690  27.631  25.993  1.00  0.00     0.025 C 
ATOM     73  C   UNL A   1      31.863  28.468  24.427  1.00  0.00     0.025 C 
ATOM     74  C   UNL A   1      33.309  28.717  26.996  1.00  0.00     0.002 C 
ATOM     75  C   UNL A   1      31.495  29.542  25.447  1.00  0.00     0.002 C 
ATOM     76  C   UNL A   1      32.695  29.932  26.305  1.00  0.00     0.000 C 
ENDBRANCH  69  71
ENDBRANCH  59  62
ENDBRANCH  57  58
ENDBRANCH  56  57
ENDBRANCH   1  56
TORSDOF 11
ENDMDL
