MODEL 1
REMARK VINA RESULT:     -11.6      0.000      0.000
REMARK SMILES CC(C)c1ccc(NC(=O)c2nccnc2C(=O)NCCCNC(=O)c2ccc(-c3c4nc(c(-c5ccccc5)c5ccc([nH]5)c(-c5ccccc5)c5nc(c(-c6ccccc6)c6ccc3[nH]6)C=C5)C=C4)cc2)cc1
REMARK SMILES IDX 20 1 19 2 17 3 18 4 16 6 11 7 12 8 13 9 15 10 14 11 9 12
REMARK SMILES IDX 8 13 10 15 7 16 4 17 5 18 75 19 6 20 74 21 2 22 1 23 3 24
REMARK SMILES IDX 21 25 22 26 23 27 24 28 25 30 26 31 27 32 73 33 28 34 72 35
REMARK SMILES IDX 29 36 30 37 31 38 66 39 32 40 71 41 65 42 67 43 33 44 70 45
REMARK SMILES IDX 64 46 63 47 34 49 56 50 41 51 55 52 42 53 45 54 54 55 68 56
REMARK SMILES IDX 43 57 44 58 53 60 69 61 46 62 35 63 36 64 40 65 37 66 39 67
REMARK SMILES IDX 38 68 57 69 58 70 62 71 59 72 61 73 60 74 47 75 48 76 52 77
REMARK SMILES IDX 49 78 51 79 50 80
REMARK H PARENT 19 5 8 14 23 29 67 48 45 59
REMARK Flexibility Score: inf
ROOT
ATOM      1  C   UNL A   1      33.999  27.326  24.928  1.00  0.00     0.118 C 
ENDROOT
BRANCH   1   2
ATOM      2  N   UNL A   1      33.437  26.234  25.684  1.00  0.00    -0.351 N 
ATOM      3  C   UNL A   1      33.723  24.889  25.698  1.00  0.00     0.272 C 
ATOM      4  O   UNL A   1      33.091  24.230  26.532  1.00  0.00    -0.267 OA
ATOM      5  H   UNL A   1      32.718  26.500  26.301  1.00  0.00     0.163 HD
BRANCH   3   6
ATOM      6  C   UNL A   1      34.644  24.150  24.768  1.00  0.00     0.159 A 
ATOM      7  C   UNL A   1      34.479  23.862  23.419  1.00  0.00     0.159 A 
ATOM      8  N   UNL A   1      35.470  23.298  22.648  1.00  0.00    -0.247 NA
ATOM      9  C   UNL A   1      36.622  23.002  23.279  1.00  0.00     0.132 A 
ATOM     10  N   UNL A   1      35.823  23.799  25.386  1.00  0.00    -0.247 NA
ATOM     11  C   UNL A   1      36.788  23.231  24.627  1.00  0.00     0.132 A 
BRANCH   7  12
ATOM     12  C   UNL A   1      33.230  24.065  22.677  1.00  0.00     0.276 C 
ATOM     13  N   UNL A   1      32.310  23.033  22.522  1.00  0.00    -0.321 N 
ATOM     14  H   UNL A   1      31.542  23.273  21.955  1.00  0.00     0.170 HD
ATOM     15  O   UNL A   1      33.006  25.171  22.187  1.00  0.00    -0.267 OA
BRANCH  13  16
ATOM     16  C   UNL A   1      32.256  21.706  23.015  1.00  0.00     0.041 A 
ATOM     17  C   UNL A   1      32.489  18.954  23.745  1.00  0.00    -0.045 A 
ATOM     18  C   UNL A   1      32.596  19.974  24.693  1.00  0.00     0.006 A 
ATOM     19  C   UNL A   1      32.122  19.337  22.446  1.00  0.00     0.006 A 
ATOM     20  C   UNL A   1      32.456  21.322  24.337  1.00  0.00     0.026 A 
ATOM     21  C   UNL A   1      32.001  20.691  22.088  1.00  0.00     0.026 A 
BRANCH  17  22
ATOM     22  C   UNL A   1      32.893  17.515  24.056  1.00  0.00     0.013 C 
ATOM     23  C   UNL A   1      34.234  17.069  23.450  1.00  0.00     0.012 C 
ATOM     24  C   UNL A   1      32.898  17.180  25.552  1.00  0.00     0.012 C 
ENDBRANCH  17  22
ENDBRANCH  13  16
ENDBRANCH   7  12
ENDBRANCH   3   6
ENDBRANCH   1   2
BRANCH   1  25
ATOM     25  C   UNL A   1      33.782  28.715  25.494  1.00  0.00     0.042 C 
BRANCH  25  26
ATOM     26  C   UNL A   1      33.359  28.769  26.953  1.00  0.00     0.118 C 
BRANCH  26  27
ATOM     27  N   UNL A   1      33.429  30.093  27.556  1.00  0.00    -0.352 N 
ATOM     28  C   UNL A   1      34.421  30.777  28.217  1.00  0.00     0.251 C 
ATOM     29  H   UNL A   1      32.591  30.605  27.473  1.00  0.00     0.163 HD
ATOM     30  O   UNL A   1      34.161  31.889  28.679  1.00  0.00    -0.269 OA
BRANCH  28  31
ATOM     31  C   UNL A   1      35.774  30.210  28.441  1.00  0.00     0.039 A 
ATOM     32  C   UNL A   1      36.691  30.237  27.382  1.00  0.00     0.014 A 
ATOM     33  C   UNL A   1      36.159  29.624  29.643  1.00  0.00     0.014 A 
ATOM     34  C   UNL A   1      37.993  29.756  27.562  1.00  0.00     0.010 A 
ATOM     35  C   UNL A   1      37.490  29.282  29.868  1.00  0.00     0.010 A 
ATOM     36  C   UNL A   1      38.422  29.321  28.825  1.00  0.00    -0.014 A 
BRANCH  36  37
ATOM     37  C   UNL A   1      39.824  28.881  29.061  1.00  0.00     0.031 A 
ATOM     38  C   UNL A   1      40.816  29.801  29.730  1.00  0.00     0.074 A 
ATOM     39  C   UNL A   1      40.224  27.670  28.628  1.00  0.00     0.049 A 
ATOM     40  N   UNL A   1      42.079  29.590  30.010  1.00  0.00    -0.248 NA
ATOM     41  C   UNL A   1      40.343  31.145  30.100  1.00  0.00     0.031 C 
ATOM     42  C   UNL A   1      39.390  26.709  27.900  1.00  0.00     0.029 A 
ATOM     43  N   UNL A   1      41.433  27.032  28.745  1.00  0.00    -0.354 N 
ATOM     44  C   UNL A   1      42.549  30.779  30.557  1.00  0.00     0.074 A 
ATOM     45  C   UNL A   1      41.460  31.726  30.509  1.00  0.00     0.031 C 
ATOM     46  C   UNL A   1      40.094  25.585  27.689  1.00  0.00     0.029 A 
ATOM     47  C   UNL A   1      41.436  25.757  28.232  1.00  0.00     0.049 A 
ATOM     48  H   UNL A   1      42.224  27.448  29.159  1.00  0.00     0.167 HD
ATOM     49  C   UNL A   1      43.767  31.054  31.083  1.00  0.00     0.031 A 
ATOM     50  C   UNL A   1      42.404  24.823  28.216  1.00  0.00     0.031 A 
ATOM     51  C   UNL A   1      44.842  30.103  31.166  1.00  0.00     0.049 A 
ATOM     52  C   UNL A   1      43.731  25.132  28.849  1.00  0.00     0.074 A 
ATOM     53  C   UNL A   1      46.091  30.259  31.742  1.00  0.00     0.029 A 
ATOM     54  N   UNL A   1      44.791  28.813  30.662  1.00  0.00    -0.354 N 
ATOM     55  N   UNL A   1      44.132  26.236  29.432  1.00  0.00    -0.248 NA
ATOM     56  C   UNL A   1      44.731  24.055  28.840  1.00  0.00     0.031 C 
ATOM     57  C   UNL A   1      46.810  29.074  31.552  1.00  0.00     0.029 A 
ATOM     58  C   UNL A   1      45.990  28.165  30.903  1.00  0.00     0.049 A 
ATOM     59  H   UNL A   1      44.016  28.417  30.202  1.00  0.00     0.167 HD
ATOM     60  C   UNL A   1      45.419  25.978  29.883  1.00  0.00     0.074 A 
ATOM     61  C   UNL A   1      45.723  24.608  29.524  1.00  0.00     0.031 C 
ATOM     62  C   UNL A   1      46.276  26.802  30.535  1.00  0.00     0.031 A 
BRANCH  49  63
ATOM     63  C   UNL A   1      43.990  32.442  31.620  1.00  0.00    -0.014 A 
ATOM     64  C   UNL A   1      44.546  33.452  30.817  1.00  0.00     0.009 A 
ATOM     65  C   UNL A   1      43.625  32.750  32.939  1.00  0.00     0.009 A 
ATOM     66  C   UNL A   1      44.774  34.728  31.339  1.00  0.00     0.001 A 
ATOM     67  C   UNL A   1      43.823  34.035  33.448  1.00  0.00     0.001 A 
ATOM     68  C   UNL A   1      44.408  35.019  32.653  1.00  0.00     0.000 A 
ENDBRANCH  49  63
BRANCH  50  69
ATOM     69  C   UNL A   1      42.137  23.485  27.626  1.00  0.00    -0.014 A 
ATOM     70  C   UNL A   1      42.472  23.221  26.288  1.00  0.00     0.009 A 
ATOM     71  C   UNL A   1      41.551  22.466  28.392  1.00  0.00     0.009 A 
ATOM     72  C   UNL A   1      42.200  21.973  25.722  1.00  0.00     0.001 A 
ATOM     73  C   UNL A   1      41.308  21.210  27.831  1.00  0.00     0.001 A 
ATOM     74  C   UNL A   1      41.623  20.968  26.495  1.00  0.00     0.000 A 
ENDBRANCH  50  69
BRANCH  62  75
ATOM     75  C   UNL A   1      47.605  26.228  30.930  1.00  0.00    -0.014 A 
ATOM     76  C   UNL A   1      48.689  26.213  30.038  1.00  0.00     0.009 A 
ATOM     77  C   UNL A   1      47.779  25.708  32.222  1.00  0.00     0.009 A 
ATOM     78  C   UNL A   1      49.907  25.649  30.418  1.00  0.00     0.001 A 
ATOM     79  C   UNL A   1      49.008  25.171  32.609  1.00  0.00     0.001 A 
ATOM     80  C   UNL A   1      50.067  25.131  31.703  1.00  0.00     0.000 A 
ENDBRANCH  62  75
ENDBRANCH  36  37
ENDBRANCH  28  31
ENDBRANCH  26  27
ENDBRANCH  25  26
ENDBRANCH   1  25
TORSDOF 13
ENDMDL
MODEL 2
REMARK VINA RESULT:     -11.4      1.999      7.059
REMARK SMILES CC(C)c1ccc(NC(=O)c2nccnc2C(=O)NCCCNC(=O)c2ccc(-c3c4nc(c(-c5ccccc5)c5ccc([nH]5)c(-c5ccccc5)c5nc(c(-c6ccccc6)c6ccc3[nH]6)C=C5)C=C4)cc2)cc1
REMARK SMILES IDX 20 1 19 2 17 3 18 4 16 6 11 7 12 8 13 9 15 10 14 11 9 12
REMARK SMILES IDX 8 13 10 15 7 16 4 17 5 18 75 19 6 20 74 21 2 22 1 23 3 24
REMARK SMILES IDX 21 25 22 26 23 27 24 28 25 30 26 31 27 32 73 33 28 34 72 35
REMARK SMILES IDX 29 36 30 37 31 38 66 39 32 40 71 41 65 42 67 43 33 44 70 45
REMARK SMILES IDX 64 46 63 47 34 49 56 50 41 51 55 52 42 53 45 54 54 55 68 56
REMARK SMILES IDX 43 57 44 58 53 60 69 61 46 62 35 63 36 64 40 65 37 66 39 67
REMARK SMILES IDX 38 68 57 69 58 70 62 71 59 72 61 73 60 74 47 75 48 76 52 77
REMARK SMILES IDX 49 78 51 79 50 80
REMARK H PARENT 19 5 8 14 23 29 67 48 45 59
REMARK Flexibility Score: inf
ROOT
ATOM      1  C   UNL A   1      36.318  20.279  24.961  1.00  0.00     0.118 C 
ENDROOT
BRANCH   1   2
ATOM      2  N   UNL A   1      36.300  21.555  24.291  1.00  0.00    -0.351 N 
ATOM      3  C   UNL A   1      35.519  22.672  24.472  1.00  0.00     0.272 C 
ATOM      4  O   UNL A   1      35.820  23.640  23.763  1.00  0.00    -0.267 OA
ATOM      5  H   UNL A   1      36.968  21.642  23.574  1.00  0.00     0.163 HD
BRANCH   3   6
ATOM      6  C   UNL A   1      34.316  22.800  25.365  1.00  0.00     0.159 A 
ATOM      7  C   UNL A   1      32.971  22.660  25.047  1.00  0.00     0.159 A 
ATOM      8  N   UNL A   1      31.974  22.664  25.996  1.00  0.00    -0.247 NA
ATOM      9  C   UNL A   1      32.364  22.844  27.272  1.00  0.00     0.132 A 
ATOM     10  N   UNL A   1      34.673  23.019  26.676  1.00  0.00    -0.247 NA
ATOM     11  C   UNL A   1      33.688  23.036  27.603  1.00  0.00     0.132 A 
BRANCH   7  12
ATOM     12  C   UNL A   1      32.451  22.554  23.679  1.00  0.00     0.276 C 
ATOM     13  N   UNL A   1      32.258  21.316  23.077  1.00  0.00    -0.321 N 
ATOM     14  H   UNL A   1      31.962  21.376  22.140  1.00  0.00     0.170 HD
ATOM     15  O   UNL A   1      32.188  23.588  23.065  1.00  0.00    -0.267 OA
BRANCH  13  16
ATOM     16  C   UNL A   1      32.400  19.984  23.541  1.00  0.00     0.041 A 
ATOM     17  C   UNL A   1      33.060  17.296  24.245  1.00  0.00    -0.045 A 
ATOM     18  C   UNL A   1      32.887  18.286  25.216  1.00  0.00     0.006 A 
ATOM     19  C   UNL A   1      32.756  17.651  22.922  1.00  0.00     0.006 A 
ATOM     20  C   UNL A   1      32.538  19.598  24.870  1.00  0.00     0.026 A 
ATOM     21  C   UNL A   1      32.425  18.972  22.577  1.00  0.00     0.026 A 
BRANCH  17  22
ATOM     22  C   UNL A   1      33.688  15.943  24.573  1.00  0.00     0.013 C 
ATOM     23  C   UNL A   1      35.075  16.012  25.234  1.00  0.00     0.012 C 
ATOM     24  C   UNL A   1      32.791  15.028  25.413  1.00  0.00     0.012 C 
ENDBRANCH  17  22
ENDBRANCH  13  16
ENDBRANCH   7  12
ENDBRANCH   3   6
ENDBRANCH   1   2
BRANCH   1  25
ATOM     25  C   UNL A   1      37.622  19.509  24.902  1.00  0.00     0.042 C 
BRANCH  25  26
ATOM     26  C   UNL A   1      38.776  20.115  25.682  1.00  0.00     0.118 C 
BRANCH  26  27
ATOM     27  N   UNL A   1      39.998  19.322  25.672  1.00  0.00    -0.352 N 
ATOM     28  C   UNL A   1      41.293  19.581  26.054  1.00  0.00     0.251 C 
ATOM     29  H   UNL A   1      39.870  18.412  25.319  1.00  0.00     0.163 HD
ATOM     30  O   UNL A   1      42.146  18.712  25.866  1.00  0.00    -0.269 OA
BRANCH  28  31
ATOM     31  C   UNL A   1      41.715  20.880  26.634  1.00  0.00     0.039 A 
ATOM     32  C   UNL A   1      42.085  21.911  25.760  1.00  0.00     0.014 A 
ATOM     33  C   UNL A   1      41.791  21.106  28.005  1.00  0.00     0.014 A 
ATOM     34  C   UNL A   1      42.445  23.167  26.262  1.00  0.00     0.010 A 
ATOM     35  C   UNL A   1      42.006  22.391  28.498  1.00  0.00     0.010 A 
ATOM     36  C   UNL A   1      42.358  23.435  27.636  1.00  0.00    -0.014 A 
BRANCH  36  37
ATOM     37  C   UNL A   1      42.657  24.786  28.186  1.00  0.00     0.031 A 
ATOM     38  C   UNL A   1      44.068  25.167  28.563  1.00  0.00     0.074 A 
ATOM     39  C   UNL A   1      41.651  25.658  28.395  1.00  0.00     0.049 A 
ATOM     40  N   UNL A   1      44.513  26.295  29.062  1.00  0.00    -0.248 NA
ATOM     41  C   UNL A   1      45.109  24.140  28.394  1.00  0.00     0.031 C 
ATOM     42  C   UNL A   1      40.231  25.393  28.146  1.00  0.00     0.029 A 
ATOM     43  N   UNL A   1      41.669  26.950  28.858  1.00  0.00    -0.354 N 
ATOM     44  C   UNL A   1      45.870  26.097  29.290  1.00  0.00     0.074 A 
ATOM     45  C   UNL A   1      46.163  24.727  28.940  1.00  0.00     0.031 C 
ATOM     46  C   UNL A   1      39.524  26.506  28.401  1.00  0.00     0.029 A 
ATOM     47  C   UNL A   1      40.432  27.548  28.866  1.00  0.00     0.049 A 
ATOM     48  H   UNL A   1      42.490  27.404  29.153  1.00  0.00     0.167 HD
ATOM     49  C   UNL A   1      46.801  26.983  29.721  1.00  0.00     0.031 A 
ATOM     50  C   UNL A   1      40.069  28.802  29.194  1.00  0.00     0.031 A 
ATOM     51  C   UNL A   1      46.521  28.357  30.036  1.00  0.00     0.049 A 
ATOM     52  C   UNL A   1      41.125  29.782  29.622  1.00  0.00     0.074 A 
ATOM     53  C   UNL A   1      47.403  29.354  30.415  1.00  0.00     0.029 A 
ATOM     54  N   UNL A   1      45.259  28.930  30.001  1.00  0.00    -0.354 N 
ATOM     55  N   UNL A   1      42.416  29.599  29.757  1.00  0.00    -0.248 NA
ATOM     56  C   UNL A   1      40.672  31.147  29.922  1.00  0.00     0.031 C 
ATOM     57  C   UNL A   1      46.668  30.522  30.647  1.00  0.00     0.029 A 
ATOM     58  C   UNL A   1      45.337  30.264  30.362  1.00  0.00     0.049 A 
ATOM     59  H   UNL A   1      44.431  28.457  29.755  1.00  0.00     0.167 HD
ATOM     60  C   UNL A   1      42.934  30.831  30.131  1.00  0.00     0.074 A 
ATOM     61  C   UNL A   1      41.820  31.756  30.181  1.00  0.00     0.031 C 
ATOM     62  C   UNL A   1      44.217  31.168  30.410  1.00  0.00     0.031 A 
BRANCH  49  63
ATOM     63  C   UNL A   1      48.213  26.484  29.865  1.00  0.00    -0.014 A 
ATOM     64  C   UNL A   1      49.123  26.555  28.797  1.00  0.00     0.009 A 
ATOM     65  C   UNL A   1      48.648  25.952  31.089  1.00  0.00     0.009 A 
ATOM     66  C   UNL A   1      50.423  26.061  28.937  1.00  0.00     0.001 A 
ATOM     67  C   UNL A   1      49.957  25.490  31.237  1.00  0.00     0.001 A 
ATOM     68  C   UNL A   1      50.839  25.533  30.159  1.00  0.00     0.000 A 
ENDBRANCH  49  63
BRANCH  50  69
ATOM     69  C   UNL A   1      38.647  29.220  29.077  1.00  0.00    -0.014 A 
ATOM     70  C   UNL A   1      37.788  29.124  30.183  1.00  0.00     0.009 A 
ATOM     71  C   UNL A   1      38.142  29.718  27.866  1.00  0.00     0.009 A 
ATOM     72  C   UNL A   1      36.445  29.492  30.071  1.00  0.00     0.001 A 
ATOM     73  C   UNL A   1      36.806  30.113  27.766  1.00  0.00     0.001 A 
ATOM     74  C   UNL A   1      35.957  29.990  28.865  1.00  0.00     0.000 A 
ENDBRANCH  50  69
BRANCH  62  75
ATOM     75  C   UNL A   1      44.483  32.604  30.758  1.00  0.00    -0.014 A 
ATOM     76  C   UNL A   1      44.814  33.546  29.771  1.00  0.00     0.009 A 
ATOM     77  C   UNL A   1      44.385  33.023  32.094  1.00  0.00     0.009 A 
ATOM     78  C   UNL A   1      45.084  34.869  30.122  1.00  0.00     0.001 A 
ATOM     79  C   UNL A   1      44.626  34.354  32.438  1.00  0.00     0.001 A 
ATOM     80  C   UNL A   1      44.987  35.273  31.454  1.00  0.00     0.000 A 
ENDBRANCH  62  75
ENDBRANCH  36  37
ENDBRANCH  28  31
ENDBRANCH  26  27
ENDBRANCH  25  26
ENDBRANCH   1  25
TORSDOF 13
ENDMDL
MODEL 3
REMARK VINA RESULT:     -11.3      2.956      7.937
REMARK SMILES CC(C)c1ccc(NC(=O)c2nccnc2C(=O)NCCCNC(=O)c2ccc(-c3c4nc(c(-c5ccccc5)c5ccc([nH]5)c(-c5ccccc5)c5nc(c(-c6ccccc6)c6ccc3[nH]6)C=C5)C=C4)cc2)cc1
REMARK SMILES IDX 20 1 19 2 17 3 18 4 16 6 11 7 12 8 13 9 15 10 14 11 9 12
REMARK SMILES IDX 8 13 10 15 7 16 4 17 5 18 75 19 6 20 74 21 2 22 1 23 3 24
REMARK SMILES IDX 21 25 22 26 23 27 24 28 25 30 26 31 27 32 73 33 28 34 72 35
REMARK SMILES IDX 29 36 30 37 31 38 66 39 32 40 71 41 65 42 67 43 33 44 70 45
REMARK SMILES IDX 64 46 63 47 34 49 56 50 41 51 55 52 42 53 45 54 54 55 68 56
REMARK SMILES IDX 43 57 44 58 53 60 69 61 46 62 35 63 36 64 40 65 37 66 39 67
REMARK SMILES IDX 38 68 57 69 58 70 62 71 59 72 61 73 60 74 47 75 48 76 52 77
REMARK SMILES IDX 49 78 51 79 50 80
REMARK H PARENT 19 5 8 14 23 29 67 48 45 59
REMARK Flexibility Score: inf
ROOT
ATOM      1  C   UNL A   1      34.400  23.163  25.171  1.00  0.00     0.118 C 
ENDROOT
BRANCH   1   2
ATOM      2  N   UNL A   1      34.224  24.052  24.050  1.00  0.00    -0.351 N 
ATOM      3  C   UNL A   1      33.709  25.324  23.963  1.00  0.00     0.272 C 
ATOM      4  O   UNL A   1      33.773  25.837  22.839  1.00  0.00    -0.267 OA
ATOM      5  H   UNL A   1      34.528  23.680  23.191  1.00  0.00     0.163 HD
BRANCH   3   6
ATOM      6  C   UNL A   1      33.021  26.098  25.052  1.00  0.00     0.159 A 
ATOM      7  C   UNL A   1      31.787  25.865  25.646  1.00  0.00     0.159 A 
ATOM      8  N   UNL A   1      31.337  26.573  26.738  1.00  0.00    -0.247 NA
ATOM      9  C   UNL A   1      32.149  27.543  27.197  1.00  0.00     0.132 A 
ATOM     10  N   UNL A   1      33.808  27.123  25.527  1.00  0.00    -0.247 NA
ATOM     11  C   UNL A   1      33.354  27.825  26.591  1.00  0.00     0.132 A 
BRANCH   7  12
ATOM     12  C   UNL A   1      30.803  24.895  25.154  1.00  0.00     0.276 C 
ATOM     13  N   UNL A   1      29.795  25.275  24.275  1.00  0.00    -0.321 N 
ATOM     14  H   UNL A   1      29.162  24.551  24.065  1.00  0.00     0.170 HD
ATOM     15  O   UNL A   1      30.881  23.728  25.537  1.00  0.00    -0.267 OA
BRANCH  13  16
ATOM     16  C   UNL A   1      29.495  26.496  23.620  1.00  0.00     0.041 A 
ATOM     17  C   UNL A   1      28.814  29.114  22.703  1.00  0.00    -0.045 A 
ATOM     18  C   UNL A   1      30.063  28.547  22.438  1.00  0.00     0.006 A 
ATOM     19  C   UNL A   1      27.863  28.284  23.317  1.00  0.00     0.006 A 
ATOM     20  C   UNL A   1      30.386  27.253  22.866  1.00  0.00     0.026 A 
ATOM     21  C   UNL A   1      28.197  26.994  23.762  1.00  0.00     0.026 A 
BRANCH  17  22
ATOM     22  C   UNL A   1      28.535  30.598  22.478  1.00  0.00     0.013 C 
ATOM     23  C   UNL A   1      28.020  30.960  21.076  1.00  0.00     0.012 C 
ATOM     24  C   UNL A   1      27.596  31.219  23.518  1.00  0.00     0.012 C 
ENDBRANCH  17  22
ENDBRANCH  13  16
ENDBRANCH   7  12
ENDBRANCH   3   6
ENDBRANCH   1   2
BRANCH   1  25
ATOM     25  C   UNL A   1      35.697  23.305  25.942  1.00  0.00     0.042 C 
BRANCH  25  26
ATOM     26  C   UNL A   1      36.934  23.568  25.100  1.00  0.00     0.118 C 
BRANCH  26  27
ATOM     27  N   UNL A   1      38.089  22.751  25.446  1.00  0.00    -0.352 N 
ATOM     28  C   UNL A   1      39.238  22.996  26.160  1.00  0.00     0.251 C 
ATOM     29  H   UNL A   1      38.035  21.831  25.097  1.00  0.00     0.163 HD
ATOM     30  O   UNL A   1      40.083  22.104  26.236  1.00  0.00    -0.269 OA
BRANCH  28  31
ATOM     31  C   UNL A   1      39.523  24.306  26.796  1.00  0.00     0.039 A 
ATOM     32  C   UNL A   1      39.103  24.510  28.117  1.00  0.00     0.014 A 
ATOM     33  C   UNL A   1      40.157  25.349  26.128  1.00  0.00     0.014 A 
ATOM     34  C   UNL A   1      39.393  25.713  28.773  1.00  0.00     0.010 A 
ATOM     35  C   UNL A   1      40.572  26.483  26.821  1.00  0.00     0.010 A 
ATOM     36  C   UNL A   1      40.177  26.692  28.146  1.00  0.00    -0.014 A 
BRANCH  36  37
ATOM     37  C   UNL A   1      40.566  27.945  28.851  1.00  0.00     0.031 A 
ATOM     38  C   UNL A   1      39.574  29.068  29.025  1.00  0.00     0.074 A 
ATOM     39  C   UNL A   1      41.830  28.095  29.293  1.00  0.00     0.049 A 
ATOM     40  N   UNL A   1      39.739  30.232  29.605  1.00  0.00    -0.248 NA
ATOM     41  C   UNL A   1      38.235  28.880  28.442  1.00  0.00     0.031 C 
ATOM     42  C   UNL A   1      42.911  27.120  29.125  1.00  0.00     0.029 A 
ATOM     43  N   UNL A   1      42.420  29.124  29.983  1.00  0.00    -0.354 N 
ATOM     44  C   UNL A   1      38.541  30.916  29.428  1.00  0.00     0.074 A 
ATOM     45  C   UNL A   1      37.684  30.068  28.633  1.00  0.00     0.031 C 
ATOM     46  C   UNL A   1      44.013  27.571  29.747  1.00  0.00     0.029 A 
ATOM     47  C   UNL A   1      43.728  28.880  30.324  1.00  0.00     0.049 A 
ATOM     48  H   UNL A   1      41.950  29.958  30.213  1.00  0.00     0.167 HD
ATOM     49  C   UNL A   1      38.170  32.127  29.909  1.00  0.00     0.031 A 
ATOM     50  C   UNL A   1      44.598  29.617  31.039  1.00  0.00     0.031 A 
ATOM     51  C   UNL A   1      39.006  32.958  30.731  1.00  0.00     0.049 A 
ATOM     52  C   UNL A   1      44.150  30.935  31.605  1.00  0.00     0.074 A 
ATOM     53  C   UNL A   1      38.702  34.170  31.327  1.00  0.00     0.029 A 
ATOM     54  N   UNL A   1      40.314  32.658  31.079  1.00  0.00    -0.354 N 
ATOM     55  N   UNL A   1      42.987  31.529  31.493  1.00  0.00    -0.248 NA
ATOM     56  C   UNL A   1      45.131  31.671  32.414  1.00  0.00     0.031 C 
ATOM     57  C   UNL A   1      39.840  34.621  32.004  1.00  0.00     0.029 A 
ATOM     58  C   UNL A   1      40.834  33.665  31.872  1.00  0.00     0.049 A 
ATOM     59  H   UNL A   1      40.799  31.846  30.803  1.00  0.00     0.167 HD
ATOM     60  C   UNL A   1      43.086  32.696  32.239  1.00  0.00     0.074 A 
ATOM     61  C   UNL A   1      44.416  32.713  32.815  1.00  0.00     0.031 C 
ATOM     62  C   UNL A   1      42.161  33.668  32.432  1.00  0.00     0.031 A 
BRANCH  49  63
ATOM     63  C   UNL A   1      36.789  32.614  29.562  1.00  0.00    -0.014 A 
ATOM     64  C   UNL A   1      36.509  33.170  28.303  1.00  0.00     0.009 A 
ATOM     65  C   UNL A   1      35.750  32.502  30.498  1.00  0.00     0.009 A 
ATOM     66  C   UNL A   1      35.228  33.646  28.005  1.00  0.00     0.001 A 
ATOM     67  C   UNL A   1      34.463  32.947  30.187  1.00  0.00     0.001 A 
ATOM     68  C   UNL A   1      34.206  33.529  28.947  1.00  0.00     0.000 A 
ENDBRANCH  49  63
BRANCH  50  69
ATOM     69  C   UNL A   1      45.967  29.101  31.307  1.00  0.00    -0.014 A 
ATOM     70  C   UNL A   1      47.026  29.422  30.442  1.00  0.00     0.009 A 
ATOM     71  C   UNL A   1      46.223  28.292  32.424  1.00  0.00     0.009 A 
ATOM     72  C   UNL A   1      48.308  28.919  30.676  1.00  0.00     0.001 A 
ATOM     73  C   UNL A   1      47.513  27.815  32.670  1.00  0.00     0.001 A 
ATOM     74  C   UNL A   1      48.551  28.121  31.792  1.00  0.00     0.000 A 
ENDBRANCH  50  69
BRANCH  62  75
ATOM     75  C   UNL A   1      42.548  34.809  33.327  1.00  0.00    -0.014 A 
ATOM     76  C   UNL A   1      43.148  35.969  32.813  1.00  0.00     0.009 A 
ATOM     77  C   UNL A   1      42.292  34.727  34.704  1.00  0.00     0.009 A 
ATOM     78  C   UNL A   1      43.524  37.006  33.668  1.00  0.00     0.001 A 
ATOM     79  C   UNL A   1      42.643  35.778  35.553  1.00  0.00     0.001 A 
ATOM     80  C   UNL A   1      43.269  36.910  35.036  1.00  0.00     0.000 A 
ENDBRANCH  62  75
ENDBRANCH  36  37
ENDBRANCH  28  31
ENDBRANCH  26  27
ENDBRANCH  25  26
ENDBRANCH   1  25
TORSDOF 13
ENDMDL
