MODEL 1
REMARK VINA RESULT:     -10.3      0.000      0.000
REMARK SMILES CCS(=O)(=O)N[C@H]1C=C[C@@H](C(=O)NCCCNC(=O)c2ccc(-c3c4nc(c(-c5ccccc5)c5ccc([nH]5)c(-c5ccccc5)c5nc(c(-c6ccccc6)c6ccc3[nH]6)C=C5)C=C4)cc2)C1
REMARK SMILES IDX 14 1 13 2 11 3 12 4 10 6 7 7 8 8 68 9 9 10 6 11 3 13 4 14
REMARK SMILES IDX 5 15 2 16 1 17 15 18 16 19 17 20 18 21 19 23 20 24 21 25
REMARK SMILES IDX 67 26 22 27 66 28 23 29 24 30 25 31 60 32 26 33 65 34 59 35
REMARK SMILES IDX 61 36 27 37 64 38 58 39 57 40 28 42 50 43 35 44 49 45 36 46
REMARK SMILES IDX 39 47 48 48 62 49 37 50 38 51 47 53 63 54 40 55 29 56 30 57
REMARK SMILES IDX 34 58 31 59 33 60 32 61 51 62 52 63 56 64 53 65 55 66 54 67
REMARK SMILES IDX 41 68 42 69 46 70 43 71 45 72 44 73
REMARK H PARENT 13 5 6 12 17 22 61 41 39 52
REMARK Flexibility Score: inf
ROOT
ATOM      1  C   UNL A   1      33.809  26.442  25.809  1.00  0.00     0.117 C 
ENDROOT
BRANCH   1   2
ATOM      2  N   UNL A   1      33.708  26.188  24.389  1.00  0.00    -0.356 N 
ATOM      3  C   UNL A   1      32.787  26.590  23.478  1.00  0.00     0.226 C 
ATOM      4  O   UNL A   1      32.985  26.237  22.310  1.00  0.00    -0.274 OA
ATOM      5  H   UNL A   1      34.431  25.630  24.020  1.00  0.00     0.163 HD
BRANCH   3   6
ATOM      6  C   UNL A   1      31.590  27.494  23.802  1.00  0.00     0.103 C 
ATOM      7  C   UNL A   1      29.967  29.123  23.008  1.00  0.00     0.093 C 
ATOM      8  C   UNL A   1      29.369  27.768  23.108  1.00  0.00    -0.011 C 
ATOM      9  C   UNL A   1      31.476  28.886  23.160  1.00  0.00     0.042 C 
ATOM     10  C   UNL A   1      30.262  26.856  23.507  1.00  0.00    -0.016 C 
BRANCH   7  11
ATOM     11  N   UNL A   1      29.455  29.851  21.851  1.00  0.00    -0.208 NA
ATOM     12  H   UNL A   1      30.205  30.502  21.617  1.00  0.00     0.141 HD
BRANCH  11  13
ATOM     13  S   UNL A   1      28.078  30.744  21.675  1.00  0.00     0.211 S 
ATOM     14  O   UNL A   1      27.169  30.464  22.759  1.00  0.00    -0.212 OA
ATOM     15  O   UNL A   1      27.664  30.460  20.317  1.00  0.00    -0.212 OA
BRANCH  13  16
ATOM     16  C   UNL A   1      28.516  32.482  21.696  1.00  0.00     0.150 C 
ATOM     17  C   UNL A   1      28.841  33.110  23.028  1.00  0.00     0.022 C 
ENDBRANCH  13  16
ENDBRANCH  11  13
ENDBRANCH   7  11
ENDBRANCH   3   6
ENDBRANCH   1   2
BRANCH   1  18
ATOM     18  C   UNL A   1      34.050  27.917  26.110  1.00  0.00     0.042 C 
BRANCH  18  19
ATOM     19  C   UNL A   1      33.316  28.419  27.342  1.00  0.00     0.118 C 
BRANCH  19  20
ATOM     20  N   UNL A   1      33.410  29.869  27.474  1.00  0.00    -0.352 N 
ATOM     21  C   UNL A   1      34.388  30.660  28.027  1.00  0.00     0.251 C 
ATOM     22  H   UNL A   1      32.644  30.364  27.105  1.00  0.00     0.163 HD
ATOM     23  O   UNL A   1      34.124  31.831  28.295  1.00  0.00    -0.269 OA
BRANCH  21  24
ATOM     24  C   UNL A   1      35.745  30.135  28.313  1.00  0.00     0.039 A 
ATOM     25  C   UNL A   1      36.710  30.157  27.299  1.00  0.00     0.014 A 
ATOM     26  C   UNL A   1      36.064  29.558  29.543  1.00  0.00     0.014 A 
ATOM     27  C   UNL A   1      37.997  29.668  27.543  1.00  0.00     0.010 A 
ATOM     28  C   UNL A   1      37.373  29.169  29.819  1.00  0.00     0.010 A 
ATOM     29  C   UNL A   1      38.354  29.208  28.819  1.00  0.00    -0.014 A 
BRANCH  29  30
ATOM     30  C   UNL A   1      39.738  28.760  29.135  1.00  0.00     0.031 A 
ATOM     31  C   UNL A   1      40.718  29.712  29.774  1.00  0.00     0.074 A 
ATOM     32  C   UNL A   1      40.141  27.525  28.770  1.00  0.00     0.049 A 
ATOM     33  N   UNL A   1      41.991  29.538  30.027  1.00  0.00    -0.248 NA
ATOM     34  C   UNL A   1      40.211  31.041  30.153  1.00  0.00     0.031 C 
ATOM     35  C   UNL A   1      39.307  26.521  28.105  1.00  0.00     0.029 A 
ATOM     36  N   UNL A   1      41.363  26.910  28.893  1.00  0.00    -0.354 N 
ATOM     37  C   UNL A   1      42.440  30.740  30.562  1.00  0.00     0.074 A 
ATOM     38  C   UNL A   1      41.315  31.648  30.563  1.00  0.00     0.031 C 
ATOM     39  C   UNL A   1      40.036  25.414  27.894  1.00  0.00     0.029 A 
ATOM     40  C   UNL A   1      41.399  25.643  28.359  1.00  0.00     0.049 A 
ATOM     41  H   UNL A   1      42.140  27.335  29.323  1.00  0.00     0.167 HD
ATOM     42  C   UNL A   1      43.673  31.056  31.022  1.00  0.00     0.031 A 
ATOM     43  C   UNL A   1      42.418  24.773  28.233  1.00  0.00     0.031 A 
ATOM     44  C   UNL A   1      44.787  30.145  31.045  1.00  0.00     0.049 A 
ATOM     45  C   UNL A   1      43.779  25.156  28.748  1.00  0.00     0.074 A 
ATOM     46  C   UNL A   1      46.052  30.349  31.569  1.00  0.00     0.029 A 
ATOM     47  N   UNL A   1      44.771  28.864  30.519  1.00  0.00    -0.354 N 
ATOM     48  N   UNL A   1      44.160  26.266  29.332  1.00  0.00    -0.248 NA
ATOM     49  C   UNL A   1      44.849  24.159  28.594  1.00  0.00     0.031 C 
ATOM     50  C   UNL A   1      46.824  29.217  31.297  1.00  0.00     0.029 A 
ATOM     51  C   UNL A   1      46.019  28.281  30.670  1.00  0.00     0.049 A 
ATOM     52  H   UNL A   1      43.992  28.434  30.099  1.00  0.00     0.167 HD
ATOM     53  C   UNL A   1      45.503  26.088  29.642  1.00  0.00     0.074 A 
ATOM     54  C   UNL A   1      45.863  24.757  29.203  1.00  0.00     0.031 C 
ATOM     55  C   UNL A   1      46.363  26.953  30.234  1.00  0.00     0.031 A 
BRANCH  42  56
ATOM     56  C   UNL A   1      43.903  32.453  31.530  1.00  0.00    -0.014 A 
ATOM     57  C   UNL A   1      44.283  33.494  30.668  1.00  0.00     0.009 A 
ATOM     58  C   UNL A   1      43.653  32.749  32.880  1.00  0.00     0.009 A 
ATOM     59  C   UNL A   1      44.430  34.796  31.153  1.00  0.00     0.001 A 
ATOM     60  C   UNL A   1      43.771  34.056  33.356  1.00  0.00     0.001 A 
ATOM     61  C   UNL A   1      44.165  35.078  32.493  1.00  0.00     0.000 A 
ENDBRANCH  42  56
BRANCH  43  62
ATOM     62  C   UNL A   1      42.209  23.457  27.570  1.00  0.00    -0.014 A 
ATOM     63  C   UNL A   1      41.768  22.343  28.302  1.00  0.00     0.009 A 
ATOM     64  C   UNL A   1      42.489  23.296  26.203  1.00  0.00     0.009 A 
ATOM     65  C   UNL A   1      41.657  21.091  27.692  1.00  0.00     0.001 A 
ATOM     66  C   UNL A   1      42.341  22.052  25.587  1.00  0.00     0.001 A 
ATOM     67  C   UNL A   1      41.941  20.947  26.335  1.00  0.00     0.000 A 
ENDBRANCH  43  62
BRANCH  55  68
ATOM     68  C   UNL A   1      47.765  26.471  30.482  1.00  0.00    -0.014 A 
ATOM     69  C   UNL A   1      48.781  26.650  29.530  1.00  0.00     0.009 A 
ATOM     70  C   UNL A   1      48.081  25.864  31.708  1.00  0.00     0.009 A 
ATOM     71  C   UNL A   1      50.076  26.194  29.787  1.00  0.00     0.001 A 
ATOM     72  C   UNL A   1      49.384  25.443  31.976  1.00  0.00     0.001 A 
ATOM     73  C   UNL A   1      50.377  25.597  31.011  1.00  0.00     0.000 A 
ENDBRANCH  55  68
ENDBRANCH  29  30
ENDBRANCH  21  24
ENDBRANCH  19  20
ENDBRANCH  18  19
ENDBRANCH   1  18
TORSDOF 13
ENDMDL
MODEL 2
REMARK VINA RESULT:     -10.2      4.030      9.346
REMARK SMILES CCS(=O)(=O)N[C@H]1C=C[C@@H](C(=O)NCCCNC(=O)c2ccc(-c3c4nc(c(-c5ccccc5)c5ccc([nH]5)c(-c5ccccc5)c5nc(c(-c6ccccc6)c6ccc3[nH]6)C=C5)C=C4)cc2)C1
REMARK SMILES IDX 14 1 13 2 11 3 12 4 10 6 7 7 8 8 68 9 9 10 6 11 3 13 4 14
REMARK SMILES IDX 5 15 2 16 1 17 15 18 16 19 17 20 18 21 19 23 20 24 21 25
REMARK SMILES IDX 67 26 22 27 66 28 23 29 24 30 25 31 60 32 26 33 65 34 59 35
REMARK SMILES IDX 61 36 27 37 64 38 58 39 57 40 28 42 50 43 35 44 49 45 36 46
REMARK SMILES IDX 39 47 48 48 62 49 37 50 38 51 47 53 63 54 40 55 29 56 30 57
REMARK SMILES IDX 34 58 31 59 33 60 32 61 51 62 52 63 56 64 53 65 55 66 54 67
REMARK SMILES IDX 41 68 42 69 46 70 43 71 45 72 44 73
REMARK H PARENT 13 5 6 12 17 22 61 41 39 52
REMARK Flexibility Score: inf
ROOT
ATOM      1  C   UNL A   1      34.316  34.863  30.174  1.00  0.00     0.117 C 
ENDROOT
BRANCH   1   2
ATOM      2  N   UNL A   1      33.634  34.347  31.341  1.00  0.00    -0.356 N 
ATOM      3  C   UNL A   1      34.097  33.629  32.394  1.00  0.00     0.226 C 
ATOM      4  O   UNL A   1      33.271  33.354  33.272  1.00  0.00    -0.274 OA
ATOM      5  H   UNL A   1      32.672  34.551  31.377  1.00  0.00     0.163 HD
BRANCH   3   6
ATOM      6  C   UNL A   1      35.564  33.220  32.583  1.00  0.00     0.103 C 
ATOM      7  C   UNL A   1      37.200  31.961  33.869  1.00  0.00     0.093 C 
ATOM      8  C   UNL A   1      36.839  31.254  32.614  1.00  0.00    -0.011 C 
ATOM      9  C   UNL A   1      36.151  33.073  33.997  1.00  0.00     0.042 C 
ATOM     10  C   UNL A   1      35.912  31.919  31.917  1.00  0.00    -0.016 C 
BRANCH   7  11
ATOM     11  N   UNL A   1      37.409  31.024  34.970  1.00  0.00    -0.208 NA
ATOM     12  H   UNL A   1      36.508  31.001  35.448  1.00  0.00     0.141 HD
BRANCH  11  13
ATOM     13  S   UNL A   1      38.514  31.048  36.197  1.00  0.00     0.211 S 
ATOM     14  O   UNL A   1      39.550  30.078  35.943  1.00  0.00    -0.212 OA
ATOM     15  O   UNL A   1      37.698  30.913  37.385  1.00  0.00    -0.212 OA
BRANCH  13  16
ATOM     16  C   UNL A   1      39.236  32.685  36.285  1.00  0.00     0.150 C 
ATOM     17  C   UNL A   1      38.700  33.636  37.327  1.00  0.00     0.022 C 
ENDBRANCH  13  16
ENDBRANCH  11  13
ENDBRANCH   7  11
ENDBRANCH   3   6
ENDBRANCH   1   2
BRANCH   1  18
ATOM     18  C   UNL A   1      33.847  34.184  28.892  1.00  0.00     0.042 C 
BRANCH  18  19
ATOM     19  C   UNL A   1      34.752  33.053  28.431  1.00  0.00     0.118 C 
BRANCH  19  20
ATOM     20  N   UNL A   1      33.986  31.882  28.021  1.00  0.00    -0.352 N 
ATOM     21  C   UNL A   1      34.388  30.600  27.732  1.00  0.00     0.251 C 
ATOM     22  H   UNL A   1      33.018  32.035  27.936  1.00  0.00     0.163 HD
ATOM     23  O   UNL A   1      33.620  29.859  27.123  1.00  0.00    -0.269 OA
BRANCH  21  24
ATOM     24  C   UNL A   1      35.725  30.096  28.129  1.00  0.00     0.039 A 
ATOM     25  C   UNL A   1      36.798  30.246  27.244  1.00  0.00     0.014 A 
ATOM     26  C   UNL A   1      35.926  29.417  29.332  1.00  0.00     0.014 A 
ATOM     27  C   UNL A   1      38.070  29.780  27.593  1.00  0.00     0.010 A 
ATOM     28  C   UNL A   1      37.210  29.049  29.726  1.00  0.00     0.010 A 
ATOM     29  C   UNL A   1      38.298  29.214  28.857  1.00  0.00    -0.014 A 
BRANCH  29  30
ATOM     30  C   UNL A   1      39.654  28.786  29.293  1.00  0.00     0.031 A 
ATOM     31  C   UNL A   1      40.222  27.468  28.830  1.00  0.00     0.074 A 
ATOM     32  C   UNL A   1      40.344  29.542  30.173  1.00  0.00     0.049 A 
ATOM     33  N   UNL A   1      41.337  26.880  29.184  1.00  0.00    -0.248 NA
ATOM     34  C   UNL A   1      39.421  26.697  27.864  1.00  0.00     0.031 C 
ATOM     35  C   UNL A   1      39.891  30.817  30.735  1.00  0.00     0.029 A 
ATOM     36  N   UNL A   1      41.567  29.337  30.763  1.00  0.00    -0.354 N 
ATOM     37  C   UNL A   1      41.354  25.662  28.513  1.00  0.00     0.074 A 
ATOM     38  C   UNL A   1      40.123  25.577  27.761  1.00  0.00     0.031 C 
ATOM     39  C   UNL A   1      40.829  31.287  31.573  1.00  0.00     0.029 A 
ATOM     40  C   UNL A   1      41.924  30.326  31.650  1.00  0.00     0.049 A 
ATOM     41  H   UNL A   1      42.135  28.557  30.569  1.00  0.00     0.167 HD
ATOM     42  C   UNL A   1      42.313  24.706  28.515  1.00  0.00     0.031 A 
ATOM     43  C   UNL A   1      42.997  30.437  32.456  1.00  0.00     0.031 A 
ATOM     44  C   UNL A   1      43.550  24.801  29.243  1.00  0.00     0.049 A 
ATOM     45  C   UNL A   1      44.042  29.354  32.439  1.00  0.00     0.074 A 
ATOM     46  C   UNL A   1      44.618  23.921  29.240  1.00  0.00     0.029 A 
ATOM     47  N   UNL A   1      43.881  25.831  30.108  1.00  0.00    -0.354 N 
ATOM     48  N   UNL A   1      44.081  28.253  31.729  1.00  0.00    -0.248 NA
ATOM     49  C   UNL A   1      45.198  29.537  33.329  1.00  0.00     0.031 C 
ATOM     50  C   UNL A   1      45.567  24.382  30.156  1.00  0.00     0.029 A 
ATOM     51  C   UNL A   1      45.122  25.587  30.674  1.00  0.00     0.049 A 
ATOM     52  H   UNL A   1      43.319  26.617  30.293  1.00  0.00     0.167 HD
ATOM     53  C   UNL A   1      45.277  27.629  32.064  1.00  0.00     0.074 A 
ATOM     54  C   UNL A   1      45.943  28.486  33.022  1.00  0.00     0.031 C 
ATOM     55  C   UNL A   1      45.777  26.450  31.622  1.00  0.00     0.031 A 
BRANCH  42  56
ATOM     56  C   UNL A   1      42.067  23.456  27.714  1.00  0.00    -0.014 A 
ATOM     57  C   UNL A   1      41.332  22.382  28.238  1.00  0.00     0.009 A 
ATOM     58  C   UNL A   1      42.509  23.389  26.383  1.00  0.00     0.009 A 
ATOM     59  C   UNL A   1      41.065  21.257  27.454  1.00  0.00     0.001 A 
ATOM     60  C   UNL A   1      42.215  22.277  25.591  1.00  0.00     0.001 A 
ATOM     61  C   UNL A   1      41.498  21.210  26.129  1.00  0.00     0.000 A 
ENDBRANCH  42  56
BRANCH  43  62
ATOM     62  C   UNL A   1      43.137  31.603  33.370  1.00  0.00    -0.014 A 
ATOM     63  C   UNL A   1      43.829  32.756  32.966  1.00  0.00     0.009 A 
ATOM     64  C   UNL A   1      42.612  31.553  34.671  1.00  0.00     0.009 A 
ATOM     65  C   UNL A   1      44.032  33.811  33.859  1.00  0.00     0.001 A 
ATOM     66  C   UNL A   1      42.783  32.625  35.549  1.00  0.00     0.001 A 
ATOM     67  C   UNL A   1      43.507  33.746  35.149  1.00  0.00     0.000 A 
ENDBRANCH  43  62
BRANCH  55  68
ATOM     68  C   UNL A   1      47.128  26.036  32.134  1.00  0.00    -0.014 A 
ATOM     69  C   UNL A   1      47.263  25.206  33.258  1.00  0.00     0.009 A 
ATOM     70  C   UNL A   1      48.283  26.453  31.453  1.00  0.00     0.009 A 
ATOM     71  C   UNL A   1      48.531  24.836  33.712  1.00  0.00     0.001 A 
ATOM     72  C   UNL A   1      49.547  26.051  31.888  1.00  0.00     0.001 A 
ATOM     73  C   UNL A   1      49.670  25.253  33.023  1.00  0.00     0.000 A 
ENDBRANCH  55  68
ENDBRANCH  29  30
ENDBRANCH  21  24
ENDBRANCH  19  20
ENDBRANCH  18  19
ENDBRANCH   1  18
TORSDOF 13
ENDMDL
MODEL 3
REMARK VINA RESULT:     -10.1      4.677      8.641
REMARK SMILES CCS(=O)(=O)N[C@H]1C=C[C@@H](C(=O)NCCCNC(=O)c2ccc(-c3c4nc(c(-c5ccccc5)c5ccc([nH]5)c(-c5ccccc5)c5nc(c(-c6ccccc6)c6ccc3[nH]6)C=C5)C=C4)cc2)C1
REMARK SMILES IDX 14 1 13 2 11 3 12 4 10 6 7 7 8 8 68 9 9 10 6 11 3 13 4 14
REMARK SMILES IDX 5 15 2 16 1 17 15 18 16 19 17 20 18 21 19 23 20 24 21 25
REMARK SMILES IDX 67 26 22 27 66 28 23 29 24 30 25 31 60 32 26 33 65 34 59 35
REMARK SMILES IDX 61 36 27 37 64 38 58 39 57 40 28 42 50 43 35 44 49 45 36 46
REMARK SMILES IDX 39 47 48 48 62 49 37 50 38 51 47 53 63 54 40 55 29 56 30 57
REMARK SMILES IDX 34 58 31 59 33 60 32 61 51 62 52 63 56 64 53 65 55 66 54 67
REMARK SMILES IDX 41 68 42 69 46 70 43 71 45 72 44 73
REMARK H PARENT 13 5 6 12 17 22 61 41 39 52
REMARK Flexibility Score: inf
ROOT
ATOM      1  C   UNL A   1      37.035  20.443  24.950  1.00  0.00     0.117 C 
ENDROOT
BRANCH   1   2
ATOM      2  N   UNL A   1      37.289  21.830  25.267  1.00  0.00    -0.356 N 
ATOM      3  C   UNL A   1      36.443  22.829  25.624  1.00  0.00     0.226 C 
ATOM      4  O   UNL A   1      36.964  23.923  25.870  1.00  0.00    -0.274 OA
ATOM      5  H   UNL A   1      38.236  22.096  25.217  1.00  0.00     0.163 HD
BRANCH   3   6
ATOM      6  C   UNL A   1      34.929  22.655  25.804  1.00  0.00     0.103 C 
ATOM      7  C   UNL A   1      33.023  21.145  25.857  1.00  0.00     0.093 C 
ATOM      8  C   UNL A   1      33.458  21.514  27.227  1.00  0.00    -0.011 C 
ATOM      9  C   UNL A   1      34.160  21.633  24.950  1.00  0.00     0.042 C 
ATOM     10  C   UNL A   1      34.530  22.314  27.212  1.00  0.00    -0.016 C 
BRANCH   7  11
ATOM     11  N   UNL A   1      32.582  19.755  25.791  1.00  0.00    -0.208 NA
ATOM     12  H   UNL A   1      33.142  19.284  26.502  1.00  0.00     0.141 HD
BRANCH  11  13
ATOM     13  S   UNL A   1      32.573  18.697  24.523  1.00  0.00     0.211 S 
ATOM     14  O   UNL A   1      32.161  19.376  23.319  1.00  0.00    -0.212 OA
ATOM     15  O   UNL A   1      31.777  17.591  25.015  1.00  0.00    -0.212 OA
BRANCH  13  16
ATOM     16  C   UNL A   1      34.229  18.047  24.307  1.00  0.00     0.150 C 
ATOM     17  C   UNL A   1      34.414  16.896  23.349  1.00  0.00     0.022 C 
ENDBRANCH  13  16
ENDBRANCH  11  13
ENDBRANCH   7  11
ENDBRANCH   3   6
ENDBRANCH   1   2
BRANCH   1  18
ATOM     18  C   UNL A   1      38.318  19.620  24.919  1.00  0.00     0.042 C 
BRANCH  18  19
ATOM     19  C   UNL A   1      39.326  20.017  25.984  1.00  0.00     0.118 C 
BRANCH  19  20
ATOM     20  N   UNL A   1      40.540  19.211  25.906  1.00  0.00    -0.352 N 
ATOM     21  C   UNL A   1      41.864  19.569  25.991  1.00  0.00     0.251 C 
ATOM     22  H   UNL A   1      40.384  18.249  25.770  1.00  0.00     0.163 HD
ATOM     23  O   UNL A   1      42.720  18.777  25.602  1.00  0.00    -0.269 OA
BRANCH  21  24
ATOM     24  C   UNL A   1      42.281  20.886  26.530  1.00  0.00     0.039 A 
ATOM     25  C   UNL A   1      42.677  21.890  25.639  1.00  0.00     0.014 A 
ATOM     26  C   UNL A   1      42.354  21.127  27.903  1.00  0.00     0.014 A 
ATOM     27  C   UNL A   1      43.075  23.142  26.120  1.00  0.00     0.010 A 
ATOM     28  C   UNL A   1      42.648  22.404  28.377  1.00  0.00     0.010 A 
ATOM     29  C   UNL A   1      43.024  23.425  27.494  1.00  0.00    -0.014 A 
BRANCH  29  30
ATOM     30  C   UNL A   1      43.358  24.771  28.031  1.00  0.00     0.031 A 
ATOM     31  C   UNL A   1      42.266  25.774  28.307  1.00  0.00     0.074 A 
ATOM     32  C   UNL A   1      44.650  25.125  28.193  1.00  0.00     0.049 A 
ATOM     33  N   UNL A   1      42.369  27.026  28.676  1.00  0.00    -0.248 NA
ATOM     34  C   UNL A   1      40.878  25.321  28.116  1.00  0.00     0.031 C 
ATOM     35  C   UNL A   1      45.806  24.266  27.922  1.00  0.00     0.029 A 
ATOM     36  N   UNL A   1      45.209  26.308  28.609  1.00  0.00    -0.354 N 
ATOM     37  C   UNL A   1      41.069  27.515  28.729  1.00  0.00     0.074 A 
ATOM     38  C   UNL A   1      40.196  26.439  28.319  1.00  0.00     0.031 C 
ATOM     39  C   UNL A   1      46.932  24.945  28.194  1.00  0.00     0.029 A 
ATOM     40  C   UNL A   1      46.585  26.300  28.607  1.00  0.00     0.049 A 
ATOM     41  H   UNL A   1      44.676  27.089  28.884  1.00  0.00     0.167 HD
ATOM     42  C   UNL A   1      40.640  28.745  29.097  1.00  0.00     0.031 A 
ATOM     43  C   UNL A   1      47.469  27.278  28.881  1.00  0.00     0.031 A 
ATOM     44  C   UNL A   1      41.506  29.809  29.530  1.00  0.00     0.049 A 
ATOM     45  C   UNL A   1      46.960  28.636  29.282  1.00  0.00     0.074 A 
ATOM     46  C   UNL A   1      41.156  31.063  30.002  1.00  0.00     0.029 A 
ATOM     47  N   UNL A   1      42.890  29.749  29.538  1.00  0.00    -0.354 N 
ATOM     48  N   UNL A   1      45.723  29.051  29.412  1.00  0.00    -0.248 NA
ATOM     49  C   UNL A   1      47.972  29.659  29.582  1.00  0.00     0.031 C 
ATOM     50  C   UNL A   1      42.330  31.786  30.230  1.00  0.00     0.029 A 
ATOM     51  C   UNL A   1      43.409  30.958  29.969  1.00  0.00     0.049 A 
ATOM     52  H   UNL A   1      43.423  28.965  29.275  1.00  0.00     0.167 HD
ATOM     53  C   UNL A   1      45.810  30.370  29.839  1.00  0.00     0.074 A 
ATOM     54  C   UNL A   1      47.218  30.678  29.967  1.00  0.00     0.031 C 
ATOM     55  C   UNL A   1      44.813  31.250  30.098  1.00  0.00     0.031 A 
BRANCH  42  56
ATOM     56  C   UNL A   1      39.163  29.026  29.039  1.00  0.00    -0.014 A 
ATOM     57  C   UNL A   1      38.343  28.879  30.169  1.00  0.00     0.009 A 
ATOM     58  C   UNL A   1      38.599  29.527  27.854  1.00  0.00     0.009 A 
ATOM     59  C   UNL A   1      36.986  29.205  30.106  1.00  0.00     0.001 A 
ATOM     60  C   UNL A   1      37.250  29.882  27.802  1.00  0.00     0.001 A 
ATOM     61  C   UNL A   1      36.443  29.715  28.926  1.00  0.00     0.000 A 
ENDBRANCH  42  56
BRANCH  43  62
ATOM     62  C   UNL A   1      48.931  27.026  28.766  1.00  0.00    -0.014 A 
ATOM     63  C   UNL A   1      49.605  27.233  27.552  1.00  0.00     0.009 A 
ATOM     64  C   UNL A   1      49.657  26.537  29.864  1.00  0.00     0.009 A 
ATOM     65  C   UNL A   1      50.959  26.912  27.427  1.00  0.00     0.001 A 
ATOM     66  C   UNL A   1      51.019  26.253  29.747  1.00  0.00     0.001 A 
ATOM     67  C   UNL A   1      51.665  26.425  28.525  1.00  0.00     0.000 A 
ENDBRANCH  43  62
BRANCH  55  68
ATOM     68  C   UNL A   1      45.205  32.616  30.588  1.00  0.00    -0.014 A 
ATOM     69  C   UNL A   1      45.396  33.687  29.700  1.00  0.00     0.009 A 
ATOM     70  C   UNL A   1      45.347  32.842  31.966  1.00  0.00     0.009 A 
ATOM     71  C   UNL A   1      45.759  34.946  30.182  1.00  0.00     0.001 A 
ATOM     72  C   UNL A   1      45.675  34.111  32.447  1.00  0.00     0.001 A 
ATOM     73  C   UNL A   1      45.892  35.158  31.554  1.00  0.00     0.000 A 
ENDBRANCH  55  68
ENDBRANCH  29  30
ENDBRANCH  21  24
ENDBRANCH  19  20
ENDBRANCH  18  19
ENDBRANCH   1  18
TORSDOF 13
ENDMDL
