MODEL 1
REMARK VINA RESULT:     -10.8      0.000      0.000
REMARK SMILES O=C(NCCCNC(=O)[C@@H]1C=C[C@@H]([NH+]2CC3(CC3)C2)C1)c1ccc(-c2c3nc(c(-c4ccccc4)c4ccc([nH]4)c(-c4ccccc4)c4nc(c(-c5ccccc5)c5ccc2[nH]5)C=C4)C=C3)cc1
REMARK SMILES IDX 4 1 3 2 1 3 2 4 21 6 22 7 68 8 23 9 67 10 24 11 25 12 26 13
REMARK SMILES IDX 61 14 27 15 66 16 60 17 62 18 28 19 65 20 59 21 58 22 29 24
REMARK SMILES IDX 51 25 36 26 50 27 37 28 40 29 49 30 63 31 38 32 39 33 48 35
REMARK SMILES IDX 64 36 41 37 30 38 31 39 35 40 32 41 34 42 33 43 52 44 53 45
REMARK SMILES IDX 57 46 54 47 56 48 55 49 42 50 43 51 47 52 44 53 46 54 45 55
REMARK SMILES IDX 5 56 6 57 7 58 8 59 9 61 10 62 11 63 20 64 12 65 13 66 14 67
REMARK SMILES IDX 15 68 19 69 16 71 17 72 18 73
REMARK H PARENT 3 5 62 23 40 34 7 60 14 70
REMARK Flexibility Score: inf
ROOT
ATOM      1  C   UNL A   1      33.803  28.586  27.215  1.00  0.00     0.118 C 
ENDROOT
BRANCH   1   2
ATOM      2  N   UNL A   1      33.678  29.985  27.599  1.00  0.00    -0.352 N 
ATOM      3  O   UNL A   1      34.191  31.863  28.734  1.00  0.00    -0.269 OA
ATOM      4  C   UNL A   1      34.552  30.772  28.299  1.00  0.00     0.251 C 
ATOM      5  H   UNL A   1      32.845  30.427  27.315  1.00  0.00     0.163 HD
BRANCH   4   6
ATOM      6  C   UNL A   1      35.928  30.298  28.537  1.00  0.00     0.039 A 
ATOM      7  C   UNL A   1      36.899  30.420  27.539  1.00  0.00     0.014 A 
ATOM      8  C   UNL A   1      36.251  29.740  29.775  1.00  0.00     0.014 A 
ATOM      9  C   UNL A   1      38.157  29.865  27.729  1.00  0.00     0.010 A 
ATOM     10  C   UNL A   1      37.545  29.270  30.000  1.00  0.00     0.010 A 
ATOM     11  C   UNL A   1      38.500  29.311  28.970  1.00  0.00    -0.014 A 
BRANCH  11  12
ATOM     12  C   UNL A   1      39.889  28.855  29.209  1.00  0.00     0.031 A 
ATOM     13  C   UNL A   1      40.915  29.774  29.802  1.00  0.00     0.074 A 
ATOM     14  C   UNL A   1      40.221  27.599  28.858  1.00  0.00     0.049 A 
ATOM     15  N   UNL A   1      42.185  29.552  30.024  1.00  0.00    -0.248 NA
ATOM     16  C   UNL A   1      40.460  31.121  30.182  1.00  0.00     0.031 C 
ATOM     17  C   UNL A   1      39.305  26.619  28.267  1.00  0.00     0.029 A 
ATOM     18  N   UNL A   1      41.416  26.933  28.940  1.00  0.00    -0.354 N 
ATOM     19  C   UNL A   1      42.689  30.737  30.546  1.00  0.00     0.074 A 
ATOM     20  C   UNL A   1      41.592  31.681  30.583  1.00  0.00     0.031 C 
ATOM     21  C   UNL A   1      39.967  25.473  28.057  1.00  0.00     0.029 A 
ATOM     22  C   UNL A   1      41.364  25.659  28.429  1.00  0.00     0.049 A 
ATOM     23  H   UNL A   1      42.230  27.328  29.326  1.00  0.00     0.167 HD
ATOM     24  C   UNL A   1      43.953  31.008  30.956  1.00  0.00     0.031 A 
ATOM     25  C   UNL A   1      42.337  24.751  28.240  1.00  0.00     0.031 A 
ATOM     26  C   UNL A   1      45.039  30.063  30.896  1.00  0.00     0.049 A 
ATOM     27  C   UNL A   1      43.737  25.091  28.653  1.00  0.00     0.074 A 
ATOM     28  C   UNL A   1      46.344  30.224  31.325  1.00  0.00     0.029 A 
ATOM     29  N   UNL A   1      44.949  28.787  30.359  1.00  0.00    -0.354 N 
ATOM     30  N   UNL A   1      44.191  26.195  29.196  1.00  0.00    -0.248 NA
ATOM     31  C   UNL A   1      44.760  24.060  28.434  1.00  0.00     0.031 C 
ATOM     32  C   UNL A   1      47.062  29.073  30.981  1.00  0.00     0.029 A 
ATOM     33  C   UNL A   1      46.185  28.164  30.408  1.00  0.00     0.049 A 
ATOM     34  H   UNL A   1      44.127  28.383  29.996  1.00  0.00     0.167 HD
ATOM     35  C   UNL A   1      45.546  25.987  29.404  1.00  0.00     0.074 A 
ATOM     36  C   UNL A   1      45.837  24.644  28.941  1.00  0.00     0.031 C 
ATOM     37  C   UNL A   1      46.463  26.830  29.935  1.00  0.00     0.031 A 
BRANCH  24  38
ATOM     38  C   UNL A   1      44.236  32.400  31.452  1.00  0.00    -0.014 A 
ATOM     39  C   UNL A   1      44.618  33.432  30.579  1.00  0.00     0.009 A 
ATOM     40  C   UNL A   1      44.104  32.687  32.820  1.00  0.00     0.009 A 
ATOM     41  C   UNL A   1      44.910  34.706  31.074  1.00  0.00     0.001 A 
ATOM     42  C   UNL A   1      44.362  33.970  33.306  1.00  0.00     0.001 A 
ATOM     43  C   UNL A   1      44.780  34.974  32.436  1.00  0.00     0.000 A 
ENDBRANCH  24  38
BRANCH  25  44
ATOM     44  C   UNL A   1      42.004  23.455  27.597  1.00  0.00    -0.014 A 
ATOM     45  C   UNL A   1      42.224  23.254  26.227  1.00  0.00     0.009 A 
ATOM     46  C   UNL A   1      41.513  22.390  28.371  1.00  0.00     0.009 A 
ATOM     47  C   UNL A   1      41.946  22.015  25.644  1.00  0.00     0.001 A 
ATOM     48  C   UNL A   1      41.268  21.144  27.792  1.00  0.00     0.001 A 
ATOM     49  C   UNL A   1      41.478  20.961  26.428  1.00  0.00     0.000 A 
ENDBRANCH  25  44
BRANCH  37  50
ATOM     50  C   UNL A   1      47.869  26.318  30.080  1.00  0.00    -0.014 A 
ATOM     51  C   UNL A   1      48.810  26.461  29.049  1.00  0.00     0.009 A 
ATOM     52  C   UNL A   1      48.271  25.740  31.294  1.00  0.00     0.009 A 
ATOM     53  C   UNL A   1      50.122  26.016  29.225  1.00  0.00     0.001 A 
ATOM     54  C   UNL A   1      49.590  25.323  31.478  1.00  0.00     0.001 A 
ATOM     55  C   UNL A   1      50.512  25.456  30.441  1.00  0.00     0.000 A 
ENDBRANCH  37  50
ENDBRANCH  11  12
ENDBRANCH   4   6
ENDBRANCH   1   2
BRANCH   1  56
ATOM     56  C   UNL A   1      32.467  27.981  26.808  1.00  0.00     0.042 C 
BRANCH  56  57
ATOM     57  C   UNL A   1      32.597  26.556  26.287  1.00  0.00     0.117 C 
BRANCH  57  58
ATOM     58  N   UNL A   1      31.633  25.692  26.939  1.00  0.00    -0.356 N 
ATOM     59  C   UNL A   1      31.340  24.391  26.654  1.00  0.00     0.227 C 
ATOM     60  H   UNL A   1      31.125  26.095  27.680  1.00  0.00     0.163 HD
ATOM     61  O   UNL A   1      30.285  23.926  27.084  1.00  0.00    -0.274 OA
BRANCH  59  62
ATOM     62  C   UNL A   1      32.366  23.582  25.868  1.00  0.00     0.107 C 
ATOM     63  C   UNL A   1      31.832  22.382  25.157  1.00  0.00    -0.012 C 
ATOM     64  C   UNL A   1      33.439  23.014  26.800  1.00  0.00     0.087 C 
ATOM     65  C   UNL A   1      32.500  21.270  25.481  1.00  0.00     0.033 C 
ATOM     66  C   UNL A   1      33.535  21.498  26.543  1.00  0.00     0.208 C 
BRANCH  66  67
ATOM     67  N   UNL A   1      34.823  20.880  26.191  1.00  0.00    -0.328 N 
ATOM     68  C   UNL A   1      35.007  20.600  24.754  1.00  0.00     0.275 C 
ATOM     69  C   UNL A   1      35.900  21.890  26.138  1.00  0.00     0.275 C 
ATOM     70  H   UNL A   1      34.841  20.100  26.849  1.00  0.00     0.348 HD
ATOM     71  C   UNL A   1      35.754  21.877  24.668  1.00  0.00     0.068 C 
ATOM     72  C   UNL A   1      35.477  23.081  23.812  1.00  0.00     0.020 C 
ATOM     73  C   UNL A   1      36.741  22.292  23.626  1.00  0.00     0.020 C 
ENDBRANCH  66  67
ENDBRANCH  59  62
ENDBRANCH  57  58
ENDBRANCH  56  57
ENDBRANCH   1  56
TORSDOF 11
ENDMDL
MODEL 2
REMARK VINA RESULT:     -10.8      2.472      7.338
REMARK SMILES O=C(NCCCNC(=O)[C@@H]1C=C[C@@H]([NH+]2CC3(CC3)C2)C1)c1ccc(-c2c3nc(c(-c4ccccc4)c4ccc([nH]4)c(-c4ccccc4)c4nc(c(-c5ccccc5)c5ccc2[nH]5)C=C4)C=C3)cc1
REMARK SMILES IDX 4 1 3 2 1 3 2 4 21 6 22 7 68 8 23 9 67 10 24 11 25 12 26 13
REMARK SMILES IDX 61 14 27 15 66 16 60 17 62 18 28 19 65 20 59 21 58 22 29 24
REMARK SMILES IDX 51 25 36 26 50 27 37 28 40 29 49 30 63 31 38 32 39 33 48 35
REMARK SMILES IDX 64 36 41 37 30 38 31 39 35 40 32 41 34 42 33 43 52 44 53 45
REMARK SMILES IDX 57 46 54 47 56 48 55 49 42 50 43 51 47 52 44 53 46 54 45 55
REMARK SMILES IDX 5 56 6 57 7 58 8 59 9 61 10 62 11 63 20 64 12 65 13 66 14 67
REMARK SMILES IDX 15 68 19 69 16 71 17 72 18 73
REMARK H PARENT 3 5 62 23 40 34 7 60 14 70
REMARK Flexibility Score: inf
ROOT
ATOM      1  C   UNL A   1      38.678  20.195  25.510  1.00  0.00     0.118 C 
ENDROOT
BRANCH   1   2
ATOM      2  N   UNL A   1      39.737  19.226  25.753  1.00  0.00    -0.352 N 
ATOM      3  O   UNL A   1      41.858  18.525  26.059  1.00  0.00    -0.269 OA
ATOM      4  C   UNL A   1      41.039  19.440  26.120  1.00  0.00     0.251 C 
ATOM      5  H   UNL A   1      39.481  18.282  25.636  1.00  0.00     0.163 HD
BRANCH   4   6
ATOM      6  C   UNL A   1      41.455  20.779  26.579  1.00  0.00     0.039 A 
ATOM      7  C   UNL A   1      41.415  21.102  27.939  1.00  0.00     0.014 A 
ATOM      8  C   UNL A   1      41.902  21.711  25.642  1.00  0.00     0.014 A 
ATOM      9  C   UNL A   1      41.695  22.398  28.347  1.00  0.00     0.010 A 
ATOM     10  C   UNL A   1      42.277  22.985  26.067  1.00  0.00     0.010 A 
ATOM     11  C   UNL A   1      42.155  23.343  27.420  1.00  0.00    -0.014 A 
BRANCH  11  12
ATOM     12  C   UNL A   1      42.591  24.678  27.891  1.00  0.00     0.031 A 
ATOM     13  C   UNL A   1      41.594  25.748  28.220  1.00  0.00     0.074 A 
ATOM     14  C   UNL A   1      43.911  24.923  27.994  1.00  0.00     0.049 A 
ATOM     15  N   UNL A   1      41.808  26.984  28.590  1.00  0.00    -0.248 NA
ATOM     16  C   UNL A   1      40.171  25.388  28.107  1.00  0.00     0.031 C 
ATOM     17  C   UNL A   1      44.973  23.957  27.693  1.00  0.00     0.029 A 
ATOM     18  N   UNL A   1      44.585  26.054  28.371  1.00  0.00    -0.354 N 
ATOM     19  C   UNL A   1      40.551  27.559  28.730  1.00  0.00     0.074 A 
ATOM     20  C   UNL A   1      39.581  26.543  28.380  1.00  0.00     0.031 C 
ATOM     21  C   UNL A   1      46.162  24.532  27.916  1.00  0.00     0.029 A 
ATOM     22  C   UNL A   1      45.950  25.921  28.303  1.00  0.00     0.049 A 
ATOM     23  H   UNL A   1      44.136  26.880  28.662  1.00  0.00     0.167 HD
ATOM     24  C   UNL A   1      40.239  28.821  29.115  1.00  0.00     0.031 A 
ATOM     25  C   UNL A   1      46.928  26.825  28.489  1.00  0.00     0.031 A 
ATOM     26  C   UNL A   1      41.216  29.828  29.443  1.00  0.00     0.049 A 
ATOM     27  C   UNL A   1      46.559  28.227  28.865  1.00  0.00     0.074 A 
ATOM     28  C   UNL A   1      41.003  31.122  29.885  1.00  0.00     0.029 A 
ATOM     29  N   UNL A   1      42.589  29.659  29.348  1.00  0.00    -0.354 N 
ATOM     30  N   UNL A   1      45.368  28.745  29.047  1.00  0.00    -0.248 NA
ATOM     31  C   UNL A   1      47.665  29.172  29.067  1.00  0.00     0.031 C 
ATOM     32  C   UNL A   1      42.245  31.758  29.987  1.00  0.00     0.029 A 
ATOM     33  C   UNL A   1      43.236  30.837  29.683  1.00  0.00     0.049 A 
ATOM     34  H   UNL A   1      43.039  28.824  29.081  1.00  0.00     0.167 HD
ATOM     35  C   UNL A   1      45.579  30.068  29.405  1.00  0.00     0.074 A 
ATOM     36  C   UNL A   1      47.015  30.269  29.428  1.00  0.00     0.031 C 
ATOM     37  C   UNL A   1      44.666  31.026  29.694  1.00  0.00     0.031 A 
BRANCH  24  38
ATOM     38  C   UNL A   1      38.781  29.194  29.147  1.00  0.00    -0.014 A 
ATOM     39  C   UNL A   1      38.009  29.056  30.313  1.00  0.00     0.009 A 
ATOM     40  C   UNL A   1      38.172  29.708  27.992  1.00  0.00     0.009 A 
ATOM     41  C   UNL A   1      36.649  29.376  30.304  1.00  0.00     0.001 A 
ATOM     42  C   UNL A   1      36.821  30.060  27.995  1.00  0.00     0.001 A 
ATOM     43  C   UNL A   1      36.057  29.879  29.146  1.00  0.00     0.000 A 
ENDBRANCH  24  38
BRANCH  25  44
ATOM     44  C   UNL A   1      48.341  26.416  28.284  1.00  0.00    -0.014 A 
ATOM     45  C   UNL A   1      49.095  25.884  29.340  1.00  0.00     0.009 A 
ATOM     46  C   UNL A   1      48.924  26.507  27.009  1.00  0.00     0.009 A 
ATOM     47  C   UNL A   1      50.410  25.463  29.123  1.00  0.00     0.001 A 
ATOM     48  C   UNL A   1      50.226  26.056  26.789  1.00  0.00     0.001 A 
ATOM     49  C   UNL A   1      50.970  25.541  27.848  1.00  0.00     0.000 A 
ENDBRANCH  25  44
BRANCH  37  50
ATOM     50  C   UNL A   1      45.187  32.377  30.095  1.00  0.00    -0.014 A 
ATOM     51  C   UNL A   1      45.461  33.369  29.141  1.00  0.00     0.009 A 
ATOM     52  C   UNL A   1      45.346  32.679  31.456  1.00  0.00     0.009 A 
ATOM     53  C   UNL A   1      45.903  34.632  29.544  1.00  0.00     0.001 A 
ATOM     54  C   UNL A   1      45.759  33.951  31.858  1.00  0.00     0.001 A 
ATOM     55  C   UNL A   1      46.043  34.923  30.900  1.00  0.00     0.000 A 
ENDBRANCH  37  50
ENDBRANCH  11  12
ENDBRANCH   4   6
ENDBRANCH   1   2
BRANCH   1  56
ATOM     56  C   UNL A   1      37.416  19.540  24.966  1.00  0.00     0.042 C 
BRANCH  56  57
ATOM     57  C   UNL A   1      36.207  20.467  25.002  1.00  0.00     0.117 C 
BRANCH  57  58
ATOM     58  N   UNL A   1      34.981  19.695  25.001  1.00  0.00    -0.356 N 
ATOM     59  C   UNL A   1      33.703  20.142  25.168  1.00  0.00     0.227 C 
ATOM     60  H   UNL A   1      35.083  18.725  24.862  1.00  0.00     0.163 HD
ATOM     61  O   UNL A   1      32.835  19.321  25.460  1.00  0.00    -0.274 OA
BRANCH  59  62
ATOM     62  C   UNL A   1      33.426  21.622  24.928  1.00  0.00     0.107 C 
ATOM     63  C   UNL A   1      32.301  22.202  25.718  1.00  0.00    -0.012 C 
ATOM     64  C   UNL A   1      33.023  21.868  23.472  1.00  0.00     0.087 C 
ATOM     65  C   UNL A   1      31.399  22.805  24.937  1.00  0.00     0.033 C 
ATOM     66  C   UNL A   1      31.696  22.652  23.474  1.00  0.00     0.208 C 
BRANCH  66  67
ATOM     67  N   UNL A   1      31.583  23.931  22.758  1.00  0.00    -0.328 N 
ATOM     68  C   UNL A   1      31.437  25.118  23.622  1.00  0.00     0.275 C 
ATOM     69  C   UNL A   1      32.908  24.411  22.314  1.00  0.00     0.275 C 
ATOM     70  H   UNL A   1      30.836  23.710  22.098  1.00  0.00     0.348 HD
ATOM     71  C   UNL A   1      32.898  25.325  23.475  1.00  0.00     0.068 C 
ATOM     72  C   UNL A   1      33.956  25.389  24.540  1.00  0.00     0.020 C 
ATOM     73  C   UNL A   1      33.669  26.587  23.680  1.00  0.00     0.020 C 
ENDBRANCH  66  67
ENDBRANCH  59  62
ENDBRANCH  57  58
ENDBRANCH  56  57
ENDBRANCH   1  56
TORSDOF 11
ENDMDL
MODEL 3
REMARK VINA RESULT:     -10.7      2.278      7.426
REMARK SMILES O=C(NCCCNC(=O)[C@@H]1C=C[C@@H]([NH+]2CC3(CC3)C2)C1)c1ccc(-c2c3nc(c(-c4ccccc4)c4ccc([nH]4)c(-c4ccccc4)c4nc(c(-c5ccccc5)c5ccc2[nH]5)C=C4)C=C3)cc1
REMARK SMILES IDX 4 1 3 2 1 3 2 4 21 6 22 7 68 8 23 9 67 10 24 11 25 12 26 13
REMARK SMILES IDX 61 14 27 15 66 16 60 17 62 18 28 19 65 20 59 21 58 22 29 24
REMARK SMILES IDX 51 25 36 26 50 27 37 28 40 29 49 30 63 31 38 32 39 33 48 35
REMARK SMILES IDX 64 36 41 37 30 38 31 39 35 40 32 41 34 42 33 43 52 44 53 45
REMARK SMILES IDX 57 46 54 47 56 48 55 49 42 50 43 51 47 52 44 53 46 54 45 55
REMARK SMILES IDX 5 56 6 57 7 58 8 59 9 61 10 62 11 63 20 64 12 65 13 66 14 67
REMARK SMILES IDX 15 68 19 69 16 71 17 72 18 73
REMARK H PARENT 3 5 62 23 40 34 7 60 14 70
REMARK Flexibility Score: inf
ROOT
ATOM      1  C   UNL A   1      38.637  20.351  25.470  1.00  0.00     0.118 C 
ENDROOT
BRANCH   1   2
ATOM      2  N   UNL A   1      39.720  19.403  25.691  1.00  0.00    -0.352 N 
ATOM      3  O   UNL A   1      41.855  18.749  25.998  1.00  0.00    -0.269 OA
ATOM      4  C   UNL A   1      41.011  19.639  26.081  1.00  0.00     0.251 C 
ATOM      5  H   UNL A   1      39.491  18.457  25.539  1.00  0.00     0.163 HD
BRANCH   4   6
ATOM      6  C   UNL A   1      41.385  20.971  26.591  1.00  0.00     0.039 A 
ATOM      7  C   UNL A   1      41.902  21.939  25.725  1.00  0.00     0.014 A 
ATOM      8  C   UNL A   1      41.201  21.257  27.945  1.00  0.00     0.014 A 
ATOM      9  C   UNL A   1      42.360  23.145  26.235  1.00  0.00     0.010 A 
ATOM     10  C   UNL A   1      41.572  22.508  28.438  1.00  0.00     0.010 A 
ATOM     11  C   UNL A   1      42.173  23.453  27.589  1.00  0.00    -0.014 A 
BRANCH  11  12
ATOM     12  C   UNL A   1      42.531  24.800  28.091  1.00  0.00     0.031 A 
ATOM     13  C   UNL A   1      43.933  25.123  28.513  1.00  0.00     0.074 A 
ATOM     14  C   UNL A   1      41.560  25.728  28.184  1.00  0.00     0.049 A 
ATOM     15  N   UNL A   1      44.401  26.232  29.025  1.00  0.00    -0.248 NA
ATOM     16  C   UNL A   1      44.937  24.060  28.352  1.00  0.00     0.031 C 
ATOM     17  C   UNL A   1      40.159  25.522  27.808  1.00  0.00     0.029 A 
ATOM     18  N   UNL A   1      41.600  27.023  28.629  1.00  0.00    -0.354 N 
ATOM     19  C   UNL A   1      45.747  25.994  29.272  1.00  0.00     0.074 A 
ATOM     20  C   UNL A   1      46.013  24.628  28.877  1.00  0.00     0.031 C 
ATOM     21  C   UNL A   1      39.477  26.657  28.020  1.00  0.00     0.029 A 
ATOM     22  C   UNL A   1      40.374  27.641  28.612  1.00  0.00     0.049 A 
ATOM     23  H   UNL A   1      42.425  27.467  28.930  1.00  0.00     0.167 HD
ATOM     24  C   UNL A   1      46.673  26.843  29.783  1.00  0.00     0.031 A 
ATOM     25  C   UNL A   1      39.997  28.851  29.061  1.00  0.00     0.031 A 
ATOM     26  C   UNL A   1      46.389  28.195  30.190  1.00  0.00     0.049 A 
ATOM     27  C   UNL A   1      41.028  29.753  29.669  1.00  0.00     0.074 A 
ATOM     28  C   UNL A   1      47.265  29.149  30.678  1.00  0.00     0.029 A 
ATOM     29  N   UNL A   1      45.131  28.780  30.170  1.00  0.00    -0.354 N 
ATOM     30  N   UNL A   1      42.309  29.538  29.847  1.00  0.00    -0.248 NA
ATOM     31  C   UNL A   1      40.566  31.067  30.133  1.00  0.00     0.031 C 
ATOM     32  C   UNL A   1      46.524  30.285  31.023  1.00  0.00     0.029 A 
ATOM     33  C   UNL A   1      45.199  30.067  30.677  1.00  0.00     0.049 A 
ATOM     34  H   UNL A   1      44.311  28.344  29.845  1.00  0.00     0.167 HD
ATOM     35  C   UNL A   1      42.812  30.694  30.424  1.00  0.00     0.074 A 
ATOM     36  C   UNL A   1      41.698  31.614  30.553  1.00  0.00     0.031 C 
ATOM     37  C   UNL A   1      44.082  30.969  30.807  1.00  0.00     0.031 A 
BRANCH  24  38
ATOM     38  C   UNL A   1      48.066  26.309  29.980  1.00  0.00    -0.014 A 
ATOM     39  C   UNL A   1      49.017  26.325  28.946  1.00  0.00     0.009 A 
ATOM     40  C   UNL A   1      48.439  25.792  31.231  1.00  0.00     0.009 A 
ATOM     41  C   UNL A   1      50.292  25.789  29.147  1.00  0.00     0.001 A 
ATOM     42  C   UNL A   1      49.725  25.289  31.439  1.00  0.00     0.001 A 
ATOM     43  C   UNL A   1      50.645  25.273  30.394  1.00  0.00     0.000 A 
ENDBRANCH  24  38
BRANCH  25  44
ATOM     44  C   UNL A   1      38.568  29.244  28.972  1.00  0.00    -0.014 A 
ATOM     45  C   UNL A   1      37.720  29.128  30.083  1.00  0.00     0.009 A 
ATOM     46  C   UNL A   1      38.060  29.792  27.783  1.00  0.00     0.009 A 
ATOM     47  C   UNL A   1      36.389  29.542  29.998  1.00  0.00     0.001 A 
ATOM     48  C   UNL A   1      36.739  30.235  27.712  1.00  0.00     0.001 A 
ATOM     49  C   UNL A   1      35.902  30.103  28.818  1.00  0.00     0.000 A 
ENDBRANCH  25  44
BRANCH  37  50
ATOM     50  C   UNL A   1      44.351  32.336  31.373  1.00  0.00    -0.014 A 
ATOM     51  C   UNL A   1      44.657  33.425  30.543  1.00  0.00     0.009 A 
ATOM     52  C   UNL A   1      44.233  32.545  32.756  1.00  0.00     0.009 A 
ATOM     53  C   UNL A   1      44.859  34.694  31.091  1.00  0.00     0.001 A 
ATOM     54  C   UNL A   1      44.406  33.820  33.298  1.00  0.00     0.001 A 
ATOM     55  C   UNL A   1      44.726  34.891  32.465  1.00  0.00     0.000 A 
ENDBRANCH  37  50
ENDBRANCH  11  12
ENDBRANCH   4   6
ENDBRANCH   1   2
BRANCH   1  56
ATOM     56  C   UNL A   1      37.372  19.669  24.968  1.00  0.00     0.042 C 
BRANCH  56  57
ATOM     57  C   UNL A   1      36.149  20.574  25.031  1.00  0.00     0.117 C 
BRANCH  57  58
ATOM     58  N   UNL A   1      34.935  19.785  24.964  1.00  0.00    -0.356 N 
ATOM     59  C   UNL A   1      33.646  20.208  25.107  1.00  0.00     0.227 C 
ATOM     60  H   UNL A   1      35.056  18.823  24.794  1.00  0.00     0.163 HD
ATOM     61  O   UNL A   1      32.782  19.365  25.343  1.00  0.00    -0.274 OA
BRANCH  59  62
ATOM     62  C   UNL A   1      33.354  21.692  24.911  1.00  0.00     0.107 C 
ATOM     63  C   UNL A   1      32.146  22.209  25.621  1.00  0.00    -0.012 C 
ATOM     64  C   UNL A   1      33.078  21.999  23.437  1.00  0.00     0.087 C 
ATOM     65  C   UNL A   1      31.304  22.829  24.789  1.00  0.00     0.033 C 
ATOM     66  C   UNL A   1      31.736  22.753  23.353  1.00  0.00     0.208 C 
BRANCH  66  67
ATOM     67  N   UNL A   1      31.656  24.063  22.689  1.00  0.00    -0.328 N 
ATOM     68  C   UNL A   1      31.456  25.210  23.596  1.00  0.00     0.275 C 
ATOM     69  C   UNL A   1      33.000  24.566  22.341  1.00  0.00     0.275 C 
ATOM     70  H   UNL A   1      30.947  23.869  21.981  1.00  0.00     0.348 HD
ATOM     71  C   UNL A   1      32.921  25.427  23.539  1.00  0.00     0.068 C 
ATOM     72  C   UNL A   1      33.919  25.448  24.662  1.00  0.00     0.020 C 
ATOM     73  C   UNL A   1      33.672  26.681  23.842  1.00  0.00     0.020 C 
ENDBRANCH  66  67
ENDBRANCH  59  62
ENDBRANCH  57  58
ENDBRANCH  56  57
ENDBRANCH   1  56
TORSDOF 11
ENDMDL
