MODEL 1
REMARK VINA RESULT:     -11.8      0.000      0.000
REMARK SMILES O=C(NCCCNC(=O)c1cnccc1C(=O)Nc1ccc(Cl)c(Cl)c1)c1ccc(-c2c3nc(c(-c4ccccc4)c4ccc([nH]4)c(-c4ccccc4)c4nc(c(-c5ccccc5)c5ccc2[nH]5)C=C4)C=C3)cc1
REMARK SMILES IDX 5 1 4 2 3 3 1 4 2 5 27 7 28 8 74 9 29 10 73 11 30 12 31 13
REMARK SMILES IDX 32 14 67 15 33 16 72 17 66 18 68 19 34 20 71 21 65 22 64 23
REMARK SMILES IDX 35 25 57 26 42 27 56 28 43 29 46 30 55 31 69 32 44 33 45 34
REMARK SMILES IDX 54 36 70 37 47 38 36 39 37 40 41 41 38 42 40 43 39 44 58 45
REMARK SMILES IDX 59 46 63 47 60 48 62 49 61 50 48 51 49 52 53 53 50 54 52 55
REMARK SMILES IDX 51 56 6 57 7 58 8 59 9 61 10 62 11 63 15 64 12 65 14 66
REMARK SMILES IDX 13 67 16 68 17 69 18 70 19 72 20 73 26 74 21 75 24 76 22 77
REMARK SMILES IDX 25 78 23 79
REMARK H PARENT 3 6 68 24 46 35 7 60 18 71
REMARK Flexibility Score: inf
ROOT
ATOM      1  C   UNL A   1      37.819  20.015  24.989  1.00  0.00     0.042 C 
ENDROOT
BRANCH   1   2
ATOM      2  C   UNL A   1      39.036  20.262  25.872  1.00  0.00     0.118 C 
BRANCH   2   3
ATOM      3  N   UNL A   1      40.033  19.206  25.790  1.00  0.00    -0.352 N 
ATOM      4  O   UNL A   1      42.131  18.355  25.791  1.00  0.00    -0.269 OA
ATOM      5  C   UNL A   1      41.393  19.310  25.980  1.00  0.00     0.251 C 
ATOM      6  H   UNL A   1      39.695  18.307  25.573  1.00  0.00     0.163 HD
BRANCH   5   7
ATOM      7  C   UNL A   1      41.947  20.623  26.372  1.00  0.00     0.039 A 
ATOM      8  C   UNL A   1      42.074  20.953  27.724  1.00  0.00     0.014 A 
ATOM      9  C   UNL A   1      42.255  21.551  25.376  1.00  0.00     0.014 A 
ATOM     10  C   UNL A   1      42.373  22.262  28.081  1.00  0.00     0.010 A 
ATOM     11  C   UNL A   1      42.639  22.842  25.740  1.00  0.00     0.010 A 
ATOM     12  C   UNL A   1      42.675  23.215  27.093  1.00  0.00    -0.014 A 
BRANCH  12  13
ATOM     13  C   UNL A   1      43.126  24.568  27.496  1.00  0.00     0.031 A 
ATOM     14  C   UNL A   1      42.151  25.629  27.922  1.00  0.00     0.074 A 
ATOM     15  C   UNL A   1      44.446  24.832  27.453  1.00  0.00     0.049 A 
ATOM     16  N   UNL A   1      42.389  26.874  28.248  1.00  0.00    -0.248 NA
ATOM     17  C   UNL A   1      40.730  25.253  27.984  1.00  0.00     0.031 C 
ATOM     18  C   UNL A   1      45.484  23.880  27.045  1.00  0.00     0.029 A 
ATOM     19  N   UNL A   1      45.143  25.972  27.755  1.00  0.00    -0.354 N 
ATOM     20  C   UNL A   1      41.152  27.440  28.523  1.00  0.00     0.074 A 
ATOM     21  C   UNL A   1      40.160  26.404  28.324  1.00  0.00     0.031 C 
ATOM     22  C   UNL A   1      46.684  24.466  27.147  1.00  0.00     0.029 A 
ATOM     23  C   UNL A   1      46.495  25.851  27.559  1.00  0.00     0.049 A 
ATOM     24  H   UNL A   1      44.715  26.797  28.080  1.00  0.00     0.167 HD
ATOM     25  C   UNL A   1      40.873  28.711  28.903  1.00  0.00     0.031 A 
ATOM     26  C   UNL A   1      47.479  26.762  27.657  1.00  0.00     0.031 A 
ATOM     27  C   UNL A   1      41.866  29.730  29.120  1.00  0.00     0.049 A 
ATOM     28  C   UNL A   1      47.133  28.165  28.045  1.00  0.00     0.074 A 
ATOM     29  C   UNL A   1      41.688  31.022  29.583  1.00  0.00     0.029 A 
ATOM     30  N   UNL A   1      43.221  29.575  28.876  1.00  0.00    -0.354 N 
ATOM     31  N   UNL A   1      45.963  28.668  28.353  1.00  0.00    -0.248 NA
ATOM     32  C   UNL A   1      48.240  29.130  28.085  1.00  0.00     0.031 C 
ATOM     33  C   UNL A   1      42.929  31.667  29.569  1.00  0.00     0.029 A 
ATOM     34  C   UNL A   1      43.885  30.761  29.137  1.00  0.00     0.049 A 
ATOM     35  H   UNL A   1      43.650  28.745  28.564  1.00  0.00     0.167 HD
ATOM     36  C   UNL A   1      46.190  30.009  28.621  1.00  0.00     0.074 A 
ATOM     37  C   UNL A   1      47.613  30.234  28.468  1.00  0.00     0.031 C 
ATOM     38  C   UNL A   1      45.297  30.970  28.959  1.00  0.00     0.031 A 
BRANCH  25  39
ATOM     39  C   UNL A   1      39.432  29.094  29.086  1.00  0.00    -0.014 A 
ATOM     40  C   UNL A   1      38.667  29.593  28.021  1.00  0.00     0.009 A 
ATOM     41  C   UNL A   1      38.808  28.864  30.323  1.00  0.00     0.009 A 
ATOM     42  C   UNL A   1      37.308  29.868  28.198  1.00  0.00     0.001 A 
ATOM     43  C   UNL A   1      37.447  29.123  30.491  1.00  0.00     0.001 A 
ATOM     44  C   UNL A   1      36.698  29.628  29.429  1.00  0.00     0.000 A 
ENDBRANCH  25  39
BRANCH  26  45
ATOM     45  C   UNL A   1      48.872  26.374  27.324  1.00  0.00    -0.014 A 
ATOM     46  C   UNL A   1      49.758  25.956  28.326  1.00  0.00     0.009 A 
ATOM     47  C   UNL A   1      49.309  26.394  25.990  1.00  0.00     0.009 A 
ATOM     48  C   UNL A   1      51.062  25.578  27.997  1.00  0.00     0.001 A 
ATOM     49  C   UNL A   1      50.604  25.990  25.662  1.00  0.00     0.001 A 
ATOM     50  C   UNL A   1      51.482  25.589  26.668  1.00  0.00     0.000 A 
ENDBRANCH  26  45
BRANCH  38  51
ATOM     51  C   UNL A   1      45.843  32.349  29.176  1.00  0.00    -0.014 A 
ATOM     52  C   UNL A   1      46.322  32.738  30.436  1.00  0.00     0.009 A 
ATOM     53  C   UNL A   1      45.901  33.257  28.109  1.00  0.00     0.009 A 
ATOM     54  C   UNL A   1      46.828  34.024  30.629  1.00  0.00     0.001 A 
ATOM     55  C   UNL A   1      46.428  34.535  28.300  1.00  0.00     0.001 A 
ATOM     56  C   UNL A   1      46.884  34.919  29.561  1.00  0.00     0.000 A 
ENDBRANCH  38  51
ENDBRANCH  12  13
ENDBRANCH   5   7
ENDBRANCH   2   3
ENDBRANCH   1   2
BRANCH   1  57
ATOM     57  C   UNL A   1      37.312  21.274  24.311  1.00  0.00     0.118 C 
BRANCH  57  58
ATOM     58  N   UNL A   1      36.888  22.266  25.281  1.00  0.00    -0.352 N 
ATOM     59  C   UNL A   1      35.634  22.647  25.652  1.00  0.00     0.253 C 
ATOM     60  H   UNL A   1      37.621  22.736  25.742  1.00  0.00     0.163 HD
ATOM     61  O   UNL A   1      35.499  23.604  26.411  1.00  0.00    -0.269 OA
BRANCH  59  62
ATOM     62  C   UNL A   1      34.440  22.001  25.106  1.00  0.00     0.070 A 
ATOM     63  C   UNL A   1      34.030  20.882  25.831  1.00  0.00     0.125 A 
ATOM     64  C   UNL A   1      33.685  22.375  23.993  1.00  0.00     0.056 A 
ATOM     65  N   UNL A   1      32.905  20.176  25.579  1.00  0.00    -0.264 NA
ATOM     66  C   UNL A   1      32.502  21.659  23.735  1.00  0.00     0.035 A 
ATOM     67  C   UNL A   1      32.153  20.592  24.546  1.00  0.00     0.112 A 
BRANCH  64  68
ATOM     68  C   UNL A   1      33.892  23.549  23.105  1.00  0.00     0.256 C 
ATOM     69  O   UNL A   1      34.403  23.328  22.001  1.00  0.00    -0.269 OA
ATOM     70  N   UNL A   1      33.477  24.835  23.341  1.00  0.00    -0.322 N 
ATOM     71  H   UNL A   1      33.541  25.413  22.547  1.00  0.00     0.170 HD
BRANCH  70  72
ATOM     72  C   UNL A   1      32.982  25.497  24.464  1.00  0.00     0.043 A 
ATOM     73  C   UNL A   1      31.730  25.252  25.018  1.00  0.00     0.028 A 
ATOM     74  C   UNL A   1      33.813  26.477  25.026  1.00  0.00     0.048 A 
ATOM     75  C   UNL A   1      31.274  26.047  26.077  1.00  0.00     0.024 A 
ATOM     76  C   UNL A   1      33.342  27.297  26.053  1.00  0.00     0.061 A 
ATOM     77  C   UNL A   1      32.065  27.087  26.577  1.00  0.00     0.059 A 
ATOM     78  Cl  UNL A   1      34.373  28.579  26.584  1.00  0.00    -0.083 Cl
ATOM     79  Cl  UNL A   1      31.404  28.081  27.825  1.00  0.00    -0.083 Cl
ENDBRANCH  70  72
ENDBRANCH  64  68
ENDBRANCH  59  62
ENDBRANCH  57  58
ENDBRANCH   1  57
TORSDOF 12
ENDMDL
MODEL 2
REMARK VINA RESULT:     -11.6      5.112      9.956
REMARK SMILES O=C(NCCCNC(=O)c1cnccc1C(=O)Nc1ccc(Cl)c(Cl)c1)c1ccc(-c2c3nc(c(-c4ccccc4)c4ccc([nH]4)c(-c4ccccc4)c4nc(c(-c5ccccc5)c5ccc2[nH]5)C=C4)C=C3)cc1
REMARK SMILES IDX 5 1 4 2 3 3 1 4 2 5 27 7 28 8 74 9 29 10 73 11 30 12 31 13
REMARK SMILES IDX 32 14 67 15 33 16 72 17 66 18 68 19 34 20 71 21 65 22 64 23
REMARK SMILES IDX 35 25 57 26 42 27 56 28 43 29 46 30 55 31 69 32 44 33 45 34
REMARK SMILES IDX 54 36 70 37 47 38 36 39 37 40 41 41 38 42 40 43 39 44 58 45
REMARK SMILES IDX 59 46 63 47 60 48 62 49 61 50 48 51 49 52 53 53 50 54 52 55
REMARK SMILES IDX 51 56 6 57 7 58 8 59 9 61 10 62 11 63 15 64 12 65 14 66
REMARK SMILES IDX 13 67 16 68 17 69 18 70 19 72 20 73 26 74 21 75 24 76 22 77
REMARK SMILES IDX 25 78 23 79
REMARK H PARENT 3 6 68 24 46 35 7 60 18 71
REMARK Flexibility Score: inf
ROOT
ATOM      1  C   UNL A   1      31.461  32.088  26.508  1.00  0.00     0.042 C 
ENDROOT
BRANCH   1   2
ATOM      2  C   UNL A   1      32.615  32.801  27.202  1.00  0.00     0.118 C 
BRANCH   2   3
ATOM      3  N   UNL A   1      32.288  34.153  27.627  1.00  0.00    -0.352 N 
ATOM      4  O   UNL A   1      32.518  36.028  28.873  1.00  0.00    -0.269 OA
ATOM      5  C   UNL A   1      32.956  34.937  28.541  1.00  0.00     0.251 C 
ATOM      6  H   UNL A   1      31.492  34.556  27.211  1.00  0.00     0.163 HD
BRANCH   5   7
ATOM      7  C   UNL A   1      34.194  34.406  29.146  1.00  0.00     0.039 A 
ATOM      8  C   UNL A   1      35.425  34.605  28.514  1.00  0.00     0.014 A 
ATOM      9  C   UNL A   1      34.102  33.633  30.306  1.00  0.00     0.014 A 
ATOM     10  C   UNL A   1      36.542  33.911  28.961  1.00  0.00     0.010 A 
ATOM     11  C   UNL A   1      35.246  33.008  30.803  1.00  0.00     0.010 A 
ATOM     12  C   UNL A   1      36.467  33.119  30.120  1.00  0.00    -0.014 A 
BRANCH  12  13
ATOM     13  C   UNL A   1      37.700  32.498  30.661  1.00  0.00     0.031 A 
ATOM     14  C   UNL A   1      38.312  31.282  30.029  1.00  0.00     0.074 A 
ATOM     15  C   UNL A   1      38.253  33.048  31.759  1.00  0.00     0.049 A 
ATOM     16  N   UNL A   1      39.354  30.593  30.420  1.00  0.00    -0.248 NA
ATOM     17  C   UNL A   1      37.675  30.763  28.808  1.00  0.00     0.031 C 
ATOM     18  C   UNL A   1      37.738  34.226  32.464  1.00  0.00     0.029 A 
ATOM     19  N   UNL A   1      39.367  32.695  32.474  1.00  0.00    -0.354 N 
ATOM     20  C   UNL A   1      39.481  29.545  29.518  1.00  0.00     0.074 A 
ATOM     21  C   UNL A   1      38.407  29.684  28.557  1.00  0.00     0.031 C 
ATOM     22  C   UNL A   1      38.547  34.513  33.492  1.00  0.00     0.029 A 
ATOM     23  C   UNL A   1      39.594  33.502  33.561  1.00  0.00     0.049 A 
ATOM     24  H   UNL A   1      39.947  31.938  32.232  1.00  0.00     0.167 HD
ATOM     25  C   UNL A   1      40.409  28.558  29.500  1.00  0.00     0.031 A 
ATOM     26  C   UNL A   1      40.518  33.420  34.534  1.00  0.00     0.031 A 
ATOM     27  C   UNL A   1      41.486  28.439  30.447  1.00  0.00     0.049 A 
ATOM     28  C   UNL A   1      41.506  32.297  34.504  1.00  0.00     0.074 A 
ATOM     29  C   UNL A   1      42.522  27.519  30.463  1.00  0.00     0.029 A 
ATOM     30  N   UNL A   1      41.660  29.256  31.552  1.00  0.00    -0.354 N 
ATOM     31  N   UNL A   1      41.643  31.346  33.613  1.00  0.00    -0.248 NA
ATOM     32  C   UNL A   1      42.458  32.226  35.621  1.00  0.00     0.031 C 
ATOM     33  C   UNL A   1      43.291  27.749  31.608  1.00  0.00     0.029 A 
ATOM     34  C   UNL A   1      42.759  28.837  32.281  1.00  0.00     0.049 A 
ATOM     35  H   UNL A   1      41.087  30.023  31.785  1.00  0.00     0.167 HD
ATOM     36  C   UNL A   1      42.694  30.561  34.061  1.00  0.00     0.074 A 
ATOM     37  C   UNL A   1      43.177  31.162  35.287  1.00  0.00     0.031 C 
ATOM     38  C   UNL A   1      43.209  29.437  33.508  1.00  0.00     0.031 A 
BRANCH  25  39
ATOM     39  C   UNL A   1      40.294  27.500  28.440  1.00  0.00    -0.014 A 
ATOM     40  C   UNL A   1      40.942  27.631  27.202  1.00  0.00     0.009 A 
ATOM     41  C   UNL A   1      39.602  26.312  28.722  1.00  0.00     0.009 A 
ATOM     42  C   UNL A   1      40.883  26.597  26.263  1.00  0.00     0.001 A 
ATOM     43  C   UNL A   1      39.559  25.275  27.789  1.00  0.00     0.001 A 
ATOM     44  C   UNL A   1      40.198  25.420  26.558  1.00  0.00     0.000 A 
ENDBRANCH  25  39
BRANCH  26  45
ATOM     45  C   UNL A   1      40.501  34.404  35.644  1.00  0.00    -0.014 A 
ATOM     46  C   UNL A   1      41.218  35.605  35.547  1.00  0.00     0.009 A 
ATOM     47  C   UNL A   1      39.739  34.156  36.796  1.00  0.00     0.009 A 
ATOM     48  C   UNL A   1      41.182  36.531  36.591  1.00  0.00     0.001 A 
ATOM     49  C   UNL A   1      39.683  35.095  37.826  1.00  0.00     0.001 A 
ATOM     50  C   UNL A   1      40.411  36.280  37.726  1.00  0.00     0.000 A 
ENDBRANCH  26  45
BRANCH  38  51
ATOM     51  C   UNL A   1      44.349  28.790  34.236  1.00  0.00    -0.014 A 
ATOM     52  C   UNL A   1      45.673  29.180  33.983  1.00  0.00     0.009 A 
ATOM     53  C   UNL A   1      44.096  27.803  35.200  1.00  0.00     0.009 A 
ATOM     54  C   UNL A   1      46.727  28.572  34.665  1.00  0.00     0.001 A 
ATOM     55  C   UNL A   1      45.152  27.213  35.896  1.00  0.00     0.001 A 
ATOM     56  C   UNL A   1      46.466  27.593  35.624  1.00  0.00     0.000 A 
ENDBRANCH  38  51
ENDBRANCH  12  13
ENDBRANCH   5   7
ENDBRANCH   2   3
ENDBRANCH   1   2
BRANCH   1  57
ATOM     57  C   UNL A   1      31.637  30.582  26.459  1.00  0.00     0.118 C 
BRANCH  57  58
ATOM     58  N   UNL A   1      32.727  30.202  25.579  1.00  0.00    -0.352 N 
ATOM     59  C   UNL A   1      32.770  29.264  24.593  1.00  0.00     0.253 C 
ATOM     60  H   UNL A   1      33.566  30.701  25.717  1.00  0.00     0.163 HD
ATOM     61  O   UNL A   1      33.842  29.017  24.047  1.00  0.00    -0.269 OA
BRANCH  59  62
ATOM     62  C   UNL A   1      31.589  28.483  24.222  1.00  0.00     0.070 A 
ATOM     63  C   UNL A   1      31.008  28.886  23.020  1.00  0.00     0.125 A 
ATOM     64  C   UNL A   1      31.010  27.411  24.904  1.00  0.00     0.056 A 
ATOM     65  N   UNL A   1      29.968  28.260  22.423  1.00  0.00    -0.264 NA
ATOM     66  C   UNL A   1      29.940  26.741  24.281  1.00  0.00     0.035 A 
ATOM     67  C   UNL A   1      29.468  27.187  23.059  1.00  0.00     0.112 A 
BRANCH  64  68
ATOM     68  C   UNL A   1      31.477  26.775  26.164  1.00  0.00     0.256 C 
ATOM     69  O   UNL A   1      30.907  27.121  27.205  1.00  0.00    -0.269 OA
ATOM     70  N   UNL A   1      32.399  25.766  26.277  1.00  0.00    -0.322 N 
ATOM     71  H   UNL A   1      32.419  25.360  27.173  1.00  0.00     0.170 HD
BRANCH  70  72
ATOM     72  C   UNL A   1      33.313  25.192  25.393  1.00  0.00     0.043 A 
ATOM     73  C   UNL A   1      33.021  24.889  24.067  1.00  0.00     0.028 A 
ATOM     74  C   UNL A   1      34.580  24.896  25.913  1.00  0.00     0.048 A 
ATOM     75  C   UNL A   1      33.967  24.210  23.289  1.00  0.00     0.024 A 
ATOM     76  C   UNL A   1      35.507  24.181  25.151  1.00  0.00     0.061 A 
ATOM     77  C   UNL A   1      35.198  23.830  23.836  1.00  0.00     0.059 A 
ATOM     78  Cl  UNL A   1      36.986  23.723  25.919  1.00  0.00    -0.083 Cl
ATOM     79  Cl  UNL A   1      36.280  22.920  22.844  1.00  0.00    -0.083 Cl
ENDBRANCH  70  72
ENDBRANCH  64  68
ENDBRANCH  59  62
ENDBRANCH  57  58
ENDBRANCH   1  57
TORSDOF 12
ENDMDL
MODEL 3
REMARK VINA RESULT:     -11.6      1.444      1.955
REMARK SMILES O=C(NCCCNC(=O)c1cnccc1C(=O)Nc1ccc(Cl)c(Cl)c1)c1ccc(-c2c3nc(c(-c4ccccc4)c4ccc([nH]4)c(-c4ccccc4)c4nc(c(-c5ccccc5)c5ccc2[nH]5)C=C4)C=C3)cc1
REMARK SMILES IDX 5 1 4 2 3 3 1 4 2 5 27 7 28 8 74 9 29 10 73 11 30 12 31 13
REMARK SMILES IDX 32 14 67 15 33 16 72 17 66 18 68 19 34 20 71 21 65 22 64 23
REMARK SMILES IDX 35 25 57 26 42 27 56 28 43 29 46 30 55 31 69 32 44 33 45 34
REMARK SMILES IDX 54 36 70 37 47 38 36 39 37 40 41 41 38 42 40 43 39 44 58 45
REMARK SMILES IDX 59 46 63 47 60 48 62 49 61 50 48 51 49 52 53 53 50 54 52 55
REMARK SMILES IDX 51 56 6 57 7 58 8 59 9 61 10 62 11 63 15 64 12 65 14 66
REMARK SMILES IDX 13 67 16 68 17 69 18 70 19 72 20 73 26 74 21 75 24 76 22 77
REMARK SMILES IDX 25 78 23 79
REMARK H PARENT 3 6 68 24 46 35 7 60 18 71
REMARK Flexibility Score: inf
ROOT
ATOM      1  C   UNL A   1      37.565  19.907  24.893  1.00  0.00     0.042 C 
ENDROOT
BRANCH   1   2
ATOM      2  C   UNL A   1      38.815  20.300  25.673  1.00  0.00     0.118 C 
BRANCH   2   3
ATOM      3  N   UNL A   1      39.852  19.281  25.653  1.00  0.00    -0.352 N 
ATOM      4  O   UNL A   1      41.963  18.493  25.868  1.00  0.00    -0.269 OA
ATOM      5  C   UNL A   1      41.173  19.412  26.020  1.00  0.00     0.251 C 
ATOM      6  H   UNL A   1      39.578  18.390  25.338  1.00  0.00     0.163 HD
BRANCH   5   7
ATOM      7  C   UNL A   1      41.624  20.711  26.561  1.00  0.00     0.039 A 
ATOM      8  C   UNL A   1      41.533  20.968  27.932  1.00  0.00     0.014 A 
ATOM      9  C   UNL A   1      42.056  21.699  25.675  1.00  0.00     0.014 A 
ATOM     10  C   UNL A   1      41.737  22.260  28.399  1.00  0.00     0.010 A 
ATOM     11  C   UNL A   1      42.345  22.975  26.161  1.00  0.00     0.010 A 
ATOM     12  C   UNL A   1      42.162  23.272  27.520  1.00  0.00    -0.014 A 
BRANCH  12  13
ATOM     13  C   UNL A   1      42.509  24.609  28.059  1.00  0.00     0.031 A 
ATOM     14  C   UNL A   1      41.462  25.661  28.289  1.00  0.00     0.074 A 
ATOM     15  C   UNL A   1      43.804  24.867  28.322  1.00  0.00     0.049 A 
ATOM     16  N   UNL A   1      41.618  26.894  28.701  1.00  0.00    -0.248 NA
ATOM     17  C   UNL A   1      40.064  25.292  28.018  1.00  0.00     0.031 C 
ATOM     18  C   UNL A   1      44.909  23.922  28.127  1.00  0.00     0.029 A 
ATOM     19  N   UNL A   1      44.414  25.992  28.809  1.00  0.00    -0.354 N 
ATOM     20  C   UNL A   1      40.350  27.458  28.709  1.00  0.00     0.074 A 
ATOM     21  C   UNL A   1      39.430  26.435  28.258  1.00  0.00     0.031 C 
ATOM     22  C   UNL A   1      46.054  24.497  28.514  1.00  0.00     0.029 A 
ATOM     23  C   UNL A   1      45.776  25.869  28.918  1.00  0.00     0.049 A 
ATOM     24  H   UNL A   1      43.923  26.809  29.057  1.00  0.00     0.167 HD
ATOM     25  C   UNL A   1      39.990  28.717  29.059  1.00  0.00     0.031 A 
ATOM     26  C   UNL A   1      46.711  26.771  29.264  1.00  0.00     0.031 A 
ATOM     27  C   UNL A   1      40.908  29.723  29.526  1.00  0.00     0.049 A 
ATOM     28  C   UNL A   1      46.285  28.163  29.611  1.00  0.00     0.074 A 
ATOM     29  C   UNL A   1      40.628  31.001  29.979  1.00  0.00     0.029 A 
ATOM     30  N   UNL A   1      42.284  29.568  29.588  1.00  0.00    -0.354 N 
ATOM     31  N   UNL A   1      45.074  28.662  29.664  1.00  0.00    -0.248 NA
ATOM     32  C   UNL A   1      47.353  29.119  29.930  1.00  0.00     0.031 C 
ATOM     33  C   UNL A   1      41.840  31.638  30.265  1.00  0.00     0.029 A 
ATOM     34  C   UNL A   1      42.870  30.742  30.030  1.00  0.00     0.049 A 
ATOM     35  H   UNL A   1      42.773  28.746  29.353  1.00  0.00     0.167 HD
ATOM     36  C   UNL A   1      45.233  29.993  30.020  1.00  0.00     0.074 A 
ATOM     37  C   UNL A   1      46.654  30.215  30.197  1.00  0.00     0.031 C 
ATOM     38  C   UNL A   1      44.286  30.947  30.180  1.00  0.00     0.031 A 
BRANCH  25  39
ATOM     39  C   UNL A   1      38.545  29.102  28.926  1.00  0.00    -0.014 A 
ATOM     40  C   UNL A   1      37.667  29.036  30.018  1.00  0.00     0.009 A 
ATOM     41  C   UNL A   1      38.079  29.627  27.709  1.00  0.00     0.009 A 
ATOM     42  C   UNL A   1      36.346  29.474  29.887  1.00  0.00     0.001 A 
ATOM     43  C   UNL A   1      36.764  30.079  27.587  1.00  0.00     0.001 A 
ATOM     44  C   UNL A   1      35.897  30.000  28.676  1.00  0.00     0.000 A 
ENDBRANCH  25  39
BRANCH  26  45
ATOM     45  C   UNL A   1      48.143  26.386  29.240  1.00  0.00    -0.014 A 
ATOM     46  C   UNL A   1      48.912  26.558  28.080  1.00  0.00     0.009 A 
ATOM     47  C   UNL A   1      48.755  25.870  30.394  1.00  0.00     0.009 A 
ATOM     48  C   UNL A   1      50.263  26.207  28.074  1.00  0.00     0.001 A 
ATOM     49  C   UNL A   1      50.112  25.546  30.392  1.00  0.00     0.001 A 
ATOM     50  C   UNL A   1      50.864  25.708  29.230  1.00  0.00     0.000 A 
ENDBRANCH  26  45
BRANCH  38  51
ATOM     51  C   UNL A   1      44.766  32.315  30.559  1.00  0.00    -0.014 A 
ATOM     52  C   UNL A   1      45.029  33.280  29.574  1.00  0.00     0.009 A 
ATOM     53  C   UNL A   1      44.933  32.651  31.911  1.00  0.00     0.009 A 
ATOM     54  C   UNL A   1      45.477  34.551  29.937  1.00  0.00     0.001 A 
ATOM     55  C   UNL A   1      45.360  33.930  32.271  1.00  0.00     0.001 A 
ATOM     56  C   UNL A   1      45.638  34.876  31.284  1.00  0.00     0.000 A 
ENDBRANCH  38  51
ENDBRANCH  12  13
ENDBRANCH   5   7
ENDBRANCH   2   3
ENDBRANCH   1   2
BRANCH   1  57
ATOM     57  C   UNL A   1      36.392  20.835  25.146  1.00  0.00     0.118 C 
BRANCH  57  58
ATOM     58  N   UNL A   1      36.831  22.118  25.664  1.00  0.00    -0.352 N 
ATOM     59  C   UNL A   1      36.104  23.153  26.168  1.00  0.00     0.253 C 
ATOM     60  H   UNL A   1      37.806  22.261  25.648  1.00  0.00     0.163 HD
ATOM     61  O   UNL A   1      36.673  24.208  26.439  1.00  0.00    -0.269 OA
BRANCH  59  62
ATOM     62  C   UNL A   1      34.650  23.072  26.318  1.00  0.00     0.070 A 
ATOM     63  C   UNL A   1      34.244  22.540  27.540  1.00  0.00     0.125 A 
ATOM     64  C   UNL A   1      33.663  23.469  25.413  1.00  0.00     0.056 A 
ATOM     65  N   UNL A   1      32.957  22.452  27.948  1.00  0.00    -0.264 NA
ATOM     66  C   UNL A   1      32.323  23.399  25.836  1.00  0.00     0.035 A 
ATOM     67  C   UNL A   1      32.024  22.902  27.093  1.00  0.00     0.112 A 
BRANCH  64  68
ATOM     68  C   UNL A   1      33.850  24.106  24.083  1.00  0.00     0.256 C 
ATOM     69  O   UNL A   1      34.147  23.357  23.145  1.00  0.00    -0.269 OA
ATOM     70  N   UNL A   1      33.622  25.420  23.767  1.00  0.00    -0.322 N 
ATOM     71  H   UNL A   1      33.618  25.590  22.798  1.00  0.00     0.170 HD
BRANCH  70  72
ATOM     72  C   UNL A   1      33.392  26.568  24.526  1.00  0.00     0.043 A 
ATOM     73  C   UNL A   1      34.062  26.860  25.710  1.00  0.00     0.028 A 
ATOM     74  C   UNL A   1      32.405  27.442  24.050  1.00  0.00     0.048 A 
ATOM     75  C   UNL A   1      33.682  27.979  26.461  1.00  0.00     0.024 A 
ATOM     76  C   UNL A   1      31.998  28.534  24.820  1.00  0.00     0.061 A 
ATOM     77  C   UNL A   1      32.633  28.800  26.035  1.00  0.00     0.059 A 
ATOM     78  Cl  UNL A   1      30.670  29.471  24.233  1.00  0.00    -0.083 Cl
ATOM     79  Cl  UNL A   1      32.162  30.112  27.054  1.00  0.00    -0.083 Cl
ENDBRANCH  70  72
ENDBRANCH  64  68
ENDBRANCH  59  62
ENDBRANCH  57  58
ENDBRANCH   1  57
TORSDOF 12
ENDMDL
