MODEL 1
REMARK VINA RESULT:     -11.5      0.000      0.000
REMARK SMILES O=C(C[C@@H]1C[N@@H+]([C@H]2CCO[C@]3(CCOC3)C2)CCO1)NCCCNC(=O)c1ccc(-c2c3nc(c(-c4ccccc4)c4ccc([nH]4)c(-c4ccccc4)c4nc(c(-c5ccccc5)c5ccc2[nH]5)C=C4)C=C3)cc1
REMARK SMILES IDX 22 1 21 2 20 3 1 4 2 5 3 7 4 8 5 9 19 10 6 11 18 12 17 13
REMARK SMILES IDX 7 15 8 16 16 17 9 18 11 19 10 20 12 21 15 22 13 23 14 24
REMARK SMILES IDX 23 25 24 26 25 27 26 29 27 30 28 31 74 32 29 33 73 34 30 35
REMARK SMILES IDX 31 36 32 37 67 38 33 39 72 40 66 41 68 42 34 43 71 44 65 45
REMARK SMILES IDX 64 46 35 48 57 49 42 50 56 51 43 52 46 53 55 54 69 55 44 56
REMARK SMILES IDX 45 57 54 59 70 60 47 61 36 62 37 63 41 64 38 65 40 66 39 67
REMARK SMILES IDX 58 68 59 69 63 70 60 71 62 72 61 73 48 74 49 75 53 76 50 77
REMARK SMILES IDX 52 78 51 79
REMARK H PARENT 20 6 6 14 24 28 68 47 46 58
REMARK Flexibility Score: inf
ROOT
ATOM      1  C   UNL A   1      32.026  27.892  26.583  1.00  0.00     0.042 C 
ENDROOT
BRANCH   1   2
ATOM      2  C   UNL A   1      32.057  26.387  26.358  1.00  0.00     0.117 C 
BRANCH   2   3
ATOM      3  N   UNL A   1      33.409  25.868  26.310  1.00  0.00    -0.356 N 
ATOM      4  O   UNL A   1      33.126  24.518  24.467  1.00  0.00    -0.275 OA
ATOM      5  C   UNL A   1      33.851  25.007  25.328  1.00  0.00     0.222 C 
ATOM      6  H   UNL A   1      34.042  26.143  27.011  1.00  0.00     0.163 HD
BRANCH   5   7
ATOM      7  C   UNL A   1      35.343  24.743  25.377  1.00  0.00     0.138 C 
BRANCH   7   8
ATOM      8  C   UNL A   1      35.596  23.284  24.996  1.00  0.00     0.182 C 
ATOM      9  C   UNL A   1      35.351  22.307  26.166  1.00  0.00     0.295 C 
ATOM     10  O   UNL A   1      36.933  23.144  24.488  1.00  0.00    -0.366 OA
ATOM     11  N   UNL A   1      35.554  20.891  25.790  1.00  0.00    -0.328 N 
ATOM     12  C   UNL A   1      37.121  21.808  23.991  1.00  0.00     0.222 C 
ATOM     13  C   UNL A   1      36.832  20.747  25.070  1.00  0.00     0.291 C 
ATOM     14  H   UNL A   1      35.675  20.320  26.626  1.00  0.00     0.348 HD
BRANCH  11  15
ATOM     15  C   UNL A   1      34.347  20.209  25.270  1.00  0.00     0.189 C 
ATOM     16  C   UNL A   1      33.413  21.037  24.374  1.00  0.00     0.093 C 
ATOM     17  C   UNL A   1      34.654  18.853  24.598  1.00  0.00     0.103 C 
ATOM     18  C   UNL A   1      32.227  20.227  23.883  1.00  0.00     0.167 C 
ATOM     19  C   UNL A   1      33.380  18.150  24.084  1.00  0.00     0.099 C 
ATOM     20  O   UNL A   1      32.651  19.038  23.233  1.00  0.00    -0.372 OA
ATOM     21  C   UNL A   1      32.509  17.557  25.186  1.00  0.00     0.066 C 
ATOM     22  C   UNL A   1      33.739  16.896  23.287  1.00  0.00     0.195 C 
ATOM     23  C   UNL A   1      32.941  16.106  25.296  1.00  0.00     0.163 C 
ATOM     24  O   UNL A   1      33.869  15.839  24.241  1.00  0.00    -0.378 OA
ENDBRANCH  11  15
ENDBRANCH   7   8
ENDBRANCH   5   7
ENDBRANCH   2   3
ENDBRANCH   1   2
BRANCH   1  25
ATOM     25  C   UNL A   1      33.275  28.462  27.249  1.00  0.00     0.118 C 
BRANCH  25  26
ATOM     26  N   UNL A   1      33.229  29.905  27.432  1.00  0.00    -0.352 N 
ATOM     27  C   UNL A   1      34.188  30.759  27.915  1.00  0.00     0.251 C 
ATOM     28  H   UNL A   1      32.381  30.332  27.171  1.00  0.00     0.163 HD
ATOM     29  O   UNL A   1      33.901  31.944  28.094  1.00  0.00    -0.269 OA
BRANCH  27  30
ATOM     30  C   UNL A   1      35.550  30.281  28.246  1.00  0.00     0.039 A 
ATOM     31  C   UNL A   1      35.784  29.778  29.530  1.00  0.00     0.014 A 
ATOM     32  C   UNL A   1      36.607  30.365  27.334  1.00  0.00     0.014 A 
ATOM     33  C   UNL A   1      37.056  29.324  29.886  1.00  0.00     0.010 A 
ATOM     34  C   UNL A   1      37.859  29.846  27.666  1.00  0.00     0.010 A 
ATOM     35  C   UNL A   1      38.103  29.337  28.950  1.00  0.00    -0.014 A 
BRANCH  35  36
ATOM     36  C   UNL A   1      39.459  28.855  29.318  1.00  0.00     0.031 A 
ATOM     37  C   UNL A   1      40.363  29.705  30.170  1.00  0.00     0.074 A 
ATOM     38  C   UNL A   1      39.895  27.663  28.866  1.00  0.00     0.049 A 
ATOM     39  N   UNL A   1      41.576  29.453  30.597  1.00  0.00    -0.248 NA
ATOM     40  C   UNL A   1      39.847  31.022  30.579  1.00  0.00     0.031 C 
ATOM     41  C   UNL A   1      39.140  26.756  28.000  1.00  0.00     0.029 A 
ATOM     42  N   UNL A   1      41.082  27.009  29.078  1.00  0.00    -0.354 N 
ATOM     43  C   UNL A   1      41.970  30.580  31.307  1.00  0.00     0.074 A 
ATOM     44  C   UNL A   1      40.890  31.538  31.212  1.00  0.00     0.031 C 
ATOM     45  C   UNL A   1      39.869  25.650  27.781  1.00  0.00     0.029 A 
ATOM     46  C   UNL A   1      41.150  25.780  28.467  1.00  0.00     0.049 A 
ATOM     47  H   UNL A   1      41.816  27.384  29.617  1.00  0.00     0.167 HD
ATOM     48  C   UNL A   1      43.117  30.795  31.995  1.00  0.00     0.031 A 
ATOM     49  C   UNL A   1      42.131  24.857  28.466  1.00  0.00     0.031 A 
ATOM     50  C   UNL A   1      44.188  29.842  32.108  1.00  0.00     0.049 A 
ATOM     51  C   UNL A   1      43.387  25.111  29.252  1.00  0.00     0.074 A 
ATOM     52  C   UNL A   1      45.368  29.951  32.823  1.00  0.00     0.029 A 
ATOM     53  N   UNL A   1      44.208  28.602  31.491  1.00  0.00    -0.354 N 
ATOM     54  N   UNL A   1      43.716  26.156  29.972  1.00  0.00    -0.248 NA
ATOM     55  C   UNL A   1      44.400  24.045  29.240  1.00  0.00     0.031 C 
ATOM     56  C   UNL A   1      46.119  28.789  32.609  1.00  0.00     0.029 A 
ATOM     57  C   UNL A   1      45.383  27.938  31.800  1.00  0.00     0.049 A 
ATOM     58  H   UNL A   1      43.491  28.245  30.918  1.00  0.00     0.167 HD
ATOM     59  C   UNL A   1      44.954  25.860  30.526  1.00  0.00     0.074 A 
ATOM     60  C   UNL A   1      45.312  24.532  30.068  1.00  0.00     0.031 C 
ATOM     61  C   UNL A   1      45.724  26.616  31.344  1.00  0.00     0.031 A 
BRANCH  48  62
ATOM     62  C   UNL A   1      43.270  32.124  32.680  1.00  0.00    -0.014 A 
ATOM     63  C   UNL A   1      42.833  32.313  34.002  1.00  0.00     0.009 A 
ATOM     64  C   UNL A   1      43.878  33.194  32.007  1.00  0.00     0.009 A 
ATOM     65  C   UNL A   1      42.969  33.557  34.621  1.00  0.00     0.001 A 
ATOM     66  C   UNL A   1      44.038  34.429  32.639  1.00  0.00     0.001 A 
ATOM     67  C   UNL A   1      43.574  34.612  33.940  1.00  0.00     0.000 A 
ENDBRANCH  48  62
BRANCH  49  68
ATOM     68  C   UNL A   1      41.950  23.581  27.728  1.00  0.00    -0.014 A 
ATOM     69  C   UNL A   1      42.445  23.440  26.422  1.00  0.00     0.009 A 
ATOM     70  C   UNL A   1      41.275  22.502  28.319  1.00  0.00     0.009 A 
ATOM     71  C   UNL A   1      42.241  22.254  25.713  1.00  0.00     0.001 A 
ATOM     72  C   UNL A   1      41.097  21.309  27.617  1.00  0.00     0.001 A 
ATOM     73  C   UNL A   1      41.570  21.190  26.311  1.00  0.00     0.000 A 
ENDBRANCH  49  68
BRANCH  61  74
ATOM     74  C   UNL A   1      47.006  26.008  31.837  1.00  0.00    -0.014 A 
ATOM     75  C   UNL A   1      48.189  26.085  31.087  1.00  0.00     0.009 A 
ATOM     76  C   UNL A   1      47.033  25.370  33.087  1.00  0.00     0.009 A 
ATOM     77  C   UNL A   1      49.366  25.501  31.563  1.00  0.00     0.001 A 
ATOM     78  C   UNL A   1      48.216  24.812  33.573  1.00  0.00     0.001 A 
ATOM     79  C   UNL A   1      49.378  24.868  32.806  1.00  0.00     0.000 A 
ENDBRANCH  61  74
ENDBRANCH  35  36
ENDBRANCH  27  30
ENDBRANCH  25  26
ENDBRANCH   1  25
TORSDOF 12
ENDMDL
MODEL 2
REMARK VINA RESULT:     -11.5      1.901      2.878
REMARK SMILES O=C(C[C@@H]1C[N@@H+]([C@H]2CCO[C@]3(CCOC3)C2)CCO1)NCCCNC(=O)c1ccc(-c2c3nc(c(-c4ccccc4)c4ccc([nH]4)c(-c4ccccc4)c4nc(c(-c5ccccc5)c5ccc2[nH]5)C=C4)C=C3)cc1
REMARK SMILES IDX 22 1 21 2 20 3 1 4 2 5 3 7 4 8 5 9 19 10 6 11 18 12 17 13
REMARK SMILES IDX 7 15 8 16 16 17 9 18 11 19 10 20 12 21 15 22 13 23 14 24
REMARK SMILES IDX 23 25 24 26 25 27 26 29 27 30 28 31 74 32 29 33 73 34 30 35
REMARK SMILES IDX 31 36 32 37 67 38 33 39 72 40 66 41 68 42 34 43 71 44 65 45
REMARK SMILES IDX 64 46 35 48 57 49 42 50 56 51 43 52 46 53 55 54 69 55 44 56
REMARK SMILES IDX 45 57 54 59 70 60 47 61 36 62 37 63 41 64 38 65 40 66 39 67
REMARK SMILES IDX 58 68 59 69 63 70 60 71 62 72 61 73 48 74 49 75 53 76 50 77
REMARK SMILES IDX 52 78 51 79
REMARK H PARENT 20 6 6 14 24 28 68 47 46 58
REMARK Flexibility Score: inf
ROOT
ATOM      1  C   UNL A   1      34.045  28.156  25.899  1.00  0.00     0.042 C 
ENDROOT
BRANCH   1   2
ATOM      2  C   UNL A   1      33.347  28.768  24.692  1.00  0.00     0.117 C 
BRANCH   2   3
ATOM      3  N   UNL A   1      32.967  27.770  23.714  1.00  0.00    -0.356 N 
ATOM      4  O   UNL A   1      34.395  28.456  22.043  1.00  0.00    -0.275 OA
ATOM      5  C   UNL A   1      33.564  27.662  22.476  1.00  0.00     0.222 C 
ATOM      6  H   UNL A   1      32.248  27.138  23.943  1.00  0.00     0.163 HD
BRANCH   5   7
ATOM      7  C   UNL A   1      33.132  26.436  21.696  1.00  0.00     0.138 C 
BRANCH   7   8
ATOM      8  C   UNL A   1      32.534  25.421  22.670  1.00  0.00     0.182 C 
ATOM      9  C   UNL A   1      33.027  23.981  22.415  1.00  0.00     0.295 C 
ATOM     10  O   UNL A   1      31.098  25.484  22.610  1.00  0.00    -0.366 OA
ATOM     11  N   UNL A   1      32.483  23.002  23.381  1.00  0.00    -0.328 N 
ATOM     12  C   UNL A   1      30.537  24.641  23.629  1.00  0.00     0.222 C 
ATOM     13  C   UNL A   1      31.025  23.185  23.505  1.00  0.00     0.291 C 
ATOM     14  H   UNL A   1      32.584  22.056  23.017  1.00  0.00     0.348 HD
BRANCH  11  15
ATOM     15  C   UNL A   1      33.299  22.820  24.604  1.00  0.00     0.189 C 
ATOM     16  C   UNL A   1      32.622  22.119  25.792  1.00  0.00     0.093 C 
ATOM     17  C   UNL A   1      34.675  22.176  24.328  1.00  0.00     0.103 C 
ATOM     18  C   UNL A   1      33.561  21.967  26.975  1.00  0.00     0.167 C 
ATOM     19  C   UNL A   1      35.517  22.016  25.611  1.00  0.00     0.099 C 
ATOM     20  O   UNL A   1      34.761  21.308  26.597  1.00  0.00    -0.372 OA
ATOM     21  C   UNL A   1      36.088  23.324  26.148  1.00  0.00     0.066 C 
ATOM     22  C   UNL A   1      36.798  21.234  25.323  1.00  0.00     0.195 C 
ATOM     23  C   UNL A   1      37.486  23.417  25.565  1.00  0.00     0.163 C 
ATOM     24  O   UNL A   1      37.762  22.192  24.880  1.00  0.00    -0.378 OA
ENDBRANCH  11  15
ENDBRANCH   7   8
ENDBRANCH   5   7
ENDBRANCH   2   3
ENDBRANCH   1   2
BRANCH   1  25
ATOM     25  C   UNL A   1      33.417  28.510  27.244  1.00  0.00     0.118 C 
BRANCH  25  26
ATOM     26  N   UNL A   1      33.353  29.941  27.496  1.00  0.00    -0.352 N 
ATOM     27  C   UNL A   1      34.298  30.782  28.027  1.00  0.00     0.251 C 
ATOM     28  H   UNL A   1      32.502  30.371  27.249  1.00  0.00     0.163 HD
ATOM     29  O   UNL A   1      33.996  31.954  28.261  1.00  0.00    -0.269 OA
BRANCH  27  30
ATOM     30  C   UNL A   1      35.663  30.304  28.346  1.00  0.00     0.039 A 
ATOM     31  C   UNL A   1      36.654  30.420  27.366  1.00  0.00     0.014 A 
ATOM     32  C   UNL A   1      35.970  29.701  29.571  1.00  0.00     0.014 A 
ATOM     33  C   UNL A   1      37.953  29.974  27.624  1.00  0.00     0.010 A 
ATOM     34  C   UNL A   1      37.282  29.321  29.854  1.00  0.00     0.010 A 
ATOM     35  C   UNL A   1      38.284  29.437  28.879  1.00  0.00    -0.014 A 
BRANCH  35  36
ATOM     36  C   UNL A   1      39.662  28.961  29.163  1.00  0.00     0.031 A 
ATOM     37  C   UNL A   1      40.639  29.847  29.888  1.00  0.00     0.074 A 
ATOM     38  C   UNL A   1      40.051  27.739  28.747  1.00  0.00     0.049 A 
ATOM     39  N   UNL A   1      41.881  29.605  30.228  1.00  0.00    -0.248 NA
ATOM     40  C   UNL A   1      40.168  31.191  30.261  1.00  0.00     0.031 C 
ATOM     41  C   UNL A   1      39.220  26.793  27.999  1.00  0.00     0.029 A 
ATOM     42  N   UNL A   1      41.247  27.084  28.899  1.00  0.00    -0.354 N 
ATOM     43  C   UNL A   1      42.340  30.766  30.837  1.00  0.00     0.074 A 
ATOM     44  C   UNL A   1      41.263  31.730  30.775  1.00  0.00     0.031 C 
ATOM     45  C   UNL A   1      39.921  25.668  27.786  1.00  0.00     0.029 A 
ATOM     46  C   UNL A   1      41.256  25.822  28.357  1.00  0.00     0.049 A 
ATOM     47  H   UNL A   1      42.025  27.481  29.354  1.00  0.00     0.167 HD
ATOM     48  C   UNL A   1      43.541  31.007  31.415  1.00  0.00     0.031 A 
ATOM     49  C   UNL A   1      42.226  24.888  28.330  1.00  0.00     0.031 A 
ATOM     50  C   UNL A   1      44.611  30.049  31.496  1.00  0.00     0.049 A 
ATOM     51  C   UNL A   1      43.545  25.172  28.994  1.00  0.00     0.074 A 
ATOM     52  C   UNL A   1      45.847  30.185  32.105  1.00  0.00     0.029 A 
ATOM     53  N   UNL A   1      44.571  28.775  30.953  1.00  0.00    -0.354 N 
ATOM     54  N   UNL A   1      43.939  26.253  29.623  1.00  0.00    -0.248 NA
ATOM     55  C   UNL A   1      44.545  24.096  28.961  1.00  0.00     0.031 C 
ATOM     56  C   UNL A   1      46.569  29.003  31.898  1.00  0.00     0.029 A 
ATOM     57  C   UNL A   1      45.763  28.117  31.203  1.00  0.00     0.049 A 
ATOM     58  H   UNL A   1      43.807  28.395  30.462  1.00  0.00     0.167 HD
ATOM     59  C   UNL A   1      45.216  25.974  30.091  1.00  0.00     0.074 A 
ATOM     60  C   UNL A   1      45.526  24.619  29.683  1.00  0.00     0.031 C 
ATOM     61  C   UNL A   1      46.056  26.767  30.798  1.00  0.00     0.031 A 
BRANCH  48  62
ATOM     62  C   UNL A   1      43.759  32.371  32.008  1.00  0.00    -0.014 A 
ATOM     63  C   UNL A   1      43.438  32.639  33.349  1.00  0.00     0.009 A 
ATOM     64  C   UNL A   1      44.314  33.395  31.225  1.00  0.00     0.009 A 
ATOM     65  C   UNL A   1      43.633  33.915  33.881  1.00  0.00     0.001 A 
ATOM     66  C   UNL A   1      44.534  34.662  31.769  1.00  0.00     0.001 A 
ATOM     67  C   UNL A   1      44.184  34.924  33.092  1.00  0.00     0.000 A 
ENDBRANCH  48  62
BRANCH  49  68
ATOM     68  C   UNL A   1      41.976  23.574  27.684  1.00  0.00    -0.014 A 
ATOM     69  C   UNL A   1      42.349  23.358  26.348  1.00  0.00     0.009 A 
ATOM     70  C   UNL A   1      41.357  22.535  28.394  1.00  0.00     0.009 A 
ATOM     71  C   UNL A   1      42.079  22.136  25.728  1.00  0.00     0.001 A 
ATOM     72  C   UNL A   1      41.113  21.306  27.779  1.00  0.00     0.001 A 
ATOM     73  C   UNL A   1      41.464  21.111  26.444  1.00  0.00     0.000 A 
ENDBRANCH  49  68
BRANCH  61  74
ATOM     74  C   UNL A   1      47.370  26.173  31.219  1.00  0.00    -0.014 A 
ATOM     75  C   UNL A   1      48.477  26.157  30.357  1.00  0.00     0.009 A 
ATOM     76  C   UNL A   1      47.507  25.644  32.513  1.00  0.00     0.009 A 
ATOM     77  C   UNL A   1      49.684  25.588  30.769  1.00  0.00     0.001 A 
ATOM     78  C   UNL A   1      48.722  25.101  32.931  1.00  0.00     0.001 A 
ATOM     79  C   UNL A   1      49.806  25.064  32.056  1.00  0.00     0.000 A 
ENDBRANCH  61  74
ENDBRANCH  35  36
ENDBRANCH  27  30
ENDBRANCH  25  26
ENDBRANCH   1  25
TORSDOF 12
ENDMDL
MODEL 3
REMARK VINA RESULT:     -11.4      2.100      6.639
REMARK SMILES O=C(C[C@@H]1C[N@@H+]([C@H]2CCO[C@]3(CCOC3)C2)CCO1)NCCCNC(=O)c1ccc(-c2c3nc(c(-c4ccccc4)c4ccc([nH]4)c(-c4ccccc4)c4nc(c(-c5ccccc5)c5ccc2[nH]5)C=C4)C=C3)cc1
REMARK SMILES IDX 22 1 21 2 20 3 1 4 2 5 3 7 4 8 5 9 19 10 6 11 18 12 17 13
REMARK SMILES IDX 7 15 8 16 16 17 9 18 11 19 10 20 12 21 15 22 13 23 14 24
REMARK SMILES IDX 23 25 24 26 25 27 26 29 27 30 28 31 74 32 29 33 73 34 30 35
REMARK SMILES IDX 31 36 32 37 67 38 33 39 72 40 66 41 68 42 34 43 71 44 65 45
REMARK SMILES IDX 64 46 35 48 57 49 42 50 56 51 43 52 46 53 55 54 69 55 44 56
REMARK SMILES IDX 45 57 54 59 70 60 47 61 36 62 37 63 41 64 38 65 40 66 39 67
REMARK SMILES IDX 58 68 59 69 63 70 60 71 62 72 61 73 48 74 49 75 53 76 50 77
REMARK SMILES IDX 52 78 51 79
REMARK H PARENT 20 6 6 14 24 28 68 47 46 58
REMARK Flexibility Score: inf
ROOT
ATOM      1  C   UNL A   1      34.121  28.354  25.847  1.00  0.00     0.042 C 
ENDROOT
BRANCH   1   2
ATOM      2  C   UNL A   1      33.148  28.896  24.808  1.00  0.00     0.117 C 
BRANCH   2   3
ATOM      3  N   UNL A   1      32.819  27.911  23.799  1.00  0.00    -0.356 N 
ATOM      4  O   UNL A   1      34.386  28.565  22.245  1.00  0.00    -0.275 OA
ATOM      5  C   UNL A   1      33.506  27.792  22.609  1.00  0.00     0.222 C 
ATOM      6  H   UNL A   1      32.069  27.297  23.969  1.00  0.00     0.163 HD
BRANCH   5   7
ATOM      7  C   UNL A   1      33.103  26.580  21.793  1.00  0.00     0.138 C 
BRANCH   7   8
ATOM      8  C   UNL A   1      32.566  25.507  22.739  1.00  0.00     0.182 C 
ATOM      9  C   UNL A   1      33.164  24.110  22.466  1.00  0.00     0.295 C 
ATOM     10  O   UNL A   1      31.130  25.469  22.660  1.00  0.00    -0.366 OA
ATOM     11  N   UNL A   1      32.678  23.077  23.407  1.00  0.00    -0.328 N 
ATOM     12  C   UNL A   1      30.618  24.568  23.655  1.00  0.00     0.222 C 
ATOM     13  C   UNL A   1      31.210  23.154  23.512  1.00  0.00     0.291 C 
ATOM     14  H   UNL A   1      32.852  22.147  23.027  1.00  0.00     0.348 HD
BRANCH  11  15
ATOM     15  C   UNL A   1      33.488  22.931  24.637  1.00  0.00     0.189 C 
ATOM     16  C   UNL A   1      32.785  22.330  25.864  1.00  0.00     0.093 C 
ATOM     17  C   UNL A   1      34.835  22.213  24.399  1.00  0.00     0.103 C 
ATOM     18  C   UNL A   1      33.720  22.205  27.055  1.00  0.00     0.167 C 
ATOM     19  C   UNL A   1      35.672  22.090  25.690  1.00  0.00     0.099 C 
ATOM     20  O   UNL A   1      34.889  21.474  26.715  1.00  0.00    -0.372 OA
ATOM     21  C   UNL A   1      36.301  23.401  26.150  1.00  0.00     0.066 C 
ATOM     22  C   UNL A   1      36.917  21.237  25.447  1.00  0.00     0.195 C 
ATOM     23  C   UNL A   1      37.701  23.399  25.562  1.00  0.00     0.163 C 
ATOM     24  O   UNL A   1      37.921  22.125  24.949  1.00  0.00    -0.378 OA
ENDBRANCH  11  15
ENDBRANCH   7   8
ENDBRANCH   5   7
ENDBRANCH   2   3
ENDBRANCH   1   2
BRANCH   1  25
ATOM     25  C   UNL A   1      33.671  28.533  27.294  1.00  0.00     0.118 C 
BRANCH  25  26
ATOM     26  N   UNL A   1      33.577  29.926  27.704  1.00  0.00    -0.352 N 
ATOM     27  C   UNL A   1      34.523  30.738  28.278  1.00  0.00     0.251 C 
ATOM     28  H   UNL A   1      32.702  30.350  27.546  1.00  0.00     0.163 HD
ATOM     29  O   UNL A   1      34.198  31.866  28.652  1.00  0.00    -0.269 OA
BRANCH  27  30
ATOM     30  C   UNL A   1      35.916  30.277  28.478  1.00  0.00     0.039 A 
ATOM     31  C   UNL A   1      36.262  29.725  29.716  1.00  0.00     0.014 A 
ATOM     32  C   UNL A   1      36.894  30.423  27.489  1.00  0.00     0.014 A 
ATOM     33  C   UNL A   1      37.568  29.285  29.948  1.00  0.00     0.010 A 
ATOM     34  C   UNL A   1      38.178  29.918  27.696  1.00  0.00     0.010 A 
ATOM     35  C   UNL A   1      38.535  29.361  28.932  1.00  0.00    -0.014 A 
BRANCH  35  36
ATOM     36  C   UNL A   1      39.925  28.894  29.169  1.00  0.00     0.031 A 
ATOM     37  C   UNL A   1      40.348  27.514  28.742  1.00  0.00     0.074 A 
ATOM     38  C   UNL A   1      40.807  29.699  29.794  1.00  0.00     0.049 A 
ATOM     39  N   UNL A   1      41.516  26.933  28.861  1.00  0.00    -0.248 NA
ATOM     40  C   UNL A   1      39.318  26.666  28.120  1.00  0.00     0.031 C 
ATOM     41  C   UNL A   1      40.520  31.044  30.296  1.00  0.00     0.029 A 
ATOM     42  N   UNL A   1      42.127  29.501  30.108  1.00  0.00    -0.354 N 
ATOM     43  C   UNL A   1      41.357  25.653  28.346  1.00  0.00     0.074 A 
ATOM     44  C   UNL A   1      39.969  25.523  27.960  1.00  0.00     0.031 C 
ATOM     45  C   UNL A   1      41.640  31.561  30.827  1.00  0.00     0.029 A 
ATOM     46  C   UNL A   1      42.714  30.578  30.727  1.00  0.00     0.049 A 
ATOM     47  H   UNL A   1      42.610  28.666  29.910  1.00  0.00     0.167 HD
ATOM     48  C   UNL A   1      42.283  24.677  28.186  1.00  0.00     0.031 A 
ATOM     49  C   UNL A   1      43.977  30.759  31.158  1.00  0.00     0.031 A 
ATOM     50  C   UNL A   1      43.668  24.805  28.551  1.00  0.00     0.049 A 
ATOM     51  C   UNL A   1      44.991  29.669  30.954  1.00  0.00     0.074 A 
ATOM     52  C   UNL A   1      44.693  23.889  28.383  1.00  0.00     0.029 A 
ATOM     53  N   UNL A   1      44.225  25.920  29.156  1.00  0.00    -0.354 N 
ATOM     54  N   UNL A   1      44.839  28.488  30.404  1.00  0.00    -0.248 NA
ATOM     55  C   UNL A   1      46.360  29.947  31.412  1.00  0.00     0.031 C 
ATOM     56  C   UNL A   1      45.863  24.438  28.921  1.00  0.00     0.029 A 
ATOM     57  C   UNL A   1      45.576  25.713  29.378  1.00  0.00     0.049 A 
ATOM     58  H   UNL A   1      43.732  26.739  29.392  1.00  0.00     0.167 HD
ATOM     59  C   UNL A   1      46.096  27.898  30.419  1.00  0.00     0.074 A 
ATOM     60  C   UNL A   1      47.002  28.855  31.020  1.00  0.00     0.031 C 
ATOM     61  C   UNL A   1      46.467  26.675  29.970  1.00  0.00     0.031 A 
BRANCH  48  62
ATOM     62  C   UNL A   1      41.820  23.379  27.588  1.00  0.00    -0.014 A 
ATOM     63  C   UNL A   1      41.921  23.139  26.207  1.00  0.00     0.009 A 
ATOM     64  C   UNL A   1      41.298  22.373  28.415  1.00  0.00     0.009 A 
ATOM     65  C   UNL A   1      41.473  21.933  25.665  1.00  0.00     0.001 A 
ATOM     66  C   UNL A   1      40.877  21.157  27.872  1.00  0.00     0.001 A 
ATOM     67  C   UNL A   1      40.955  20.943  26.497  1.00  0.00     0.000 A 
ENDBRANCH  48  62
BRANCH  49  68
ATOM     68  C   UNL A   1      44.370  32.044  31.791  1.00  0.00    -0.014 A 
ATOM     69  C   UNL A   1      44.269  32.210  33.181  1.00  0.00     0.009 A 
ATOM     70  C   UNL A   1      44.839  33.112  31.011  1.00  0.00     0.009 A 
ATOM     71  C   UNL A   1      44.601  33.431  33.773  1.00  0.00     0.001 A 
ATOM     72  C   UNL A   1      45.195  34.322  31.609  1.00  0.00     0.001 A 
ATOM     73  C   UNL A   1      45.066  34.484  32.988  1.00  0.00     0.000 A 
ENDBRANCH  49  68
BRANCH  61  74
ATOM     74  C   UNL A   1      47.924  26.322  30.067  1.00  0.00    -0.014 A 
ATOM     75  C   UNL A   1      48.808  26.559  29.004  1.00  0.00     0.009 A 
ATOM     76  C   UNL A   1      48.423  25.766  31.256  1.00  0.00     0.009 A 
ATOM     77  C   UNL A   1      50.156  26.210  29.117  1.00  0.00     0.001 A 
ATOM     78  C   UNL A   1      49.775  25.444  31.376  1.00  0.00     0.001 A 
ATOM     79  C   UNL A   1      50.638  25.657  30.303  1.00  0.00     0.000 A 
ENDBRANCH  61  74
ENDBRANCH  35  36
ENDBRANCH  27  30
ENDBRANCH  25  26
ENDBRANCH   1  25
TORSDOF 12
ENDMDL
