MODEL 1
REMARK VINA RESULT:     -11.5      0.000      0.000
REMARK SMILES O=C(C[C@H](C(=O)NCCCNC(=O)c1ccc(-c2c3nc(c(-c4ccccc4)c4ccc([nH]4)c(-c4ccccc4)c4nc(c(-c5ccccc5)c5ccc2[nH]5)C=C4)C=C3)cc1)c1ccccc1)Nc1ccc(Cl)cc1Cl
REMARK SMILES IDX 8 1 7 2 5 3 6 4 4 6 3 7 2 8 1 9 68 10 69 12 70 13 75 14
REMARK SMILES IDX 71 15 74 16 76 17 72 18 73 19 62 20 63 21 67 22 64 23 66 24
REMARK SMILES IDX 65 25 9 26 10 27 11 28 12 29 13 31 14 32 15 33 61 34 16 35
REMARK SMILES IDX 60 36 17 37 18 38 19 39 54 40 20 41 59 42 53 43 55 44 21 45
REMARK SMILES IDX 58 46 52 47 51 48 22 50 44 51 29 52 43 53 30 54 33 55 42 56
REMARK SMILES IDX 56 57 31 58 32 59 41 61 57 62 34 63 23 64 24 65 28 66 25 67
REMARK SMILES IDX 27 68 26 69 45 70 46 71 50 72 47 73 49 74 48 75 35 76 36 77
REMARK SMILES IDX 40 78 37 79 39 80 38 81
REMARK H PARENT 7 5 68 11 11 30 55 49 33 60
REMARK Flexibility Score: inf
ROOT
ATOM      1  C   UNL A   1      31.901  28.174  27.275  1.00  0.00     0.117 C 
ENDROOT
BRANCH   1   2
ATOM      2  N   UNL A   1      31.156  26.984  26.914  1.00  0.00    -0.355 N 
ATOM      3  C   UNL A   1      30.698  26.554  25.702  1.00  0.00     0.228 C 
ATOM      4  O   UNL A   1      29.979  25.553  25.718  1.00  0.00    -0.274 OA
ATOM      5  H   UNL A   1      30.946  26.387  27.668  1.00  0.00     0.163 HD
BRANCH   3   6
ATOM      6  C   UNL A   1      31.116  27.257  24.394  1.00  0.00     0.118 C 
BRANCH   6   7
ATOM      7  C   UNL A   1      31.469  26.218  23.308  1.00  0.00     0.118 C 
BRANCH   7   8
ATOM      8  C   UNL A   1      32.921  25.805  23.312  1.00  0.00     0.225 C 
ATOM      9  O   UNL A   1      33.833  26.610  23.156  1.00  0.00    -0.275 OA
ATOM     10  N   UNL A   1      33.106  24.451  23.534  1.00  0.00    -0.325 N 
ATOM     11  H   UNL A   1      32.368  23.837  23.316  1.00  0.00     0.169 HD
BRANCH  10  12
ATOM     12  C   UNL A   1      34.297  23.905  24.058  1.00  0.00     0.060 A 
ATOM     13  C   UNL A   1      35.202  23.363  23.137  1.00  0.00     0.029 A 
ATOM     14  C   UNL A   1      34.583  23.813  25.435  1.00  0.00     0.066 A 
ATOM     15  C   UNL A   1      36.406  22.806  23.576  1.00  0.00     0.023 A 
ATOM     16  C   UNL A   1      35.781  23.239  25.870  1.00  0.00     0.043 A 
ATOM     17  Cl  UNL A   1      33.421  24.189  26.666  1.00  0.00    -0.082 Cl
ATOM     18  C   UNL A   1      36.692  22.751  24.938  1.00  0.00     0.042 A 
ATOM     19  Cl  UNL A   1      38.164  22.041  25.474  1.00  0.00    -0.084 Cl
ENDBRANCH  10  12
ENDBRANCH   7   8
ENDBRANCH   6   7
BRANCH   6  20
ATOM     20  C   UNL A   1      30.027  28.182  23.849  1.00  0.00    -0.035 A 
ATOM     21  C   UNL A   1      30.225  29.572  23.783  1.00  0.00     0.004 A 
ATOM     22  C   UNL A   1      28.796  27.663  23.416  1.00  0.00     0.004 A 
ATOM     23  C   UNL A   1      29.225  30.412  23.292  1.00  0.00     0.000 A 
ATOM     24  C   UNL A   1      27.815  28.500  22.881  1.00  0.00     0.000 A 
ATOM     25  C   UNL A   1      28.027  29.875  22.824  1.00  0.00     0.000 A 
ENDBRANCH   6  20
ENDBRANCH   3   6
ENDBRANCH   1   2
BRANCH   1  26
ATOM     26  C   UNL A   1      33.382  28.038  26.928  1.00  0.00     0.042 C 
BRANCH  26  27
ATOM     27  C   UNL A   1      33.949  29.255  26.205  1.00  0.00     0.118 C 
BRANCH  27  28
ATOM     28  N   UNL A   1      33.844  30.470  27.003  1.00  0.00    -0.352 N 
ATOM     29  C   UNL A   1      34.656  30.930  28.014  1.00  0.00     0.251 C 
ATOM     30  H   UNL A   1      33.077  31.047  26.788  1.00  0.00     0.163 HD
ATOM     31  O   UNL A   1      34.297  31.873  28.707  1.00  0.00    -0.269 OA
BRANCH  29  32
ATOM     32  C   UNL A   1      35.955  30.273  28.274  1.00  0.00     0.039 A 
ATOM     33  C   UNL A   1      36.942  30.300  27.283  1.00  0.00     0.014 A 
ATOM     34  C   UNL A   1      36.197  29.628  29.488  1.00  0.00     0.014 A 
ATOM     35  C   UNL A   1      38.197  29.745  27.541  1.00  0.00     0.010 A 
ATOM     36  C   UNL A   1      37.469  29.143  29.770  1.00  0.00     0.010 A 
ATOM     37  C   UNL A   1      38.483  29.200  28.801  1.00  0.00    -0.014 A 
BRANCH  37  38
ATOM     38  C   UNL A   1      39.832  28.686  29.149  1.00  0.00     0.031 A 
ATOM     39  C   UNL A   1      40.832  29.593  29.809  1.00  0.00     0.074 A 
ATOM     40  C   UNL A   1      40.190  27.441  28.777  1.00  0.00     0.049 A 
ATOM     41  N   UNL A   1      42.100  29.388  30.054  1.00  0.00    -0.248 NA
ATOM     42  C   UNL A   1      40.345  30.919  30.226  1.00  0.00     0.031 C 
ATOM     43  C   UNL A   1      39.319  26.469  28.113  1.00  0.00     0.029 A 
ATOM     44  N   UNL A   1      41.392  26.788  28.889  1.00  0.00    -0.354 N 
ATOM     45  C   UNL A   1      42.569  30.563  30.627  1.00  0.00     0.074 A 
ATOM     46  C   UNL A   1      41.460  31.493  30.652  1.00  0.00     0.031 C 
ATOM     47  C   UNL A   1      40.011  25.340  27.891  1.00  0.00     0.029 A 
ATOM     48  C   UNL A   1      41.385  25.526  28.345  1.00  0.00     0.049 A 
ATOM     49  H   UNL A   1      42.184  27.186  29.318  1.00  0.00     0.167 HD
ATOM     50  C   UNL A   1      43.806  30.840  31.103  1.00  0.00     0.031 A 
ATOM     51  C   UNL A   1      42.379  24.628  28.207  1.00  0.00     0.031 A 
ATOM     52  C   UNL A   1      44.906  29.913  31.078  1.00  0.00     0.049 A 
ATOM     53  C   UNL A   1      43.756  24.976  28.702  1.00  0.00     0.074 A 
ATOM     54  C   UNL A   1      46.187  30.081  31.573  1.00  0.00     0.029 A 
ATOM     55  N   UNL A   1      44.853  28.643  30.522  1.00  0.00    -0.354 N 
ATOM     56  N   UNL A   1      44.172  26.073  29.286  1.00  0.00    -0.248 NA
ATOM     57  C   UNL A   1      44.800  23.956  28.524  1.00  0.00     0.031 C 
ATOM     58  C   UNL A   1      46.927  28.935  31.266  1.00  0.00     0.029 A 
ATOM     59  C   UNL A   1      46.088  28.026  30.642  1.00  0.00     0.049 A 
ATOM     60  H   UNL A   1      44.058  28.241  30.105  1.00  0.00     0.167 HD
ATOM     61  C   UNL A   1      45.512  25.862  29.579  1.00  0.00     0.074 A 
ATOM     62  C   UNL A   1      45.839  24.529  29.115  1.00  0.00     0.031 C 
ATOM     63  C   UNL A   1      46.393  26.696  30.185  1.00  0.00     0.031 A 
BRANCH  50  64
ATOM     64  C   UNL A   1      44.036  32.211  31.678  1.00  0.00    -0.014 A 
ATOM     65  C   UNL A   1      44.379  33.299  30.857  1.00  0.00     0.009 A 
ATOM     66  C   UNL A   1      43.880  32.427  33.055  1.00  0.00     0.009 A 
ATOM     67  C   UNL A   1      44.603  34.561  31.410  1.00  0.00     0.001 A 
ATOM     68  C   UNL A   1      44.071  33.697  33.601  1.00  0.00     0.001 A 
ATOM     69  C   UNL A   1      44.444  34.760  32.781  1.00  0.00     0.000 A 
ENDBRANCH  50  64
BRANCH  51  70
ATOM     70  C   UNL A   1      42.111  23.308  27.577  1.00  0.00    -0.014 A 
ATOM     71  C   UNL A   1      42.453  23.080  26.234  1.00  0.00     0.009 A 
ATOM     72  C   UNL A   1      41.506  22.272  28.307  1.00  0.00     0.009 A 
ATOM     73  C   UNL A   1      42.168  21.853  25.630  1.00  0.00     0.001 A 
ATOM     74  C   UNL A   1      41.252  21.037  27.708  1.00  0.00     0.001 A 
ATOM     75  C   UNL A   1      41.573  20.832  26.368  1.00  0.00     0.000 A 
ENDBRANCH  51  70
BRANCH  63  76
ATOM     76  C   UNL A   1      47.781  26.175  30.434  1.00  0.00    -0.014 A 
ATOM     77  C   UNL A   1      48.767  26.198  29.436  1.00  0.00     0.009 A 
ATOM     78  C   UNL A   1      48.120  25.708  31.715  1.00  0.00     0.009 A 
ATOM     79  C   UNL A   1      50.057  25.738  29.710  1.00  0.00     0.001 A 
ATOM     80  C   UNL A   1      49.418  25.280  31.994  1.00  0.00     0.001 A 
ATOM     81  C   UNL A   1      50.383  25.288  30.989  1.00  0.00     0.000 A 
ENDBRANCH  63  76
ENDBRANCH  37  38
ENDBRANCH  29  32
ENDBRANCH  27  28
ENDBRANCH  26  27
ENDBRANCH   1  26
TORSDOF 14
ENDMDL
MODEL 2
REMARK VINA RESULT:     -11.2      2.325      6.749
REMARK SMILES O=C(C[C@H](C(=O)NCCCNC(=O)c1ccc(-c2c3nc(c(-c4ccccc4)c4ccc([nH]4)c(-c4ccccc4)c4nc(c(-c5ccccc5)c5ccc2[nH]5)C=C4)C=C3)cc1)c1ccccc1)Nc1ccc(Cl)cc1Cl
REMARK SMILES IDX 8 1 7 2 5 3 6 4 4 6 3 7 2 8 1 9 68 10 69 12 70 13 75 14
REMARK SMILES IDX 71 15 74 16 76 17 72 18 73 19 62 20 63 21 67 22 64 23 66 24
REMARK SMILES IDX 65 25 9 26 10 27 11 28 12 29 13 31 14 32 15 33 61 34 16 35
REMARK SMILES IDX 60 36 17 37 18 38 19 39 54 40 20 41 59 42 53 43 55 44 21 45
REMARK SMILES IDX 58 46 52 47 51 48 22 50 44 51 29 52 43 53 30 54 33 55 42 56
REMARK SMILES IDX 56 57 31 58 32 59 41 61 57 62 34 63 23 64 24 65 28 66 25 67
REMARK SMILES IDX 27 68 26 69 45 70 46 71 50 72 47 73 49 74 48 75 35 76 36 77
REMARK SMILES IDX 40 78 37 79 39 80 38 81
REMARK H PARENT 7 5 68 11 11 30 55 49 33 60
REMARK Flexibility Score: inf
ROOT
ATOM      1  C   UNL A   1      32.488  29.708  25.310  1.00  0.00     0.117 C 
ENDROOT
BRANCH   1   2
ATOM      2  N   UNL A   1      31.972  28.372  25.540  1.00  0.00    -0.355 N 
ATOM      3  C   UNL A   1      31.376  27.489  24.688  1.00  0.00     0.228 C 
ATOM      4  O   UNL A   1      30.923  26.463  25.200  1.00  0.00    -0.274 OA
ATOM      5  H   UNL A   1      32.070  28.049  26.465  1.00  0.00     0.163 HD
BRANCH   3   6
ATOM      6  C   UNL A   1      31.334  27.748  23.168  1.00  0.00     0.118 C 
BRANCH   6   7
ATOM      7  C   UNL A   1      31.307  26.415  22.390  1.00  0.00     0.118 C 
BRANCH   7   8
ATOM      8  C   UNL A   1      32.635  25.698  22.365  1.00  0.00     0.225 C 
ATOM      9  O   UNL A   1      33.560  26.057  21.643  1.00  0.00    -0.275 OA
ATOM     10  N   UNL A   1      32.702  24.634  23.248  1.00  0.00    -0.325 N 
ATOM     11  H   UNL A   1      31.861  24.207  23.528  1.00  0.00     0.169 HD
BRANCH  10  12
ATOM     12  C   UNL A   1      33.914  24.130  23.767  1.00  0.00     0.060 A 
ATOM     13  C   UNL A   1      34.708  23.373  22.897  1.00  0.00     0.029 A 
ATOM     14  C   UNL A   1      34.320  24.284  25.108  1.00  0.00     0.066 A 
ATOM     15  C   UNL A   1      35.924  22.841  23.334  1.00  0.00     0.023 A 
ATOM     16  C   UNL A   1      35.529  23.735  25.545  1.00  0.00     0.043 A 
ATOM     17  Cl  UNL A   1      33.292  24.950  26.334  1.00  0.00    -0.082 Cl
ATOM     18  C   UNL A   1      36.330  23.028  24.653  1.00  0.00     0.042 A 
ATOM     19  Cl  UNL A   1      37.816  22.350  25.193  1.00  0.00    -0.084 Cl
ENDBRANCH  10  12
ENDBRANCH   7   8
ENDBRANCH   6   7
BRANCH   6  20
ATOM     20  C   UNL A   1      30.126  28.585  22.746  1.00  0.00    -0.035 A 
ATOM     21  C   UNL A   1      30.284  29.739  21.961  1.00  0.00     0.004 A 
ATOM     22  C   UNL A   1      28.829  28.225  23.150  1.00  0.00     0.004 A 
ATOM     23  C   UNL A   1      29.178  30.503  21.585  1.00  0.00     0.000 A 
ATOM     24  C   UNL A   1      27.720  28.965  22.734  1.00  0.00     0.000 A 
ATOM     25  C   UNL A   1      27.895  30.106  21.956  1.00  0.00     0.000 A 
ENDBRANCH   6  20
ENDBRANCH   3   6
ENDBRANCH   1   2
BRANCH   1  26
ATOM     26  C   UNL A   1      31.754  30.748  26.154  1.00  0.00     0.042 C 
BRANCH  26  27
ATOM     27  C   UNL A   1      32.617  31.351  27.258  1.00  0.00     0.118 C 
BRANCH  27  28
ATOM     28  N   UNL A   1      32.340  32.767  27.463  1.00  0.00    -0.352 N 
ATOM     29  C   UNL A   1      33.044  33.704  28.184  1.00  0.00     0.251 C 
ATOM     30  H   UNL A   1      31.529  33.103  27.020  1.00  0.00     0.163 HD
ATOM     31  O   UNL A   1      32.550  34.801  28.409  1.00  0.00    -0.269 OA
BRANCH  29  32
ATOM     32  C   UNL A   1      34.390  33.378  28.704  1.00  0.00     0.039 A 
ATOM     33  C   UNL A   1      34.504  32.735  29.941  1.00  0.00     0.014 A 
ATOM     34  C   UNL A   1      35.534  33.710  27.976  1.00  0.00     0.014 A 
ATOM     35  C   UNL A   1      35.764  32.358  30.411  1.00  0.00     0.010 A 
ATOM     36  C   UNL A   1      36.779  33.268  28.410  1.00  0.00     0.010 A 
ATOM     37  C   UNL A   1      36.906  32.585  29.629  1.00  0.00    -0.014 A 
BRANCH  37  38
ATOM     38  C   UNL A   1      38.251  32.116  30.047  1.00  0.00     0.031 A 
ATOM     39  C   UNL A   1      38.787  30.813  29.524  1.00  0.00     0.074 A 
ATOM     40  C   UNL A   1      38.944  32.809  30.973  1.00  0.00     0.049 A 
ATOM     41  N   UNL A   1      39.861  30.157  29.880  1.00  0.00    -0.248 NA
ATOM     42  C   UNL A   1      37.991  30.145  28.480  1.00  0.00     0.031 C 
ATOM     43  C   UNL A   1      38.526  34.077  31.573  1.00  0.00     0.029 A 
ATOM     44  N   UNL A   1      40.139  32.529  31.588  1.00  0.00    -0.354 N 
ATOM     45  C   UNL A   1      39.858  28.991  29.126  1.00  0.00     0.074 A 
ATOM     46  C   UNL A   1      38.652  29.007  28.326  1.00  0.00     0.031 C 
ATOM     47  C   UNL A   1      39.457  34.473  32.456  1.00  0.00     0.029 A 
ATOM     48  C   UNL A   1      40.507  33.462  32.526  1.00  0.00     0.049 A 
ATOM     49  H   UNL A   1      40.681  31.734  31.375  1.00  0.00     0.167 HD
ATOM     50  C   UNL A   1      40.782  28.001  29.090  1.00  0.00     0.031 A 
ATOM     51  C   UNL A   1      41.560  33.490  33.365  1.00  0.00     0.031 A 
ATOM     52  C   UNL A   1      41.981  27.989  29.885  1.00  0.00     0.049 A 
ATOM     53  C   UNL A   1      42.549  32.358  33.339  1.00  0.00     0.074 A 
ATOM     54  C   UNL A   1      43.001  27.054  29.892  1.00  0.00     0.029 A 
ATOM     55  N   UNL A   1      42.317  28.957  30.819  1.00  0.00    -0.354 N 
ATOM     56  N   UNL A   1      42.558  31.285  32.585  1.00  0.00    -0.248 NA
ATOM     57  C   UNL A   1      43.677  32.443  34.277  1.00  0.00     0.031 C 
ATOM     58  C   UNL A   1      43.927  27.426  30.871  1.00  0.00     0.029 A 
ATOM     59  C   UNL A   1      43.518  28.629  31.425  1.00  0.00     0.049 A 
ATOM     60  H   UNL A   1      41.782  29.757  31.022  1.00  0.00     0.167 HD
ATOM     61  C   UNL A   1      43.709  30.589  32.930  1.00  0.00     0.074 A 
ATOM     62  C   UNL A   1      44.377  31.364  33.956  1.00  0.00     0.031 C 
ATOM     63  C   UNL A   1      44.175  29.416  32.436  1.00  0.00     0.031 A 
BRANCH  50  64
ATOM     64  C   UNL A   1      40.520  26.842  28.168  1.00  0.00    -0.014 A 
ATOM     65  C   UNL A   1      41.039  26.814  26.863  1.00  0.00     0.009 A 
ATOM     66  C   UNL A   1      39.767  25.747  28.620  1.00  0.00     0.009 A 
ATOM     67  C   UNL A   1      40.773  25.736  26.017  1.00  0.00     0.001 A 
ATOM     68  C   UNL A   1      39.531  24.654  27.783  1.00  0.00     0.001 A 
ATOM     69  C   UNL A   1      40.023  24.655  26.479  1.00  0.00     0.000 A 
ENDBRANCH  50  64
BRANCH  51  70
ATOM     70  C   UNL A   1      41.740  34.634  34.299  1.00  0.00    -0.014 A 
ATOM     71  C   UNL A   1      41.193  34.588  35.591  1.00  0.00     0.009 A 
ATOM     72  C   UNL A   1      42.452  35.778  33.906  1.00  0.00     0.009 A 
ATOM     73  C   UNL A   1      41.330  35.675  36.457  1.00  0.00     0.001 A 
ATOM     74  C   UNL A   1      42.614  36.850  34.785  1.00  0.00     0.001 A 
ATOM     75  C   UNL A   1      42.044  36.802  36.056  1.00  0.00     0.000 A 
ENDBRANCH  51  70
BRANCH  63  76
ATOM     76  C   UNL A   1      45.497  28.922  32.954  1.00  0.00    -0.014 A 
ATOM     77  C   UNL A   1      45.579  28.050  34.050  1.00  0.00     0.009 A 
ATOM     78  C   UNL A   1      46.678  29.293  32.290  1.00  0.00     0.009 A 
ATOM     79  C   UNL A   1      46.821  27.582  34.486  1.00  0.00     0.001 A 
ATOM     80  C   UNL A   1      47.913  28.798  32.707  1.00  0.00     0.001 A 
ATOM     81  C   UNL A   1      47.984  27.949  33.810  1.00  0.00     0.000 A 
ENDBRANCH  63  76
ENDBRANCH  37  38
ENDBRANCH  29  32
ENDBRANCH  27  28
ENDBRANCH  26  27
ENDBRANCH   1  26
TORSDOF 14
ENDMDL
MODEL 3
REMARK VINA RESULT:     -11.2      2.708      7.707
REMARK SMILES O=C(C[C@H](C(=O)NCCCNC(=O)c1ccc(-c2c3nc(c(-c4ccccc4)c4ccc([nH]4)c(-c4ccccc4)c4nc(c(-c5ccccc5)c5ccc2[nH]5)C=C4)C=C3)cc1)c1ccccc1)Nc1ccc(Cl)cc1Cl
REMARK SMILES IDX 8 1 7 2 5 3 6 4 4 6 3 7 2 8 1 9 68 10 69 12 70 13 75 14
REMARK SMILES IDX 71 15 74 16 76 17 72 18 73 19 62 20 63 21 67 22 64 23 66 24
REMARK SMILES IDX 65 25 9 26 10 27 11 28 12 29 13 31 14 32 15 33 61 34 16 35
REMARK SMILES IDX 60 36 17 37 18 38 19 39 54 40 20 41 59 42 53 43 55 44 21 45
REMARK SMILES IDX 58 46 52 47 51 48 22 50 44 51 29 52 43 53 30 54 33 55 42 56
REMARK SMILES IDX 56 57 31 58 32 59 41 61 57 62 34 63 23 64 24 65 28 66 25 67
REMARK SMILES IDX 27 68 26 69 45 70 46 71 50 72 47 73 49 74 48 75 35 76 36 77
REMARK SMILES IDX 40 78 37 79 39 80 38 81
REMARK H PARENT 7 5 68 11 11 30 55 49 33 60
REMARK Flexibility Score: inf
ROOT
ATOM      1  C   UNL A   1      35.778  21.458  25.125  1.00  0.00     0.117 C 
ENDROOT
BRANCH   1   2
ATOM      2  N   UNL A   1      35.167  21.453  26.439  1.00  0.00    -0.355 N 
ATOM      3  C   UNL A   1      33.858  21.552  26.812  1.00  0.00     0.228 C 
ATOM      4  O   UNL A   1      33.645  21.645  28.023  1.00  0.00    -0.274 OA
ATOM      5  H   UNL A   1      35.802  21.364  27.186  1.00  0.00     0.163 HD
BRANCH   3   6
ATOM      6  C   UNL A   1      32.722  21.488  25.770  1.00  0.00     0.118 C 
BRANCH   6   7
ATOM      7  C   UNL A   1      32.840  22.655  24.766  1.00  0.00     0.118 C 
BRANCH   7   8
ATOM      8  C   UNL A   1      32.212  23.940  25.251  1.00  0.00     0.225 C 
ATOM      9  O   UNL A   1      31.410  23.968  26.178  1.00  0.00    -0.275 OA
ATOM     10  N   UNL A   1      32.654  25.060  24.568  1.00  0.00    -0.325 N 
ATOM     11  H   UNL A   1      33.011  24.940  23.658  1.00  0.00     0.169 HD
BRANCH  10  12
ATOM     12  C   UNL A   1      32.619  26.363  25.107  1.00  0.00     0.060 A 
ATOM     13  C   UNL A   1      33.734  26.769  25.851  1.00  0.00     0.029 A 
ATOM     14  C   UNL A   1      31.513  27.230  25.000  1.00  0.00     0.066 A 
ATOM     15  C   UNL A   1      33.777  28.047  26.416  1.00  0.00     0.023 A 
ATOM     16  C   UNL A   1      31.554  28.501  25.582  1.00  0.00     0.043 A 
ATOM     17  Cl  UNL A   1      29.984  26.732  24.353  1.00  0.00    -0.082 Cl
ATOM     18  C   UNL A   1      32.691  28.907  26.274  1.00  0.00     0.042 A 
ATOM     19  Cl  UNL A   1      32.739  30.469  26.993  1.00  0.00    -0.084 Cl
ENDBRANCH  10  12
ENDBRANCH   7   8
ENDBRANCH   6   7
BRANCH   6  20
ATOM     20  C   UNL A   1      32.712  20.172  24.991  1.00  0.00    -0.035 A 
ATOM     21  C   UNL A   1      32.922  18.945  25.641  1.00  0.00     0.004 A 
ATOM     22  C   UNL A   1      32.507  20.165  23.601  1.00  0.00     0.004 A 
ATOM     23  C   UNL A   1      32.919  17.748  24.923  1.00  0.00     0.000 A 
ATOM     24  C   UNL A   1      32.458  18.963  22.892  1.00  0.00     0.000 A 
ATOM     25  C   UNL A   1      32.669  17.755  23.553  1.00  0.00     0.000 A 
ENDBRANCH   6  20
ENDBRANCH   3   6
ENDBRANCH   1   2
BRANCH   1  26
ATOM     26  C   UNL A   1      36.845  20.372  24.996  1.00  0.00     0.042 C 
BRANCH  26  27
ATOM     27  C   UNL A   1      38.242  20.847  25.383  1.00  0.00     0.118 C 
BRANCH  27  28
ATOM     28  N   UNL A   1      39.188  19.744  25.494  1.00  0.00    -0.352 N 
ATOM     29  C   UNL A   1      40.505  19.752  25.896  1.00  0.00     0.251 C 
ATOM     30  H   UNL A   1      38.833  18.861  25.245  1.00  0.00     0.163 HD
ATOM     31  O   UNL A   1      41.200  18.758  25.733  1.00  0.00    -0.269 OA
BRANCH  29  32
ATOM     32  C   UNL A   1      41.083  20.969  26.506  1.00  0.00     0.039 A 
ATOM     33  C   UNL A   1      41.679  21.927  25.679  1.00  0.00     0.014 A 
ATOM     34  C   UNL A   1      41.042  21.161  27.888  1.00  0.00     0.014 A 
ATOM     35  C   UNL A   1      42.166  23.112  26.233  1.00  0.00     0.010 A 
ATOM     36  C   UNL A   1      41.458  22.373  28.428  1.00  0.00     0.010 A 
ATOM     37  C   UNL A   1      42.021  23.362  27.607  1.00  0.00    -0.014 A 
BRANCH  37  38
ATOM     38  C   UNL A   1      42.438  24.647  28.221  1.00  0.00     0.031 A 
ATOM     39  C   UNL A   1      41.431  25.745  28.417  1.00  0.00     0.074 A 
ATOM     40  C   UNL A   1      43.738  24.863  28.505  1.00  0.00     0.049 A 
ATOM     41  N   UNL A   1      41.621  26.985  28.791  1.00  0.00    -0.248 NA
ATOM     42  C   UNL A   1      40.027  25.411  28.128  1.00  0.00     0.031 C 
ATOM     43  C   UNL A   1      44.817  23.886  28.343  1.00  0.00     0.029 A 
ATOM     44  N   UNL A   1      44.375  25.986  28.971  1.00  0.00    -0.354 N 
ATOM     45  C   UNL A   1      40.368  27.584  28.756  1.00  0.00     0.074 A 
ATOM     46  C   UNL A   1      39.433  26.586  28.283  1.00  0.00     0.031 C 
ATOM     47  C   UNL A   1      45.977  24.446  28.719  1.00  0.00     0.029 A 
ATOM     48  C   UNL A   1      45.735  25.835  29.095  1.00  0.00     0.049 A 
ATOM     49  H   UNL A   1      43.902  26.819  29.196  1.00  0.00     0.167 HD
ATOM     50  C   UNL A   1      40.022  28.847  29.102  1.00  0.00     0.031 A 
ATOM     51  C   UNL A   1      46.684  26.722  29.448  1.00  0.00     0.031 A 
ATOM     52  C   UNL A   1      40.954  29.837  29.575  1.00  0.00     0.049 A 
ATOM     53  C   UNL A   1      46.282  28.132  29.784  1.00  0.00     0.074 A 
ATOM     54  C   UNL A   1      40.698  31.131  29.990  1.00  0.00     0.029 A 
ATOM     55  N   UNL A   1      42.321  29.641  29.689  1.00  0.00    -0.354 N 
ATOM     56  N   UNL A   1      45.087  28.671  29.794  1.00  0.00    -0.248 NA
ATOM     57  C   UNL A   1      47.361  29.056  30.163  1.00  0.00     0.031 C 
ATOM     58  C   UNL A   1      41.919  31.738  30.302  1.00  0.00     0.029 A 
ATOM     59  C   UNL A   1      42.926  30.800  30.146  1.00  0.00     0.049 A 
ATOM     60  H   UNL A   1      42.793  28.803  29.476  1.00  0.00     0.167 HD
ATOM     61  C   UNL A   1      45.265  29.982  30.216  1.00  0.00     0.074 A 
ATOM     62  C   UNL A   1      46.683  30.155  30.459  1.00  0.00     0.031 C 
ATOM     63  C   UNL A   1      44.336  30.953  30.393  1.00  0.00     0.031 A 
BRANCH  50  64
ATOM     64  C   UNL A   1      38.575  29.231  28.965  1.00  0.00    -0.014 A 
ATOM     65  C   UNL A   1      38.050  29.676  27.740  1.00  0.00     0.009 A 
ATOM     66  C   UNL A   1      37.715  29.120  30.068  1.00  0.00     0.009 A 
ATOM     67  C   UNL A   1      36.707  30.042  27.635  1.00  0.00     0.001 A 
ATOM     68  C   UNL A   1      36.364  29.454  29.952  1.00  0.00     0.001 A 
ATOM     69  C   UNL A   1      35.864  29.926  28.740  1.00  0.00     0.000 A 
ENDBRANCH  50  64
BRANCH  51  70
ATOM     70  C   UNL A   1      48.111  26.306  29.511  1.00  0.00    -0.014 A 
ATOM     71  C   UNL A   1      48.650  25.797  30.703  1.00  0.00     0.009 A 
ATOM     72  C   UNL A   1      48.943  26.421  28.386  1.00  0.00     0.009 A 
ATOM     73  C   UNL A   1      49.998  25.440  30.775  1.00  0.00     0.001 A 
ATOM     74  C   UNL A   1      50.282  26.033  28.453  1.00  0.00     0.001 A 
ATOM     75  C   UNL A   1      50.811  25.553  29.650  1.00  0.00     0.000 A 
ENDBRANCH  51  70
BRANCH  63  76
ATOM     76  C   UNL A   1      44.810  32.276  30.927  1.00  0.00    -0.014 A 
ATOM     77  C   UNL A   1      44.795  32.564  32.301  1.00  0.00     0.009 A 
ATOM     78  C   UNL A   1      45.339  33.227  30.038  1.00  0.00     0.009 A 
ATOM     79  C   UNL A   1      45.275  33.789  32.768  1.00  0.00     0.001 A 
ATOM     80  C   UNL A   1      45.847  34.436  30.512  1.00  0.00     0.001 A 
ATOM     81  C   UNL A   1      45.807  34.720  31.876  1.00  0.00     0.000 A 
ENDBRANCH  63  76
ENDBRANCH  37  38
ENDBRANCH  29  32
ENDBRANCH  27  28
ENDBRANCH  26  27
ENDBRANCH   1  26
TORSDOF 14
ENDMDL
