MODEL 1
REMARK VINA RESULT:     -12.2      0.000      0.000
REMARK SMILES CC(C)c1cc2c(cc1Cl)C=C(C(=O)NCCCNC(=O)c1ccc(-c3c4nc(c(-c5ccccc5)c5ccc([nH]5)c(-c5ccccc5)c5nc(c(-c6ccccc6)c6ccc3[nH]6)C=C5)C=C4)cc1)[C@@H](C(F)(F)F)O2
REMARK SMILES IDX 17 1 16 2 15 3 13 4 14 5 12 7 4 8 5 9 9 10 6 11 8 12 10 13
REMARK SMILES IDX 7 14 75 15 11 16 70 17 2 18 1 19 3 20 71 21 72 22 73 23
REMARK SMILES IDX 74 24 18 25 19 26 20 27 21 29 22 30 23 31 69 32 24 33 68 34
REMARK SMILES IDX 25 35 26 36 27 37 62 38 28 39 67 40 61 41 63 42 29 43 66 44
REMARK SMILES IDX 60 45 59 46 30 48 52 49 37 50 51 51 38 52 41 53 50 54 64 55
REMARK SMILES IDX 39 56 40 57 49 59 65 60 42 61 31 62 32 63 36 64 33 65 35 66
REMARK SMILES IDX 34 67 53 68 54 69 58 70 55 71 57 72 56 73 43 74 44 75 48 76
REMARK SMILES IDX 45 77 47 78 46 79
REMARK H PARENT 15 6 19 28 63 47 41 58
REMARK Flexibility Score: inf
ROOT
ATOM      1  C   UNL A   1      37.817  19.864  24.840  1.00  0.00     0.042 C 
ENDROOT
BRANCH   1   2
ATOM      2  C   UNL A   1      36.508  20.592  25.103  1.00  0.00     0.118 C 
BRANCH   2   3
ATOM      3  N   UNL A   1      35.363  19.704  24.997  1.00  0.00    -0.352 N 
ATOM      4  C   UNL A   1      34.018  19.824  24.910  1.00  0.00     0.251 C 
ATOM      5  O   UNL A   1      33.400  18.756  24.848  1.00  0.00    -0.270 OA
ATOM      6  H   UNL A   1      35.640  18.759  24.986  1.00  0.00     0.163 HD
BRANCH   4   7
ATOM      7  C   UNL A   1      33.270  21.114  24.889  1.00  0.00     0.067 C 
ATOM      8  C   UNL A   1      31.092  25.480  23.473  1.00  0.00    -0.023 A 
ATOM      9  C   UNL A   1      31.023  24.626  24.599  1.00  0.00     0.052 A 
ATOM     10  C   UNL A   1      31.938  25.073  22.425  1.00  0.00     0.045 A 
ATOM     11  C   UNL A   1      31.736  23.432  24.667  1.00  0.00     0.128 A 
ATOM     12  C   UNL A   1      32.670  23.872  22.511  1.00  0.00     0.032 A 
ATOM     13  Cl  UNL A   1      32.160  25.942  20.950  1.00  0.00    -0.084 Cl
ATOM     14  C   UNL A   1      32.567  23.046  23.629  1.00  0.00     0.019 A 
ATOM     15  O   UNL A   1      31.522  22.661  25.772  1.00  0.00    -0.475 OA
ATOM     16  C   UNL A   1      33.272  21.773  23.715  1.00  0.00     0.025 C 
ATOM     17  C   UNL A   1      32.563  21.697  26.081  1.00  0.00     0.314 C 
BRANCH   8  18
ATOM     18  C   UNL A   1      30.214  26.729  23.564  1.00  0.00     0.014 C 
ATOM     19  C   UNL A   1      28.735  26.589  23.920  1.00  0.00     0.012 C 
ATOM     20  C   UNL A   1      30.847  27.763  24.512  1.00  0.00     0.012 C 
ENDBRANCH   8  18
BRANCH  17  21
ATOM     21  C   UNL A   1      33.528  22.322  27.107  1.00  0.00     0.429 C 
ATOM     22  F   UNL A   1      32.827  22.868  28.134  1.00  0.00    -0.167 F 
ATOM     23  F   UNL A   1      34.368  21.414  27.656  1.00  0.00    -0.167 F 
ATOM     24  F   UNL A   1      34.297  23.297  26.576  1.00  0.00    -0.167 F 
ENDBRANCH  17  21
ENDBRANCH   4   7
ENDBRANCH   2   3
ENDBRANCH   1   2
BRANCH   1  25
ATOM     25  C   UNL A   1      38.939  20.344  25.748  1.00  0.00     0.118 C 
BRANCH  25  26
ATOM     26  N   UNL A   1      40.009  19.356  25.878  1.00  0.00    -0.352 N 
ATOM     27  C   UNL A   1      41.347  19.521  26.145  1.00  0.00     0.251 C 
ATOM     28  H   UNL A   1      39.725  18.423  25.753  1.00  0.00     0.163 HD
ATOM     29  O   UNL A   1      42.120  18.578  26.002  1.00  0.00    -0.269 OA
BRANCH  27  30
ATOM     30  C   UNL A   1      41.856  20.834  26.586  1.00  0.00     0.039 A 
ATOM     31  C   UNL A   1      41.851  21.169  27.939  1.00  0.00     0.014 A 
ATOM     32  C   UNL A   1      42.339  21.744  25.640  1.00  0.00     0.014 A 
ATOM     33  C   UNL A   1      42.123  22.472  28.322  1.00  0.00     0.010 A 
ATOM     34  C   UNL A   1      42.734  23.022  26.047  1.00  0.00     0.010 A 
ATOM     35  C   UNL A   1      42.580  23.413  27.385  1.00  0.00    -0.014 A 
BRANCH  35  36
ATOM     36  C   UNL A   1      42.899  24.786  27.854  1.00  0.00     0.031 A 
ATOM     37  C   UNL A   1      41.809  25.789  28.115  1.00  0.00     0.074 A 
ATOM     38  C   UNL A   1      44.181  25.089  28.133  1.00  0.00     0.049 A 
ATOM     39  N   UNL A   1      41.913  27.001  28.603  1.00  0.00    -0.248 NA
ATOM     40  C   UNL A   1      40.430  25.394  27.789  1.00  0.00     0.031 C 
ATOM     41  C   UNL A   1      45.321  24.187  27.932  1.00  0.00     0.029 A 
ATOM     42  N   UNL A   1      44.741  26.209  28.692  1.00  0.00    -0.354 N 
ATOM     43  C   UNL A   1      40.623  27.516  28.619  1.00  0.00     0.074 A 
ATOM     44  C   UNL A   1      39.753  26.500  28.070  1.00  0.00     0.031 C 
ATOM     45  C   UNL A   1      46.422  24.749  28.448  1.00  0.00     0.029 A 
ATOM     46  C   UNL A   1      46.088  26.083  28.935  1.00  0.00     0.049 A 
ATOM     47  H   UNL A   1      44.230  27.024  28.898  1.00  0.00     0.167 HD
ATOM     48  C   UNL A   1      40.203  28.725  29.061  1.00  0.00     0.031 A 
ATOM     49  C   UNL A   1      46.967  26.942  29.485  1.00  0.00     0.031 A 
ATOM     50  C   UNL A   1      41.072  29.725  29.623  1.00  0.00     0.049 A 
ATOM     51  C   UNL A   1      46.479  28.285  29.940  1.00  0.00     0.074 A 
ATOM     52  C   UNL A   1      40.738  30.977  30.106  1.00  0.00     0.029 A 
ATOM     53  N   UNL A   1      42.442  29.585  29.782  1.00  0.00    -0.354 N 
ATOM     54  N   UNL A   1      45.257  28.756  29.942  1.00  0.00    -0.248 NA
ATOM     55  C   UNL A   1      47.488  29.217  30.461  1.00  0.00     0.031 C 
ATOM     56  C   UNL A   1      41.913  31.618  30.508  1.00  0.00     0.029 A 
ATOM     57  C   UNL A   1      42.970  30.739  30.337  1.00  0.00     0.049 A 
ATOM     58  H   UNL A   1      42.962  28.786  29.539  1.00  0.00     0.167 HD
ATOM     59  C   UNL A   1      45.346  30.036  30.470  1.00  0.00     0.074 A 
ATOM     60  C   UNL A   1      46.738  30.258  30.801  1.00  0.00     0.031 C 
ATOM     61  C   UNL A   1      44.359  30.946  30.657  1.00  0.00     0.031 A 
BRANCH  48  62
ATOM     62  C   UNL A   1      38.740  29.054  28.945  1.00  0.00    -0.014 A 
ATOM     63  C   UNL A   1      38.241  29.588  27.747  1.00  0.00     0.009 A 
ATOM     64  C   UNL A   1      37.875  28.929  30.044  1.00  0.00     0.009 A 
ATOM     65  C   UNL A   1      36.910  30.002  27.653  1.00  0.00     0.001 A 
ATOM     66  C   UNL A   1      36.538  29.319  29.939  1.00  0.00     0.001 A 
ATOM     67  C   UNL A   1      36.059  29.864  28.746  1.00  0.00     0.000 A 
ENDBRANCH  48  62
BRANCH  49  68
ATOM     68  C   UNL A   1      48.390  26.535  29.630  1.00  0.00    -0.014 A 
ATOM     69  C   UNL A   1      48.833  25.898  30.802  1.00  0.00     0.009 A 
ATOM     70  C   UNL A   1      49.326  26.844  28.634  1.00  0.00     0.009 A 
ATOM     71  C   UNL A   1      50.187  25.612  30.989  1.00  0.00     0.001 A 
ATOM     72  C   UNL A   1      50.676  26.525  28.808  1.00  0.00     0.001 A 
ATOM     73  C   UNL A   1      51.106  25.922  29.989  1.00  0.00     0.000 A 
ENDBRANCH  49  68
BRANCH  61  74
ATOM     74  C   UNL A   1      44.737  32.272  31.255  1.00  0.00    -0.014 A 
ATOM     75  C   UNL A   1      45.129  33.327  30.415  1.00  0.00     0.009 A 
ATOM     76  C   UNL A   1      44.805  32.444  32.645  1.00  0.00     0.009 A 
ATOM     77  C   UNL A   1      45.597  34.524  30.956  1.00  0.00     0.001 A 
ATOM     78  C   UNL A   1      45.246  33.655  33.182  1.00  0.00     0.001 A 
ATOM     79  C   UNL A   1      45.651  34.689  32.338  1.00  0.00     0.000 A 
ENDBRANCH  61  74
ENDBRANCH  35  36
ENDBRANCH  27  30
ENDBRANCH  25  26
ENDBRANCH   1  25
TORSDOF 12
ENDMDL
MODEL 2
REMARK VINA RESULT:     -12.2      1.104      5.959
REMARK SMILES CC(C)c1cc2c(cc1Cl)C=C(C(=O)NCCCNC(=O)c1ccc(-c3c4nc(c(-c5ccccc5)c5ccc([nH]5)c(-c5ccccc5)c5nc(c(-c6ccccc6)c6ccc3[nH]6)C=C5)C=C4)cc1)[C@@H](C(F)(F)F)O2
REMARK SMILES IDX 17 1 16 2 15 3 13 4 14 5 12 7 4 8 5 9 9 10 6 11 8 12 10 13
REMARK SMILES IDX 7 14 75 15 11 16 70 17 2 18 1 19 3 20 71 21 72 22 73 23
REMARK SMILES IDX 74 24 18 25 19 26 20 27 21 29 22 30 23 31 69 32 24 33 68 34
REMARK SMILES IDX 25 35 26 36 27 37 62 38 28 39 67 40 61 41 63 42 29 43 66 44
REMARK SMILES IDX 60 45 59 46 30 48 52 49 37 50 51 51 38 52 41 53 50 54 64 55
REMARK SMILES IDX 39 56 40 57 49 59 65 60 42 61 31 62 32 63 36 64 33 65 35 66
REMARK SMILES IDX 34 67 53 68 54 69 58 70 55 71 57 72 56 73 43 74 44 75 48 76
REMARK SMILES IDX 45 77 47 78 46 79
REMARK H PARENT 15 6 19 28 63 47 41 58
REMARK Flexibility Score: inf
ROOT
ATOM      1  C   UNL A   1      37.808  19.845  24.713  1.00  0.00     0.042 C 
ENDROOT
BRANCH   1   2
ATOM      2  C   UNL A   1      36.513  20.583  25.016  1.00  0.00     0.118 C 
BRANCH   2   3
ATOM      3  N   UNL A   1      35.365  19.692  25.000  1.00  0.00    -0.352 N 
ATOM      4  C   UNL A   1      34.018  19.810  24.968  1.00  0.00     0.251 C 
ATOM      5  O   UNL A   1      33.399  18.742  24.980  1.00  0.00    -0.270 OA
ATOM      6  H   UNL A   1      35.642  18.748  25.017  1.00  0.00     0.163 HD
BRANCH   4   7
ATOM      7  C   UNL A   1      33.269  21.099  24.925  1.00  0.00     0.067 C 
ATOM      8  C   UNL A   1      31.141  25.470  23.450  1.00  0.00    -0.023 A 
ATOM      9  C   UNL A   1      31.028  24.609  24.566  1.00  0.00     0.052 A 
ATOM     10  C   UNL A   1      32.029  25.072  22.434  1.00  0.00     0.045 A 
ATOM     11  C   UNL A   1      31.740  23.416  24.656  1.00  0.00     0.128 A 
ATOM     12  C   UNL A   1      32.759  23.871  22.541  1.00  0.00     0.032 A 
ATOM     13  Cl  UNL A   1      32.309  25.950  20.974  1.00  0.00    -0.084 Cl
ATOM     14  C   UNL A   1      32.613  23.038  23.649  1.00  0.00     0.019 A 
ATOM     15  O   UNL A   1      31.483  22.638  25.746  1.00  0.00    -0.475 OA
ATOM     16  C   UNL A   1      33.316  21.766  23.756  1.00  0.00     0.025 C 
ATOM     17  C   UNL A   1      32.513  21.673  26.091  1.00  0.00     0.314 C 
BRANCH   8  18
ATOM     18  C   UNL A   1      30.257  26.717  23.512  1.00  0.00     0.014 C 
ATOM     19  C   UNL A   1      28.779  26.579  23.877  1.00  0.00     0.012 C 
ATOM     20  C   UNL A   1      30.888  27.777  24.433  1.00  0.00     0.012 C 
ENDBRANCH   8  18
BRANCH  17  21
ATOM     21  C   UNL A   1      33.434  22.294  27.159  1.00  0.00     0.429 C 
ATOM     22  F   UNL A   1      32.719  22.603  28.270  1.00  0.00    -0.167 F 
ATOM     23  F   UNL A   1      34.415  21.451  27.558  1.00  0.00    -0.167 F 
ATOM     24  F   UNL A   1      34.038  23.426  26.736  1.00  0.00    -0.167 F 
ENDBRANCH  17  21
ENDBRANCH   4   7
ENDBRANCH   2   3
ENDBRANCH   1   2
BRANCH   1  25
ATOM     25  C   UNL A   1      38.915  20.189  25.698  1.00  0.00     0.118 C 
BRANCH  25  26
ATOM     26  N   UNL A   1      39.943  19.152  25.761  1.00  0.00    -0.352 N 
ATOM     27  C   UNL A   1      41.302  19.253  25.944  1.00  0.00     0.251 C 
ATOM     28  H   UNL A   1      39.609  18.233  25.654  1.00  0.00     0.163 HD
ATOM     29  O   UNL A   1      42.019  18.275  25.753  1.00  0.00    -0.269 OA
BRANCH  27  30
ATOM     30  C   UNL A   1      41.898  20.539  26.352  1.00  0.00     0.039 A 
ATOM     31  C   UNL A   1      42.019  20.859  27.703  1.00  0.00     0.014 A 
ATOM     32  C   UNL A   1      42.337  21.440  25.376  1.00  0.00     0.014 A 
ATOM     33  C   UNL A   1      42.375  22.145  28.073  1.00  0.00     0.010 A 
ATOM     34  C   UNL A   1      42.816  22.697  25.759  1.00  0.00     0.010 A 
ATOM     35  C   UNL A   1      42.789  23.078  27.108  1.00  0.00    -0.014 A 
BRANCH  35  36
ATOM     36  C   UNL A   1      43.202  24.432  27.560  1.00  0.00     0.031 A 
ATOM     37  C   UNL A   1      44.633  24.882  27.457  1.00  0.00     0.074 A 
ATOM     38  C   UNL A   1      42.250  25.289  27.977  1.00  0.00     0.049 A 
ATOM     39  N   UNL A   1      45.143  26.057  27.730  1.00  0.00    -0.248 NA
ATOM     40  C   UNL A   1      45.623  23.896  26.993  1.00  0.00     0.031 C 
ATOM     41  C   UNL A   1      40.825  24.966  28.103  1.00  0.00     0.029 A 
ATOM     42  N   UNL A   1      42.319  26.615  28.321  1.00  0.00    -0.354 N 
ATOM     43  C   UNL A   1      46.507  25.943  27.496  1.00  0.00     0.074 A 
ATOM     44  C   UNL A   1      46.755  24.581  27.082  1.00  0.00     0.031 C 
ATOM     45  C   UNL A   1      40.146  26.081  28.400  1.00  0.00     0.029 A 
ATOM     46  C   UNL A   1      41.091  27.178  28.572  1.00  0.00     0.049 A 
ATOM     47  H   UNL A   1      43.165  27.114  28.381  1.00  0.00     0.167 HD
ATOM     48  C   UNL A   1      47.465  26.896  27.607  1.00  0.00     0.031 A 
ATOM     49  C   UNL A   1      40.753  28.438  28.910  1.00  0.00     0.031 A 
ATOM     50  C   UNL A   1      47.208  28.255  28.004  1.00  0.00     0.049 A 
ATOM     51  C   UNL A   1      41.837  29.464  29.054  1.00  0.00     0.074 A 
ATOM     52  C   UNL A   1      48.112  29.294  28.137  1.00  0.00     0.029 A 
ATOM     53  N   UNL A   1      45.959  28.765  28.322  1.00  0.00    -0.354 N 
ATOM     54  N   UNL A   1      43.122  29.337  28.833  1.00  0.00    -0.248 NA
ATOM     55  C   UNL A   1      41.429  30.803  29.500  1.00  0.00     0.031 C 
ATOM     56  C   UNL A   1      47.419  30.419  28.591  1.00  0.00     0.029 A 
ATOM     57  C   UNL A   1      46.073  30.100  28.674  1.00  0.00     0.049 A 
ATOM     58  H   UNL A   1      45.117  28.256  28.302  1.00  0.00     0.167 HD
ATOM     59  C   UNL A   1      43.678  30.579  29.105  1.00  0.00     0.074 A 
ATOM     60  C   UNL A   1      42.586  31.453  29.482  1.00  0.00     0.031 C 
ATOM     61  C   UNL A   1      44.978  30.956  29.051  1.00  0.00     0.031 A 
BRANCH  48  62
ATOM     62  C   UNL A   1      48.888  26.508  27.316  1.00  0.00    -0.014 A 
ATOM     63  C   UNL A   1      49.361  26.543  25.995  1.00  0.00     0.009 A 
ATOM     64  C   UNL A   1      49.731  26.017  28.325  1.00  0.00     0.009 A 
ATOM     65  C   UNL A   1      50.644  26.084  25.686  1.00  0.00     0.001 A 
ATOM     66  C   UNL A   1      51.024  25.584  28.018  1.00  0.00     0.001 A 
ATOM     67  C   UNL A   1      51.475  25.609  26.698  1.00  0.00     0.000 A 
ENDBRANCH  48  62
BRANCH  49  68
ATOM     68  C   UNL A   1      39.321  28.776  29.124  1.00  0.00    -0.014 A 
ATOM     69  C   UNL A   1      38.554  29.322  28.081  1.00  0.00     0.009 A 
ATOM     70  C   UNL A   1      38.733  28.622  30.387  1.00  0.00     0.009 A 
ATOM     71  C   UNL A   1      37.242  29.741  28.306  1.00  0.00     0.001 A 
ATOM     72  C   UNL A   1      37.407  29.011  30.601  1.00  0.00     0.001 A 
ATOM     73  C   UNL A   1      36.669  29.581  29.566  1.00  0.00     0.000 A 
ENDBRANCH  49  68
BRANCH  61  74
ATOM     74  C   UNL A   1      45.306  32.380  29.400  1.00  0.00    -0.014 A 
ATOM     75  C   UNL A   1      45.366  33.348  28.385  1.00  0.00     0.009 A 
ATOM     76  C   UNL A   1      45.655  32.741  30.710  1.00  0.00     0.009 A 
ATOM     77  C   UNL A   1      45.785  34.647  28.671  1.00  0.00     0.001 A 
ATOM     78  C   UNL A   1      46.045  34.050  30.997  1.00  0.00     0.001 A 
ATOM     79  C   UNL A   1      46.120  34.998  29.977  1.00  0.00     0.000 A 
ENDBRANCH  61  74
ENDBRANCH  35  36
ENDBRANCH  27  30
ENDBRANCH  25  26
ENDBRANCH   1  25
TORSDOF 12
ENDMDL
MODEL 3
REMARK VINA RESULT:     -12.1      4.262      9.021
REMARK SMILES CC(C)c1cc2c(cc1Cl)C=C(C(=O)NCCCNC(=O)c1ccc(-c3c4nc(c(-c5ccccc5)c5ccc([nH]5)c(-c5ccccc5)c5nc(c(-c6ccccc6)c6ccc3[nH]6)C=C5)C=C4)cc1)[C@@H](C(F)(F)F)O2
REMARK SMILES IDX 17 1 16 2 15 3 13 4 14 5 12 7 4 8 5 9 9 10 6 11 8 12 10 13
REMARK SMILES IDX 7 14 75 15 11 16 70 17 2 18 1 19 3 20 71 21 72 22 73 23
REMARK SMILES IDX 74 24 18 25 19 26 20 27 21 29 22 30 23 31 69 32 24 33 68 34
REMARK SMILES IDX 25 35 26 36 27 37 62 38 28 39 67 40 61 41 63 42 29 43 66 44
REMARK SMILES IDX 60 45 59 46 30 48 52 49 37 50 51 51 38 52 41 53 50 54 64 55
REMARK SMILES IDX 39 56 40 57 49 59 65 60 42 61 31 62 32 63 36 64 33 65 35 66
REMARK SMILES IDX 34 67 53 68 54 69 58 70 55 71 57 72 56 73 43 74 44 75 48 76
REMARK SMILES IDX 45 77 47 78 46 79
REMARK H PARENT 15 6 19 28 63 47 41 58
REMARK Flexibility Score: inf
ROOT
ATOM      1  C   UNL A   1      31.478  31.533  26.664  1.00  0.00     0.042 C 
ENDROOT
BRANCH   1   2
ATOM      2  C   UNL A   1      31.756  30.422  25.664  1.00  0.00     0.118 C 
BRANCH   2   3
ATOM      3  N   UNL A   1      30.755  30.378  24.611  1.00  0.00    -0.352 N 
ATOM      4  C   UNL A   1      30.303  29.478  23.708  1.00  0.00     0.251 C 
ATOM      5  O   UNL A   1      29.408  29.888  22.963  1.00  0.00    -0.270 OA
ATOM      6  H   UNL A   1      30.276  31.234  24.533  1.00  0.00     0.163 HD
BRANCH   4   7
ATOM      7  C   UNL A   1      30.804  28.081  23.563  1.00  0.00     0.067 C 
ATOM      8  C   UNL A   1      31.656  23.106  24.149  1.00  0.00    -0.023 A 
ATOM      9  C   UNL A   1      31.928  24.075  23.155  1.00  0.00     0.052 A 
ATOM     10  C   UNL A   1      30.952  23.548  25.284  1.00  0.00     0.045 A 
ATOM     11  C   UNL A   1      31.506  25.397  23.274  1.00  0.00     0.128 A 
ATOM     12  C   UNL A   1      30.545  24.893  25.405  1.00  0.00     0.032 A 
ATOM     13  Cl  UNL A   1      30.491  22.540  26.607  1.00  0.00    -0.084 Cl
ATOM     14  C   UNL A   1      30.816  25.819  24.399  1.00  0.00     0.019 A 
ATOM     15  O   UNL A   1      31.762  26.213  22.212  1.00  0.00    -0.475 OA
ATOM     16  C   UNL A   1      30.357  27.200  24.478  1.00  0.00     0.025 C 
ATOM     17  C   UNL A   1      31.766  27.637  22.496  1.00  0.00     0.314 C 
BRANCH   8  18
ATOM     18  C   UNL A   1      32.167  21.701  23.828  1.00  0.00     0.014 C 
ATOM     19  C   UNL A   1      32.153  21.202  22.384  1.00  0.00     0.012 C 
ATOM     20  C   UNL A   1      33.583  21.502  24.397  1.00  0.00     0.012 C 
ENDBRANCH   8  18
BRANCH  17  21
ATOM     21  C   UNL A   1      33.216  28.083  22.769  1.00  0.00     0.429 C 
ATOM     22  F   UNL A   1      33.552  27.816  24.056  1.00  0.00    -0.167 F 
ATOM     23  F   UNL A   1      34.117  27.434  21.995  1.00  0.00    -0.167 F 
ATOM     24  F   UNL A   1      33.404  29.405  22.565  1.00  0.00    -0.167 F 
ENDBRANCH  17  21
ENDBRANCH   4   7
ENDBRANCH   2   3
ENDBRANCH   1   2
BRANCH   1  25
ATOM     25  C   UNL A   1      32.749  32.236  27.116  1.00  0.00     0.118 C 
BRANCH  25  26
ATOM     26  N   UNL A   1      32.499  33.610  27.549  1.00  0.00    -0.352 N 
ATOM     27  C   UNL A   1      33.139  34.378  28.492  1.00  0.00     0.251 C 
ATOM     28  H   UNL A   1      31.751  34.057  27.091  1.00  0.00     0.163 HD
ATOM     29  O   UNL A   1      32.640  35.439  28.857  1.00  0.00    -0.269 OA
BRANCH  27  30
ATOM     30  C   UNL A   1      34.414  33.921  29.076  1.00  0.00     0.039 A 
ATOM     31  C   UNL A   1      35.625  34.309  28.506  1.00  0.00     0.014 A 
ATOM     32  C   UNL A   1      34.402  33.091  30.201  1.00  0.00     0.014 A 
ATOM     33  C   UNL A   1      36.801  33.706  28.922  1.00  0.00     0.010 A 
ATOM     34  C   UNL A   1      35.606  32.581  30.699  1.00  0.00     0.010 A 
ATOM     35  C   UNL A   1      36.810  32.844  30.030  1.00  0.00    -0.014 A 
BRANCH  35  36
ATOM     36  C   UNL A   1      38.104  32.256  30.463  1.00  0.00     0.031 A 
ATOM     37  C   UNL A   1      38.855  32.814  31.641  1.00  0.00     0.074 A 
ATOM     38  C   UNL A   1      38.549  31.149  29.838  1.00  0.00     0.049 A 
ATOM     39  N   UNL A   1      39.954  32.367  32.196  1.00  0.00    -0.248 NA
ATOM     40  C   UNL A   1      38.315  34.025  32.278  1.00  0.00     0.031 C 
ATOM     41  C   UNL A   1      37.893  30.510  28.692  1.00  0.00     0.029 A 
ATOM     42  N   UNL A   1      39.618  30.332  30.103  1.00  0.00    -0.354 N 
ATOM     43  C   UNL A   1      40.246  33.252  33.226  1.00  0.00     0.074 A 
ATOM     44  C   UNL A   1      39.227  34.277  33.208  1.00  0.00     0.031 C 
ATOM     45  C   UNL A   1      38.515  29.356  28.416  1.00  0.00     0.029 A 
ATOM     46  C   UNL A   1      39.663  29.215  29.304  1.00  0.00     0.049 A 
ATOM     47  H   UNL A   1      40.288  30.527  30.797  1.00  0.00     0.167 HD
ATOM     48  C   UNL A   1      41.269  33.206  34.113  1.00  0.00     0.031 A 
ATOM     49  C   UNL A   1      40.532  28.186  29.278  1.00  0.00     0.031 A 
ATOM     50  C   UNL A   1      42.271  32.173  34.137  1.00  0.00     0.049 A 
ATOM     51  C   UNL A   1      41.671  28.176  30.254  1.00  0.00     0.074 A 
ATOM     52  C   UNL A   1      43.341  32.036  35.002  1.00  0.00     0.029 A 
ATOM     53  N   UNL A   1      42.322  31.099  33.261  1.00  0.00    -0.354 N 
ATOM     54  N   UNL A   1      41.934  29.024  31.217  1.00  0.00    -0.248 NA
ATOM     55  C   UNL A   1      42.637  27.075  30.135  1.00  0.00     0.031 C 
ATOM     56  C   UNL A   1      44.072  30.910  34.617  1.00  0.00     0.029 A 
ATOM     57  C   UNL A   1      43.420  30.307  33.554  1.00  0.00     0.049 A 
ATOM     58  H   UNL A   1      41.675  30.924  32.540  1.00  0.00     0.167 HD
ATOM     59  C   UNL A   1      43.090  28.558  31.827  1.00  0.00     0.074 A 
ATOM     60  C   UNL A   1      43.463  27.338  31.140  1.00  0.00     0.031 C 
ATOM     61  C   UNL A   1      43.781  29.098  32.859  1.00  0.00     0.031 A 
BRANCH  48  62
ATOM     62  C   UNL A   1      41.377  34.310  35.129  1.00  0.00    -0.014 A 
ATOM     63  C   UNL A   1      40.686  34.206  36.345  1.00  0.00     0.009 A 
ATOM     64  C   UNL A   1      42.080  35.492  34.847  1.00  0.00     0.009 A 
ATOM     65  C   UNL A   1      40.684  35.265  37.256  1.00  0.00     0.001 A 
ATOM     66  C   UNL A   1      42.099  36.540  35.772  1.00  0.00     0.001 A 
ATOM     67  C   UNL A   1      41.394  36.429  36.970  1.00  0.00     0.000 A 
ENDBRANCH  48  62
BRANCH  49  68
ATOM     68  C   UNL A   1      40.336  27.091  28.292  1.00  0.00    -0.014 A 
ATOM     69  C   UNL A   1      39.602  25.943  28.638  1.00  0.00     0.009 A 
ATOM     70  C   UNL A   1      40.939  27.153  27.028  1.00  0.00     0.009 A 
ATOM     71  C   UNL A   1      39.507  24.867  27.754  1.00  0.00     0.001 A 
ATOM     72  C   UNL A   1      40.812  26.087  26.131  1.00  0.00     0.001 A 
ATOM     73  C   UNL A   1      40.109  24.942  26.500  1.00  0.00     0.000 A 
ENDBRANCH  49  68
BRANCH  61  74
ATOM     74  C   UNL A   1      45.013  28.378  33.327  1.00  0.00    -0.014 A 
ATOM     75  C   UNL A   1      44.912  27.419  34.347  1.00  0.00     0.009 A 
ATOM     76  C   UNL A   1      46.281  28.720  32.834  1.00  0.00     0.009 A 
ATOM     77  C   UNL A   1      46.059  26.827  34.877  1.00  0.00     0.001 A 
ATOM     78  C   UNL A   1      47.424  28.103  33.347  1.00  0.00     0.001 A 
ATOM     79  C   UNL A   1      47.312  27.166  34.374  1.00  0.00     0.000 A 
ENDBRANCH  61  74
ENDBRANCH  35  36
ENDBRANCH  27  30
ENDBRANCH  25  26
ENDBRANCH   1  25
TORSDOF 12
ENDMDL
