MODEL 1
REMARK VINA RESULT:     -11.6      0.000      0.000
REMARK SMILES CC1(C)[C@H](C(=O)NCCCNC(=O)c2ccc(-c3c4nc(c(-c5ccccc5)c5ccc([nH]5)c(-c5ccccc5)c5nc(c(-c6ccccc6)c6ccc3[nH]6)C=C5)C=C4)cc2)[C@@H]1C(=O)Nc1ccc(Cl)c(Br)c1
REMARK SMILES IDX 9 1 8 2 7 3 5 4 6 5 4 7 1 8 2 9 3 10 62 11 63 12 64 13 65 14
REMARK SMILES IDX 66 16 67 17 73 18 68 19 71 20 69 21 72 22 70 23 10 24 11 25
REMARK SMILES IDX 12 26 13 28 14 29 15 30 61 31 16 32 60 33 17 34 18 35 19 36
REMARK SMILES IDX 54 37 20 38 59 39 53 40 55 41 21 42 58 43 52 44 51 45 22 47
REMARK SMILES IDX 44 48 29 49 43 50 30 51 33 52 42 53 56 54 31 55 32 56 41 58
REMARK SMILES IDX 57 59 34 60 23 61 24 62 28 63 25 64 27 65 26 66 45 67 46 68
REMARK SMILES IDX 50 69 47 70 49 71 48 72 35 73 36 74 40 75 37 76 39 77 38 78
REMARK H PARENT 7 6 65 15 11 27 55 46 33 57
REMARK Flexibility Score: inf
ROOT
ATOM      1  C   UNL A   1      37.849  19.756  25.004  1.00  0.00     0.042 C 
ENDROOT
BRANCH   1   2
ATOM      2  C   UNL A   1      36.706  20.753  24.978  1.00  0.00     0.117 C 
BRANCH   2   3
ATOM      3  N   UNL A   1      35.423  20.101  25.133  1.00  0.00    -0.356 N 
ATOM      4  C   UNL A   1      34.133  20.430  24.848  1.00  0.00     0.224 C 
ATOM      5  O   UNL A   1      33.296  19.584  25.169  1.00  0.00    -0.275 OA
ATOM      6  H   UNL A   1      35.502  19.209  25.539  1.00  0.00     0.163 HD
BRANCH   4   7
ATOM      7  C   UNL A   1      33.621  21.649  24.173  1.00  0.00     0.098 C 
ATOM      8  C   UNL A   1      31.483  22.663  23.208  1.00  0.00     0.013 C 
ATOM      9  C   UNL A   1      32.314  22.369  24.441  1.00  0.00    -0.011 C 
ATOM     10  C   UNL A   1      31.454  21.986  25.618  1.00  0.00     0.013 C 
ATOM     11  C   UNL A   1      33.675  23.095  24.571  1.00  0.00     0.098 C 
BRANCH  11  12
ATOM     12  C   UNL A   1      34.249  23.641  25.821  1.00  0.00     0.228 C 
ATOM     13  O   UNL A   1      34.966  22.926  26.516  1.00  0.00    -0.274 OA
ATOM     14  N   UNL A   1      34.015  24.943  26.212  1.00  0.00    -0.326 N 
ATOM     15  H   UNL A   1      34.465  25.215  27.045  1.00  0.00     0.169 HD
BRANCH  14  16
ATOM     16  C   UNL A   1      33.234  25.942  25.607  1.00  0.00     0.042 A 
ATOM     17  C   UNL A   1      31.953  26.159  26.126  1.00  0.00     0.028 A 
ATOM     18  C   UNL A   1      33.697  26.750  24.571  1.00  0.00     0.043 A 
ATOM     19  C   UNL A   1      31.208  27.268  25.716  1.00  0.00     0.024 A 
ATOM     20  C   UNL A   1      32.940  27.846  24.136  1.00  0.00     0.038 A 
ATOM     21  C   UNL A   1      31.708  28.127  24.734  1.00  0.00     0.055 A 
ATOM     22  Br  UNL A   1      33.676  28.913  22.749  1.00  0.00    -0.049 Br
ATOM     23  Cl  UNL A   1      30.756  29.505  24.318  1.00  0.00    -0.083 Cl
ENDBRANCH  14  16
ENDBRANCH  11  12
ENDBRANCH   4   7
ENDBRANCH   2   3
ENDBRANCH   1   2
BRANCH   1  24
ATOM     24  C   UNL A   1      39.058  20.287  25.755  1.00  0.00     0.118 C 
BRANCH  24  25
ATOM     25  N   UNL A   1      40.141  19.310  25.825  1.00  0.00    -0.352 N 
ATOM     26  C   UNL A   1      41.476  19.508  26.079  1.00  0.00     0.251 C 
ATOM     27  H   UNL A   1      39.876  18.376  25.668  1.00  0.00     0.163 HD
ATOM     28  O   UNL A   1      42.283  18.603  25.894  1.00  0.00    -0.269 OA
BRANCH  26  29
ATOM     29  C   UNL A   1      41.929  20.829  26.557  1.00  0.00     0.039 A 
ATOM     30  C   UNL A   1      42.361  21.785  25.636  1.00  0.00     0.014 A 
ATOM     31  C   UNL A   1      41.887  21.129  27.920  1.00  0.00     0.014 A 
ATOM     32  C   UNL A   1      42.674  23.071  26.079  1.00  0.00     0.010 A 
ATOM     33  C   UNL A   1      42.088  22.434  28.342  1.00  0.00     0.010 A 
ATOM     34  C   UNL A   1      42.497  23.418  27.429  1.00  0.00    -0.014 A 
BRANCH  34  35
ATOM     35  C   UNL A   1      42.763  24.787  27.932  1.00  0.00     0.031 A 
ATOM     36  C   UNL A   1      44.161  25.164  28.345  1.00  0.00     0.074 A 
ATOM     37  C   UNL A   1      41.747  25.656  28.098  1.00  0.00     0.049 A 
ATOM     38  N   UNL A   1      44.584  26.256  28.928  1.00  0.00    -0.248 NA
ATOM     39  C   UNL A   1      45.217  24.164  28.102  1.00  0.00     0.031 C 
ATOM     40  C   UNL A   1      40.341  25.399  27.774  1.00  0.00     0.029 A 
ATOM     41  N   UNL A   1      41.743  26.936  28.595  1.00  0.00    -0.354 N 
ATOM     42  C   UNL A   1      45.943  26.060  29.145  1.00  0.00     0.074 A 
ATOM     43  C   UNL A   1      46.262  24.728  28.686  1.00  0.00     0.031 C 
ATOM     44  C   UNL A   1      39.618  26.498  28.050  1.00  0.00     0.029 A 
ATOM     45  C   UNL A   1      40.498  27.517  28.614  1.00  0.00     0.049 A 
ATOM     46  H   UNL A   1      42.556  27.394  28.908  1.00  0.00     0.167 HD
ATOM     47  C   UNL A   1      46.853  26.923  29.653  1.00  0.00     0.031 A 
ATOM     48  C   UNL A   1      40.110  28.731  29.044  1.00  0.00     0.031 A 
ATOM     49  C   UNL A   1      46.543  28.260  30.078  1.00  0.00     0.049 A 
ATOM     50  C   UNL A   1      41.141  29.670  29.611  1.00  0.00     0.074 A 
ATOM     51  C   UNL A   1      47.401  29.230  30.564  1.00  0.00     0.029 A 
ATOM     52  N   UNL A   1      45.274  28.816  30.057  1.00  0.00    -0.354 N 
ATOM     53  N   UNL A   1      42.430  29.488  29.763  1.00  0.00    -0.248 NA
ATOM     54  C   UNL A   1      40.662  30.986  30.057  1.00  0.00     0.031 C 
ATOM     55  C   UNL A   1      46.643  30.365  30.871  1.00  0.00     0.029 A 
ATOM     56  C   UNL A   1      45.323  30.114  30.529  1.00  0.00     0.049 A 
ATOM     57  H   UNL A   1      44.459  28.355  29.751  1.00  0.00     0.167 HD
ATOM     58  C   UNL A   1      42.921  30.677  30.286  1.00  0.00     0.074 A 
ATOM     59  C   UNL A   1      41.793  31.575  30.416  1.00  0.00     0.031 C 
ATOM     60  C   UNL A   1      44.191  30.997  30.631  1.00  0.00     0.031 A 
BRANCH  47  61
ATOM     61  C   UNL A   1      48.275  26.447  29.761  1.00  0.00    -0.014 A 
ATOM     62  C   UNL A   1      49.185  26.641  28.710  1.00  0.00     0.009 A 
ATOM     63  C   UNL A   1      48.718  25.827  30.939  1.00  0.00     0.009 A 
ATOM     64  C   UNL A   1      50.502  26.193  28.823  1.00  0.00     0.001 A 
ATOM     65  C   UNL A   1      50.044  25.407  31.060  1.00  0.00     0.001 A 
ATOM     66  C   UNL A   1      50.932  25.582  30.000  1.00  0.00     0.000 A 
ENDBRANCH  47  61
BRANCH  48  67
ATOM     67  C   UNL A   1      38.686  29.148  28.945  1.00  0.00    -0.014 A 
ATOM     68  C   UNL A   1      37.825  29.000  30.043  1.00  0.00     0.009 A 
ATOM     69  C   UNL A   1      38.172  29.668  27.746  1.00  0.00     0.009 A 
ATOM     70  C   UNL A   1      36.472  29.329  29.933  1.00  0.00     0.001 A 
ATOM     71  C   UNL A   1      36.826  30.025  27.649  1.00  0.00     0.001 A 
ATOM     72  C   UNL A   1      35.974  29.842  28.737  1.00  0.00     0.000 A 
ENDBRANCH  48  67
BRANCH  60  73
ATOM     73  C   UNL A   1      44.439  32.392  31.125  1.00  0.00    -0.014 A 
ATOM     74  C   UNL A   1      44.396  32.701  32.493  1.00  0.00     0.009 A 
ATOM     75  C   UNL A   1      44.773  33.401  30.207  1.00  0.00     0.009 A 
ATOM     76  C   UNL A   1      44.654  34.003  32.929  1.00  0.00     0.001 A 
ATOM     77  C   UNL A   1      45.058  34.692  30.648  1.00  0.00     0.001 A 
ATOM     78  C   UNL A   1      44.990  34.994  32.007  1.00  0.00     0.000 A 
ENDBRANCH  60  73
ENDBRANCH  34  35
ENDBRANCH  26  29
ENDBRANCH  24  25
ENDBRANCH   1  24
TORSDOF 12
ENDMDL
MODEL 2
REMARK VINA RESULT:     -11.5      4.060      9.151
REMARK SMILES CC1(C)[C@H](C(=O)NCCCNC(=O)c2ccc(-c3c4nc(c(-c5ccccc5)c5ccc([nH]5)c(-c5ccccc5)c5nc(c(-c6ccccc6)c6ccc3[nH]6)C=C5)C=C4)cc2)[C@@H]1C(=O)Nc1ccc(Cl)c(Br)c1
REMARK SMILES IDX 9 1 8 2 7 3 5 4 6 5 4 7 1 8 2 9 3 10 62 11 63 12 64 13 65 14
REMARK SMILES IDX 66 16 67 17 73 18 68 19 71 20 69 21 72 22 70 23 10 24 11 25
REMARK SMILES IDX 12 26 13 28 14 29 15 30 61 31 16 32 60 33 17 34 18 35 19 36
REMARK SMILES IDX 54 37 20 38 59 39 53 40 55 41 21 42 58 43 52 44 51 45 22 47
REMARK SMILES IDX 44 48 29 49 43 50 30 51 33 52 42 53 56 54 31 55 32 56 41 58
REMARK SMILES IDX 57 59 34 60 23 61 24 62 28 63 25 64 27 65 26 66 45 67 46 68
REMARK SMILES IDX 50 69 47 70 49 71 48 72 35 73 36 74 40 75 37 76 39 77 38 78
REMARK H PARENT 7 6 65 15 11 27 55 46 33 57
REMARK Flexibility Score: inf
ROOT
ATOM      1  C   UNL A   1      31.401  32.150  26.520  1.00  0.00     0.042 C 
ENDROOT
BRANCH   1   2
ATOM      2  C   UNL A   1      31.582  30.707  26.088  1.00  0.00     0.117 C 
BRANCH   2   3
ATOM      3  N   UNL A   1      31.043  30.472  24.766  1.00  0.00    -0.356 N 
ATOM      4  C   UNL A   1      30.691  29.370  24.049  1.00  0.00     0.224 C 
ATOM      5  O   UNL A   1      30.283  29.597  22.908  1.00  0.00    -0.275 OA
ATOM      6  H   UNL A   1      30.894  31.308  24.267  1.00  0.00     0.163 HD
BRANCH   4   7
ATOM      7  C   UNL A   1      30.702  27.950  24.480  1.00  0.00     0.098 C 
ATOM      8  C   UNL A   1      29.859  25.635  23.796  1.00  0.00     0.013 C 
ATOM      9  C   UNL A   1      30.896  26.724  23.608  1.00  0.00    -0.011 C 
ATOM     10  C   UNL A   1      31.303  26.867  22.163  1.00  0.00     0.013 C 
ATOM     11  C   UNL A   1      31.838  27.023  24.800  1.00  0.00     0.098 C 
BRANCH  11  12
ATOM     12  C   UNL A   1      33.281  27.338  24.705  1.00  0.00     0.228 C 
ATOM     13  O   UNL A   1      33.638  28.511  24.639  1.00  0.00    -0.274 OA
ATOM     14  N   UNL A   1      34.237  26.343  24.712  1.00  0.00    -0.326 N 
ATOM     15  H   UNL A   1      35.168  26.660  24.672  1.00  0.00     0.169 HD
BRANCH  14  16
ATOM     16  C   UNL A   1      34.088  24.947  24.766  1.00  0.00     0.042 A 
ATOM     17  C   UNL A   1      34.149  24.246  23.557  1.00  0.00     0.028 A 
ATOM     18  C   UNL A   1      33.945  24.240  25.958  1.00  0.00     0.043 A 
ATOM     19  C   UNL A   1      34.221  22.851  23.557  1.00  0.00     0.024 A 
ATOM     20  C   UNL A   1      33.987  22.840  25.960  1.00  0.00     0.038 A 
ATOM     21  C   UNL A   1      34.160  22.143  24.761  1.00  0.00     0.055 A 
ATOM     22  Br  UNL A   1      33.828  21.969  27.640  1.00  0.00    -0.049 Br
ATOM     23  Cl  UNL A   1      34.310  20.426  24.686  1.00  0.00    -0.083 Cl
ENDBRANCH  14  16
ENDBRANCH  11  12
ENDBRANCH   4   7
ENDBRANCH   2   3
ENDBRANCH   1   2
BRANCH   1  24
ATOM     24  C   UNL A   1      32.619  32.688  27.250  1.00  0.00     0.118 C 
BRANCH  24  25
ATOM     25  N   UNL A   1      32.437  34.068  27.692  1.00  0.00    -0.352 N 
ATOM     26  C   UNL A   1      33.123  34.772  28.652  1.00  0.00     0.251 C 
ATOM     27  H   UNL A   1      31.720  34.565  27.237  1.00  0.00     0.163 HD
ATOM     28  O   UNL A   1      32.703  35.856  29.044  1.00  0.00    -0.269 OA
BRANCH  26  29
ATOM     29  C   UNL A   1      34.359  34.199  29.219  1.00  0.00     0.039 A 
ATOM     30  C   UNL A   1      34.299  33.473  30.410  1.00  0.00     0.014 A 
ATOM     31  C   UNL A   1      35.571  34.350  28.544  1.00  0.00     0.014 A 
ATOM     32  C   UNL A   1      35.446  32.830  30.880  1.00  0.00     0.010 A 
ATOM     33  C   UNL A   1      36.679  33.620  28.950  1.00  0.00     0.010 A 
ATOM     34  C   UNL A   1      36.633  32.863  30.130  1.00  0.00    -0.014 A 
BRANCH  34  35
ATOM     35  C   UNL A   1      37.859  32.148  30.563  1.00  0.00     0.031 A 
ATOM     36  C   UNL A   1      38.736  32.762  31.620  1.00  0.00     0.074 A 
ATOM     37  C   UNL A   1      38.225  31.004  29.954  1.00  0.00     0.049 A 
ATOM     38  N   UNL A   1      39.910  32.373  32.049  1.00  0.00    -0.248 NA
ATOM     39  C   UNL A   1      38.247  34.000  32.255  1.00  0.00     0.031 C 
ATOM     40  C   UNL A   1      37.482  30.327  28.889  1.00  0.00     0.029 A 
ATOM     41  N   UNL A   1      39.329  30.210  30.142  1.00  0.00    -0.354 N 
ATOM     42  C   UNL A   1      40.305  33.329  32.976  1.00  0.00     0.074 A 
ATOM     43  C   UNL A   1      39.279  34.346  33.007  1.00  0.00     0.031 C 
ATOM     44  C   UNL A   1      38.135  29.205  28.541  1.00  0.00     0.029 A 
ATOM     45  C   UNL A   1      39.363  29.108  29.323  1.00  0.00     0.049 A 
ATOM     46  H   UNL A   1      40.031  30.412  30.803  1.00  0.00     0.167 HD
ATOM     47  C   UNL A   1      41.411  33.347  33.757  1.00  0.00     0.031 A 
ATOM     48  C   UNL A   1      40.285  28.135  29.210  1.00  0.00     0.031 A 
ATOM     49  C   UNL A   1      42.416  32.320  33.751  1.00  0.00     0.049 A 
ATOM     50  C   UNL A   1      41.508  28.181  30.085  1.00  0.00     0.074 A 
ATOM     51  C   UNL A   1      43.549  32.220  34.536  1.00  0.00     0.029 A 
ATOM     52  N   UNL A   1      42.398  31.209  32.922  1.00  0.00    -0.354 N 
ATOM     53  N   UNL A   1      41.843  29.066  30.992  1.00  0.00    -0.248 NA
ATOM     54  C   UNL A   1      42.477  27.087  29.926  1.00  0.00     0.031 C 
ATOM     55  C   UNL A   1      44.239  31.064  34.157  1.00  0.00     0.029 A 
ATOM     56  C   UNL A   1      43.505  30.421  33.171  1.00  0.00     0.049 A 
ATOM     57  H   UNL A   1      41.699  31.011  32.257  1.00  0.00     0.167 HD
ATOM     58  C   UNL A   1      43.038  28.617  31.536  1.00  0.00     0.074 A 
ATOM     59  C   UNL A   1      43.365  27.376  30.865  1.00  0.00     0.031 C 
ATOM     60  C   UNL A   1      43.800  29.181  32.504  1.00  0.00     0.031 A 
BRANCH  47  61
ATOM     61  C   UNL A   1      41.579  34.511  34.693  1.00  0.00    -0.014 A 
ATOM     62  C   UNL A   1      41.038  34.482  35.989  1.00  0.00     0.009 A 
ATOM     63  C   UNL A   1      42.315  35.635  34.288  1.00  0.00     0.009 A 
ATOM     64  C   UNL A   1      41.202  35.570  36.847  1.00  0.00     0.001 A 
ATOM     65  C   UNL A   1      42.501  36.709  35.161  1.00  0.00     0.001 A 
ATOM     66  C   UNL A   1      41.937  36.679  36.435  1.00  0.00     0.000 A 
ENDBRANCH  47  61
BRANCH  48  67
ATOM     67  C   UNL A   1      40.090  27.018  28.248  1.00  0.00    -0.014 A 
ATOM     68  C   UNL A   1      39.387  25.866  28.632  1.00  0.00     0.009 A 
ATOM     69  C   UNL A   1      40.628  27.083  26.953  1.00  0.00     0.009 A 
ATOM     70  C   UNL A   1      39.258  24.787  27.754  1.00  0.00     0.001 A 
ATOM     71  C   UNL A   1      40.471  26.015  26.067  1.00  0.00     0.001 A 
ATOM     72  C   UNL A   1      39.798  24.863  26.472  1.00  0.00     0.000 A 
ENDBRANCH  48  67
BRANCH  60  73
ATOM     73  C   UNL A   1      45.028  28.433  32.936  1.00  0.00    -0.014 A 
ATOM     74  C   UNL A   1      46.277  28.677  32.344  1.00  0.00     0.009 A 
ATOM     75  C   UNL A   1      44.940  27.509  33.989  1.00  0.00     0.009 A 
ATOM     76  C   UNL A   1      47.409  27.985  32.781  1.00  0.00     0.001 A 
ATOM     77  C   UNL A   1      46.077  26.841  34.441  1.00  0.00     0.001 A 
ATOM     78  C   UNL A   1      47.309  27.073  33.831  1.00  0.00     0.000 A 
ENDBRANCH  60  73
ENDBRANCH  34  35
ENDBRANCH  26  29
ENDBRANCH  24  25
ENDBRANCH   1  24
TORSDOF 12
ENDMDL
MODEL 3
REMARK VINA RESULT:     -11.4      4.736      9.403
REMARK SMILES CC1(C)[C@H](C(=O)NCCCNC(=O)c2ccc(-c3c4nc(c(-c5ccccc5)c5ccc([nH]5)c(-c5ccccc5)c5nc(c(-c6ccccc6)c6ccc3[nH]6)C=C5)C=C4)cc2)[C@@H]1C(=O)Nc1ccc(Cl)c(Br)c1
REMARK SMILES IDX 9 1 8 2 7 3 5 4 6 5 4 7 1 8 2 9 3 10 62 11 63 12 64 13 65 14
REMARK SMILES IDX 66 16 67 17 73 18 68 19 71 20 69 21 72 22 70 23 10 24 11 25
REMARK SMILES IDX 12 26 13 28 14 29 15 30 61 31 16 32 60 33 17 34 18 35 19 36
REMARK SMILES IDX 54 37 20 38 59 39 53 40 55 41 21 42 58 43 52 44 51 45 22 47
REMARK SMILES IDX 44 48 29 49 43 50 30 51 33 52 42 53 56 54 31 55 32 56 41 58
REMARK SMILES IDX 57 59 34 60 23 61 24 62 28 63 25 64 27 65 26 66 45 67 46 68
REMARK SMILES IDX 50 69 47 70 49 71 48 72 35 73 36 74 40 75 37 76 39 77 38 78
REMARK H PARENT 7 6 65 15 11 27 55 46 33 57
REMARK Flexibility Score: inf
ROOT
ATOM      1  C   UNL A   1      31.498  31.918  26.787  1.00  0.00     0.042 C 
ENDROOT
BRANCH   1   2
ATOM      2  C   UNL A   1      31.882  30.592  26.160  1.00  0.00     0.117 C 
BRANCH   2   3
ATOM      3  N   UNL A   1      31.245  30.404  24.873  1.00  0.00    -0.356 N 
ATOM      4  C   UNL A   1      30.799  29.331  24.165  1.00  0.00     0.224 C 
ATOM      5  O   UNL A   1      30.326  29.596  23.058  1.00  0.00    -0.275 OA
ATOM      6  H   UNL A   1      31.101  31.254  24.399  1.00  0.00     0.163 HD
BRANCH   4   7
ATOM      7  C   UNL A   1      30.776  27.904  24.572  1.00  0.00     0.098 C 
ATOM      8  C   UNL A   1      29.822  25.634  23.888  1.00  0.00     0.013 C 
ATOM      9  C   UNL A   1      30.889  26.688  23.673  1.00  0.00    -0.011 C 
ATOM     10  C   UNL A   1      31.239  26.842  22.215  1.00  0.00     0.013 C 
ATOM     11  C   UNL A   1      31.891  26.932  24.828  1.00  0.00     0.098 C 
BRANCH  11  12
ATOM     12  C   UNL A   1      33.339  27.197  24.677  1.00  0.00     0.228 C 
ATOM     13  O   UNL A   1      33.734  28.358  24.604  1.00  0.00    -0.274 OA
ATOM     14  N   UNL A   1      34.258  26.169  24.637  1.00  0.00    -0.326 N 
ATOM     15  H   UNL A   1      35.198  26.454  24.561  1.00  0.00     0.169 HD
BRANCH  14  16
ATOM     16  C   UNL A   1      34.063  24.779  24.688  1.00  0.00     0.042 A 
ATOM     17  C   UNL A   1      34.009  24.092  23.471  1.00  0.00     0.028 A 
ATOM     18  C   UNL A   1      33.983  24.062  25.881  1.00  0.00     0.043 A 
ATOM     19  C   UNL A   1      34.030  22.695  23.451  1.00  0.00     0.024 A 
ATOM     20  C   UNL A   1      33.973  22.662  25.865  1.00  0.00     0.038 A 
ATOM     21  C   UNL A   1      34.031  21.975  24.649  1.00  0.00     0.055 A 
ATOM     22  Br  UNL A   1      33.906  21.776  27.543  1.00  0.00    -0.049 Br
ATOM     23  Cl  UNL A   1      34.112  20.254  24.547  1.00  0.00    -0.083 Cl
ENDBRANCH  14  16
ENDBRANCH  11  12
ENDBRANCH   4   7
ENDBRANCH   2   3
ENDBRANCH   1   2
BRANCH   1  24
ATOM     24  C   UNL A   1      32.703  32.669  27.327  1.00  0.00     0.118 C 
BRANCH  24  25
ATOM     25  N   UNL A   1      32.409  34.074  27.593  1.00  0.00    -0.352 N 
ATOM     26  C   UNL A   1      32.956  34.915  28.531  1.00  0.00     0.251 C 
ATOM     27  H   UNL A   1      31.719  34.476  27.018  1.00  0.00     0.163 HD
ATOM     28  O   UNL A   1      32.445  36.007  28.758  1.00  0.00    -0.269 OA
BRANCH  26  29
ATOM     29  C   UNL A   1      34.152  34.480  29.277  1.00  0.00     0.039 A 
ATOM     30  C   UNL A   1      34.006  33.898  30.537  1.00  0.00     0.014 A 
ATOM     31  C   UNL A   1      35.418  34.616  28.704  1.00  0.00     0.014 A 
ATOM     32  C   UNL A   1      35.127  33.377  31.187  1.00  0.00     0.010 A 
ATOM     33  C   UNL A   1      36.510  33.999  29.298  1.00  0.00     0.010 A 
ATOM     34  C   UNL A   1      36.380  33.385  30.552  1.00  0.00    -0.014 A 
BRANCH  34  35
ATOM     35  C   UNL A   1      37.586  32.794  31.182  1.00  0.00     0.031 A 
ATOM     36  C   UNL A   1      38.241  31.598  30.544  1.00  0.00     0.074 A 
ATOM     37  C   UNL A   1      38.037  33.271  32.358  1.00  0.00     0.049 A 
ATOM     38  N   UNL A   1      39.217  30.853  30.994  1.00  0.00    -0.248 NA
ATOM     39  C   UNL A   1      37.701  31.159  29.244  1.00  0.00     0.031 C 
ATOM     40  C   UNL A   1      37.467  34.399  33.098  1.00  0.00     0.029 A 
ATOM     41  N   UNL A   1      39.081  32.854  33.145  1.00  0.00    -0.354 N 
ATOM     42  C   UNL A   1      39.386  29.848  30.049  1.00  0.00     0.074 A 
ATOM     43  C   UNL A   1      38.377  30.041  29.033  1.00  0.00     0.031 C 
ATOM     44  C   UNL A   1      38.188  34.603  34.214  1.00  0.00     0.029 A 
ATOM     45  C   UNL A   1      39.239  33.594  34.292  1.00  0.00     0.049 A 
ATOM     46  H   UNL A   1      39.663  32.095  32.910  1.00  0.00     0.167 HD
ATOM     47  C   UNL A   1      40.317  28.866  30.013  1.00  0.00     0.031 A 
ATOM     48  C   UNL A   1      40.125  33.467  35.296  1.00  0.00     0.031 A 
ATOM     49  C   UNL A   1      41.342  28.692  31.006  1.00  0.00     0.049 A 
ATOM     50  C   UNL A   1      41.147  32.363  35.234  1.00  0.00     0.074 A 
ATOM     51  C   UNL A   1      42.361  27.759  31.037  1.00  0.00     0.029 A 
ATOM     52  N   UNL A   1      41.479  29.480  32.138  1.00  0.00    -0.354 N 
ATOM     53  N   UNL A   1      41.324  31.452  34.309  1.00  0.00    -0.248 NA
ATOM     54  C   UNL A   1      42.096  32.278  36.353  1.00  0.00     0.031 C 
ATOM     55  C   UNL A   1      43.097  27.959  32.210  1.00  0.00     0.029 A 
ATOM     56  C   UNL A   1      42.562  29.049  32.880  1.00  0.00     0.049 A 
ATOM     57  H   UNL A   1      40.893  30.235  32.377  1.00  0.00     0.167 HD
ATOM     58  C   UNL A   1      42.426  30.710  34.715  1.00  0.00     0.074 A 
ATOM     59  C   UNL A   1      42.881  31.284  35.964  1.00  0.00     0.031 C 
ATOM     60  C   UNL A   1      43.008  29.648  34.110  1.00  0.00     0.031 A 
BRANCH  47  61
ATOM     61  C   UNL A   1      40.275  27.914  28.851  1.00  0.00    -0.014 A 
ATOM     62  C   UNL A   1      40.949  28.205  27.653  1.00  0.00     0.009 A 
ATOM     63  C   UNL A   1      39.584  26.699  28.965  1.00  0.00     0.009 A 
ATOM     64  C   UNL A   1      40.901  27.312  26.581  1.00  0.00     0.001 A 
ATOM     65  C   UNL A   1      39.563  25.795  27.900  1.00  0.00     0.001 A 
ATOM     66  C   UNL A   1      40.213  26.106  26.708  1.00  0.00     0.000 A 
ENDBRANCH  47  61
BRANCH  48  67
ATOM     67  C   UNL A   1      40.110  34.415  36.441  1.00  0.00    -0.014 A 
ATOM     68  C   UNL A   1      39.345  34.134  37.583  1.00  0.00     0.009 A 
ATOM     69  C   UNL A   1      40.833  35.617  36.388  1.00  0.00     0.009 A 
ATOM     70  C   UNL A   1      39.275  35.053  38.634  1.00  0.00     0.001 A 
ATOM     71  C   UNL A   1      40.786  36.519  37.453  1.00  0.00     0.001 A 
ATOM     72  C   UNL A   1      39.997  36.243  38.569  1.00  0.00     0.000 A 
ENDBRANCH  48  67
BRANCH  60  73
ATOM     73  C   UNL A   1      44.235  29.074  34.758  1.00  0.00    -0.014 A 
ATOM     74  C   UNL A   1      45.515  29.566  34.462  1.00  0.00     0.009 A 
ATOM     75  C   UNL A   1      44.098  28.061  35.720  1.00  0.00     0.009 A 
ATOM     76  C   UNL A   1      46.638  29.030  35.097  1.00  0.00     0.001 A 
ATOM     77  C   UNL A   1      45.218  27.548  36.372  1.00  0.00     0.001 A 
ATOM     78  C   UNL A   1      46.488  28.028  36.054  1.00  0.00     0.000 A 
ENDBRANCH  60  73
ENDBRANCH  34  35
ENDBRANCH  26  29
ENDBRANCH  24  25
ENDBRANCH   1  24
TORSDOF 12
ENDMDL
