MODEL 1
REMARK VINA RESULT:     -11.6      0.000      0.000
REMARK SMILES O=C(NCCCNC(=O)[C@H]1CSCN1C(=O)c1cnc2ccccn2c1=O)c1ccc(-c2c3nc(c(-c4ccccc4)c4ccc([nH]4)c(-c4ccccc4)c4nc(c(-c5ccccc5)c5ccc2[nH]5)C=C4)C=C3)cc1
REMARK SMILES IDX 5 1 4 2 3 3 1 4 2 5 28 7 29 8 75 9 30 10 74 11 31 12 32 13
REMARK SMILES IDX 33 14 68 15 34 16 73 17 67 18 69 19 35 20 72 21 66 22 65 23
REMARK SMILES IDX 36 25 58 26 43 27 57 28 44 29 47 30 56 31 70 32 45 33 46 34
REMARK SMILES IDX 55 36 71 37 48 38 37 39 38 40 42 41 39 42 41 43 40 44 59 45
REMARK SMILES IDX 60 46 64 47 61 48 63 49 62 50 49 51 50 52 54 53 51 54 53 55
REMARK SMILES IDX 52 56 6 57 7 58 8 59 9 61 10 62 11 63 14 64 12 65 13 66
REMARK SMILES IDX 15 67 16 68 17 69 18 70 26 71 19 72 25 73 27 74 20 75 24 76
REMARK SMILES IDX 21 77 23 78 22 79
REMARK H PARENT 3 6 69 24 47 35 7 60
REMARK Flexibility Score: inf
ROOT
ATOM      1  C   UNL A   1      38.416  20.061  25.005  1.00  0.00     0.042 C 
ENDROOT
BRANCH   1   2
ATOM      2  C   UNL A   1      39.275  19.762  26.227  1.00  0.00     0.118 C 
BRANCH   2   3
ATOM      3  N   UNL A   1      40.546  19.134  25.883  1.00  0.00    -0.352 N 
ATOM      4  O   UNL A   1      42.738  19.005  25.390  1.00  0.00    -0.269 OA
ATOM      5  C   UNL A   1      41.817  19.652  25.881  1.00  0.00     0.251 C 
ATOM      6  H   UNL A   1      40.481  18.192  25.608  1.00  0.00     0.163 HD
BRANCH   5   7
ATOM      7  C   UNL A   1      42.081  20.988  26.456  1.00  0.00     0.039 A 
ATOM      8  C   UNL A   1      42.051  21.190  27.836  1.00  0.00     0.014 A 
ATOM      9  C   UNL A   1      42.401  22.048  25.601  1.00  0.00     0.014 A 
ATOM     10  C   UNL A   1      42.192  22.473  28.352  1.00  0.00     0.010 A 
ATOM     11  C   UNL A   1      42.642  23.320  26.129  1.00  0.00     0.010 A 
ATOM     12  C   UNL A   1      42.516  23.547  27.507  1.00  0.00    -0.014 A 
BRANCH  12  13
ATOM     13  C   UNL A   1      42.810  24.870  28.109  1.00  0.00     0.031 A 
ATOM     14  C   UNL A   1      44.202  25.250  28.529  1.00  0.00     0.074 A 
ATOM     15  C   UNL A   1      41.796  25.747  28.251  1.00  0.00     0.049 A 
ATOM     16  N   UNL A   1      44.623  26.378  29.045  1.00  0.00    -0.248 NA
ATOM     17  C   UNL A   1      45.258  24.240  28.356  1.00  0.00     0.031 C 
ATOM     18  C   UNL A   1      40.399  25.487  27.886  1.00  0.00     0.029 A 
ATOM     19  N   UNL A   1      41.781  27.036  28.717  1.00  0.00    -0.354 N 
ATOM     20  C   UNL A   1      45.983  26.209  29.273  1.00  0.00     0.074 A 
ATOM     21  C   UNL A   1      46.316  24.862  28.860  1.00  0.00     0.031 C 
ATOM     22  C   UNL A   1      39.676  26.595  28.097  1.00  0.00     0.029 A 
ATOM     23  C   UNL A   1      40.537  27.618  28.674  1.00  0.00     0.049 A 
ATOM     24  H   UNL A   1      42.583  27.499  29.049  1.00  0.00     0.167 HD
ATOM     25  C   UNL A   1      46.870  27.099  29.779  1.00  0.00     0.031 A 
ATOM     26  C   UNL A   1      40.125  28.834  29.076  1.00  0.00     0.031 A 
ATOM     27  C   UNL A   1      46.534  28.440  30.187  1.00  0.00     0.049 A 
ATOM     28  C   UNL A   1      41.127  29.780  29.669  1.00  0.00     0.074 A 
ATOM     29  C   UNL A   1      47.375  29.427  30.672  1.00  0.00     0.029 A 
ATOM     30  N   UNL A   1      45.256  28.978  30.163  1.00  0.00    -0.354 N 
ATOM     31  N   UNL A   1      42.419  29.620  29.830  1.00  0.00    -0.248 NA
ATOM     32  C   UNL A   1      40.615  31.075  30.135  1.00  0.00     0.031 C 
ATOM     33  C   UNL A   1      46.596  30.542  31.000  1.00  0.00     0.029 A 
ATOM     34  C   UNL A   1      45.282  30.271  30.659  1.00  0.00     0.049 A 
ATOM     35  H   UNL A   1      44.452  28.510  29.843  1.00  0.00     0.167 HD
ATOM     36  C   UNL A   1      42.875  30.800  30.398  1.00  0.00     0.074 A 
ATOM     37  C   UNL A   1      41.728  31.677  30.527  1.00  0.00     0.031 C 
ATOM     38  C   UNL A   1      44.131  31.128  30.784  1.00  0.00     0.031 A 
BRANCH  25  39
ATOM     39  C   UNL A   1      48.297  26.655  29.949  1.00  0.00    -0.014 A 
ATOM     40  C   UNL A   1      48.715  25.962  31.095  1.00  0.00     0.009 A 
ATOM     41  C   UNL A   1      49.215  26.859  28.905  1.00  0.00     0.009 A 
ATOM     42  C   UNL A   1      50.029  25.497  31.199  1.00  0.00     0.001 A 
ATOM     43  C   UNL A   1      50.520  26.370  29.002  1.00  0.00     0.001 A 
ATOM     44  C   UNL A   1      50.927  25.694  30.150  1.00  0.00     0.000 A 
ENDBRANCH  25  39
BRANCH  26  45
ATOM     45  C   UNL A   1      38.692  29.211  28.966  1.00  0.00    -0.014 A 
ATOM     46  C   UNL A   1      37.823  29.059  30.057  1.00  0.00     0.009 A 
ATOM     47  C   UNL A   1      38.182  29.712  27.757  1.00  0.00     0.009 A 
ATOM     48  C   UNL A   1      36.468  29.371  29.928  1.00  0.00     0.001 A 
ATOM     49  C   UNL A   1      36.835  30.055  27.642  1.00  0.00     0.001 A 
ATOM     50  C   UNL A   1      35.976  29.872  28.723  1.00  0.00     0.000 A 
ENDBRANCH  26  45
BRANCH  38  51
ATOM     51  C   UNL A   1      44.331  32.504  31.352  1.00  0.00    -0.014 A 
ATOM     52  C   UNL A   1      44.618  33.600  30.524  1.00  0.00     0.009 A 
ATOM     53  C   UNL A   1      44.208  32.709  32.735  1.00  0.00     0.009 A 
ATOM     54  C   UNL A   1      44.818  34.867  31.075  1.00  0.00     0.001 A 
ATOM     55  C   UNL A   1      44.375  33.983  33.280  1.00  0.00     0.001 A 
ATOM     56  C   UNL A   1      44.691  35.058  32.451  1.00  0.00     0.000 A 
ENDBRANCH  38  51
ENDBRANCH  12  13
ENDBRANCH   5   7
ENDBRANCH   2   3
ENDBRANCH   1   2
BRANCH   1  57
ATOM     57  C   UNL A   1      37.820  21.459  25.006  1.00  0.00     0.117 C 
BRANCH  57  58
ATOM     58  N   UNL A   1      36.817  21.636  26.042  1.00  0.00    -0.354 N 
ATOM     59  C   UNL A   1      35.457  21.474  25.970  1.00  0.00     0.243 C 
ATOM     60  H   UNL A   1      37.163  21.912  26.921  1.00  0.00     0.163 HD
ATOM     61  O   UNL A   1      34.801  21.643  26.997  1.00  0.00    -0.273 OA
BRANCH  59  62
ATOM     62  C   UNL A   1      34.845  21.014  24.631  1.00  0.00     0.185 C 
ATOM     63  C   UNL A   1      33.917  19.828  24.920  1.00  0.00     0.106 C 
ATOM     64  N   UNL A   1      34.118  22.073  23.919  1.00  0.00    -0.316 N 
ATOM     65  S   UNL A   1      32.258  20.274  24.383  1.00  0.00    -0.138 SA
ATOM     66  C   UNL A   1      32.815  21.684  23.432  1.00  0.00     0.190 C 
BRANCH  64  67
ATOM     67  C   UNL A   1      34.821  23.186  23.489  1.00  0.00     0.262 C 
ATOM     68  O   UNL A   1      35.785  23.084  22.726  1.00  0.00    -0.269 OA
BRANCH  67  69
ATOM     69  C   UNL A   1      34.328  24.531  23.875  1.00  0.00     0.124 A 
ATOM     70  C   UNL A   1      34.411  24.880  25.165  1.00  0.00     0.133 A 
ATOM     71  C   UNL A   1      33.729  25.512  22.947  1.00  0.00     0.270 A 
ATOM     72  N   UNL A   1      34.089  26.109  25.675  1.00  0.00    -0.237 NA
ATOM     73  N   UNL A   1      33.520  26.785  23.471  1.00  0.00    -0.267 N 
ATOM     74  O   UNL A   1      33.470  25.197  21.786  1.00  0.00    -0.268 OA
ATOM     75  C   UNL A   1      33.690  27.012  24.832  1.00  0.00     0.139 A 
ATOM     76  C   UNL A   1      33.121  27.810  22.620  1.00  0.00     0.096 A 
ATOM     77  C   UNL A   1      33.401  28.386  25.328  1.00  0.00     0.048 A 
ATOM     78  C   UNL A   1      32.897  29.051  23.067  1.00  0.00     0.019 A 
ATOM     79  C   UNL A   1      33.038  29.345  24.468  1.00  0.00     0.005 A 
ENDBRANCH  67  69
ENDBRANCH  64  67
ENDBRANCH  59  62
ENDBRANCH  57  58
ENDBRANCH   1  57
TORSDOF 12
ENDMDL
MODEL 2
REMARK VINA RESULT:     -11.6      0.293      5.934
REMARK SMILES O=C(NCCCNC(=O)[C@H]1CSCN1C(=O)c1cnc2ccccn2c1=O)c1ccc(-c2c3nc(c(-c4ccccc4)c4ccc([nH]4)c(-c4ccccc4)c4nc(c(-c5ccccc5)c5ccc2[nH]5)C=C4)C=C3)cc1
REMARK SMILES IDX 5 1 4 2 3 3 1 4 2 5 28 7 29 8 75 9 30 10 74 11 31 12 32 13
REMARK SMILES IDX 33 14 68 15 34 16 73 17 67 18 69 19 35 20 72 21 66 22 65 23
REMARK SMILES IDX 36 25 58 26 43 27 57 28 44 29 47 30 56 31 70 32 45 33 46 34
REMARK SMILES IDX 55 36 71 37 48 38 37 39 38 40 42 41 39 42 41 43 40 44 59 45
REMARK SMILES IDX 60 46 64 47 61 48 63 49 62 50 49 51 50 52 54 53 51 54 53 55
REMARK SMILES IDX 52 56 6 57 7 58 8 59 9 61 10 62 11 63 14 64 12 65 13 66
REMARK SMILES IDX 15 67 16 68 17 69 18 70 26 71 19 72 25 73 27 74 20 75 24 76
REMARK SMILES IDX 21 77 23 78 22 79
REMARK H PARENT 3 6 69 24 47 35 7 60
REMARK Flexibility Score: inf
ROOT
ATOM      1  C   UNL A   1      38.454  20.071  25.001  1.00  0.00     0.042 C 
ENDROOT
BRANCH   1   2
ATOM      2  C   UNL A   1      39.247  19.712  26.251  1.00  0.00     0.118 C 
BRANCH   2   3
ATOM      3  N   UNL A   1      40.511  19.051  25.946  1.00  0.00    -0.352 N 
ATOM      4  O   UNL A   1      42.706  18.868  25.483  1.00  0.00    -0.269 OA
ATOM      5  C   UNL A   1      41.790  19.549  25.937  1.00  0.00     0.251 C 
ATOM      6  H   UNL A   1      40.435  18.099  25.709  1.00  0.00     0.163 HD
BRANCH   5   7
ATOM      7  C   UNL A   1      42.070  20.903  26.460  1.00  0.00     0.039 A 
ATOM      8  C   UNL A   1      42.092  21.148  27.833  1.00  0.00     0.014 A 
ATOM      9  C   UNL A   1      42.351  21.937  25.562  1.00  0.00     0.014 A 
ATOM     10  C   UNL A   1      42.246  22.446  28.304  1.00  0.00     0.010 A 
ATOM     11  C   UNL A   1      42.605  23.226  26.040  1.00  0.00     0.010 A 
ATOM     12  C   UNL A   1      42.532  23.495  27.415  1.00  0.00    -0.014 A 
BRANCH  12  13
ATOM     13  C   UNL A   1      42.842  24.838  27.964  1.00  0.00     0.031 A 
ATOM     14  C   UNL A   1      41.763  25.853  28.214  1.00  0.00     0.074 A 
ATOM     15  C   UNL A   1      44.126  25.124  28.261  1.00  0.00     0.049 A 
ATOM     16  N   UNL A   1      41.873  27.058  28.715  1.00  0.00    -0.248 NA
ATOM     17  C   UNL A   1      40.387  25.476  27.855  1.00  0.00     0.031 C 
ATOM     18  C   UNL A   1      45.262  24.219  28.054  1.00  0.00     0.029 A 
ATOM     19  N   UNL A   1      44.690  26.241  28.820  1.00  0.00    -0.354 N 
ATOM     20  C   UNL A   1      40.589  27.589  28.715  1.00  0.00     0.074 A 
ATOM     21  C   UNL A   1      39.717  26.584  28.146  1.00  0.00     0.031 C 
ATOM     22  C   UNL A   1      46.376  24.799  28.523  1.00  0.00     0.029 A 
ATOM     23  C   UNL A   1      46.049  26.136  28.997  1.00  0.00     0.049 A 
ATOM     24  H   UNL A   1      44.174  27.041  29.069  1.00  0.00     0.167 HD
ATOM     25  C   UNL A   1      40.179  28.803  29.154  1.00  0.00     0.031 A 
ATOM     26  C   UNL A   1      46.942  27.025  29.469  1.00  0.00     0.031 A 
ATOM     27  C   UNL A   1      41.052  29.799  29.723  1.00  0.00     0.049 A 
ATOM     28  C   UNL A   1      46.458  28.375  29.909  1.00  0.00     0.074 A 
ATOM     29  C   UNL A   1      40.719  31.043  30.233  1.00  0.00     0.029 A 
ATOM     30  N   UNL A   1      42.426  29.669  29.850  1.00  0.00    -0.354 N 
ATOM     31  N   UNL A   1      45.233  28.840  29.948  1.00  0.00    -0.248 NA
ATOM     32  C   UNL A   1      47.480  29.322  30.370  1.00  0.00     0.031 C 
ATOM     33  C   UNL A   1      41.900  31.689  30.613  1.00  0.00     0.029 A 
ATOM     34  C   UNL A   1      42.959  30.824  30.398  1.00  0.00     0.049 A 
ATOM     35  H   UNL A   1      42.945  28.875  29.589  1.00  0.00     0.167 HD
ATOM     36  C   UNL A   1      45.336  30.127  30.456  1.00  0.00     0.074 A 
ATOM     37  C   UNL A   1      46.739  30.358  30.736  1.00  0.00     0.031 C 
ATOM     38  C   UNL A   1      44.357  31.039  30.667  1.00  0.00     0.031 A 
BRANCH  25  39
ATOM     39  C   UNL A   1      38.721  29.147  29.019  1.00  0.00    -0.014 A 
ATOM     40  C   UNL A   1      37.828  28.977  30.088  1.00  0.00     0.009 A 
ATOM     41  C   UNL A   1      38.254  29.731  27.830  1.00  0.00     0.009 A 
ATOM     42  C   UNL A   1      36.493  29.369  29.962  1.00  0.00     0.001 A 
ATOM     43  C   UNL A   1      36.925  30.146  27.717  1.00  0.00     0.001 A 
ATOM     44  C   UNL A   1      36.045  29.960  28.780  1.00  0.00     0.000 A 
ENDBRANCH  25  39
BRANCH  26  45
ATOM     45  C   UNL A   1      48.387  26.679  29.514  1.00  0.00    -0.014 A 
ATOM     46  C   UNL A   1      49.227  26.961  28.427  1.00  0.00     0.009 A 
ATOM     47  C   UNL A   1      48.929  26.050  30.646  1.00  0.00     0.009 A 
ATOM     48  C   UNL A   1      50.573  26.588  28.461  1.00  0.00     0.001 A 
ATOM     49  C   UNL A   1      50.281  25.711  30.691  1.00  0.00     0.001 A 
ATOM     50  C   UNL A   1      51.099  25.968  29.593  1.00  0.00     0.000 A 
ENDBRANCH  26  45
BRANCH  38  51
ATOM     51  C   UNL A   1      44.772  32.357  31.256  1.00  0.00    -0.014 A 
ATOM     52  C   UNL A   1      44.875  32.534  32.645  1.00  0.00     0.009 A 
ATOM     53  C   UNL A   1      45.083  33.431  30.408  1.00  0.00     0.009 A 
ATOM     54  C   UNL A   1      45.244  33.772  33.172  1.00  0.00     0.001 A 
ATOM     55  C   UNL A   1      45.483  34.658  30.937  1.00  0.00     0.001 A 
ATOM     56  C   UNL A   1      45.552  34.831  32.318  1.00  0.00     0.000 A 
ENDBRANCH  38  51
ENDBRANCH  12  13
ENDBRANCH   5   7
ENDBRANCH   2   3
ENDBRANCH   1   2
BRANCH   1  57
ATOM     57  C   UNL A   1      37.881  21.478  25.025  1.00  0.00     0.117 C 
BRANCH  57  58
ATOM     58  N   UNL A   1      36.863  21.647  26.048  1.00  0.00    -0.354 N 
ATOM     59  C   UNL A   1      35.506  21.473  25.959  1.00  0.00     0.243 C 
ATOM     60  H   UNL A   1      37.196  21.927  26.931  1.00  0.00     0.163 HD
ATOM     61  O   UNL A   1      34.836  21.637  26.978  1.00  0.00    -0.273 OA
BRANCH  59  62
ATOM     62  C   UNL A   1      34.915  21.005  24.613  1.00  0.00     0.185 C 
ATOM     63  C   UNL A   1      34.004  19.803  24.891  1.00  0.00     0.106 C 
ATOM     64  N   UNL A   1      34.178  22.052  23.896  1.00  0.00    -0.316 N 
ATOM     65  S   UNL A   1      32.343  20.222  24.339  1.00  0.00    -0.138 SA
ATOM     66  C   UNL A   1      32.886  21.643  23.396  1.00  0.00     0.190 C 
BRANCH  64  67
ATOM     67  C   UNL A   1      34.866  23.178  23.474  1.00  0.00     0.262 C 
ATOM     68  O   UNL A   1      35.840  23.094  22.724  1.00  0.00    -0.269 OA
BRANCH  67  69
ATOM     69  C   UNL A   1      34.344  24.514  23.855  1.00  0.00     0.124 A 
ATOM     70  C   UNL A   1      34.413  24.867  25.145  1.00  0.00     0.133 A 
ATOM     71  C   UNL A   1      33.733  25.481  22.921  1.00  0.00     0.270 A 
ATOM     72  N   UNL A   1      34.064  26.090  25.651  1.00  0.00    -0.237 NA
ATOM     73  N   UNL A   1      33.496  26.751  23.442  1.00  0.00    -0.267 N 
ATOM     74  O   UNL A   1      33.487  25.160  21.759  1.00  0.00    -0.268 OA
ATOM     75  C   UNL A   1      33.653  26.984  24.804  1.00  0.00     0.139 A 
ATOM     76  C   UNL A   1      33.083  27.767  22.586  1.00  0.00     0.096 A 
ATOM     77  C   UNL A   1      33.335  28.353  25.295  1.00  0.00     0.048 A 
ATOM     78  C   UNL A   1      32.833  29.004  23.029  1.00  0.00     0.019 A 
ATOM     79  C   UNL A   1      32.959  29.304  24.431  1.00  0.00     0.005 A 
ENDBRANCH  67  69
ENDBRANCH  64  67
ENDBRANCH  59  62
ENDBRANCH  57  58
ENDBRANCH   1  57
TORSDOF 12
ENDMDL
MODEL 3
REMARK VINA RESULT:     -11.5      3.502      8.936
REMARK SMILES O=C(NCCCNC(=O)[C@H]1CSCN1C(=O)c1cnc2ccccn2c1=O)c1ccc(-c2c3nc(c(-c4ccccc4)c4ccc([nH]4)c(-c4ccccc4)c4nc(c(-c5ccccc5)c5ccc2[nH]5)C=C4)C=C3)cc1
REMARK SMILES IDX 5 1 4 2 3 3 1 4 2 5 28 7 29 8 75 9 30 10 74 11 31 12 32 13
REMARK SMILES IDX 33 14 68 15 34 16 73 17 67 18 69 19 35 20 72 21 66 22 65 23
REMARK SMILES IDX 36 25 58 26 43 27 57 28 44 29 47 30 56 31 70 32 45 33 46 34
REMARK SMILES IDX 55 36 71 37 48 38 37 39 38 40 42 41 39 42 41 43 40 44 59 45
REMARK SMILES IDX 60 46 64 47 61 48 63 49 62 50 49 51 50 52 54 53 51 54 53 55
REMARK SMILES IDX 52 56 6 57 7 58 8 59 9 61 10 62 11 63 14 64 12 65 13 66
REMARK SMILES IDX 15 67 16 68 17 69 18 70 26 71 19 72 25 73 27 74 20 75 24 76
REMARK SMILES IDX 21 77 23 78 22 79
REMARK H PARENT 3 6 69 24 47 35 7 60
REMARK Flexibility Score: inf
ROOT
ATOM      1  C   UNL A   1      31.809  31.780  27.115  1.00  0.00     0.042 C 
ENDROOT
BRANCH   1   2
ATOM      2  C   UNL A   1      32.723  32.961  26.811  1.00  0.00     0.118 C 
BRANCH   2   3
ATOM      3  N   UNL A   1      32.468  34.108  27.675  1.00  0.00    -0.352 N 
ATOM      4  O   UNL A   1      32.660  35.437  29.482  1.00  0.00    -0.269 OA
ATOM      5  C   UNL A   1      33.140  34.541  28.791  1.00  0.00     0.251 C 
ATOM      6  H   UNL A   1      31.694  34.657  27.417  1.00  0.00     0.163 HD
BRANCH   5   7
ATOM      7  C   UNL A   1      34.429  33.928  29.173  1.00  0.00     0.039 A 
ATOM      8  C   UNL A   1      35.587  34.186  28.440  1.00  0.00     0.014 A 
ATOM      9  C   UNL A   1      34.487  33.110  30.306  1.00  0.00     0.014 A 
ATOM     10  C   UNL A   1      36.766  33.516  28.746  1.00  0.00     0.010 A 
ATOM     11  C   UNL A   1      35.697  32.513  30.673  1.00  0.00     0.010 A 
ATOM     12  C   UNL A   1      36.841  32.693  29.882  1.00  0.00    -0.014 A 
BRANCH  12  13
ATOM     13  C   UNL A   1      38.152  32.116  30.265  1.00  0.00     0.031 A 
ATOM     14  C   UNL A   1      39.057  32.805  31.248  1.00  0.00     0.074 A 
ATOM     15  C   UNL A   1      38.511  30.933  29.727  1.00  0.00     0.049 A 
ATOM     16  N   UNL A   1      40.220  32.414  31.704  1.00  0.00    -0.248 NA
ATOM     17  C   UNL A   1      38.606  34.098  31.786  1.00  0.00     0.031 C 
ATOM     18  C   UNL A   1      37.718  30.174  28.754  1.00  0.00     0.029 A 
ATOM     19  N   UNL A   1      39.618  30.151  29.933  1.00  0.00    -0.354 N 
ATOM     20  C   UNL A   1      40.649  33.416  32.566  1.00  0.00     0.074 A 
ATOM     21  C   UNL A   1      39.631  34.444  32.555  1.00  0.00     0.031 C 
ATOM     22  C   UNL A   1      38.340  29.017  28.487  1.00  0.00     0.029 A 
ATOM     23  C   UNL A   1      39.604  28.982  29.210  1.00  0.00     0.049 A 
ATOM     24  H   UNL A   1      40.352  30.402  30.539  1.00  0.00     0.167 HD
ATOM     25  C   UNL A   1      41.787  33.467  33.299  1.00  0.00     0.031 A 
ATOM     26  C   UNL A   1      40.516  27.999  29.118  1.00  0.00     0.031 A 
ATOM     27  C   UNL A   1      42.796  32.439  33.307  1.00  0.00     0.049 A 
ATOM     28  C   UNL A   1      41.783  28.108  29.914  1.00  0.00     0.074 A 
ATOM     29  C   UNL A   1      43.963  32.386  34.051  1.00  0.00     0.029 A 
ATOM     30  N   UNL A   1      42.762  31.290  32.533  1.00  0.00    -0.354 N 
ATOM     31  N   UNL A   1      42.148  29.040  30.762  1.00  0.00    -0.248 NA
ATOM     32  C   UNL A   1      42.765  27.031  29.740  1.00  0.00     0.031 C 
ATOM     33  C   UNL A   1      44.665  31.234  33.681  1.00  0.00     0.029 A 
ATOM     34  C   UNL A   1      43.905  30.539  32.755  1.00  0.00     0.049 A 
ATOM     35  H   UNL A   1      42.035  31.045  31.917  1.00  0.00     0.167 HD
ATOM     36  C   UNL A   1      43.391  28.650  31.237  1.00  0.00     0.074 A 
ATOM     37  C   UNL A   1      43.706  27.385  30.604  1.00  0.00     0.031 C 
ATOM     38  C   UNL A   1      44.205  29.285  32.114  1.00  0.00     0.031 A 
BRANCH  25  39
ATOM     39  C   UNL A   1      42.027  34.688  34.144  1.00  0.00    -0.014 A 
ATOM     40  C   UNL A   1      41.657  34.725  35.497  1.00  0.00     0.009 A 
ATOM     41  C   UNL A   1      42.711  35.786  33.597  1.00  0.00     0.009 A 
ATOM     42  C   UNL A   1      41.955  35.843  36.280  1.00  0.00     0.001 A 
ATOM     43  C   UNL A   1      43.029  36.892  34.389  1.00  0.00     0.001 A 
ATOM     44  C   UNL A   1      42.647  36.921  35.728  1.00  0.00     0.000 A 
ENDBRANCH  25  39
BRANCH  26  45
ATOM     45  C   UNL A   1      40.281  26.844  28.212  1.00  0.00    -0.014 A 
ATOM     46  C   UNL A   1      40.810  26.832  26.913  1.00  0.00     0.009 A 
ATOM     47  C   UNL A   1      39.511  25.752  28.642  1.00  0.00     0.009 A 
ATOM     48  C   UNL A   1      40.542  25.764  26.053  1.00  0.00     0.001 A 
ATOM     49  C   UNL A   1      39.275  24.671  27.793  1.00  0.00     0.001 A 
ATOM     50  C   UNL A   1      39.779  24.684  26.494  1.00  0.00     0.000 A 
ENDBRANCH  26  45
BRANCH  38  51
ATOM     51  C   UNL A   1      45.496  28.602  32.461  1.00  0.00    -0.014 A 
ATOM     52  C   UNL A   1      46.684  28.897  31.775  1.00  0.00     0.009 A 
ATOM     53  C   UNL A   1      45.528  27.664  33.505  1.00  0.00     0.009 A 
ATOM     54  C   UNL A   1      47.870  28.237  32.101  1.00  0.00     0.001 A 
ATOM     55  C   UNL A   1      46.722  27.030  33.851  1.00  0.00     0.001 A 
ATOM     56  C   UNL A   1      47.889  27.309  33.141  1.00  0.00     0.000 A 
ENDBRANCH  38  51
ENDBRANCH  12  13
ENDBRANCH   5   7
ENDBRANCH   2   3
ENDBRANCH   1   2
BRANCH   1  57
ATOM     57  C   UNL A   1      32.536  30.447  27.174  1.00  0.00     0.117 C 
BRANCH  57  58
ATOM     58  N   UNL A   1      33.161  30.098  25.910  1.00  0.00    -0.354 N 
ATOM     59  C   UNL A   1      32.632  29.430  24.836  1.00  0.00     0.243 C 
ATOM     60  H   UNL A   1      34.098  30.381  25.811  1.00  0.00     0.163 HD
ATOM     61  O   UNL A   1      33.344  29.279  23.843  1.00  0.00    -0.273 OA
BRANCH  59  62
ATOM     62  C   UNL A   1      31.158  28.980  24.906  1.00  0.00     0.185 C 
ATOM     63  C   UNL A   1      30.460  29.451  23.624  1.00  0.00     0.106 C 
ATOM     64  N   UNL A   1      30.990  27.533  25.080  1.00  0.00    -0.316 N 
ATOM     65  S   UNL A   1      29.824  27.999  22.770  1.00  0.00    -0.138 SA
ATOM     66  C   UNL A   1      30.026  26.928  24.189  1.00  0.00     0.190 C 
BRANCH  64  67
ATOM     67  C   UNL A   1      31.473  26.942  26.236  1.00  0.00     0.262 C 
ATOM     68  O   UNL A   1      31.086  27.298  27.352  1.00  0.00    -0.269 OA
BRANCH  67  69
ATOM     69  C   UNL A   1      32.395  25.787  26.112  1.00  0.00     0.124 A 
ATOM     70  C   UNL A   1      33.533  25.966  25.429  1.00  0.00     0.133 A 
ATOM     71  C   UNL A   1      32.146  24.441  26.669  1.00  0.00     0.270 A 
ATOM     72  N   UNL A   1      34.531  25.038  25.296  1.00  0.00    -0.237 NA
ATOM     73  N   UNL A   1      33.223  23.561  26.617  1.00  0.00    -0.267 N 
ATOM     74  O   UNL A   1      31.054  24.160  27.162  1.00  0.00    -0.268 OA
ATOM     75  C   UNL A   1      34.365  23.902  25.901  1.00  0.00     0.139 A 
ATOM     76  C   UNL A   1      33.128  22.336  27.270  1.00  0.00     0.096 A 
ATOM     77  C   UNL A   1      35.457  22.890  25.850  1.00  0.00     0.048 A 
ATOM     78  C   UNL A   1      34.127  21.446  27.249  1.00  0.00     0.019 A 
ATOM     79  C   UNL A   1      35.328  21.733  26.511  1.00  0.00     0.005 A 
ENDBRANCH  67  69
ENDBRANCH  64  67
ENDBRANCH  59  62
ENDBRANCH  57  58
ENDBRANCH   1  57
TORSDOF 12
ENDMDL
