MODEL 1
REMARK VINA RESULT:     -11.8      0.000      0.000
REMARK SMILES O=C(NCCCNC(=O)[C@@H]1CN(C(=O)CCC(F)(F)F)C[C@H]1c1ccc2c(c1)OCO2)c1ccc(-c2c3nc(c(-c4ccccc4)c4ccc([nH]4)c(-c4ccccc4)c4nc(c(-c5ccccc5)c5ccc2[nH]5)C=C4)C=C3)cc1
REMARK SMILES IDX 6 1 5 2 4 3 3 4 1 5 2 6 32 8 33 9 79 10 34 11 78 12 35 13
REMARK SMILES IDX 36 14 37 15 72 16 38 17 77 18 71 19 73 20 39 21 76 22 70 23
REMARK SMILES IDX 69 24 40 26 62 27 47 28 61 29 48 30 51 31 60 32 74 33 49 34
REMARK SMILES IDX 50 35 59 37 75 38 52 39 41 40 42 41 46 42 43 43 45 44 44 45
REMARK SMILES IDX 63 46 64 47 68 48 65 49 67 50 66 51 53 52 54 53 58 54 55 55
REMARK SMILES IDX 57 56 56 57 7 58 8 59 9 61 10 62 11 63 22 64 12 65 21 66
REMARK SMILES IDX 23 67 24 68 28 69 25 70 27 71 26 72 29 73 31 74 30 75 13 76
REMARK SMILES IDX 14 77 15 78 16 79 17 80 18 81 19 82 20 83
REMARK H PARENT 3 7 73 25 51 36 7 60
REMARK Flexibility Score: inf
ROOT
ATOM      1  C   UNL A   1      36.066  21.421  24.938  1.00  0.00     0.117 C 
ENDROOT
BRANCH   1   2
ATOM      2  C   UNL A   1      37.145  20.352  24.934  1.00  0.00     0.042 C 
BRANCH   2   3
ATOM      3  C   UNL A   1      38.466  20.837  25.517  1.00  0.00     0.118 C 
BRANCH   3   4
ATOM      4  N   UNL A   1      39.471  19.782  25.597  1.00  0.00    -0.352 N 
ATOM      5  O   UNL A   1      41.525  18.872  25.767  1.00  0.00    -0.269 OA
ATOM      6  C   UNL A   1      40.796  19.834  25.962  1.00  0.00     0.251 C 
ATOM      7  H   UNL A   1      39.148  18.886  25.348  1.00  0.00     0.163 HD
BRANCH   6   8
ATOM      8  C   UNL A   1      41.342  21.066  26.566  1.00  0.00     0.039 A 
ATOM      9  C   UNL A   1      41.318  21.244  27.947  1.00  0.00     0.014 A 
ATOM     10  C   UNL A   1      41.881  22.058  25.740  1.00  0.00     0.014 A 
ATOM     11  C   UNL A   1      41.631  22.484  28.485  1.00  0.00     0.010 A 
ATOM     12  C   UNL A   1      42.311  23.266  26.298  1.00  0.00     0.010 A 
ATOM     13  C   UNL A   1      42.139  23.509  27.669  1.00  0.00    -0.014 A 
BRANCH  13  14
ATOM     14  C   UNL A   1      42.498  24.806  28.296  1.00  0.00     0.031 A 
ATOM     15  C   UNL A   1      43.929  25.153  28.607  1.00  0.00     0.074 A 
ATOM     16  C   UNL A   1      41.521  25.707  28.518  1.00  0.00     0.049 A 
ATOM     17  N   UNL A   1      44.418  26.274  29.077  1.00  0.00    -0.248 NA
ATOM     18  C   UNL A   1      44.942  24.112  28.370  1.00  0.00     0.031 C 
ATOM     19  C   UNL A   1      40.095  25.487  28.260  1.00  0.00     0.029 A 
ATOM     20  N   UNL A   1      41.580  27.002  28.963  1.00  0.00    -0.354 N 
ATOM     21  C   UNL A   1      45.783  26.061  29.224  1.00  0.00     0.074 A 
ATOM     22  C   UNL A   1      46.046  24.701  28.809  1.00  0.00     0.031 C 
ATOM     23  C   UNL A   1      39.428  26.630  28.470  1.00  0.00     0.029 A 
ATOM     24  C   UNL A   1      40.363  27.641  28.945  1.00  0.00     0.049 A 
ATOM     25  H   UNL A   1      42.412  27.433  29.265  1.00  0.00     0.167 HD
ATOM     26  C   UNL A   1      46.732  26.923  29.664  1.00  0.00     0.031 A 
ATOM     27  C   UNL A   1      40.032  28.902  29.278  1.00  0.00     0.031 A 
ATOM     28  C   UNL A   1      46.474  28.283  30.056  1.00  0.00     0.049 A 
ATOM     29  C   UNL A   1      41.104  29.833  29.756  1.00  0.00     0.074 A 
ATOM     30  C   UNL A   1      47.376  29.244  30.485  1.00  0.00     0.029 A 
ATOM     31  N   UNL A   1      45.222  28.878  30.067  1.00  0.00    -0.354 N 
ATOM     32  N   UNL A   1      42.392  29.621  29.867  1.00  0.00    -0.248 NA
ATOM     33  C   UNL A   1      40.673  31.178  30.158  1.00  0.00     0.031 C 
ATOM     34  C   UNL A   1      46.661  30.407  30.794  1.00  0.00     0.029 A 
ATOM     35  C   UNL A   1      45.323  30.186  30.512  1.00  0.00     0.049 A 
ATOM     36  H   UNL A   1      44.385  28.436  29.798  1.00  0.00     0.167 HD
ATOM     37  C   UNL A   1      42.930  30.810  30.338  1.00  0.00     0.074 A 
ATOM     38  C   UNL A   1      41.831  31.745  30.468  1.00  0.00     0.031 C 
ATOM     39  C   UNL A   1      44.219  31.100  30.637  1.00  0.00     0.031 A 
BRANCH  26  40
ATOM     40  C   UNL A   1      48.141  26.408  29.774  1.00  0.00    -0.014 A 
ATOM     41  C   UNL A   1      49.055  26.538  28.716  1.00  0.00     0.009 A 
ATOM     42  C   UNL A   1      48.570  25.817  30.972  1.00  0.00     0.009 A 
ATOM     43  C   UNL A   1      50.360  26.058  28.848  1.00  0.00     0.001 A 
ATOM     44  C   UNL A   1      49.882  25.360  31.110  1.00  0.00     0.001 A 
ATOM     45  C   UNL A   1      50.774  25.473  30.046  1.00  0.00     0.000 A 
ENDBRANCH  26  40
BRANCH  27  46
ATOM     46  C   UNL A   1      38.621  29.348  29.164  1.00  0.00    -0.014 A 
ATOM     47  C   UNL A   1      37.755  29.265  30.265  1.00  0.00     0.009 A 
ATOM     48  C   UNL A   1      38.138  29.878  27.957  1.00  0.00     0.009 A 
ATOM     49  C   UNL A   1      36.427  29.685  30.152  1.00  0.00     0.001 A 
ATOM     50  C   UNL A   1      36.820  30.325  27.857  1.00  0.00     0.001 A 
ATOM     51  C   UNL A   1      35.963  30.220  28.951  1.00  0.00     0.000 A 
ENDBRANCH  27  46
BRANCH  39  52
ATOM     52  C   UNL A   1      44.505  32.498  31.103  1.00  0.00    -0.014 A 
ATOM     53  C   UNL A   1      44.478  32.831  32.467  1.00  0.00     0.009 A 
ATOM     54  C   UNL A   1      44.821  33.491  30.165  1.00  0.00     0.009 A 
ATOM     55  C   UNL A   1      44.722  34.142  32.877  1.00  0.00     0.001 A 
ATOM     56  C   UNL A   1      45.090  34.796  30.578  1.00  0.00     0.001 A 
ATOM     57  C   UNL A   1      45.030  35.122  31.933  1.00  0.00     0.000 A 
ENDBRANCH  39  52
ENDBRANCH  13  14
ENDBRANCH   6   8
ENDBRANCH   3   4
ENDBRANCH   2   3
ENDBRANCH   1   2
BRANCH   1  58
ATOM     58  N   UNL A   1      35.724  21.825  26.292  1.00  0.00    -0.356 N 
ATOM     59  C   UNL A   1      34.618  22.453  26.767  1.00  0.00     0.225 C 
ATOM     60  H   UNL A   1      36.402  21.610  26.971  1.00  0.00     0.163 HD
ATOM     61  O   UNL A   1      34.575  22.692  27.974  1.00  0.00    -0.275 OA
BRANCH  59  62
ATOM     62  C   UNL A   1      33.474  22.781  25.834  1.00  0.00     0.107 C 
ATOM     63  C   UNL A   1      32.822  24.085  26.269  1.00  0.00     0.133 C 
ATOM     64  C   UNL A   1      32.330  21.745  25.941  1.00  0.00     0.053 C 
ATOM     65  N   UNL A   1      31.452  23.980  25.809  1.00  0.00    -0.341 N 
ATOM     66  C   UNL A   1      31.066  22.583  25.653  1.00  0.00     0.128 C 
BRANCH  64  67
ATOM     67  C   UNL A   1      32.597  20.521  25.073  1.00  0.00    -0.038 A 
ATOM     68  C   UNL A   1      32.302  20.604  23.685  1.00  0.00     0.008 A 
ATOM     69  C   UNL A   1      33.040  19.290  25.583  1.00  0.00     0.054 A 
ATOM     70  C   UNL A   1      32.370  19.486  22.845  1.00  0.00     0.051 A 
ATOM     71  C   UNL A   1      33.129  18.210  24.725  1.00  0.00     0.166 A 
ATOM     72  C   UNL A   1      32.785  18.299  23.399  1.00  0.00     0.165 A 
ATOM     73  O   UNL A   1      33.525  16.955  25.072  1.00  0.00    -0.454 OA
ATOM     74  O   UNL A   1      32.899  17.112  22.748  1.00  0.00    -0.454 OA
ATOM     75  C   UNL A   1      33.401  16.271  23.807  1.00  0.00     0.468 C 
ENDBRANCH  64  67
BRANCH  65  76
ATOM     76  C   UNL A   1      30.539  24.986  25.609  1.00  0.00     0.222 C 
ATOM     77  O   UNL A   1      29.661  25.241  26.437  1.00  0.00    -0.275 OA
BRANCH  76  78
ATOM     78  C   UNL A   1      30.604  25.782  24.321  1.00  0.00     0.109 C 
BRANCH  78  79
ATOM     79  C   UNL A   1      30.807  24.906  23.091  1.00  0.00     0.125 C 
BRANCH  79  80
ATOM     80  C   UNL A   1      32.230  24.911  22.590  1.00  0.00     0.389 C 
ATOM     81  F   UNL A   1      32.773  23.675  22.672  1.00  0.00    -0.171 F 
ATOM     82  F   UNL A   1      32.276  25.288  21.294  1.00  0.00    -0.171 F 
ATOM     83  F   UNL A   1      33.008  25.759  23.289  1.00  0.00    -0.171 F 
ENDBRANCH  79  80
ENDBRANCH  78  79
ENDBRANCH  76  78
ENDBRANCH  65  76
ENDBRANCH  59  62
ENDBRANCH   1  58
TORSDOF 15
ENDMDL
MODEL 2
REMARK VINA RESULT:     -11.6      2.749      8.032
REMARK SMILES O=C(NCCCNC(=O)[C@@H]1CN(C(=O)CCC(F)(F)F)C[C@H]1c1ccc2c(c1)OCO2)c1ccc(-c2c3nc(c(-c4ccccc4)c4ccc([nH]4)c(-c4ccccc4)c4nc(c(-c5ccccc5)c5ccc2[nH]5)C=C4)C=C3)cc1
REMARK SMILES IDX 6 1 5 2 4 3 3 4 1 5 2 6 32 8 33 9 79 10 34 11 78 12 35 13
REMARK SMILES IDX 36 14 37 15 72 16 38 17 77 18 71 19 73 20 39 21 76 22 70 23
REMARK SMILES IDX 69 24 40 26 62 27 47 28 61 29 48 30 51 31 60 32 74 33 49 34
REMARK SMILES IDX 50 35 59 37 75 38 52 39 41 40 42 41 46 42 43 43 45 44 44 45
REMARK SMILES IDX 63 46 64 47 68 48 65 49 67 50 66 51 53 52 54 53 58 54 55 55
REMARK SMILES IDX 57 56 56 57 7 58 8 59 9 61 10 62 11 63 22 64 12 65 21 66
REMARK SMILES IDX 23 67 24 68 28 69 25 70 27 71 26 72 29 73 31 74 30 75 13 76
REMARK SMILES IDX 14 77 15 78 16 79 17 80 18 81 19 82 20 83
REMARK H PARENT 3 7 73 25 51 36 7 60
REMARK Flexibility Score: inf
ROOT
ATOM      1  C   UNL A   1      33.353  29.460  24.951  1.00  0.00     0.117 C 
ENDROOT
BRANCH   1   2
ATOM      2  C   UNL A   1      34.070  28.582  25.961  1.00  0.00     0.042 C 
BRANCH   2   3
ATOM      3  C   UNL A   1      33.592  28.806  27.390  1.00  0.00     0.118 C 
BRANCH   3   4
ATOM      4  N   UNL A   1      33.689  30.201  27.808  1.00  0.00    -0.352 N 
ATOM      5  O   UNL A   1      34.518  32.001  28.878  1.00  0.00    -0.269 OA
ATOM      6  C   UNL A   1      34.711  30.881  28.427  1.00  0.00     0.251 C 
ATOM      7  H   UNL A   1      32.891  30.744  27.615  1.00  0.00     0.163 HD
BRANCH   6   8
ATOM      8  C   UNL A   1      36.035  30.243  28.569  1.00  0.00     0.039 A 
ATOM      9  C   UNL A   1      36.387  29.608  29.759  1.00  0.00     0.014 A 
ATOM     10  C   UNL A   1      36.938  30.282  27.502  1.00  0.00     0.014 A 
ATOM     11  C   UNL A   1      37.698  29.204  29.959  1.00  0.00     0.010 A 
ATOM     12  C   UNL A   1      38.226  29.763  27.665  1.00  0.00     0.010 A 
ATOM     13  C   UNL A   1      38.634  29.269  28.913  1.00  0.00    -0.014 A 
BRANCH  13  14
ATOM     14  C   UNL A   1      40.016  28.787  29.163  1.00  0.00     0.031 A 
ATOM     15  C   UNL A   1      40.460  27.422  28.711  1.00  0.00     0.074 A 
ATOM     16  C   UNL A   1      40.897  29.627  29.741  1.00  0.00     0.049 A 
ATOM     17  N   UNL A   1      41.653  26.884  28.778  1.00  0.00    -0.248 NA
ATOM     18  C   UNL A   1      39.440  26.544  28.116  1.00  0.00     0.031 C 
ATOM     19  C   UNL A   1      40.585  30.976  30.224  1.00  0.00     0.029 A 
ATOM     20  N   UNL A   1      42.240  29.495  29.977  1.00  0.00    -0.354 N 
ATOM     21  C   UNL A   1      41.519  25.598  28.269  1.00  0.00     0.074 A 
ATOM     22  C   UNL A   1      40.127  25.428  27.910  1.00  0.00     0.031 C 
ATOM     23  C   UNL A   1      41.717  31.574  30.620  1.00  0.00     0.029 A 
ATOM     24  C   UNL A   1      42.820  30.631  30.487  1.00  0.00     0.049 A 
ATOM     25  H   UNL A   1      42.742  28.666  29.798  1.00  0.00     0.167 HD
ATOM     26  C   UNL A   1      42.470  24.645  28.113  1.00  0.00     0.031 A 
ATOM     27  C   UNL A   1      44.098  30.889  30.816  1.00  0.00     0.031 A 
ATOM     28  C   UNL A   1      43.857  24.821  28.449  1.00  0.00     0.049 A 
ATOM     29  C   UNL A   1      45.129  29.818  30.628  1.00  0.00     0.074 A 
ATOM     30  C   UNL A   1      44.903  23.925  28.297  1.00  0.00     0.029 A 
ATOM     31  N   UNL A   1      44.395  25.971  29.005  1.00  0.00    -0.354 N 
ATOM     32  N   UNL A   1      44.986  28.617  30.124  1.00  0.00    -0.248 NA
ATOM     33  C   UNL A   1      46.496  30.139  31.058  1.00  0.00     0.031 C 
ATOM     34  C   UNL A   1      46.065  24.520  28.800  1.00  0.00     0.029 A 
ATOM     35  C   UNL A   1      45.754  25.803  29.220  1.00  0.00     0.049 A 
ATOM     36  H   UNL A   1      43.887  26.787  29.216  1.00  0.00     0.167 HD
ATOM     37  C   UNL A   1      46.248  28.042  30.162  1.00  0.00     0.074 A 
ATOM     38  C   UNL A   1      47.146  29.036  30.716  1.00  0.00     0.031 C 
ATOM     39  C   UNL A   1      46.629  26.801  29.774  1.00  0.00     0.031 A 
BRANCH  26  40
ATOM     40  C   UNL A   1      42.032  23.309  27.579  1.00  0.00    -0.014 A 
ATOM     41  C   UNL A   1      41.499  22.320  28.421  1.00  0.00     0.009 A 
ATOM     42  C   UNL A   1      42.119  23.052  26.202  1.00  0.00     0.009 A 
ATOM     43  C   UNL A   1      41.093  21.090  27.898  1.00  0.00     0.001 A 
ATOM     44  C   UNL A   1      41.689  21.831  25.678  1.00  0.00     0.001 A 
ATOM     45  C   UNL A   1      41.184  20.848  26.526  1.00  0.00     0.000 A 
ENDBRANCH  26  40
BRANCH  27  46
ATOM     46  C   UNL A   1      44.467  32.223  31.354  1.00  0.00    -0.014 A 
ATOM     47  C   UNL A   1      44.439  32.468  32.736  1.00  0.00     0.009 A 
ATOM     48  C   UNL A   1      44.866  33.254  30.489  1.00  0.00     0.009 A 
ATOM     49  C   UNL A   1      44.785  33.725  33.237  1.00  0.00     0.001 A 
ATOM     50  C   UNL A   1      45.240  34.499  30.995  1.00  0.00     0.001 A 
ATOM     51  C   UNL A   1      45.191  34.737  32.367  1.00  0.00     0.000 A 
ENDBRANCH  27  46
BRANCH  39  52
ATOM     52  C   UNL A   1      48.087  26.469  29.909  1.00  0.00    -0.014 A 
ATOM     53  C   UNL A   1      48.590  25.858  31.068  1.00  0.00     0.009 A 
ATOM     54  C   UNL A   1      48.965  26.760  28.855  1.00  0.00     0.009 A 
ATOM     55  C   UNL A   1      49.953  25.581  31.183  1.00  0.00     0.001 A 
ATOM     56  C   UNL A   1      50.323  26.459  28.961  1.00  0.00     0.001 A 
ATOM     57  C   UNL A   1      50.817  25.879  30.130  1.00  0.00     0.000 A 
ENDBRANCH  39  52
ENDBRANCH  13  14
ENDBRANCH   6   8
ENDBRANCH   3   4
ENDBRANCH   2   3
ENDBRANCH   1   2
BRANCH   1  58
ATOM     58  N   UNL A   1      33.873  29.257  23.608  1.00  0.00    -0.356 N 
ATOM     59  C   UNL A   1      33.740  28.201  22.766  1.00  0.00     0.225 C 
ATOM     60  H   UNL A   1      34.406  30.005  23.255  1.00  0.00     0.163 HD
ATOM     61  O   UNL A   1      34.292  28.277  21.668  1.00  0.00    -0.275 OA
BRANCH  59  62
ATOM     62  C   UNL A   1      32.892  27.015  23.166  1.00  0.00     0.107 C 
ATOM     63  C   UNL A   1      33.695  25.734  22.995  1.00  0.00     0.133 C 
ATOM     64  C   UNL A   1      31.686  26.823  22.215  1.00  0.00     0.053 C 
ATOM     65  N   UNL A   1      32.700  24.709  22.750  1.00  0.00    -0.341 N 
ATOM     66  C   UNL A   1      31.478  25.294  22.213  1.00  0.00     0.128 C 
BRANCH  64  67
ATOM     67  C   UNL A   1      30.511  27.711  22.610  1.00  0.00    -0.038 A 
ATOM     68  C   UNL A   1      29.402  27.107  23.262  1.00  0.00     0.008 A 
ATOM     69  C   UNL A   1      30.429  29.075  22.290  1.00  0.00     0.054 A 
ATOM     70  C   UNL A   1      28.221  27.812  23.520  1.00  0.00     0.051 A 
ATOM     71  C   UNL A   1      29.263  29.756  22.586  1.00  0.00     0.166 A 
ATOM     72  C   UNL A   1      28.182  29.139  23.165  1.00  0.00     0.165 A 
ATOM     73  O   UNL A   1      29.027  31.071  22.325  1.00  0.00    -0.454 OA
ATOM     74  O   UNL A   1      27.124  29.976  23.323  1.00  0.00    -0.454 OA
ATOM     75  C   UNL A   1      27.678  31.209  22.819  1.00  0.00     0.468 C 
ENDBRANCH  64  67
BRANCH  65  76
ATOM     76  C   UNL A   1      32.827  23.348  22.886  1.00  0.00     0.222 C 
ATOM     77  O   UNL A   1      32.969  22.609  21.910  1.00  0.00    -0.275 OA
BRANCH  76  78
ATOM     78  C   UNL A   1      32.761  22.746  24.275  1.00  0.00     0.109 C 
BRANCH  78  79
ATOM     79  C   UNL A   1      31.518  23.169  25.048  1.00  0.00     0.125 C 
BRANCH  79  80
ATOM     80  C   UNL A   1      31.786  24.272  26.042  1.00  0.00     0.389 C 
ATOM     81  F   UNL A   1      33.115  24.456  26.210  1.00  0.00    -0.171 F 
ATOM     82  F   UNL A   1      31.267  25.440  25.607  1.00  0.00    -0.171 F 
ATOM     83  F   UNL A   1      31.244  24.008  27.246  1.00  0.00    -0.171 F 
ENDBRANCH  79  80
ENDBRANCH  78  79
ENDBRANCH  76  78
ENDBRANCH  65  76
ENDBRANCH  59  62
ENDBRANCH   1  58
TORSDOF 15
ENDMDL
MODEL 3
REMARK VINA RESULT:     -11.6      3.655      9.030
REMARK SMILES O=C(NCCCNC(=O)[C@@H]1CN(C(=O)CCC(F)(F)F)C[C@H]1c1ccc2c(c1)OCO2)c1ccc(-c2c3nc(c(-c4ccccc4)c4ccc([nH]4)c(-c4ccccc4)c4nc(c(-c5ccccc5)c5ccc2[nH]5)C=C4)C=C3)cc1
REMARK SMILES IDX 6 1 5 2 4 3 3 4 1 5 2 6 32 8 33 9 79 10 34 11 78 12 35 13
REMARK SMILES IDX 36 14 37 15 72 16 38 17 77 18 71 19 73 20 39 21 76 22 70 23
REMARK SMILES IDX 69 24 40 26 62 27 47 28 61 29 48 30 51 31 60 32 74 33 49 34
REMARK SMILES IDX 50 35 59 37 75 38 52 39 41 40 42 41 46 42 43 43 45 44 44 45
REMARK SMILES IDX 63 46 64 47 68 48 65 49 67 50 66 51 53 52 54 53 58 54 55 55
REMARK SMILES IDX 57 56 56 57 7 58 8 59 9 61 10 62 11 63 22 64 12 65 21 66
REMARK SMILES IDX 23 67 24 68 28 69 25 70 27 71 26 72 29 73 31 74 30 75 13 76
REMARK SMILES IDX 14 77 15 78 16 79 17 80 18 81 19 82 20 83
REMARK H PARENT 3 7 73 25 51 36 7 60
REMARK Flexibility Score: inf
ROOT
ATOM      1  C   UNL A   1      32.015  29.427  25.730  1.00  0.00     0.117 C 
ENDROOT
BRANCH   1   2
ATOM      2  C   UNL A   1      31.682  30.853  26.132  1.00  0.00     0.042 C 
BRANCH   2   3
ATOM      3  C   UNL A   1      32.689  31.448  27.107  1.00  0.00     0.118 C 
BRANCH   3   4
ATOM      4  N   UNL A   1      32.410  32.843  27.430  1.00  0.00    -0.352 N 
ATOM      5  O   UNL A   1      32.587  34.802  28.528  1.00  0.00    -0.269 OA
ATOM      6  C   UNL A   1      33.097  33.734  28.220  1.00  0.00     0.251 C 
ATOM      7  H   UNL A   1      31.595  33.206  27.014  1.00  0.00     0.163 HD
BRANCH   6   8
ATOM      8  C   UNL A   1      34.443  33.384  28.718  1.00  0.00     0.039 A 
ATOM      9  C   UNL A   1      35.577  33.735  27.989  1.00  0.00     0.014 A 
ATOM     10  C   UNL A   1      34.573  32.695  29.928  1.00  0.00     0.014 A 
ATOM     11  C   UNL A   1      36.812  33.218  28.350  1.00  0.00     0.010 A 
ATOM     12  C   UNL A   1      35.837  32.278  30.355  1.00  0.00     0.010 A 
ATOM     13  C   UNL A   1      36.961  32.490  29.542  1.00  0.00    -0.014 A 
BRANCH  13  14
ATOM     14  C   UNL A   1      38.311  31.991  29.909  1.00  0.00     0.031 A 
ATOM     15  C   UNL A   1      39.153  32.702  30.933  1.00  0.00     0.074 A 
ATOM     16  C   UNL A   1      38.743  30.839  29.359  1.00  0.00     0.049 A 
ATOM     17  N   UNL A   1      40.316  32.351  31.425  1.00  0.00    -0.248 NA
ATOM     18  C   UNL A   1      38.635  33.971  31.470  1.00  0.00     0.031 C 
ATOM     19  C   UNL A   1      38.017  30.059  28.353  1.00  0.00     0.029 A 
ATOM     20  N   UNL A   1      39.871  30.099  29.600  1.00  0.00    -0.354 N 
ATOM     21  C   UNL A   1      40.682  33.369  32.298  1.00  0.00     0.074 A 
ATOM     22  C   UNL A   1      39.628  34.358  32.259  1.00  0.00     0.031 C 
ATOM     23  C   UNL A   1      38.674  28.913  28.127  1.00  0.00     0.029 A 
ATOM     24  C   UNL A   1      39.900  28.909  28.914  1.00  0.00     0.049 A 
ATOM     25  H   UNL A   1      40.590  30.390  30.207  1.00  0.00     0.167 HD
ATOM     26  C   UNL A   1      41.796  33.468  33.063  1.00  0.00     0.031 A 
ATOM     27  C   UNL A   1      40.813  27.922  28.912  1.00  0.00     0.031 A 
ATOM     28  C   UNL A   1      42.835  32.473  33.118  1.00  0.00     0.049 A 
ATOM     29  C   UNL A   1      42.032  28.057  29.773  1.00  0.00     0.074 A 
ATOM     30  C   UNL A   1      43.986  32.469  33.888  1.00  0.00     0.029 A 
ATOM     31  N   UNL A   1      42.848  31.304  32.373  1.00  0.00    -0.354 N 
ATOM     32  N   UNL A   1      42.350  29.016  30.608  1.00  0.00    -0.248 NA
ATOM     33  C   UNL A   1      43.021  26.974  29.687  1.00  0.00     0.031 C 
ATOM     34  C   UNL A   1      44.716  31.316  33.577  1.00  0.00     0.029 A 
ATOM     35  C   UNL A   1      43.996  30.579  32.651  1.00  0.00     0.049 A 
ATOM     36  H   UNL A   1      42.146  31.030  31.741  1.00  0.00     0.167 HD
ATOM     37  C   UNL A   1      43.568  28.645  31.160  1.00  0.00     0.074 A 
ATOM     38  C   UNL A   1      43.919  27.364  30.581  1.00  0.00     0.031 C 
ATOM     39  C   UNL A   1      44.329  29.308  32.063  1.00  0.00     0.031 A 
BRANCH  26  40
ATOM     40  C   UNL A   1      41.964  34.716  33.885  1.00  0.00    -0.014 A 
ATOM     41  C   UNL A   1      41.501  34.791  35.209  1.00  0.00     0.009 A 
ATOM     42  C   UNL A   1      42.634  35.821  33.337  1.00  0.00     0.009 A 
ATOM     43  C   UNL A   1      41.678  35.960  35.953  1.00  0.00     0.001 A 
ATOM     44  C   UNL A   1      42.831  36.978  34.092  1.00  0.00     0.001 A 
ATOM     45  C   UNL A   1      42.346  37.051  35.396  1.00  0.00     0.000 A 
ENDBRANCH  26  40
BRANCH  27  46
ATOM     46  C   UNL A   1      40.600  26.720  28.067  1.00  0.00    -0.014 A 
ATOM     47  C   UNL A   1      41.115  26.664  26.763  1.00  0.00     0.009 A 
ATOM     48  C   UNL A   1      39.894  25.615  28.566  1.00  0.00     0.009 A 
ATOM     49  C   UNL A   1      40.911  25.532  25.971  1.00  0.00     0.001 A 
ATOM     50  C   UNL A   1      39.718  24.474  27.783  1.00  0.00     0.001 A 
ATOM     51  C   UNL A   1      40.218  24.437  26.483  1.00  0.00     0.000 A 
ENDBRANCH  27  46
BRANCH  39  52
ATOM     52  C   UNL A   1      45.598  28.637  32.500  1.00  0.00    -0.014 A 
ATOM     53  C   UNL A   1      46.813  28.875  31.838  1.00  0.00     0.009 A 
ATOM     54  C   UNL A   1      45.579  27.764  33.598  1.00  0.00     0.009 A 
ATOM     55  C   UNL A   1      47.976  28.221  32.244  1.00  0.00     0.001 A 
ATOM     56  C   UNL A   1      46.748  27.131  34.018  1.00  0.00     0.001 A 
ATOM     57  C   UNL A   1      47.944  27.351  33.334  1.00  0.00     0.000 A 
ENDBRANCH  39  52
ENDBRANCH  13  14
ENDBRANCH   6   8
ENDBRANCH   3   4
ENDBRANCH   2   3
ENDBRANCH   1   2
BRANCH   1  58
ATOM     58  N   UNL A   1      33.197  29.375  24.886  1.00  0.00    -0.356 N 
ATOM     59  C   UNL A   1      33.607  28.426  24.006  1.00  0.00     0.225 C 
ATOM     60  H   UNL A   1      33.795  30.152  24.965  1.00  0.00     0.163 HD
ATOM     61  O   UNL A   1      34.667  28.622  23.411  1.00  0.00    -0.275 OA
BRANCH  59  62
ATOM     62  C   UNL A   1      32.744  27.212  23.746  1.00  0.00     0.107 C 
ATOM     63  C   UNL A   1      33.630  26.004  23.484  1.00  0.00     0.133 C 
ATOM     64  C   UNL A   1      31.926  27.357  22.440  1.00  0.00     0.053 C 
ATOM     65  N   UNL A   1      32.830  25.138  22.642  1.00  0.00    -0.341 N 
ATOM     66  C   UNL A   1      31.817  25.906  21.928  1.00  0.00     0.128 C 
BRANCH  64  67
ATOM     67  C   UNL A   1      30.638  28.140  22.667  1.00  0.00    -0.038 A 
ATOM     68  C   UNL A   1      29.525  27.456  23.226  1.00  0.00     0.008 A 
ATOM     69  C   UNL A   1      30.465  29.478  22.277  1.00  0.00     0.054 A 
ATOM     70  C   UNL A   1      28.262  28.052  23.325  1.00  0.00     0.051 A 
ATOM     71  C   UNL A   1      29.216  30.052  22.417  1.00  0.00     0.166 A 
ATOM     72  C   UNL A   1      28.140  29.355  22.907  1.00  0.00     0.165 A 
ATOM     73  O   UNL A   1      28.889  31.328  22.072  1.00  0.00    -0.454 OA
ATOM     74  O   UNL A   1      26.998  30.090  22.914  1.00  0.00    -0.454 OA
ATOM     75  C   UNL A   1      27.487  31.352  22.414  1.00  0.00     0.468 C 
ENDBRANCH  64  67
BRANCH  65  76
ATOM     76  C   UNL A   1      32.983  23.792  22.412  1.00  0.00     0.222 C 
ATOM     77  O   UNL A   1      33.845  23.358  21.645  1.00  0.00    -0.275 OA
BRANCH  76  78
ATOM     78  C   UNL A   1      32.044  22.825  23.104  1.00  0.00     0.109 C 
BRANCH  78  79
ATOM     79  C   UNL A   1      32.128  22.900  24.624  1.00  0.00     0.125 C 
BRANCH  79  80
ATOM     80  C   UNL A   1      31.029  23.732  25.236  1.00  0.00     0.389 C 
ATOM     81  F   UNL A   1      30.268  22.987  26.069  1.00  0.00    -0.171 F 
ATOM     82  F   UNL A   1      31.549  24.746  25.961  1.00  0.00    -0.171 F 
ATOM     83  F   UNL A   1      30.223  24.271  24.301  1.00  0.00    -0.171 F 
ENDBRANCH  79  80
ENDBRANCH  78  79
ENDBRANCH  76  78
ENDBRANCH  65  76
ENDBRANCH  59  62
ENDBRANCH   1  58
TORSDOF 15
ENDMDL
