MODEL 1
REMARK VINA RESULT:     -11.7      0.000      0.000
REMARK SMILES O=C(NCCCNC(=O)c1ccccc1Nc1cccc(C(F)(F)F)c1)c1ccc(-c2c3nc(c(-c4ccccc4)c4ccc([nH]4)c(-c4ccccc4)c4nc(c(-c5ccccc5)c5ccc2[nH]5)C=C4)C=C3)cc1
REMARK SMILES IDX 5 1 4 2 3 3 1 4 2 5 27 7 28 8 74 9 29 10 73 11 30 12 31 13
REMARK SMILES IDX 32 14 67 15 33 16 72 17 66 18 68 19 34 20 71 21 65 22 64 23
REMARK SMILES IDX 35 25 57 26 42 27 56 28 43 29 46 30 55 31 69 32 44 33 45 34
REMARK SMILES IDX 54 36 70 37 47 38 36 39 37 40 41 41 38 42 40 43 39 44 58 45
REMARK SMILES IDX 59 46 63 47 60 48 62 49 61 50 48 51 49 52 53 53 50 54 52 55
REMARK SMILES IDX 51 56 6 57 7 58 8 59 9 61 10 62 11 63 15 64 12 65 14 66
REMARK SMILES IDX 13 67 16 68 17 70 18 71 26 72 19 73 21 74 20 75 22 76 23 77
REMARK SMILES IDX 24 78 25 79
REMARK H PARENT 3 6 68 24 46 35 7 60 16 69
REMARK Flexibility Score: inf
ROOT
ATOM      1  C   UNL A   1      37.519  19.990  25.004  1.00  0.00     0.042 C 
ENDROOT
BRANCH   1   2
ATOM      2  C   UNL A   1      38.786  20.491  25.683  1.00  0.00     0.118 C 
BRANCH   2   3
ATOM      3  N   UNL A   1      39.868  19.513  25.698  1.00  0.00    -0.352 N 
ATOM      4  O   UNL A   1      41.960  18.696  25.861  1.00  0.00    -0.269 OA
ATOM      5  C   UNL A   1      41.191  19.636  26.051  1.00  0.00     0.251 C 
ATOM      6  H   UNL A   1      39.606  18.610  25.404  1.00  0.00     0.163 HD
BRANCH   5   7
ATOM      7  C   UNL A   1      41.709  20.901  26.618  1.00  0.00     0.039 A 
ATOM      8  C   UNL A   1      41.805  21.087  27.995  1.00  0.00     0.014 A 
ATOM      9  C   UNL A   1      42.111  21.924  25.753  1.00  0.00     0.014 A 
ATOM     10  C   UNL A   1      42.079  22.351  28.503  1.00  0.00     0.010 A 
ATOM     11  C   UNL A   1      42.509  23.162  26.270  1.00  0.00     0.010 A 
ATOM     12  C   UNL A   1      42.440  23.406  27.649  1.00  0.00    -0.014 A 
BRANCH  12  13
ATOM     13  C   UNL A   1      42.753  24.735  28.240  1.00  0.00     0.031 A 
ATOM     14  C   UNL A   1      44.173  25.150  28.526  1.00  0.00     0.074 A 
ATOM     15  C   UNL A   1      41.746  25.605  28.453  1.00  0.00     0.049 A 
ATOM     16  N   UNL A   1      44.620  26.302  28.963  1.00  0.00    -0.248 NA
ATOM     17  C   UNL A   1      45.226  24.146  28.309  1.00  0.00     0.031 C 
ATOM     18  C   UNL A   1      40.326  25.326  28.221  1.00  0.00     0.029 A 
ATOM     19  N   UNL A   1      41.762  26.912  28.867  1.00  0.00    -0.354 N 
ATOM     20  C   UNL A   1      45.994  26.152  29.102  1.00  0.00     0.074 A 
ATOM     21  C   UNL A   1      46.308  24.791  28.724  1.00  0.00     0.031 C 
ATOM     22  C   UNL A   1      39.619  26.448  28.415  1.00  0.00     0.029 A 
ATOM     23  C   UNL A   1      40.522  27.506  28.851  1.00  0.00     0.049 A 
ATOM     24  H   UNL A   1      42.582  27.380  29.149  1.00  0.00     0.167 HD
ATOM     25  C   UNL A   1      46.913  27.062  29.506  1.00  0.00     0.031 A 
ATOM     26  C   UNL A   1      40.147  28.761  29.155  1.00  0.00     0.031 A 
ATOM     27  C   UNL A   1      46.608  28.423  29.862  1.00  0.00     0.049 A 
ATOM     28  C   UNL A   1      41.185  29.748  29.598  1.00  0.00     0.074 A 
ATOM     29  C   UNL A   1      47.478  29.430  30.245  1.00  0.00     0.029 A 
ATOM     30  N   UNL A   1      45.334  28.969  29.879  1.00  0.00    -0.354 N 
ATOM     31  N   UNL A   1      42.483  29.593  29.697  1.00  0.00    -0.248 NA
ATOM     32  C   UNL A   1      40.704  31.083  29.975  1.00  0.00     0.031 C 
ATOM     33  C   UNL A   1      46.726  30.574  30.535  1.00  0.00     0.029 A 
ATOM     34  C   UNL A   1      45.392  30.292  30.285  1.00  0.00     0.049 A 
ATOM     35  H   UNL A   1      44.510  28.488  29.636  1.00  0.00     0.167 HD
ATOM     36  C   UNL A   1      42.975  30.814  30.133  1.00  0.00     0.074 A 
ATOM     37  C   UNL A   1      41.840  31.705  30.257  1.00  0.00     0.031 C 
ATOM     38  C   UNL A   1      44.255  31.165  30.410  1.00  0.00     0.031 A 
BRANCH  25  39
ATOM     39  C   UNL A   1      48.342  26.606  29.617  1.00  0.00    -0.014 A 
ATOM     40  C   UNL A   1      49.254  26.789  28.566  1.00  0.00     0.009 A 
ATOM     41  C   UNL A   1      48.792  26.022  30.812  1.00  0.00     0.009 A 
ATOM     42  C   UNL A   1      50.580  26.365  28.699  1.00  0.00     0.001 A 
ATOM     43  C   UNL A   1      50.123  25.622  30.951  1.00  0.00     0.001 A 
ATOM     44  C   UNL A   1      51.014  25.787  29.892  1.00  0.00     0.000 A 
ENDBRANCH  25  39
BRANCH  26  45
ATOM     45  C   UNL A   1      38.719  29.153  29.045  1.00  0.00    -0.014 A 
ATOM     46  C   UNL A   1      37.876  29.094  30.164  1.00  0.00     0.009 A 
ATOM     47  C   UNL A   1      38.197  29.602  27.821  1.00  0.00     0.009 A 
ATOM     48  C   UNL A   1      36.532  29.461  30.055  1.00  0.00     0.001 A 
ATOM     49  C   UNL A   1      36.862  29.995  27.723  1.00  0.00     0.001 A 
ATOM     50  C   UNL A   1      36.029  29.917  28.838  1.00  0.00     0.000 A 
ENDBRANCH  26  45
BRANCH  38  51
ATOM     51  C   UNL A   1      44.490  32.581  30.844  1.00  0.00    -0.014 A 
ATOM     52  C   UNL A   1      44.737  33.597  29.908  1.00  0.00     0.009 A 
ATOM     53  C   UNL A   1      44.452  32.905  32.209  1.00  0.00     0.009 A 
ATOM     54  C   UNL A   1      44.979  34.905  30.335  1.00  0.00     0.001 A 
ATOM     55  C   UNL A   1      44.667  34.218  32.630  1.00  0.00     0.001 A 
ATOM     56  C   UNL A   1      44.941  35.213  31.694  1.00  0.00     0.000 A 
ENDBRANCH  38  51
ENDBRANCH  12  13
ENDBRANCH   5   7
ENDBRANCH   2   3
ENDBRANCH   1   2
BRANCH   1  57
ATOM     57  C   UNL A   1      36.389  21.006  24.952  1.00  0.00     0.118 C 
BRANCH  57  58
ATOM     58  N   UNL A   1      35.642  21.086  26.198  1.00  0.00    -0.352 N 
ATOM     59  C   UNL A   1      34.650  21.953  26.575  1.00  0.00     0.253 C 
ATOM     60  H   UNL A   1      35.887  20.413  26.874  1.00  0.00     0.163 HD
ATOM     61  O   UNL A   1      34.234  21.924  27.731  1.00  0.00    -0.269 OA
BRANCH  59  62
ATOM     62  C   UNL A   1      34.083  22.932  25.622  1.00  0.00     0.063 A 
ATOM     63  C   UNL A   1      34.747  24.167  25.540  1.00  0.00     0.016 A 
ATOM     64  C   UNL A   1      32.913  22.688  24.874  1.00  0.00     0.051 A 
ATOM     65  C   UNL A   1      34.284  25.156  24.677  1.00  0.00     0.001 A 
ATOM     66  C   UNL A   1      32.482  23.696  23.996  1.00  0.00     0.027 A 
ATOM     67  C   UNL A   1      33.156  24.917  23.899  1.00  0.00     0.002 A 
BRANCH  64  68
ATOM     68  N   UNL A   1      32.210  21.468  24.965  1.00  0.00    -0.355 N 
ATOM     69  H   UNL A   1      31.457  21.479  25.598  1.00  0.00     0.167 HD
BRANCH  68  70
ATOM     70  C   UNL A   1      32.399  20.241  24.306  1.00  0.00     0.039 A 
ATOM     71  C   UNL A   1      32.132  20.158  22.934  1.00  0.00     0.026 A 
ATOM     72  C   UNL A   1      32.881  19.099  24.959  1.00  0.00     0.039 A 
ATOM     73  C   UNL A   1      32.342  18.969  22.231  1.00  0.00     0.003 A 
ATOM     74  C   UNL A   1      33.087  17.890  24.269  1.00  0.00     0.058 A 
ATOM     75  C   UNL A   1      32.820  17.842  22.895  1.00  0.00     0.013 A 
BRANCH  74  76
ATOM     76  C   UNL A   1      33.607  16.670  24.986  1.00  0.00     0.416 C 
ATOM     77  F   UNL A   1      34.968  16.610  25.000  1.00  0.00    -0.166 F 
ATOM     78  F   UNL A   1      33.217  16.627  26.289  1.00  0.00    -0.166 F 
ATOM     79  F   UNL A   1      33.192  15.495  24.433  1.00  0.00    -0.166 F 
ENDBRANCH  74  76
ENDBRANCH  68  70
ENDBRANCH  64  68
ENDBRANCH  59  62
ENDBRANCH  57  58
ENDBRANCH   1  57
TORSDOF 13
ENDMDL
MODEL 2
REMARK VINA RESULT:     -11.6      0.388      6.001
REMARK SMILES O=C(NCCCNC(=O)c1ccccc1Nc1cccc(C(F)(F)F)c1)c1ccc(-c2c3nc(c(-c4ccccc4)c4ccc([nH]4)c(-c4ccccc4)c4nc(c(-c5ccccc5)c5ccc2[nH]5)C=C4)C=C3)cc1
REMARK SMILES IDX 5 1 4 2 3 3 1 4 2 5 27 7 28 8 74 9 29 10 73 11 30 12 31 13
REMARK SMILES IDX 32 14 67 15 33 16 72 17 66 18 68 19 34 20 71 21 65 22 64 23
REMARK SMILES IDX 35 25 57 26 42 27 56 28 43 29 46 30 55 31 69 32 44 33 45 34
REMARK SMILES IDX 54 36 70 37 47 38 36 39 37 40 41 41 38 42 40 43 39 44 58 45
REMARK SMILES IDX 59 46 63 47 60 48 62 49 61 50 48 51 49 52 53 53 50 54 52 55
REMARK SMILES IDX 51 56 6 57 7 58 8 59 9 61 10 62 11 63 15 64 12 65 14 66
REMARK SMILES IDX 13 67 16 68 17 70 18 71 26 72 19 73 21 74 20 75 22 76 23 77
REMARK SMILES IDX 24 78 25 79
REMARK H PARENT 3 6 68 24 46 35 7 60 16 69
REMARK Flexibility Score: inf
ROOT
ATOM      1  C   UNL A   1      37.679  19.987  24.942  1.00  0.00     0.042 C 
ENDROOT
BRANCH   1   2
ATOM      2  C   UNL A   1      38.883  20.445  25.752  1.00  0.00     0.118 C 
BRANCH   2   3
ATOM      3  N   UNL A   1      39.955  19.458  25.819  1.00  0.00    -0.352 N 
ATOM      4  O   UNL A   1      42.041  18.630  25.993  1.00  0.00    -0.269 OA
ATOM      5  C   UNL A   1      41.288  19.592  26.125  1.00  0.00     0.251 C 
ATOM      6  H   UNL A   1      39.675  18.538  25.608  1.00  0.00     0.163 HD
BRANCH   5   7
ATOM      7  C   UNL A   1      41.835  20.893  26.571  1.00  0.00     0.039 A 
ATOM      8  C   UNL A   1      41.907  21.219  27.924  1.00  0.00     0.014 A 
ATOM      9  C   UNL A   1      42.289  21.808  25.615  1.00  0.00     0.014 A 
ATOM     10  C   UNL A   1      42.211  22.520  28.305  1.00  0.00     0.010 A 
ATOM     11  C   UNL A   1      42.717  23.081  26.011  1.00  0.00     0.010 A 
ATOM     12  C   UNL A   1      42.626  23.469  27.356  1.00  0.00    -0.014 A 
BRANCH  12  13
ATOM     13  C   UNL A   1      42.970  24.842  27.813  1.00  0.00     0.031 A 
ATOM     14  C   UNL A   1      41.899  25.859  28.112  1.00  0.00     0.074 A 
ATOM     15  C   UNL A   1      44.264  25.150  28.028  1.00  0.00     0.049 A 
ATOM     16  N   UNL A   1      42.029  27.071  28.596  1.00  0.00    -0.248 NA
ATOM     17  C   UNL A   1      40.507  25.479  27.822  1.00  0.00     0.031 C 
ATOM     18  C   UNL A   1      45.398  24.257  27.774  1.00  0.00     0.029 A 
ATOM     19  N   UNL A   1      44.843  26.277  28.551  1.00  0.00    -0.354 N 
ATOM     20  C   UNL A   1      40.747  27.606  28.638  1.00  0.00     0.074 A 
ATOM     21  C   UNL A   1      39.854  26.597  28.112  1.00  0.00     0.031 C 
ATOM     22  C   UNL A   1      46.522  24.836  28.218  1.00  0.00     0.029 A 
ATOM     23  C   UNL A   1      46.202  26.165  28.723  1.00  0.00     0.049 A 
ATOM     24  H   UNL A   1      44.335  27.089  28.782  1.00  0.00     0.167 HD
ATOM     25  C   UNL A   1      40.348  28.825  29.076  1.00  0.00     0.031 A 
ATOM     26  C   UNL A   1      47.098  27.033  29.227  1.00  0.00     0.031 A 
ATOM     27  C   UNL A   1      41.231  29.823  29.620  1.00  0.00     0.049 A 
ATOM     28  C   UNL A   1      46.628  28.374  29.705  1.00  0.00     0.074 A 
ATOM     29  C   UNL A   1      40.913  31.072  30.126  1.00  0.00     0.029 A 
ATOM     30  N   UNL A   1      42.606  29.687  29.730  1.00  0.00    -0.354 N 
ATOM     31  N   UNL A   1      45.408  28.849  29.761  1.00  0.00    -0.248 NA
ATOM     32  C   UNL A   1      47.662  29.299  30.187  1.00  0.00     0.031 C 
ATOM     33  C   UNL A   1      42.100  31.708  30.504  1.00  0.00     0.029 A 
ATOM     34  C   UNL A   1      43.152  30.836  30.277  1.00  0.00     0.049 A 
ATOM     35  H   UNL A   1      43.118  28.890  29.462  1.00  0.00     0.167 HD
ATOM     36  C   UNL A   1      45.525  30.123  30.297  1.00  0.00     0.074 A 
ATOM     37  C   UNL A   1      46.931  30.337  30.570  1.00  0.00     0.031 C 
ATOM     38  C   UNL A   1      44.553  31.036  30.538  1.00  0.00     0.031 A 
BRANCH  25  39
ATOM     39  C   UNL A   1      38.888  29.163  28.955  1.00  0.00    -0.014 A 
ATOM     40  C   UNL A   1      38.004  28.995  30.032  1.00  0.00     0.009 A 
ATOM     41  C   UNL A   1      38.399  29.699  27.752  1.00  0.00     0.009 A 
ATOM     42  C   UNL A   1      36.653  29.328  29.896  1.00  0.00     0.001 A 
ATOM     43  C   UNL A   1      37.054  30.054  27.628  1.00  0.00     0.001 A 
ATOM     44  C   UNL A   1      36.181  29.861  28.696  1.00  0.00     0.000 A 
ENDBRANCH  25  39
BRANCH  26  45
ATOM     45  C   UNL A   1      48.531  26.653  29.307  1.00  0.00    -0.014 A 
ATOM     46  C   UNL A   1      49.413  26.974  28.264  1.00  0.00     0.009 A 
ATOM     47  C   UNL A   1      49.026  25.980  30.435  1.00  0.00     0.009 A 
ATOM     48  C   UNL A   1      50.760  26.612  28.343  1.00  0.00     0.001 A 
ATOM     49  C   UNL A   1      50.378  25.646  30.523  1.00  0.00     0.001 A 
ATOM     50  C   UNL A   1      51.242  25.955  29.473  1.00  0.00     0.000 A 
ENDBRANCH  26  45
BRANCH  38  51
ATOM     51  C   UNL A   1      44.983  32.335  31.154  1.00  0.00    -0.014 A 
ATOM     52  C   UNL A   1      45.044  32.494  32.547  1.00  0.00     0.009 A 
ATOM     53  C   UNL A   1      45.341  33.411  30.328  1.00  0.00     0.009 A 
ATOM     54  C   UNL A   1      45.422  33.719  33.101  1.00  0.00     0.001 A 
ATOM     55  C   UNL A   1      45.744  34.626  30.885  1.00  0.00     0.001 A 
ATOM     56  C   UNL A   1      45.773  34.782  32.270  1.00  0.00     0.000 A 
ENDBRANCH  38  51
ENDBRANCH  12  13
ENDBRANCH   5   7
ENDBRANCH   2   3
ENDBRANCH   1   2
BRANCH   1  57
ATOM     57  C   UNL A   1      36.543  20.995  24.875  1.00  0.00     0.118 C 
BRANCH  57  58
ATOM     58  N   UNL A   1      35.788  21.079  26.117  1.00  0.00    -0.352 N 
ATOM     59  C   UNL A   1      34.776  21.931  26.475  1.00  0.00     0.253 C 
ATOM     60  H   UNL A   1      36.044  20.422  26.804  1.00  0.00     0.163 HD
ATOM     61  O   UNL A   1      34.356  21.913  27.629  1.00  0.00    -0.269 OA
BRANCH  59  62
ATOM     62  C   UNL A   1      34.194  22.883  25.503  1.00  0.00     0.063 A 
ATOM     63  C   UNL A   1      34.841  24.125  25.395  1.00  0.00     0.016 A 
ATOM     64  C   UNL A   1      33.026  22.607  24.763  1.00  0.00     0.051 A 
ATOM     65  C   UNL A   1      34.362  25.090  24.513  1.00  0.00     0.001 A 
ATOM     66  C   UNL A   1      32.579  23.591  23.866  1.00  0.00     0.027 A 
ATOM     67  C   UNL A   1      33.236  24.819  23.743  1.00  0.00     0.002 A 
BRANCH  64  68
ATOM     68  N   UNL A   1      32.340  21.380  24.880  1.00  0.00    -0.355 N 
ATOM     69  H   UNL A   1      31.621  21.378  25.553  1.00  0.00     0.167 HD
BRANCH  68  70
ATOM     70  C   UNL A   1      32.506  20.160  24.202  1.00  0.00     0.039 A 
ATOM     71  C   UNL A   1      32.154  20.081  22.850  1.00  0.00     0.026 A 
ATOM     72  C   UNL A   1      33.046  19.022  24.815  1.00  0.00     0.039 A 
ATOM     73  C   UNL A   1      32.338  18.900  22.126  1.00  0.00     0.003 A 
ATOM     74  C   UNL A   1      33.226  17.820  24.106  1.00  0.00     0.058 A 
ATOM     75  C   UNL A   1      32.874  17.776  22.751  1.00  0.00     0.013 A 
BRANCH  74  76
ATOM     76  C   UNL A   1      33.810  16.604  24.779  1.00  0.00     0.416 C 
ATOM     77  F   UNL A   1      35.154  16.493  24.588  1.00  0.00    -0.166 F 
ATOM     78  F   UNL A   1      33.623  16.618  26.127  1.00  0.00    -0.166 F 
ATOM     79  F   UNL A   1      33.275  15.429  24.340  1.00  0.00    -0.166 F 
ENDBRANCH  74  76
ENDBRANCH  68  70
ENDBRANCH  64  68
ENDBRANCH  59  62
ENDBRANCH  57  58
ENDBRANCH   1  57
TORSDOF 13
ENDMDL
MODEL 3
REMARK VINA RESULT:     -11.6      5.513      9.675
REMARK SMILES O=C(NCCCNC(=O)c1ccccc1Nc1cccc(C(F)(F)F)c1)c1ccc(-c2c3nc(c(-c4ccccc4)c4ccc([nH]4)c(-c4ccccc4)c4nc(c(-c5ccccc5)c5ccc2[nH]5)C=C4)C=C3)cc1
REMARK SMILES IDX 5 1 4 2 3 3 1 4 2 5 27 7 28 8 74 9 29 10 73 11 30 12 31 13
REMARK SMILES IDX 32 14 67 15 33 16 72 17 66 18 68 19 34 20 71 21 65 22 64 23
REMARK SMILES IDX 35 25 57 26 42 27 56 28 43 29 46 30 55 31 69 32 44 33 45 34
REMARK SMILES IDX 54 36 70 37 47 38 36 39 37 40 41 41 38 42 40 43 39 44 58 45
REMARK SMILES IDX 59 46 63 47 60 48 62 49 61 50 48 51 49 52 53 53 50 54 52 55
REMARK SMILES IDX 51 56 6 57 7 58 8 59 9 61 10 62 11 63 15 64 12 65 14 66
REMARK SMILES IDX 13 67 16 68 17 70 18 71 26 72 19 73 21 74 20 75 22 76 23 77
REMARK SMILES IDX 24 78 25 79
REMARK H PARENT 3 6 68 24 46 35 7 60 16 69
REMARK Flexibility Score: inf
ROOT
ATOM      1  C   UNL A   1      33.747  30.812  26.871  1.00  0.00     0.042 C 
ENDROOT
BRANCH   1   2
ATOM      2  C   UNL A   1      32.346  31.238  27.286  1.00  0.00     0.118 C 
BRANCH   2   3
ATOM      3  N   UNL A   1      32.178  32.683  27.384  1.00  0.00    -0.352 N 
ATOM      4  O   UNL A   1      32.561  34.804  28.036  1.00  0.00    -0.269 OA
ATOM      5  C   UNL A   1      32.970  33.647  27.962  1.00  0.00     0.251 C 
ATOM      6  H   UNL A   1      31.356  33.027  26.966  1.00  0.00     0.163 HD
BRANCH   5   7
ATOM      7  C   UNL A   1      34.291  33.301  28.532  1.00  0.00     0.039 A 
ATOM      8  C   UNL A   1      35.472  33.668  27.891  1.00  0.00     0.014 A 
ATOM      9  C   UNL A   1      34.350  32.593  29.738  1.00  0.00     0.014 A 
ATOM     10  C   UNL A   1      36.683  33.143  28.322  1.00  0.00     0.010 A 
ATOM     11  C   UNL A   1      35.586  32.170  30.240  1.00  0.00     0.010 A 
ATOM     12  C   UNL A   1      36.760  32.390  29.506  1.00  0.00    -0.014 A 
BRANCH  12  13
ATOM     13  C   UNL A   1      38.083  31.872  29.945  1.00  0.00     0.031 A 
ATOM     14  C   UNL A   1      38.861  32.543  31.047  1.00  0.00     0.074 A 
ATOM     15  C   UNL A   1      38.554  30.738  29.389  1.00  0.00     0.049 A 
ATOM     16  N   UNL A   1      39.989  32.170  31.602  1.00  0.00    -0.248 NA
ATOM     17  C   UNL A   1      38.316  33.797  31.590  1.00  0.00     0.031 C 
ATOM     18  C   UNL A   1      37.901  29.992  28.309  1.00  0.00     0.029 A 
ATOM     19  N   UNL A   1      39.665  29.989  29.681  1.00  0.00    -0.354 N 
ATOM     20  C   UNL A   1      40.302  33.155  32.531  1.00  0.00     0.074 A 
ATOM     21  C   UNL A   1      39.258  34.153  32.453  1.00  0.00     0.031 C 
ATOM     22  C   UNL A   1      38.574  28.854  28.090  1.00  0.00     0.029 A 
ATOM     23  C   UNL A   1      39.743  28.821  28.960  1.00  0.00     0.049 A 
ATOM     24  H   UNL A   1      40.342  30.261  30.344  1.00  0.00     0.167 HD
ATOM     25  C   UNL A   1      41.361  33.222  33.374  1.00  0.00     0.031 A 
ATOM     26  C   UNL A   1      40.654  27.832  28.989  1.00  0.00     0.031 A 
ATOM     27  C   UNL A   1      42.390  32.221  33.470  1.00  0.00     0.049 A 
ATOM     28  C   UNL A   1      41.814  27.932  29.933  1.00  0.00     0.074 A 
ATOM     29  C   UNL A   1      43.481  32.183  34.323  1.00  0.00     0.029 A 
ATOM     30  N   UNL A   1      42.457  31.078  32.687  1.00  0.00    -0.354 N 
ATOM     31  N   UNL A   1      42.077  28.858  30.822  1.00  0.00    -0.248 NA
ATOM     32  C   UNL A   1      42.805  26.850  29.873  1.00  0.00     0.031 C 
ATOM     33  C   UNL A   1      44.231  31.039  34.027  1.00  0.00     0.029 A 
ATOM     34  C   UNL A   1      43.580  30.340  33.023  1.00  0.00     0.049 A 
ATOM     35  H   UNL A   1      41.802  30.828  31.997  1.00  0.00     0.167 HD
ATOM     36  C   UNL A   1      43.256  28.464  31.437  1.00  0.00     0.074 A 
ATOM     37  C   UNL A   1      43.644  27.205  30.837  1.00  0.00     0.031 C 
ATOM     38  C   UNL A   1      43.956  29.093  32.412  1.00  0.00     0.031 A 
BRANCH  25  39
ATOM     39  C   UNL A   1      41.480  34.443  34.245  1.00  0.00    -0.014 A 
ATOM     40  C   UNL A   1      40.917  34.485  35.530  1.00  0.00     0.009 A 
ATOM     41  C   UNL A   1      42.205  35.554  33.784  1.00  0.00     0.009 A 
ATOM     42  C   UNL A   1      41.052  35.629  36.323  1.00  0.00     0.001 A 
ATOM     43  C   UNL A   1      42.359  36.685  34.589  1.00  0.00     0.001 A 
ATOM     44  C   UNL A   1      41.776  36.725  35.854  1.00  0.00     0.000 A 
ENDBRANCH  25  39
BRANCH  26  45
ATOM     45  C   UNL A   1      40.496  26.657  28.095  1.00  0.00    -0.014 A 
ATOM     46  C   UNL A   1      39.763  25.536  28.513  1.00  0.00     0.009 A 
ATOM     47  C   UNL A   1      41.066  26.657  26.812  1.00  0.00     0.009 A 
ATOM     48  C   UNL A   1      39.619  24.432  27.670  1.00  0.00     0.001 A 
ATOM     49  C   UNL A   1      40.895  25.565  25.961  1.00  0.00     0.001 A 
ATOM     50  C   UNL A   1      40.179  24.450  26.394  1.00  0.00     0.000 A 
ENDBRANCH  26  45
BRANCH  38  51
ATOM     51  C   UNL A   1      45.196  28.406  32.905  1.00  0.00    -0.014 A 
ATOM     52  C   UNL A   1      45.144  27.477  33.955  1.00  0.00     0.009 A 
ATOM     53  C   UNL A   1      46.432  28.686  32.301  1.00  0.00     0.009 A 
ATOM     54  C   UNL A   1      46.314  26.867  34.416  1.00  0.00     0.001 A 
ATOM     55  C   UNL A   1      47.595  28.056  32.746  1.00  0.00     0.001 A 
ATOM     56  C   UNL A   1      47.536  27.156  33.810  1.00  0.00     0.000 A 
ENDBRANCH  38  51
ENDBRANCH  12  13
ENDBRANCH   5   7
ENDBRANCH   2   3
ENDBRANCH   1   2
BRANCH   1  57
ATOM     57  C   UNL A   1      34.097  29.373  27.216  1.00  0.00     0.118 C 
BRANCH  57  58
ATOM     58  N   UNL A   1      32.938  28.589  27.614  1.00  0.00    -0.352 N 
ATOM     59  C   UNL A   1      32.316  27.550  26.972  1.00  0.00     0.253 C 
ATOM     60  H   UNL A   1      32.540  28.845  28.478  1.00  0.00     0.163 HD
ATOM     61  O   UNL A   1      31.266  27.104  27.428  1.00  0.00    -0.269 OA
BRANCH  59  62
ATOM     62  C   UNL A   1      32.877  26.969  25.733  1.00  0.00     0.063 A 
ATOM     63  C   UNL A   1      33.686  25.833  25.896  1.00  0.00     0.016 A 
ATOM     64  C   UNL A   1      32.676  27.538  24.458  1.00  0.00     0.051 A 
ATOM     65  C   UNL A   1      34.265  25.220  24.788  1.00  0.00     0.001 A 
ATOM     66  C   UNL A   1      33.255  26.886  23.358  1.00  0.00     0.027 A 
ATOM     67  C   UNL A   1      34.043  25.742  23.519  1.00  0.00     0.002 A 
BRANCH  64  68
ATOM     68  N   UNL A   1      31.896  28.699  24.273  1.00  0.00    -0.355 N 
ATOM     69  H   UNL A   1      32.361  29.540  24.483  1.00  0.00     0.167 HD
BRANCH  68  70
ATOM     70  C   UNL A   1      30.568  28.861  23.841  1.00  0.00     0.039 A 
ATOM     71  C   UNL A   1      29.799  27.724  23.565  1.00  0.00     0.026 A 
ATOM     72  C   UNL A   1      29.963  30.118  23.710  1.00  0.00     0.039 A 
ATOM     73  C   UNL A   1      28.464  27.836  23.171  1.00  0.00     0.003 A 
ATOM     74  C   UNL A   1      28.624  30.251  23.302  1.00  0.00     0.058 A 
ATOM     75  C   UNL A   1      27.878  29.093  23.042  1.00  0.00     0.013 A 
BRANCH  74  76
ATOM     76  C   UNL A   1      27.987  31.610  23.166  1.00  0.00     0.416 C 
ATOM     77  F   UNL A   1      28.820  32.620  23.545  1.00  0.00    -0.166 F 
ATOM     78  F   UNL A   1      27.623  31.887  21.884  1.00  0.00    -0.166 F 
ATOM     79  F   UNL A   1      26.859  31.761  23.916  1.00  0.00    -0.166 F 
ENDBRANCH  74  76
ENDBRANCH  68  70
ENDBRANCH  64  68
ENDBRANCH  59  62
ENDBRANCH  57  58
ENDBRANCH   1  57
TORSDOF 13
ENDMDL
