MODEL 1
REMARK VINA RESULT:     -13.1      0.000      0.000
REMARK SMILES O=C(NCCCNC(=O)c1ccccc1NC(=O)c1ccc(N2C(=O)[C@H]3CC=CC[C@H]3C2=O)cc1)c1ccc(-c2c3nc(c(-c4ccccc4)c4ccc([nH]4)c(-c4ccccc4)c4nc(c(-c5ccccc5)c5ccc2[nH]5)C=C4)C=C3)cc1
REMARK SMILES IDX 5 1 4 2 3 3 1 4 2 5 36 7 37 8 83 9 38 10 82 11 39 12 40 13
REMARK SMILES IDX 41 14 76 15 42 16 81 17 75 18 77 19 43 20 80 21 74 22 73 23
REMARK SMILES IDX 44 25 66 26 51 27 65 28 52 29 55 30 64 31 78 32 53 33 54 34
REMARK SMILES IDX 63 36 79 37 56 38 45 39 46 40 50 41 47 42 49 43 48 44 67 45
REMARK SMILES IDX 68 46 72 47 69 48 71 49 70 50 57 51 58 52 62 53 59 54 61 55
REMARK SMILES IDX 60 56 6 57 7 58 8 59 9 61 10 62 11 63 15 64 12 65 14 66
REMARK SMILES IDX 13 67 16 68 17 69 18 71 19 72 20 73 35 74 21 75 34 76 22 77
REMARK SMILES IDX 23 78 24 79 32 80 25 81 26 82 31 83 33 84 27 85 30 86 28 87
REMARK SMILES IDX 29 88
REMARK H PARENT 3 6 77 24 55 35 7 60 16 70
REMARK Flexibility Score: inf
ROOT
ATOM      1  C   UNL A   1      37.999  19.944  24.531  1.00  0.00     0.042 C 
ENDROOT
BRANCH   1   2
ATOM      2  C   UNL A   1      38.916  20.057  25.737  1.00  0.00     0.118 C 
BRANCH   2   3
ATOM      3  N   UNL A   1      39.971  19.051  25.764  1.00  0.00    -0.352 N 
ATOM      4  O   UNL A   1      42.064  18.212  25.851  1.00  0.00    -0.269 OA
ATOM      5  C   UNL A   1      41.321  19.179  25.993  1.00  0.00     0.251 C 
ATOM      6  H   UNL A   1      39.668  18.130  25.590  1.00  0.00     0.163 HD
BRANCH   5   7
ATOM      7  C   UNL A   1      41.888  20.489  26.375  1.00  0.00     0.039 A 
ATOM      8  C   UNL A   1      42.101  20.811  27.714  1.00  0.00     0.014 A 
ATOM      9  C   UNL A   1      42.207  21.413  25.376  1.00  0.00     0.014 A 
ATOM     10  C   UNL A   1      42.421  22.114  28.065  1.00  0.00     0.010 A 
ATOM     11  C   UNL A   1      42.654  22.690  25.727  1.00  0.00     0.010 A 
ATOM     12  C   UNL A   1      42.718  23.066  27.076  1.00  0.00    -0.014 A 
BRANCH  12  13
ATOM     13  C   UNL A   1      43.142  24.426  27.498  1.00  0.00     0.031 A 
ATOM     14  C   UNL A   1      44.578  24.864  27.404  1.00  0.00     0.074 A 
ATOM     15  C   UNL A   1      42.197  25.292  27.916  1.00  0.00     0.049 A 
ATOM     16  N   UNL A   1      45.096  26.037  27.673  1.00  0.00    -0.248 NA
ATOM     17  C   UNL A   1      45.561  23.863  26.959  1.00  0.00     0.031 C 
ATOM     18  C   UNL A   1      40.770  24.983  28.049  1.00  0.00     0.029 A 
ATOM     19  N   UNL A   1      42.283  26.615  28.262  1.00  0.00    -0.354 N 
ATOM     20  C   UNL A   1      46.464  25.907  27.461  1.00  0.00     0.074 A 
ATOM     21  C   UNL A   1      46.698  24.538  27.058  1.00  0.00     0.031 C 
ATOM     22  C   UNL A   1      40.106  26.101  28.371  1.00  0.00     0.029 A 
ATOM     23  C   UNL A   1      41.065  27.185  28.539  1.00  0.00     0.049 A 
ATOM     24  H   UNL A   1      43.134  27.108  28.308  1.00  0.00     0.167 HD
ATOM     25  C   UNL A   1      47.433  26.845  27.589  1.00  0.00     0.031 A 
ATOM     26  C   UNL A   1      40.748  28.442  28.899  1.00  0.00     0.031 A 
ATOM     27  C   UNL A   1      47.196  28.211  27.981  1.00  0.00     0.049 A 
ATOM     28  C   UNL A   1      41.844  29.451  29.052  1.00  0.00     0.074 A 
ATOM     29  C   UNL A   1      48.110  29.243  28.109  1.00  0.00     0.029 A 
ATOM     30  N   UNL A   1      45.956  28.734  28.308  1.00  0.00    -0.354 N 
ATOM     31  N   UNL A   1      43.128  29.315  28.826  1.00  0.00    -0.248 NA
ATOM     32  C   UNL A   1      41.447  30.787  29.516  1.00  0.00     0.031 C 
ATOM     33  C   UNL A   1      47.429  30.379  28.558  1.00  0.00     0.029 A 
ATOM     34  C   UNL A   1      46.083  30.068  28.662  1.00  0.00     0.049 A 
ATOM     35  H   UNL A   1      45.108  28.232  28.292  1.00  0.00     0.167 HD
ATOM     36  C   UNL A   1      43.692  30.550  29.110  1.00  0.00     0.074 A 
ATOM     37  C   UNL A   1      42.606  31.428  29.501  1.00  0.00     0.031 C 
ATOM     38  C   UNL A   1      44.994  30.922  29.057  1.00  0.00     0.031 A 
BRANCH  25  39
ATOM     39  C   UNL A   1      48.852  26.416  27.333  1.00  0.00    -0.014 A 
ATOM     40  C   UNL A   1      49.685  25.978  28.375  1.00  0.00     0.009 A 
ATOM     41  C   UNL A   1      49.350  26.412  26.020  1.00  0.00     0.009 A 
ATOM     42  C   UNL A   1      50.997  25.578  28.110  1.00  0.00     0.001 A 
ATOM     43  C   UNL A   1      50.653  25.988  25.755  1.00  0.00     0.001 A 
ATOM     44  C   UNL A   1      51.478  25.579  26.801  1.00  0.00     0.000 A 
ENDBRANCH  25  39
BRANCH  26  45
ATOM     45  C   UNL A   1      39.330  28.803  29.146  1.00  0.00    -0.014 A 
ATOM     46  C   UNL A   1      38.762  28.631  30.417  1.00  0.00     0.009 A 
ATOM     47  C   UNL A   1      38.542  29.342  28.117  1.00  0.00     0.009 A 
ATOM     48  C   UNL A   1      37.429  28.978  30.647  1.00  0.00     0.001 A 
ATOM     49  C   UNL A   1      37.220  29.716  28.358  1.00  0.00     0.001 A 
ATOM     50  C   UNL A   1      36.662  29.526  29.621  1.00  0.00     0.000 A 
ENDBRANCH  26  45
BRANCH  38  51
ATOM     51  C   UNL A   1      45.302  32.349  29.408  1.00  0.00    -0.014 A 
ATOM     52  C   UNL A   1      45.279  33.357  28.433  1.00  0.00     0.009 A 
ATOM     53  C   UNL A   1      45.607  32.688  30.735  1.00  0.00     0.009 A 
ATOM     54  C   UNL A   1      45.594  34.674  28.774  1.00  0.00     0.001 A 
ATOM     55  C   UNL A   1      45.895  34.010  31.078  1.00  0.00     0.001 A 
ATOM     56  C   UNL A   1      45.898  34.998  30.095  1.00  0.00     0.000 A 
ENDBRANCH  38  51
ENDBRANCH  12  13
ENDBRANCH   5   7
ENDBRANCH   2   3
ENDBRANCH   1   2
BRANCH   1  57
ATOM     57  C   UNL A   1      36.545  19.699  24.885  1.00  0.00     0.118 C 
BRANCH  57  58
ATOM     58  N   UNL A   1      36.232  18.280  25.001  1.00  0.00    -0.352 N 
ATOM     59  C   UNL A   1      35.053  17.612  24.800  1.00  0.00     0.253 C 
ATOM     60  H   UNL A   1      36.990  17.710  25.268  1.00  0.00     0.163 HD
ATOM     61  O   UNL A   1      34.953  16.448  25.180  1.00  0.00    -0.269 OA
BRANCH  59  62
ATOM     62  C   UNL A   1      33.910  18.253  24.112  1.00  0.00     0.063 A 
ATOM     63  C   UNL A   1      33.554  17.703  22.871  1.00  0.00     0.016 A 
ATOM     64  C   UNL A   1      33.250  19.397  24.616  1.00  0.00     0.054 A 
ATOM     65  C   UNL A   1      32.533  18.276  22.120  1.00  0.00     0.001 A 
ATOM     66  C   UNL A   1      32.278  19.994  23.810  1.00  0.00     0.027 A 
ATOM     67  C   UNL A   1      31.906  19.428  22.585  1.00  0.00     0.002 A 
BRANCH  64  68
ATOM     68  N   UNL A   1      33.613  19.885  25.890  1.00  0.00    -0.321 N 
ATOM     69  C   UNL A   1      33.765  21.138  26.433  1.00  0.00     0.255 C 
ATOM     70  H   UNL A   1      33.799  19.165  26.535  1.00  0.00     0.170 HD
ATOM     71  O   UNL A   1      34.024  21.242  27.631  1.00  0.00    -0.269 OA
BRANCH  69  72
ATOM     72  C   UNL A   1      33.637  22.368  25.643  1.00  0.00     0.040 A 
ATOM     73  C   UNL A   1      32.474  23.101  25.838  1.00  0.00     0.016 A 
ATOM     74  C   UNL A   1      34.615  22.829  24.761  1.00  0.00     0.016 A 
ATOM     75  C   UNL A   1      32.359  24.370  25.278  1.00  0.00     0.027 A 
ATOM     76  C   UNL A   1      34.496  24.117  24.213  1.00  0.00     0.027 A 
ATOM     77  C   UNL A   1      33.398  24.939  24.523  1.00  0.00     0.052 A 
BRANCH  77  78
ATOM     78  N   UNL A   1      33.346  26.321  24.154  1.00  0.00    -0.250 N 
ATOM     79  C   UNL A   1      32.878  26.758  22.932  1.00  0.00     0.238 C 
ATOM     80  C   UNL A   1      33.653  27.375  24.980  1.00  0.00     0.238 C 
ATOM     81  O   UNL A   1      32.426  26.095  22.006  1.00  0.00    -0.274 OA
ATOM     82  C   UNL A   1      32.955  28.260  22.860  1.00  0.00     0.096 C 
ATOM     83  C   UNL A   1      33.412  28.679  24.253  1.00  0.00     0.096 C 
ATOM     84  O   UNL A   1      34.094  27.344  26.122  1.00  0.00    -0.274 OA
ATOM     85  C   UNL A   1      31.618  28.829  22.378  1.00  0.00     0.041 C 
ATOM     86  C   UNL A   1      32.450  29.567  25.046  1.00  0.00     0.041 C 
ATOM     87  C   UNL A   1      30.621  28.991  23.484  1.00  0.00    -0.030 C 
ATOM     88  C   UNL A   1      31.007  29.329  24.720  1.00  0.00    -0.030 C 
ENDBRANCH  77  78
ENDBRANCH  69  72
ENDBRANCH  64  68
ENDBRANCH  59  62
ENDBRANCH  57  58
ENDBRANCH   1  57
TORSDOF 13
ENDMDL
MODEL 2
REMARK VINA RESULT:     -13.0      1.030      5.654
REMARK SMILES O=C(NCCCNC(=O)c1ccccc1NC(=O)c1ccc(N2C(=O)[C@H]3CC=CC[C@H]3C2=O)cc1)c1ccc(-c2c3nc(c(-c4ccccc4)c4ccc([nH]4)c(-c4ccccc4)c4nc(c(-c5ccccc5)c5ccc2[nH]5)C=C4)C=C3)cc1
REMARK SMILES IDX 5 1 4 2 3 3 1 4 2 5 36 7 37 8 83 9 38 10 82 11 39 12 40 13
REMARK SMILES IDX 41 14 76 15 42 16 81 17 75 18 77 19 43 20 80 21 74 22 73 23
REMARK SMILES IDX 44 25 66 26 51 27 65 28 52 29 55 30 64 31 78 32 53 33 54 34
REMARK SMILES IDX 63 36 79 37 56 38 45 39 46 40 50 41 47 42 49 43 48 44 67 45
REMARK SMILES IDX 68 46 72 47 69 48 71 49 70 50 57 51 58 52 62 53 59 54 61 55
REMARK SMILES IDX 60 56 6 57 7 58 8 59 9 61 10 62 11 63 15 64 12 65 14 66
REMARK SMILES IDX 13 67 16 68 17 69 18 71 19 72 20 73 35 74 21 75 34 76 22 77
REMARK SMILES IDX 23 78 24 79 32 80 25 81 26 82 31 83 33 84 27 85 30 86 28 87
REMARK SMILES IDX 29 88
REMARK H PARENT 3 6 77 24 55 35 7 60 16 70
REMARK Flexibility Score: inf
ROOT
ATOM      1  C   UNL A   1      38.081  20.064  24.546  1.00  0.00     0.042 C 
ENDROOT
BRANCH   1   2
ATOM      2  C   UNL A   1      38.942  20.221  25.789  1.00  0.00     0.118 C 
BRANCH   2   3
ATOM      3  N   UNL A   1      40.042  19.266  25.860  1.00  0.00    -0.352 N 
ATOM      4  O   UNL A   1      42.164  18.526  26.070  1.00  0.00    -0.269 OA
ATOM      5  C   UNL A   1      41.364  19.450  26.188  1.00  0.00     0.251 C 
ATOM      6  H   UNL A   1      39.798  18.338  25.638  1.00  0.00     0.163 HD
BRANCH   5   7
ATOM      7  C   UNL A   1      41.838  20.773  26.647  1.00  0.00     0.039 A 
ATOM      8  C   UNL A   1      41.844  21.097  28.002  1.00  0.00     0.014 A 
ATOM      9  C   UNL A   1      42.277  21.707  25.705  1.00  0.00     0.014 A 
ATOM     10  C   UNL A   1      42.078  22.407  28.395  1.00  0.00     0.010 A 
ATOM     11  C   UNL A   1      42.637  22.993  26.116  1.00  0.00     0.010 A 
ATOM     12  C   UNL A   1      42.493  23.368  27.460  1.00  0.00    -0.014 A 
BRANCH  12  13
ATOM     13  C   UNL A   1      42.817  24.736  27.937  1.00  0.00     0.031 A 
ATOM     14  C   UNL A   1      41.739  25.756  28.186  1.00  0.00     0.074 A 
ATOM     15  C   UNL A   1      44.104  25.035  28.206  1.00  0.00     0.049 A 
ATOM     16  N   UNL A   1      41.854  26.971  28.662  1.00  0.00    -0.248 NA
ATOM     17  C   UNL A   1      40.358  25.372  27.852  1.00  0.00     0.031 C 
ATOM     18  C   UNL A   1      45.239  24.128  28.006  1.00  0.00     0.029 A 
ATOM     19  N   UNL A   1      44.670  26.161  28.744  1.00  0.00    -0.354 N 
ATOM     20  C   UNL A   1      40.571  27.505  28.658  1.00  0.00     0.074 A 
ATOM     21  C   UNL A   1      39.695  26.490  28.115  1.00  0.00     0.031 C 
ATOM     22  C   UNL A   1      46.350  24.702  28.487  1.00  0.00     0.029 A 
ATOM     23  C   UNL A   1      46.021  26.041  28.959  1.00  0.00     0.049 A 
ATOM     24  H   UNL A   1      44.159  26.975  28.955  1.00  0.00     0.167 HD
ATOM     25  C   UNL A   1      40.161  28.729  29.070  1.00  0.00     0.031 A 
ATOM     26  C   UNL A   1      46.907  26.914  29.471  1.00  0.00     0.031 A 
ATOM     27  C   UNL A   1      41.034  29.735  29.620  1.00  0.00     0.049 A 
ATOM     28  C   UNL A   1      46.428  28.267  29.900  1.00  0.00     0.074 A 
ATOM     29  C   UNL A   1      40.708  30.995  30.095  1.00  0.00     0.029 A 
ATOM     30  N   UNL A   1      42.404  29.596  29.768  1.00  0.00    -0.354 N 
ATOM     31  N   UNL A   1      45.208  28.745  29.908  1.00  0.00    -0.248 NA
ATOM     32  C   UNL A   1      47.451  29.202  30.385  1.00  0.00     0.031 C 
ATOM     33  C   UNL A   1      41.888  31.634  30.487  1.00  0.00     0.029 A 
ATOM     34  C   UNL A   1      42.943  30.755  30.304  1.00  0.00     0.049 A 
ATOM     35  H   UNL A   1      42.921  28.792  29.528  1.00  0.00     0.167 HD
ATOM     36  C   UNL A   1      45.314  30.035  30.408  1.00  0.00     0.074 A 
ATOM     37  C   UNL A   1      46.714  30.253  30.715  1.00  0.00     0.031 C 
ATOM     38  C   UNL A   1      44.339  30.957  30.592  1.00  0.00     0.031 A 
BRANCH  25  39
ATOM     39  C   UNL A   1      38.704  29.063  28.912  1.00  0.00    -0.014 A 
ATOM     40  C   UNL A   1      37.808  28.967  29.990  1.00  0.00     0.009 A 
ATOM     41  C   UNL A   1      38.226  29.521  27.673  1.00  0.00     0.009 A 
ATOM     42  C   UNL A   1      36.460  29.290  29.819  1.00  0.00     0.001 A 
ATOM     43  C   UNL A   1      36.884  29.866  27.512  1.00  0.00     0.001 A 
ATOM     44  C   UNL A   1      36.000  29.743  28.583  1.00  0.00     0.000 A 
ENDBRANCH  25  39
BRANCH  26  45
ATOM     45  C   UNL A   1      48.335  26.528  29.594  1.00  0.00    -0.014 A 
ATOM     46  C   UNL A   1      49.238  26.797  28.555  1.00  0.00     0.009 A 
ATOM     47  C   UNL A   1      48.808  25.910  30.762  1.00  0.00     0.009 A 
ATOM     48  C   UNL A   1      50.581  26.439  28.677  1.00  0.00     0.001 A 
ATOM     49  C   UNL A   1      50.157  25.581  30.893  1.00  0.00     0.001 A 
ATOM     50  C   UNL A   1      51.041  25.838  29.848  1.00  0.00     0.000 A 
ENDBRANCH  26  45
BRANCH  38  51
ATOM     51  C   UNL A   1      44.759  32.275  31.175  1.00  0.00    -0.014 A 
ATOM     52  C   UNL A   1      45.130  33.347  30.350  1.00  0.00     0.009 A 
ATOM     53  C   UNL A   1      44.773  32.448  32.567  1.00  0.00     0.009 A 
ATOM     54  C   UNL A   1      45.544  34.557  30.910  1.00  0.00     0.001 A 
ATOM     55  C   UNL A   1      45.161  33.667  33.124  1.00  0.00     0.001 A 
ATOM     56  C   UNL A   1      45.556  34.716  32.295  1.00  0.00     0.000 A 
ENDBRANCH  38  51
ENDBRANCH  12  13
ENDBRANCH   5   7
ENDBRANCH   2   3
ENDBRANCH   1   2
BRANCH   1  57
ATOM     57  C   UNL A   1      36.616  19.807  24.843  1.00  0.00     0.118 C 
BRANCH  57  58
ATOM     58  N   UNL A   1      36.327  18.390  25.031  1.00  0.00    -0.352 N 
ATOM     59  C   UNL A   1      35.152  17.699  24.896  1.00  0.00     0.253 C 
ATOM     60  H   UNL A   1      37.100  17.842  25.300  1.00  0.00     0.163 HD
ATOM     61  O   UNL A   1      35.079  16.552  25.330  1.00  0.00    -0.269 OA
BRANCH  59  62
ATOM     62  C   UNL A   1      33.980  18.295  24.216  1.00  0.00     0.063 A 
ATOM     63  C   UNL A   1      33.642  17.736  22.974  1.00  0.00     0.016 A 
ATOM     64  C   UNL A   1      33.273  19.406  24.729  1.00  0.00     0.054 A 
ATOM     65  C   UNL A   1      32.594  18.270  22.230  1.00  0.00     0.001 A 
ATOM     66  C   UNL A   1      32.273  19.966  23.931  1.00  0.00     0.027 A 
ATOM     67  C   UNL A   1      31.921  19.391  22.703  1.00  0.00     0.002 A 
BRANCH  64  68
ATOM     68  N   UNL A   1      33.620  19.902  26.005  1.00  0.00    -0.321 N 
ATOM     69  C   UNL A   1      33.774  21.158  26.540  1.00  0.00     0.255 C 
ATOM     70  H   UNL A   1      33.789  19.187  26.659  1.00  0.00     0.170 HD
ATOM     71  O   UNL A   1      34.014  21.270  27.741  1.00  0.00    -0.269 OA
BRANCH  69  72
ATOM     72  C   UNL A   1      33.668  22.383  25.738  1.00  0.00     0.040 A 
ATOM     73  C   UNL A   1      32.485  23.098  25.867  1.00  0.00     0.016 A 
ATOM     74  C   UNL A   1      34.683  22.855  24.905  1.00  0.00     0.016 A 
ATOM     75  C   UNL A   1      32.380  24.363  25.296  1.00  0.00     0.027 A 
ATOM     76  C   UNL A   1      34.574  24.138  24.345  1.00  0.00     0.027 A 
ATOM     77  C   UNL A   1      33.449  24.945  24.593  1.00  0.00     0.052 A 
BRANCH  77  78
ATOM     78  N   UNL A   1      33.394  26.324  24.214  1.00  0.00    -0.250 N 
ATOM     79  C   UNL A   1      32.868  26.756  23.015  1.00  0.00     0.238 C 
ATOM     80  C   UNL A   1      33.758  27.381  25.013  1.00  0.00     0.238 C 
ATOM     81  O   UNL A   1      32.360  26.091  22.120  1.00  0.00    -0.274 OA
ATOM     82  C   UNL A   1      32.961  28.256  22.924  1.00  0.00     0.096 C 
ATOM     83  C   UNL A   1      33.496  28.681  24.287  1.00  0.00     0.096 C 
ATOM     84  O   UNL A   1      34.258  27.353  26.131  1.00  0.00    -0.274 OA
ATOM     85  C   UNL A   1      31.607  28.839  22.508  1.00  0.00     0.041 C 
ATOM     86  C   UNL A   1      32.588  29.589  25.121  1.00  0.00     0.041 C 
ATOM     87  C   UNL A   1      30.672  29.023  23.664  1.00  0.00    -0.030 C 
ATOM     88  C   UNL A   1      31.127  29.367  24.874  1.00  0.00    -0.030 C 
ENDBRANCH  77  78
ENDBRANCH  69  72
ENDBRANCH  64  68
ENDBRANCH  59  62
ENDBRANCH  57  58
ENDBRANCH   1  57
TORSDOF 13
ENDMDL
MODEL 3
REMARK VINA RESULT:     -13.0      3.995     10.027
REMARK SMILES O=C(NCCCNC(=O)c1ccccc1NC(=O)c1ccc(N2C(=O)[C@H]3CC=CC[C@H]3C2=O)cc1)c1ccc(-c2c3nc(c(-c4ccccc4)c4ccc([nH]4)c(-c4ccccc4)c4nc(c(-c5ccccc5)c5ccc2[nH]5)C=C4)C=C3)cc1
REMARK SMILES IDX 5 1 4 2 3 3 1 4 2 5 36 7 37 8 83 9 38 10 82 11 39 12 40 13
REMARK SMILES IDX 41 14 76 15 42 16 81 17 75 18 77 19 43 20 80 21 74 22 73 23
REMARK SMILES IDX 44 25 66 26 51 27 65 28 52 29 55 30 64 31 78 32 53 33 54 34
REMARK SMILES IDX 63 36 79 37 56 38 45 39 46 40 50 41 47 42 49 43 48 44 67 45
REMARK SMILES IDX 68 46 72 47 69 48 71 49 70 50 57 51 58 52 62 53 59 54 61 55
REMARK SMILES IDX 60 56 6 57 7 58 8 59 9 61 10 62 11 63 15 64 12 65 14 66
REMARK SMILES IDX 13 67 16 68 17 69 18 71 19 72 20 73 35 74 21 75 34 76 22 77
REMARK SMILES IDX 23 78 24 79 32 80 25 81 26 82 31 83 33 84 27 85 30 86 28 87
REMARK SMILES IDX 29 88
REMARK H PARENT 3 6 77 24 55 35 7 60 16 70
REMARK Flexibility Score: inf
ROOT
ATOM      1  C   UNL A   1      31.109  31.969  26.903  1.00  0.00     0.042 C 
ENDROOT
BRANCH   1   2
ATOM      2  C   UNL A   1      32.387  32.791  26.859  1.00  0.00     0.118 C 
BRANCH   2   3
ATOM      3  N   UNL A   1      32.307  34.035  27.615  1.00  0.00    -0.352 N 
ATOM      4  O   UNL A   1      32.828  35.571  29.184  1.00  0.00    -0.269 OA
ATOM      5  C   UNL A   1      33.142  34.551  28.577  1.00  0.00     0.251 C 
ATOM      6  H   UNL A   1      31.528  34.599  27.400  1.00  0.00     0.163 HD
BRANCH   5   7
ATOM      7  C   UNL A   1      34.404  33.859  28.914  1.00  0.00     0.039 A 
ATOM      8  C   UNL A   1      34.449  32.916  29.939  1.00  0.00     0.014 A 
ATOM      9  C   UNL A   1      35.564  34.164  28.196  1.00  0.00     0.014 A 
ATOM     10  C   UNL A   1      35.674  32.444  30.386  1.00  0.00     0.010 A 
ATOM     11  C   UNL A   1      36.782  33.588  28.566  1.00  0.00     0.010 A 
ATOM     12  C   UNL A   1      36.855  32.761  29.696  1.00  0.00    -0.014 A 
BRANCH  12  13
ATOM     13  C   UNL A   1      38.134  32.164  30.157  1.00  0.00     0.031 A 
ATOM     14  C   UNL A   1      38.926  32.777  31.279  1.00  0.00     0.074 A 
ATOM     15  C   UNL A   1      38.548  31.014  29.588  1.00  0.00     0.049 A 
ATOM     16  N   UNL A   1      40.028  32.342  31.839  1.00  0.00    -0.248 NA
ATOM     17  C   UNL A   1      38.429  34.043  31.842  1.00  0.00     0.031 C 
ATOM     18  C   UNL A   1      37.864  30.322  28.491  1.00  0.00     0.029 A 
ATOM     19  N   UNL A   1      39.614  30.203  29.878  1.00  0.00    -0.354 N 
ATOM     20  C   UNL A   1      40.371  33.291  32.795  1.00  0.00     0.074 A 
ATOM     21  C   UNL A   1      39.371  34.334  32.729  1.00  0.00     0.031 C 
ATOM     22  C   UNL A   1      38.479  29.156  28.255  1.00  0.00     0.029 A 
ATOM     23  C   UNL A   1      39.641  29.052  29.128  1.00  0.00     0.049 A 
ATOM     24  H   UNL A   1      40.292  30.423  30.556  1.00  0.00     0.167 HD
ATOM     25  C   UNL A   1      41.422  33.290  33.650  1.00  0.00     0.031 A 
ATOM     26  C   UNL A   1      40.510  28.025  29.132  1.00  0.00     0.031 A 
ATOM     27  C   UNL A   1      42.411  32.245  33.721  1.00  0.00     0.049 A 
ATOM     28  C   UNL A   1      41.673  28.062  30.075  1.00  0.00     0.074 A 
ATOM     29  C   UNL A   1      43.495  32.139  34.576  1.00  0.00     0.029 A 
ATOM     30  N   UNL A   1      42.435  31.124  32.906  1.00  0.00    -0.354 N 
ATOM     31  N   UNL A   1      41.968  28.957  30.986  1.00  0.00    -0.248 NA
ATOM     32  C   UNL A   1      42.627  26.949  29.985  1.00  0.00     0.031 C 
ATOM     33  C   UNL A   1      44.202  30.978  34.246  1.00  0.00     0.029 A 
ATOM     34  C   UNL A   1      43.529  30.334  33.220  1.00  0.00     0.049 A 
ATOM     35  H   UNL A   1      41.773  30.919  32.206  1.00  0.00     0.167 HD
ATOM     36  C   UNL A   1      43.136  28.510  31.587  1.00  0.00     0.074 A 
ATOM     37  C   UNL A   1      43.480  27.253  30.952  1.00  0.00     0.031 C 
ATOM     38  C   UNL A   1      43.861  29.092  32.572  1.00  0.00     0.031 A 
BRANCH  25  39
ATOM     39  C   UNL A   1      41.577  34.476  34.561  1.00  0.00    -0.014 A 
ATOM     40  C   UNL A   1      41.069  34.467  35.870  1.00  0.00     0.009 A 
ATOM     41  C   UNL A   1      42.277  35.608  34.114  1.00  0.00     0.009 A 
ATOM     42  C   UNL A   1      41.231  35.579  36.700  1.00  0.00     0.001 A 
ATOM     43  C   UNL A   1      42.460  36.708  34.954  1.00  0.00     0.001 A 
ATOM     44  C   UNL A   1      41.930  36.696  36.243  1.00  0.00     0.000 A 
ENDBRANCH  25  39
BRANCH  26  45
ATOM     45  C   UNL A   1      40.308  26.886  28.203  1.00  0.00    -0.014 A 
ATOM     46  C   UNL A   1      40.893  26.894  26.927  1.00  0.00     0.009 A 
ATOM     47  C   UNL A   1      39.548  25.773  28.595  1.00  0.00     0.009 A 
ATOM     48  C   UNL A   1      40.706  25.817  26.059  1.00  0.00     0.001 A 
ATOM     49  C   UNL A   1      39.389  24.685  27.736  1.00  0.00     0.001 A 
ATOM     50  C   UNL A   1      39.961  24.712  26.466  1.00  0.00     0.000 A 
ENDBRANCH  26  45
BRANCH  38  51
ATOM     51  C   UNL A   1      45.084  28.355  33.034  1.00  0.00    -0.014 A 
ATOM     52  C   UNL A   1      45.011  27.399  34.058  1.00  0.00     0.009 A 
ATOM     53  C   UNL A   1      46.323  28.612  32.427  1.00  0.00     0.009 A 
ATOM     54  C   UNL A   1      46.163  26.742  34.493  1.00  0.00     0.001 A 
ATOM     55  C   UNL A   1      47.469  27.935  32.846  1.00  0.00     0.001 A 
ATOM     56  C   UNL A   1      47.389  27.009  33.884  1.00  0.00     0.000 A 
ENDBRANCH  38  51
ENDBRANCH  12  13
ENDBRANCH   5   7
ENDBRANCH   2   3
ENDBRANCH   1   2
BRANCH   1  57
ATOM     57  C   UNL A   1      30.820  31.214  25.620  1.00  0.00     0.118 C 
BRANCH  57  58
ATOM     58  N   UNL A   1      30.107  32.028  24.644  1.00  0.00    -0.352 N 
ATOM     59  C   UNL A   1      29.373  31.659  23.548  1.00  0.00     0.253 C 
ATOM     60  H   UNL A   1      30.164  33.000  24.796  1.00  0.00     0.163 HD
ATOM     61  O   UNL A   1      29.052  32.515  22.727  1.00  0.00    -0.269 OA
BRANCH  59  62
ATOM     62  C   UNL A   1      28.935  30.260  23.347  1.00  0.00     0.063 A 
ATOM     63  C   UNL A   1      27.564  30.014  23.520  1.00  0.00     0.016 A 
ATOM     64  C   UNL A   1      29.833  29.203  23.073  1.00  0.00     0.054 A 
ATOM     65  C   UNL A   1      27.068  28.719  23.414  1.00  0.00     0.001 A 
ATOM     66  C   UNL A   1      29.320  27.905  23.042  1.00  0.00     0.027 A 
ATOM     67  C   UNL A   1      27.947  27.666  23.189  1.00  0.00     0.002 A 
BRANCH  64  68
ATOM     68  N   UNL A   1      31.196  29.507  22.860  1.00  0.00    -0.321 N 
ATOM     69  C   UNL A   1      32.379  28.866  23.136  1.00  0.00     0.255 C 
ATOM     70  H   UNL A   1      31.328  30.374  22.414  1.00  0.00     0.170 HD
ATOM     71  O   UNL A   1      33.434  29.365  22.747  1.00  0.00    -0.269 OA
BRANCH  69  72
ATOM     72  C   UNL A   1      32.444  27.603  23.882  1.00  0.00     0.040 A 
ATOM     73  C   UNL A   1      32.677  26.460  23.130  1.00  0.00     0.016 A 
ATOM     74  C   UNL A   1      32.318  27.515  25.269  1.00  0.00     0.016 A 
ATOM     75  C   UNL A   1      32.945  25.256  23.774  1.00  0.00     0.027 A 
ATOM     76  C   UNL A   1      32.605  26.299  25.910  1.00  0.00     0.027 A 
ATOM     77  C   UNL A   1      32.996  25.165  25.175  1.00  0.00     0.052 A 
BRANCH  77  78
ATOM     78  N   UNL A   1      33.492  23.978  25.802  1.00  0.00    -0.250 N 
ATOM     79  C   UNL A   1      32.679  22.935  26.194  1.00  0.00     0.238 C 
ATOM     80  C   UNL A   1      34.819  23.682  26.002  1.00  0.00     0.238 C 
ATOM     81  O   UNL A   1      31.465  22.824  26.066  1.00  0.00    -0.274 OA
ATOM     82  C   UNL A   1      33.508  21.844  26.817  1.00  0.00     0.096 C 
ATOM     83  C   UNL A   1      34.946  22.312  26.630  1.00  0.00     0.096 C 
ATOM     84  O   UNL A   1      35.798  24.381  25.770  1.00  0.00    -0.274 OA
ATOM     85  C   UNL A   1      33.143  20.492  26.197  1.00  0.00     0.041 C 
ATOM     86  C   UNL A   1      35.850  21.413  25.782  1.00  0.00     0.041 C 
ATOM     87  C   UNL A   1      33.863  20.227  24.911  1.00  0.00    -0.030 C 
ATOM     88  C   UNL A   1      35.115  20.657  24.718  1.00  0.00    -0.030 C 
ENDBRANCH  77  78
ENDBRANCH  69  72
ENDBRANCH  64  68
ENDBRANCH  59  62
ENDBRANCH  57  58
ENDBRANCH   1  57
TORSDOF 13
ENDMDL
