MODEL 1
REMARK VINA RESULT:     -11.7      0.000      0.000
REMARK SMILES O=C(NCCCNC(=O)c1ccc(-c2c3nc(c(-c4ccccc4)c4ccc([nH]4)c(-c4ccccc4)c4nc(c(-c5ccccc5)c5ccc2[nH]5)C=C4)C=C3)cc1)C1=Cc2cc(Cl)cc(Cl)c2O[C@@H]1C(F)(F)F
REMARK SMILES IDX 5 1 4 2 3 3 1 4 2 5 58 7 59 8 69 9 60 10 68 11 61 12 67 13
REMARK SMILES IDX 62 14 65 15 63 16 64 17 66 18 70 19 71 20 72 21 73 22 6 23
REMARK SMILES IDX 7 24 8 25 9 27 10 28 11 29 57 30 12 31 56 32 13 33 14 34
REMARK SMILES IDX 15 35 50 36 16 37 55 38 49 39 51 40 17 41 54 42 48 43 47 44
REMARK SMILES IDX 18 46 40 47 25 48 39 49 26 50 29 51 38 52 52 53 27 54 28 55
REMARK SMILES IDX 37 57 53 58 30 59 19 60 20 61 24 62 21 63 23 64 22 65 41 66
REMARK SMILES IDX 42 67 46 68 43 69 45 70 44 71 31 72 32 73 36 74 33 75 35 76
REMARK SMILES IDX 34 77
REMARK H PARENT 3 6 7 26 51 45 29 56
REMARK Flexibility Score: inf
ROOT
ATOM      1  C   UNL A   1      31.807  29.916  26.930  1.00  0.00     0.042 C 
ENDROOT
BRANCH   1   2
ATOM      2  C   UNL A   1      32.220  28.640  27.657  1.00  0.00     0.118 C 
BRANCH   2   3
ATOM      3  N   UNL A   1      31.413  27.474  27.296  1.00  0.00    -0.352 N 
ATOM      4  O   UNL A   1      30.973  25.422  26.469  1.00  0.00    -0.270 OA
ATOM      5  C   UNL A   1      31.660  26.436  26.427  1.00  0.00     0.251 C 
ATOM      6  H   UNL A   1      30.542  27.423  27.754  1.00  0.00     0.163 HD
BRANCH   5   7
ATOM      7  C   UNL A   1      32.855  26.516  25.556  1.00  0.00     0.067 C 
ATOM      8  C   UNL A   1      34.052  26.039  25.926  1.00  0.00     0.025 C 
ATOM      9  C   UNL A   1      32.598  26.779  24.107  1.00  0.00     0.314 C 
ATOM     10  C   UNL A   1      34.521  24.957  25.049  1.00  0.00     0.020 A 
ATOM     11  O   UNL A   1      33.007  25.673  23.269  1.00  0.00    -0.474 OA
ATOM     12  C   UNL A   1      35.300  23.925  25.598  1.00  0.00     0.032 A 
ATOM     13  C   UNL A   1      33.911  24.775  23.790  1.00  0.00     0.146 A 
ATOM     14  C   UNL A   1      35.429  22.714  24.915  1.00  0.00     0.043 A 
ATOM     15  C   UNL A   1      34.077  23.562  23.109  1.00  0.00     0.085 A 
ATOM     16  Cl  UNL A   1      36.256  21.401  25.662  1.00  0.00    -0.084 Cl
ATOM     17  C   UNL A   1      34.817  22.525  23.678  1.00  0.00     0.045 A 
ATOM     18  Cl  UNL A   1      33.245  23.257  21.625  1.00  0.00    -0.080 Cl
BRANCH   9  19
ATOM     19  C   UNL A   1      33.302  28.085  23.676  1.00  0.00     0.429 C 
ATOM     20  F   UNL A   1      34.175  27.862  22.666  1.00  0.00    -0.167 F 
ATOM     21  F   UNL A   1      32.421  29.015  23.236  1.00  0.00    -0.167 F 
ATOM     22  F   UNL A   1      34.001  28.651  24.691  1.00  0.00    -0.167 F 
ENDBRANCH   9  19
ENDBRANCH   5   7
ENDBRANCH   2   3
ENDBRANCH   1   2
BRANCH   1  23
ATOM     23  C   UNL A   1      32.913  30.967  26.919  1.00  0.00     0.118 C 
BRANCH  23  24
ATOM     24  N   UNL A   1      32.440  32.318  27.211  1.00  0.00    -0.352 N 
ATOM     25  C   UNL A   1      32.980  33.357  27.952  1.00  0.00     0.251 C 
ATOM     26  H   UNL A   1      31.570  32.531  26.802  1.00  0.00     0.163 HD
ATOM     27  O   UNL A   1      32.326  34.354  28.145  1.00  0.00    -0.269 OA
BRANCH  25  28
ATOM     28  C   UNL A   1      34.333  33.229  28.553  1.00  0.00     0.039 A 
ATOM     29  C   UNL A   1      34.463  32.575  29.783  1.00  0.00     0.014 A 
ATOM     30  C   UNL A   1      35.466  33.725  27.918  1.00  0.00     0.014 A 
ATOM     31  C   UNL A   1      35.736  32.293  30.291  1.00  0.00     0.010 A 
ATOM     32  C   UNL A   1      36.727  33.339  28.356  1.00  0.00     0.010 A 
ATOM     33  C   UNL A   1      36.879  32.595  29.536  1.00  0.00    -0.014 A 
BRANCH  33  34
ATOM     34  C   UNL A   1      38.235  32.111  29.911  1.00  0.00     0.031 A 
ATOM     35  C   UNL A   1      38.737  30.790  29.394  1.00  0.00     0.074 A 
ATOM     36  C   UNL A   1      38.961  32.793  30.822  1.00  0.00     0.049 A 
ATOM     37  N   UNL A   1      39.782  30.096  29.771  1.00  0.00    -0.248 NA
ATOM     38  C   UNL A   1      37.934  30.140  28.344  1.00  0.00     0.031 C 
ATOM     39  C   UNL A   1      38.579  34.067  31.441  1.00  0.00     0.029 A 
ATOM     40  N   UNL A   1      40.169  32.497  31.405  1.00  0.00    -0.354 N 
ATOM     41  C   UNL A   1      39.738  28.919  29.035  1.00  0.00     0.074 A 
ATOM     42  C   UNL A   1      38.542  28.969  28.223  1.00  0.00     0.031 C 
ATOM     43  C   UNL A   1      39.543  34.454  32.289  1.00  0.00     0.029 A 
ATOM     44  C   UNL A   1      40.580  33.431  32.327  1.00  0.00     0.049 A 
ATOM     45  H   UNL A   1      40.690  31.692  31.184  1.00  0.00     0.167 HD
ATOM     46  C   UNL A   1      40.625  27.894  29.020  1.00  0.00     0.031 A 
ATOM     47  C   UNL A   1      41.657  33.452  33.134  1.00  0.00     0.031 A 
ATOM     48  C   UNL A   1      41.835  27.860  29.794  1.00  0.00     0.049 A 
ATOM     49  C   UNL A   1      42.617  32.296  33.107  1.00  0.00     0.074 A 
ATOM     50  C   UNL A   1      42.832  26.900  29.792  1.00  0.00     0.029 A 
ATOM     51  N   UNL A   1      42.218  28.836  30.700  1.00  0.00    -0.354 N 
ATOM     52  N   UNL A   1      42.582  31.213  32.372  1.00  0.00    -0.248 NA
ATOM     53  C   UNL A   1      43.762  32.366  34.028  1.00  0.00     0.031 C 
ATOM     54  C   UNL A   1      43.801  27.276  30.728  1.00  0.00     0.029 A 
ATOM     55  C   UNL A   1      43.426  28.490  31.280  1.00  0.00     0.049 A 
ATOM     56  H   UNL A   1      41.707  29.654  30.901  1.00  0.00     0.167 HD
ATOM     57  C   UNL A   1      43.707  30.479  32.728  1.00  0.00     0.074 A 
ATOM     58  C   UNL A   1      44.414  31.251  33.729  1.00  0.00     0.031 C 
ATOM     59  C   UNL A   1      44.114  29.271  32.272  1.00  0.00     0.031 A 
BRANCH  46  60
ATOM     60  C   UNL A   1      40.320  26.726  28.126  1.00  0.00    -0.014 A 
ATOM     61  C   UNL A   1      40.836  26.657  26.822  1.00  0.00     0.009 A 
ATOM     62  C   UNL A   1      39.545  25.659  28.608  1.00  0.00     0.009 A 
ATOM     63  C   UNL A   1      40.553  25.559  26.007  1.00  0.00     0.001 A 
ATOM     64  C   UNL A   1      39.287  24.550  27.800  1.00  0.00     0.001 A 
ATOM     65  C   UNL A   1      39.784  24.504  26.498  1.00  0.00     0.000 A 
ENDBRANCH  46  60
BRANCH  47  66
ATOM     66  C   UNL A   1      41.889  34.600  34.051  1.00  0.00    -0.014 A 
ATOM     67  C   UNL A   1      41.407  34.560  35.369  1.00  0.00     0.009 A 
ATOM     68  C   UNL A   1      42.570  35.746  33.612  1.00  0.00     0.009 A 
ATOM     69  C   UNL A   1      41.576  35.656  36.218  1.00  0.00     0.001 A 
ATOM     70  C   UNL A   1      42.763  36.828  34.473  1.00  0.00     0.001 A 
ATOM     71  C   UNL A   1      42.256  36.787  35.771  1.00  0.00     0.000 A 
ENDBRANCH  47  66
BRANCH  59  72
ATOM     72  C   UNL A   1      45.391  28.722  32.836  1.00  0.00    -0.014 A 
ATOM     73  C   UNL A   1      45.381  27.879  33.957  1.00  0.00     0.009 A 
ATOM     74  C   UNL A   1      46.612  29.010  32.208  1.00  0.00     0.009 A 
ATOM     75  C   UNL A   1      46.575  27.353  34.453  1.00  0.00     0.001 A 
ATOM     76  C   UNL A   1      47.801  28.464  32.691  1.00  0.00     0.001 A 
ATOM     77  C   UNL A   1      47.782  27.641  33.817  1.00  0.00     0.000 A 
ENDBRANCH  59  72
ENDBRANCH  33  34
ENDBRANCH  25  28
ENDBRANCH  23  24
ENDBRANCH   1  23
TORSDOF 11
ENDMDL
MODEL 2
REMARK VINA RESULT:     -11.6      2.830      7.051
REMARK SMILES O=C(NCCCNC(=O)c1ccc(-c2c3nc(c(-c4ccccc4)c4ccc([nH]4)c(-c4ccccc4)c4nc(c(-c5ccccc5)c5ccc2[nH]5)C=C4)C=C3)cc1)C1=Cc2cc(Cl)cc(Cl)c2O[C@@H]1C(F)(F)F
REMARK SMILES IDX 5 1 4 2 3 3 1 4 2 5 58 7 59 8 69 9 60 10 68 11 61 12 67 13
REMARK SMILES IDX 62 14 65 15 63 16 64 17 66 18 70 19 71 20 72 21 73 22 6 23
REMARK SMILES IDX 7 24 8 25 9 27 10 28 11 29 57 30 12 31 56 32 13 33 14 34
REMARK SMILES IDX 15 35 50 36 16 37 55 38 49 39 51 40 17 41 54 42 48 43 47 44
REMARK SMILES IDX 18 46 40 47 25 48 39 49 26 50 29 51 38 52 52 53 27 54 28 55
REMARK SMILES IDX 37 57 53 58 30 59 19 60 20 61 24 62 21 63 23 64 22 65 41 66
REMARK SMILES IDX 42 67 46 68 43 69 45 70 44 71 31 72 32 73 36 74 33 75 35 76
REMARK SMILES IDX 34 77
REMARK H PARENT 3 6 7 26 51 45 29 56
REMARK Flexibility Score: inf
ROOT
ATOM      1  C   UNL A   1      31.995  28.879  27.167  1.00  0.00     0.042 C 
ENDROOT
BRANCH   1   2
ATOM      2  C   UNL A   1      31.753  27.680  26.253  1.00  0.00     0.118 C 
BRANCH   2   3
ATOM      3  N   UNL A   1      31.491  26.436  26.979  1.00  0.00    -0.352 N 
ATOM      4  O   UNL A   1      31.778  24.286  27.593  1.00  0.00    -0.270 OA
ATOM      5  C   UNL A   1      31.874  25.140  26.721  1.00  0.00     0.251 C 
ATOM      6  H   UNL A   1      30.946  26.546  27.792  1.00  0.00     0.163 HD
BRANCH   5   7
ATOM      7  C   UNL A   1      32.537  24.846  25.430  1.00  0.00     0.067 C 
ATOM      8  C   UNL A   1      33.819  25.151  25.190  1.00  0.00     0.025 C 
ATOM      9  C   UNL A   1      31.855  23.844  24.553  1.00  0.00     0.314 C 
ATOM     10  C   UNL A   1      34.640  23.961  24.924  1.00  0.00     0.020 A 
ATOM     11  O   UNL A   1      32.654  22.654  24.360  1.00  0.00    -0.474 OA
ATOM     12  C   UNL A   1      35.985  23.957  25.327  1.00  0.00     0.032 A 
ATOM     13  C   UNL A   1      34.006  22.742  24.604  1.00  0.00     0.146 A 
ATOM     14  C   UNL A   1      36.670  22.746  25.451  1.00  0.00     0.043 A 
ATOM     15  C   UNL A   1      34.720  21.541  24.707  1.00  0.00     0.085 A 
ATOM     16  Cl  UNL A   1      38.268  22.735  26.093  1.00  0.00    -0.084 Cl
ATOM     17  C   UNL A   1      36.044  21.539  25.149  1.00  0.00     0.045 A 
ATOM     18  Cl  UNL A   1      33.942  20.021  24.442  1.00  0.00    -0.080 Cl
BRANCH   9  19
ATOM     19  C   UNL A   1      31.494  24.491  23.197  1.00  0.00     0.429 C 
ATOM     20  F   UNL A   1      30.325  24.006  22.718  1.00  0.00    -0.167 F 
ATOM     21  F   UNL A   1      31.351  25.834  23.297  1.00  0.00    -0.167 F 
ATOM     22  F   UNL A   1      32.439  24.264  22.251  1.00  0.00    -0.167 F 
ENDBRANCH   9  19
ENDBRANCH   5   7
ENDBRANCH   2   3
ENDBRANCH   1   2
BRANCH   1  23
ATOM     23  C   UNL A   1      33.394  29.466  27.004  1.00  0.00     0.118 C 
BRANCH  23  24
ATOM     24  N   UNL A   1      33.625  30.660  27.812  1.00  0.00    -0.352 N 
ATOM     25  C   UNL A   1      34.689  31.060  28.604  1.00  0.00     0.251 C 
ATOM     26  H   UNL A   1      32.883  31.306  27.788  1.00  0.00     0.163 HD
ATOM     27  O   UNL A   1      34.589  32.055  29.280  1.00  0.00    -0.269 OA
BRANCH  25  28
ATOM     28  C   UNL A   1      35.929  30.242  28.668  1.00  0.00     0.039 A 
ATOM     29  C   UNL A   1      36.775  30.214  27.554  1.00  0.00     0.014 A 
ATOM     30  C   UNL A   1      36.273  29.522  29.807  1.00  0.00     0.014 A 
ATOM     31  C   UNL A   1      38.024  29.592  27.642  1.00  0.00     0.010 A 
ATOM     32  C   UNL A   1      37.560  29.013  29.938  1.00  0.00     0.010 A 
ATOM     33  C   UNL A   1      38.463  29.063  28.866  1.00  0.00    -0.014 A 
BRANCH  33  34
ATOM     34  C   UNL A   1      39.862  28.604  29.082  1.00  0.00     0.031 A 
ATOM     35  C   UNL A   1      40.912  29.575  29.552  1.00  0.00     0.074 A 
ATOM     36  C   UNL A   1      40.217  27.352  28.728  1.00  0.00     0.049 A 
ATOM     37  N   UNL A   1      42.213  29.432  29.590  1.00  0.00    -0.248 NA
ATOM     38  C   UNL A   1      40.442  30.898  29.996  1.00  0.00     0.031 C 
ATOM     39  C   UNL A   1      39.312  26.316  28.217  1.00  0.00     0.029 A 
ATOM     40  N   UNL A   1      41.447  26.739  28.725  1.00  0.00    -0.354 N 
ATOM     41  C   UNL A   1      42.714  30.653  30.024  1.00  0.00     0.074 A 
ATOM     42  C   UNL A   1      41.584  31.540  30.193  1.00  0.00     0.031 C 
ATOM     43  C   UNL A   1      40.010  25.196  27.980  1.00  0.00     0.029 A 
ATOM     44  C   UNL A   1      41.419  25.446  28.258  1.00  0.00     0.049 A 
ATOM     45  H   UNL A   1      42.271  27.184  29.028  1.00  0.00     0.167 HD
ATOM     46  C   UNL A   1      43.998  31.001  30.279  1.00  0.00     0.031 A 
ATOM     47  C   UNL A   1      42.416  24.566  28.050  1.00  0.00     0.031 A 
ATOM     48  C   UNL A   1      45.118  30.110  30.152  1.00  0.00     0.049 A 
ATOM     49  C   UNL A   1      43.832  24.983  28.329  1.00  0.00     0.074 A 
ATOM     50  C   UNL A   1      46.448  30.348  30.456  1.00  0.00     0.029 A 
ATOM     51  N   UNL A   1      45.039  28.805  29.693  1.00  0.00    -0.354 N 
ATOM     52  N   UNL A   1      44.281  26.127  28.780  1.00  0.00    -0.248 NA
ATOM     53  C   UNL A   1      44.880  23.986  28.060  1.00  0.00     0.031 C 
ATOM     54  C   UNL A   1      47.179  29.199  30.143  1.00  0.00     0.029 A 
ATOM     55  C   UNL A   1      46.298  28.232  29.684  1.00  0.00     0.049 A 
ATOM     56  H   UNL A   1      44.210  28.353  29.414  1.00  0.00     0.167 HD
ATOM     57  C   UNL A   1      45.660  25.983  28.867  1.00  0.00     0.074 A 
ATOM     58  C   UNL A   1      45.971  24.635  28.441  1.00  0.00     0.031 C 
ATOM     59  C   UNL A   1      46.587  26.889  29.258  1.00  0.00     0.031 A 
BRANCH  46  60
ATOM     60  C   UNL A   1      44.258  32.409  30.732  1.00  0.00    -0.014 A 
ATOM     61  C   UNL A   1      44.276  32.740  32.097  1.00  0.00     0.009 A 
ATOM     62  C   UNL A   1      44.535  33.410  29.787  1.00  0.00     0.009 A 
ATOM     63  C   UNL A   1      44.531  34.051  32.503  1.00  0.00     0.001 A 
ATOM     64  C   UNL A   1      44.817  34.714  30.198  1.00  0.00     0.001 A 
ATOM     65  C   UNL A   1      44.806  35.036  31.555  1.00  0.00     0.000 A 
ENDBRANCH  46  60
BRANCH  47  66
ATOM     66  C   UNL A   1      42.121  23.200  27.539  1.00  0.00    -0.014 A 
ATOM     67  C   UNL A   1      41.704  22.191  28.421  1.00  0.00     0.009 A 
ATOM     68  C   UNL A   1      42.273  22.893  26.179  1.00  0.00     0.009 A 
ATOM     69  C   UNL A   1      41.476  20.894  27.955  1.00  0.00     0.001 A 
ATOM     70  C   UNL A   1      42.016  21.603  25.711  1.00  0.00     0.001 A 
ATOM     71  C   UNL A   1      41.628  20.602  26.601  1.00  0.00     0.000 A 
ENDBRANCH  47  66
BRANCH  59  72
ATOM     72  C   UNL A   1      48.020  26.445  29.263  1.00  0.00    -0.014 A 
ATOM     73  C   UNL A   1      48.590  25.858  30.402  1.00  0.00     0.009 A 
ATOM     74  C   UNL A   1      48.792  26.569  28.098  1.00  0.00     0.009 A 
ATOM     75  C   UNL A   1      49.917  25.424  30.381  1.00  0.00     0.001 A 
ATOM     76  C   UNL A   1      50.110  26.113  28.072  1.00  0.00     0.001 A 
ATOM     77  C   UNL A   1      50.672  25.546  29.216  1.00  0.00     0.000 A 
ENDBRANCH  59  72
ENDBRANCH  33  34
ENDBRANCH  25  28
ENDBRANCH  23  24
ENDBRANCH   1  23
TORSDOF 11
ENDMDL
MODEL 3
REMARK VINA RESULT:     -11.5      3.723      8.380
REMARK SMILES O=C(NCCCNC(=O)c1ccc(-c2c3nc(c(-c4ccccc4)c4ccc([nH]4)c(-c4ccccc4)c4nc(c(-c5ccccc5)c5ccc2[nH]5)C=C4)C=C3)cc1)C1=Cc2cc(Cl)cc(Cl)c2O[C@@H]1C(F)(F)F
REMARK SMILES IDX 5 1 4 2 3 3 1 4 2 5 58 7 59 8 69 9 60 10 68 11 61 12 67 13
REMARK SMILES IDX 62 14 65 15 63 16 64 17 66 18 70 19 71 20 72 21 73 22 6 23
REMARK SMILES IDX 7 24 8 25 9 27 10 28 11 29 57 30 12 31 56 32 13 33 14 34
REMARK SMILES IDX 15 35 50 36 16 37 55 38 49 39 51 40 17 41 54 42 48 43 47 44
REMARK SMILES IDX 18 46 40 47 25 48 39 49 26 50 29 51 38 52 52 53 27 54 28 55
REMARK SMILES IDX 37 57 53 58 30 59 19 60 20 61 24 62 21 63 23 64 22 65 41 66
REMARK SMILES IDX 42 67 46 68 43 69 45 70 44 71 31 72 32 73 36 74 33 75 35 76
REMARK SMILES IDX 34 77
REMARK H PARENT 3 6 7 26 51 45 29 56
REMARK Flexibility Score: inf
ROOT
ATOM      1  C   UNL A   1      37.082  21.395  24.615  1.00  0.00     0.042 C 
ENDROOT
BRANCH   1   2
ATOM      2  C   UNL A   1      37.047  22.756  23.925  1.00  0.00     0.118 C 
BRANCH   2   3
ATOM      3  N   UNL A   1      35.845  22.971  23.117  1.00  0.00    -0.352 N 
ATOM      4  O   UNL A   1      33.875  23.894  22.522  1.00  0.00    -0.270 OA
ATOM      5  C   UNL A   1      34.649  23.581  23.418  1.00  0.00     0.251 C 
ATOM      6  H   UNL A   1      35.903  22.618  22.199  1.00  0.00     0.163 HD
BRANCH   5   7
ATOM      7  C   UNL A   1      34.396  23.980  24.822  1.00  0.00     0.067 C 
ATOM      8  C   UNL A   1      34.780  25.164  25.317  1.00  0.00     0.025 C 
ATOM      9  C   UNL A   1      33.355  23.194  25.553  1.00  0.00     0.314 C 
ATOM     10  C   UNL A   1      33.642  25.983  25.761  1.00  0.00     0.020 A 
ATOM     11  O   UNL A   1      32.215  24.005  25.921  1.00  0.00    -0.474 OA
ATOM     12  C   UNL A   1      33.721  27.380  25.643  1.00  0.00     0.032 A 
ATOM     13  C   UNL A   1      32.387  25.371  25.960  1.00  0.00     0.146 A 
ATOM     14  C   UNL A   1      32.555  28.147  25.679  1.00  0.00     0.043 A 
ATOM     15  C   UNL A   1      31.232  26.162  26.021  1.00  0.00     0.085 A 
ATOM     16  Cl  UNL A   1      32.642  29.841  25.379  1.00  0.00    -0.084 Cl
ATOM     17  C   UNL A   1      31.312  27.546  25.861  1.00  0.00     0.045 A 
ATOM     18  Cl  UNL A   1      29.667  25.439  26.139  1.00  0.00    -0.080 Cl
BRANCH   9  19
ATOM     19  C   UNL A   1      33.978  22.523  26.796  1.00  0.00     0.429 C 
ATOM     20  F   UNL A   1      35.144  23.117  27.142  1.00  0.00    -0.167 F 
ATOM     21  F   UNL A   1      33.164  22.598  27.876  1.00  0.00    -0.167 F 
ATOM     22  F   UNL A   1      34.244  21.209  26.593  1.00  0.00    -0.167 F 
ENDBRANCH   9  19
ENDBRANCH   5   7
ENDBRANCH   2   3
ENDBRANCH   1   2
BRANCH   1  23
ATOM     23  C   UNL A   1      38.116  21.334  25.734  1.00  0.00     0.118 C 
BRANCH  23  24
ATOM     24  N   UNL A   1      39.023  20.193  25.632  1.00  0.00    -0.352 N 
ATOM     25  C   UNL A   1      40.365  20.036  25.939  1.00  0.00     0.251 C 
ATOM     26  H   UNL A   1      38.599  19.379  25.277  1.00  0.00     0.163 HD
ATOM     27  O   UNL A   1      40.928  19.009  25.646  1.00  0.00    -0.269 OA
BRANCH  25  28
ATOM     28  C   UNL A   1      41.125  21.144  26.577  1.00  0.00     0.039 A 
ATOM     29  C   UNL A   1      41.733  22.100  25.758  1.00  0.00     0.014 A 
ATOM     30  C   UNL A   1      41.231  21.258  27.959  1.00  0.00     0.014 A 
ATOM     31  C   UNL A   1      42.312  23.239  26.327  1.00  0.00     0.010 A 
ATOM     32  C   UNL A   1      41.692  22.443  28.519  1.00  0.00     0.010 A 
ATOM     33  C   UNL A   1      42.216  23.462  27.709  1.00  0.00    -0.014 A 
BRANCH  33  34
ATOM     34  C   UNL A   1      42.599  24.755  28.338  1.00  0.00     0.031 A 
ATOM     35  C   UNL A   1      41.565  25.830  28.547  1.00  0.00     0.074 A 
ATOM     36  C   UNL A   1      43.897  25.014  28.598  1.00  0.00     0.049 A 
ATOM     37  N   UNL A   1      41.734  27.088  28.870  1.00  0.00    -0.248 NA
ATOM     38  C   UNL A   1      40.160  25.453  28.320  1.00  0.00     0.031 C 
ATOM     39  C   UNL A   1      45.012  24.081  28.405  1.00  0.00     0.029 A 
ATOM     40  N   UNL A   1      44.505  26.155  29.064  1.00  0.00    -0.354 N 
ATOM     41  C   UNL A   1      40.466  27.655  28.847  1.00  0.00     0.074 A 
ATOM     42  C   UNL A   1      39.544  26.620  28.434  1.00  0.00     0.031 C 
ATOM     43  C   UNL A   1      46.156  24.675  28.775  1.00  0.00     0.029 A 
ATOM     44  C   UNL A   1      45.872  26.048  29.171  1.00  0.00     0.049 A 
ATOM     45  H   UNL A   1      44.008  26.972  29.298  1.00  0.00     0.167 HD
ATOM     46  C   UNL A   1      40.097  28.921  29.160  1.00  0.00     0.031 A 
ATOM     47  C   UNL A   1      46.798  26.960  29.522  1.00  0.00     0.031 A 
ATOM     48  C   UNL A   1      41.004  29.940  29.610  1.00  0.00     0.049 A 
ATOM     49  C   UNL A   1      46.363  28.360  29.851  1.00  0.00     0.074 A 
ATOM     50  C   UNL A   1      40.716  31.231  30.020  1.00  0.00     0.029 A 
ATOM     51  N   UNL A   1      42.377  29.781  29.720  1.00  0.00    -0.354 N 
ATOM     52  N   UNL A   1      45.155  28.865  29.866  1.00  0.00    -0.248 NA
ATOM     53  C   UNL A   1      47.423  29.316  30.205  1.00  0.00     0.031 C 
ATOM     54  C   UNL A   1      41.920  31.865  30.340  1.00  0.00     0.029 A 
ATOM     55  C   UNL A   1      42.952  30.956  30.169  1.00  0.00     0.049 A 
ATOM     56  H   UNL A   1      42.869  28.955  29.508  1.00  0.00     0.167 HD
ATOM     57  C   UNL A   1      45.306  30.192  30.247  1.00  0.00     0.074 A 
ATOM     58  C   UNL A   1      46.720  30.408  30.473  1.00  0.00     0.031 C 
ATOM     59  C   UNL A   1      44.360  31.150  30.389  1.00  0.00     0.031 A 
BRANCH  46  60
ATOM     60  C   UNL A   1      38.642  29.270  29.034  1.00  0.00    -0.014 A 
ATOM     61  C   UNL A   1      37.788  29.234  30.150  1.00  0.00     0.009 A 
ATOM     62  C   UNL A   1      38.125  29.686  27.797  1.00  0.00     0.009 A 
ATOM     63  C   UNL A   1      36.440  29.573  30.020  1.00  0.00     0.001 A 
ATOM     64  C   UNL A   1      36.782  30.051  27.677  1.00  0.00     0.001 A 
ATOM     65  C   UNL A   1      35.940  29.986  28.786  1.00  0.00     0.000 A 
ENDBRANCH  46  60
BRANCH  47  66
ATOM     66  C   UNL A   1      48.238  26.589  29.572  1.00  0.00    -0.014 A 
ATOM     67  C   UNL A   1      49.059  26.790  28.452  1.00  0.00     0.009 A 
ATOM     68  C   UNL A   1      48.793  26.014  30.726  1.00  0.00     0.009 A 
ATOM     69  C   UNL A   1      50.398  26.396  28.476  1.00  0.00     0.001 A 
ATOM     70  C   UNL A   1      50.140  25.648  30.756  1.00  0.00     0.001 A 
ATOM     71  C   UNL A   1      50.939  25.829  29.628  1.00  0.00     0.000 A 
ENDBRANCH  47  66
BRANCH  59  72
ATOM     72  C   UNL A   1      44.820  32.508  30.829  1.00  0.00    -0.014 A 
ATOM     73  C   UNL A   1      45.149  33.498  29.891  1.00  0.00     0.009 A 
ATOM     74  C   UNL A   1      44.878  32.816  32.197  1.00  0.00     0.009 A 
ATOM     75  C   UNL A   1      45.550  34.766  30.316  1.00  0.00     0.001 A 
ATOM     76  C   UNL A   1      45.255  34.091  32.619  1.00  0.00     0.001 A 
ATOM     77  C   UNL A   1      45.596  35.062  31.678  1.00  0.00     0.000 A 
ENDBRANCH  59  72
ENDBRANCH  33  34
ENDBRANCH  25  28
ENDBRANCH  23  24
ENDBRANCH   1  23
TORSDOF 11
ENDMDL
