MODEL 1
REMARK VINA RESULT:     -12.2      0.000      0.000
REMARK SMILES Cc1ccccc1OCc1nc2cc(C(=O)NCCCNC(=O)c3ccc(-c4c5nc(c(-c6ccccc6)c6ccc([nH]6)c(-c6ccccc6)c6nc(c(-c7ccccc7)c7ccc4[nH]7)C=C6)C=C5)cc3)ccc2n1C[C@H](C)O
REMARK SMILES IDX 18 1 17 2 15 3 16 4 14 6 10 7 11 8 75 9 12 10 74 11 13 12
REMARK SMILES IDX 73 13 72 14 9 15 8 16 7 17 1 18 2 19 3 20 4 21 6 22 5 23
REMARK SMILES IDX 76 24 77 25 78 26 79 27 19 29 20 30 21 31 22 32 23 34 24 35
REMARK SMILES IDX 25 36 71 37 26 38 70 39 27 40 28 41 29 42 64 43 30 44 69 45
REMARK SMILES IDX 63 46 65 47 31 48 68 49 62 50 61 51 32 53 54 54 39 55 53 56
REMARK SMILES IDX 40 57 43 58 52 59 66 60 41 61 42 62 51 64 67 65 44 66 33 67
REMARK SMILES IDX 34 68 38 69 35 70 37 71 36 72 55 73 56 74 60 75 57 76 59 77
REMARK SMILES IDX 58 78 45 79 46 80 50 81 47 82 49 83 48 84
REMARK H PARENT 17 5 79 28 21 33 65 52 43 63
REMARK Flexibility Score: inf
ROOT
ATOM      1  C   UNL A   1      33.207  28.878  27.251  1.00  0.00     0.118 C 
ENDROOT
BRANCH   1   2
ATOM      2  N   UNL A   1      32.463  28.744  25.992  1.00  0.00    -0.352 N 
ATOM      3  C   UNL A   1      32.211  27.589  25.264  1.00  0.00     0.251 C 
ATOM      4  O   UNL A   1      31.594  27.601  24.208  1.00  0.00    -0.269 OA
ATOM      5  H   UNL A   1      32.096  29.578  25.617  1.00  0.00     0.163 HD
BRANCH   3   6
ATOM      6  C   UNL A   1      32.680  26.324  25.860  1.00  0.00     0.042 A 
ATOM      7  C   UNL A   1      32.409  21.922  25.396  1.00  0.00     0.148 A 
ATOM      8  N   UNL A   1      31.519  22.784  25.877  1.00  0.00    -0.229 NA
ATOM      9  N   UNL A   1      33.342  22.628  24.680  1.00  0.00    -0.322 N 
ATOM     10  C   UNL A   1      32.167  24.004  25.831  1.00  0.00     0.090 A 
ATOM     11  C   UNL A   1      33.458  23.831  25.339  1.00  0.00     0.068 A 
ATOM     12  C   UNL A   1      31.737  25.307  26.099  1.00  0.00     0.044 A 
ATOM     13  C   UNL A   1      34.467  24.792  25.383  1.00  0.00     0.029 A 
ATOM     14  C   UNL A   1      34.047  26.077  25.687  1.00  0.00     0.016 A 
BRANCH   7  15
ATOM     15  C   UNL A   1      32.754  20.559  25.918  1.00  0.00     0.304 C 
BRANCH  15  16
ATOM     16  O   UNL A   1      31.950  19.671  25.111  1.00  0.00    -0.485 OA
BRANCH  16  17
ATOM     17  C   UNL A   1      32.529  18.485  24.760  1.00  0.00     0.122 A 
ATOM     18  C   UNL A   1      32.296  19.090  22.283  1.00  0.00     0.048 C 
ATOM     19  C   UNL A   1      32.730  18.188  23.398  1.00  0.00    -0.009 A 
ATOM     20  C   UNL A   1      33.439  17.031  23.051  1.00  0.00     0.007 A 
ATOM     21  C   UNL A   1      33.960  16.200  24.038  1.00  0.00     0.001 A 
ATOM     22  C   UNL A   1      33.056  17.654  25.746  1.00  0.00     0.047 A 
ATOM     23  C   UNL A   1      33.775  16.514  25.382  1.00  0.00     0.004 A 
ENDBRANCH  16  17
ENDBRANCH  15  16
ENDBRANCH   7  15
BRANCH   9  24
ATOM     24  C   UNL A   1      33.731  22.457  23.287  1.00  0.00     0.155 C 
BRANCH  24  25
ATOM     25  C   UNL A   1      32.766  22.946  22.207  1.00  0.00     0.131 C 
ATOM     26  C   UNL A   1      32.908  24.453  22.022  1.00  0.00     0.040 C 
BRANCH  25  27
ATOM     27  O   UNL A   1      31.430  22.655  22.616  1.00  0.00    -0.392 OA
ATOM     28  H   UNL A   1      31.140  23.311  23.269  1.00  0.00     0.211 HD
ENDBRANCH  25  27
ENDBRANCH  24  25
ENDBRANCH   9  24
ENDBRANCH   3   6
ENDBRANCH   1   2
BRANCH   1  29
ATOM     29  C   UNL A   1      34.648  29.345  27.036  1.00  0.00     0.042 C 
BRANCH  29  30
ATOM     30  C   UNL A   1      35.027  30.534  27.895  1.00  0.00     0.118 C 
BRANCH  30  31
ATOM     31  N   UNL A   1      34.076  31.644  27.874  1.00  0.00    -0.352 N 
ATOM     32  C   UNL A   1      34.148  32.830  28.590  1.00  0.00     0.251 C 
ATOM     33  H   UNL A   1      33.294  31.539  27.285  1.00  0.00     0.163 HD
ATOM     34  O   UNL A   1      33.290  33.697  28.474  1.00  0.00    -0.269 OA
BRANCH  32  35
ATOM     35  C   UNL A   1      35.368  33.082  29.393  1.00  0.00     0.039 A 
ATOM     36  C   UNL A   1      36.413  33.759  28.760  1.00  0.00     0.014 A 
ATOM     37  C   UNL A   1      35.590  32.356  30.561  1.00  0.00     0.014 A 
ATOM     38  C   UNL A   1      37.719  33.460  29.125  1.00  0.00     0.010 A 
ATOM     39  C   UNL A   1      36.884  31.967  30.847  1.00  0.00     0.010 A 
ATOM     40  C   UNL A   1      37.939  32.456  30.068  1.00  0.00    -0.014 A 
BRANCH  40  41
ATOM     41  C   UNL A   1      39.216  31.764  30.184  1.00  0.00     0.031 A 
ATOM     42  C   UNL A   1      39.412  30.454  29.543  1.00  0.00     0.074 A 
ATOM     43  C   UNL A   1      40.230  32.307  30.895  1.00  0.00     0.049 A 
ATOM     44  N   UNL A   1      40.264  29.579  29.964  1.00  0.00    -0.248 NA
ATOM     45  C   UNL A   1      38.591  29.975  28.435  1.00  0.00     0.031 C 
ATOM     46  C   UNL A   1      41.628  31.878  30.926  1.00  0.00     0.029 A 
ATOM     47  N   UNL A   1      40.129  33.224  31.941  1.00  0.00    -0.354 N 
ATOM     48  C   UNL A   1      40.352  28.614  28.995  1.00  0.00     0.074 A 
ATOM     49  C   UNL A   1      39.180  28.803  28.176  1.00  0.00     0.031 C 
ATOM     50  C   UNL A   1      42.191  32.314  32.063  1.00  0.00     0.029 A 
ATOM     51  C   UNL A   1      41.141  32.911  32.870  1.00  0.00     0.049 A 
ATOM     52  H   UNL A   1      39.473  33.953  32.017  1.00  0.00     0.167 HD
ATOM     53  C   UNL A   1      41.498  27.889  28.891  1.00  0.00     0.031 A 
ATOM     54  C   UNL A   1      40.838  32.556  34.151  1.00  0.00     0.031 A 
ATOM     55  C   UNL A   1      42.377  28.062  30.053  1.00  0.00     0.049 A 
ATOM     56  C   UNL A   1      41.294  31.164  34.548  1.00  0.00     0.074 A 
ATOM     57  C   UNL A   1      43.638  28.600  30.249  1.00  0.00     0.029 A 
ATOM     58  N   UNL A   1      41.863  27.828  31.323  1.00  0.00    -0.354 N 
ATOM     59  N   UNL A   1      41.843  30.299  33.741  1.00  0.00    -0.248 NA
ATOM     60  C   UNL A   1      41.056  30.603  35.875  1.00  0.00     0.031 C 
ATOM     61  C   UNL A   1      43.871  28.691  31.654  1.00  0.00     0.029 A 
ATOM     62  C   UNL A   1      42.763  28.184  32.307  1.00  0.00     0.049 A 
ATOM     63  H   UNL A   1      40.967  27.456  31.498  1.00  0.00     0.167 HD
ATOM     64  C   UNL A   1      41.958  29.083  34.370  1.00  0.00     0.074 A 
ATOM     65  C   UNL A   1      41.457  29.331  35.711  1.00  0.00     0.031 C 
ATOM     66  C   UNL A   1      42.403  27.971  33.707  1.00  0.00     0.031 A 
BRANCH  53  67
ATOM     67  C   UNL A   1      41.929  27.185  27.619  1.00  0.00    -0.014 A 
ATOM     68  C   UNL A   1      42.735  27.865  26.688  1.00  0.00     0.009 A 
ATOM     69  C   UNL A   1      41.487  25.910  27.217  1.00  0.00     0.009 A 
ATOM     70  C   UNL A   1      43.051  27.318  25.434  1.00  0.00     0.001 A 
ATOM     71  C   UNL A   1      41.823  25.342  25.982  1.00  0.00     0.001 A 
ATOM     72  C   UNL A   1      42.597  26.054  25.082  1.00  0.00     0.000 A 
ENDBRANCH  53  67
BRANCH  54  73
ATOM     73  C   UNL A   1      39.610  33.219  34.674  1.00  0.00    -0.014 A 
ATOM     74  C   UNL A   1      38.356  32.675  34.332  1.00  0.00     0.009 A 
ATOM     75  C   UNL A   1      39.680  34.121  35.743  1.00  0.00     0.009 A 
ATOM     76  C   UNL A   1      37.226  32.936  35.112  1.00  0.00     0.001 A 
ATOM     77  C   UNL A   1      38.542  34.390  36.515  1.00  0.00     0.001 A 
ATOM     78  C   UNL A   1      37.327  33.771  36.222  1.00  0.00     0.000 A 
ENDBRANCH  54  73
BRANCH  66  79
ATOM     79  C   UNL A   1      42.499  26.557  34.257  1.00  0.00    -0.014 A 
ATOM     80  C   UNL A   1      41.580  25.961  35.128  1.00  0.00     0.009 A 
ATOM     81  C   UNL A   1      43.629  25.769  33.926  1.00  0.00     0.009 A 
ATOM     82  C   UNL A   1      41.733  24.635  35.569  1.00  0.00     0.001 A 
ATOM     83  C   UNL A   1      43.798  24.456  34.374  1.00  0.00     0.001 A 
ATOM     84  C   UNL A   1      42.837  23.881  35.186  1.00  0.00     0.000 A 
ENDBRANCH  66  79
ENDBRANCH  40  41
ENDBRANCH  32  35
ENDBRANCH  30  31
ENDBRANCH  29  30
ENDBRANCH   1  29
TORSDOF 16
ENDMDL
MODEL 2
REMARK VINA RESULT:     -12.1      2.103      3.315
REMARK SMILES Cc1ccccc1OCc1nc2cc(C(=O)NCCCNC(=O)c3ccc(-c4c5nc(c(-c6ccccc6)c6ccc([nH]6)c(-c6ccccc6)c6nc(c(-c7ccccc7)c7ccc4[nH]7)C=C6)C=C5)cc3)ccc2n1C[C@H](C)O
REMARK SMILES IDX 18 1 17 2 15 3 16 4 14 6 10 7 11 8 75 9 12 10 74 11 13 12
REMARK SMILES IDX 73 13 72 14 9 15 8 16 7 17 1 18 2 19 3 20 4 21 6 22 5 23
REMARK SMILES IDX 76 24 77 25 78 26 79 27 19 29 20 30 21 31 22 32 23 34 24 35
REMARK SMILES IDX 25 36 71 37 26 38 70 39 27 40 28 41 29 42 64 43 30 44 69 45
REMARK SMILES IDX 63 46 65 47 31 48 68 49 62 50 61 51 32 53 54 54 39 55 53 56
REMARK SMILES IDX 40 57 43 58 52 59 66 60 41 61 42 62 51 64 67 65 44 66 33 67
REMARK SMILES IDX 34 68 38 69 35 70 37 71 36 72 55 73 56 74 60 75 57 76 59 77
REMARK SMILES IDX 58 78 45 79 46 80 50 81 47 82 49 83 48 84
REMARK H PARENT 17 5 79 28 21 33 65 52 43 63
REMARK Flexibility Score: inf
ROOT
ATOM      1  C   UNL A   1      31.751  30.426  26.814  1.00  0.00     0.118 C 
ENDROOT
BRANCH   1   2
ATOM      2  N   UNL A   1      31.465  30.351  25.376  1.00  0.00    -0.352 N 
ATOM      3  C   UNL A   1      31.578  29.252  24.536  1.00  0.00     0.251 C 
ATOM      4  O   UNL A   1      31.332  29.313  23.339  1.00  0.00    -0.269 OA
ATOM      5  H   UNL A   1      31.154  31.185  24.953  1.00  0.00     0.163 HD
BRANCH   3   6
ATOM      6  C   UNL A   1      31.958  27.977  25.174  1.00  0.00     0.042 A 
ATOM      7  C   UNL A   1      31.577  23.583  24.717  1.00  0.00     0.148 A 
ATOM      8  N   UNL A   1      30.683  24.477  25.125  1.00  0.00    -0.229 NA
ATOM      9  N   UNL A   1      32.584  24.251  24.069  1.00  0.00    -0.322 N 
ATOM     10  C   UNL A   1      31.372  25.675  25.120  1.00  0.00     0.090 A 
ATOM     11  C   UNL A   1      32.690  25.456  24.728  1.00  0.00     0.068 A 
ATOM     12  C   UNL A   1      30.967  26.993  25.347  1.00  0.00     0.044 A 
ATOM     13  C   UNL A   1      33.724  26.384  24.842  1.00  0.00     0.029 A 
ATOM     14  C   UNL A   1      33.326  27.684  25.106  1.00  0.00     0.016 A 
BRANCH   7  15
ATOM     15  C   UNL A   1      31.837  22.214  25.272  1.00  0.00     0.304 C 
BRANCH  15  16
ATOM     16  O   UNL A   1      33.159  21.893  24.785  1.00  0.00    -0.485 OA
BRANCH  16  17
ATOM     17  C   UNL A   1      33.390  20.581  24.486  1.00  0.00     0.122 A 
ATOM     18  C   UNL A   1      35.808  20.811  25.296  1.00  0.00     0.048 C 
ATOM     19  C   UNL A   1      34.658  20.025  24.745  1.00  0.00    -0.009 A 
ATOM     20  C   UNL A   1      34.848  18.649  24.558  1.00  0.00     0.007 A 
ATOM     21  C   UNL A   1      33.794  17.840  24.147  1.00  0.00     0.001 A 
ATOM     22  C   UNL A   1      32.335  19.767  24.079  1.00  0.00     0.047 A 
ATOM     23  C   UNL A   1      32.539  18.396  23.915  1.00  0.00     0.004 A 
ENDBRANCH  16  17
ENDBRANCH  15  16
ENDBRANCH   7  15
BRANCH   9  24
ATOM     24  C   UNL A   1      33.071  24.056  22.711  1.00  0.00     0.155 C 
BRANCH  24  25
ATOM     25  C   UNL A   1      32.940  25.218  21.727  1.00  0.00     0.131 C 
ATOM     26  C   UNL A   1      31.514  25.758  21.743  1.00  0.00     0.040 C 
BRANCH  25  27
ATOM     27  O   UNL A   1      33.241  24.747  20.414  1.00  0.00    -0.392 OA
ATOM     28  H   UNL A   1      34.037  24.195  20.442  1.00  0.00     0.211 HD
ENDBRANCH  25  27
ENDBRANCH  24  25
ENDBRANCH   9  24
ENDBRANCH   3   6
ENDBRANCH   1   2
BRANCH   1  29
ATOM     29  C   UNL A   1      32.872  31.416  27.141  1.00  0.00     0.042 C 
BRANCH  29  30
ATOM     30  C   UNL A   1      34.064  30.770  27.816  1.00  0.00     0.118 C 
BRANCH  30  31
ATOM     31  N   UNL A   1      34.781  31.624  28.761  1.00  0.00    -0.352 N 
ATOM     32  C   UNL A   1      35.974  31.345  29.413  1.00  0.00     0.251 C 
ATOM     33  H   UNL A   1      34.371  32.497  28.959  1.00  0.00     0.163 HD
ATOM     34  O   UNL A   1      36.486  32.155  30.176  1.00  0.00    -0.269 OA
BRANCH  32  35
ATOM     35  C   UNL A   1      36.686  30.097  29.051  1.00  0.00     0.039 A 
ATOM     36  C   UNL A   1      36.924  29.183  30.080  1.00  0.00     0.014 A 
ATOM     37  C   UNL A   1      37.397  30.028  27.855  1.00  0.00     0.014 A 
ATOM     38  C   UNL A   1      38.072  28.403  30.027  1.00  0.00     0.010 A 
ATOM     39  C   UNL A   1      38.597  29.344  27.852  1.00  0.00     0.010 A 
ATOM     40  C   UNL A   1      38.970  28.601  28.979  1.00  0.00    -0.014 A 
BRANCH  40  41
ATOM     41  C   UNL A   1      40.365  28.191  29.062  1.00  0.00     0.031 A 
ATOM     42  C   UNL A   1      40.776  26.855  28.603  1.00  0.00     0.074 A 
ATOM     43  C   UNL A   1      41.298  29.024  29.578  1.00  0.00     0.049 A 
ATOM     44  N   UNL A   1      41.815  26.237  29.057  1.00  0.00    -0.248 NA
ATOM     45  C   UNL A   1      39.990  26.054  27.668  1.00  0.00     0.031 C 
ATOM     46  C   UNL A   1      42.751  28.878  29.525  1.00  0.00     0.029 A 
ATOM     47  N   UNL A   1      41.089  30.064  30.483  1.00  0.00    -0.354 N 
ATOM     48  C   UNL A   1      42.025  25.160  28.235  1.00  0.00     0.074 A 
ATOM     49  C   UNL A   1      40.783  24.988  27.524  1.00  0.00     0.031 C 
ATOM     50  C   UNL A   1      43.296  29.592  30.523  1.00  0.00     0.029 A 
ATOM     51  C   UNL A   1      42.209  30.105  31.337  1.00  0.00     0.049 A 
ATOM     52  H   UNL A   1      40.306  30.659  30.519  1.00  0.00     0.167 HD
ATOM     53  C   UNL A   1      43.284  24.658  28.120  1.00  0.00     0.031 A 
ATOM     54  C   UNL A   1      42.077  29.913  32.681  1.00  0.00     0.031 A 
ATOM     55  C   UNL A   1      44.192  25.180  29.148  1.00  0.00     0.049 A 
ATOM     56  C   UNL A   1      42.833  28.716  33.228  1.00  0.00     0.074 A 
ATOM     57  C   UNL A   1      45.329  25.972  29.131  1.00  0.00     0.029 A 
ATOM     58  N   UNL A   1      43.829  25.065  30.484  1.00  0.00    -0.354 N 
ATOM     59  N   UNL A   1      43.486  27.850  32.503  1.00  0.00    -0.248 NA
ATOM     60  C   UNL A   1      42.811  28.345  34.641  1.00  0.00     0.031 C 
ATOM     61  C   UNL A   1      45.640  26.333  30.475  1.00  0.00     0.029 A 
ATOM     62  C   UNL A   1      44.709  25.741  31.307  1.00  0.00     0.049 A 
ATOM     63  H   UNL A   1      43.043  24.565  30.804  1.00  0.00     0.167 HD
ATOM     64  C   UNL A   1      43.890  26.797  33.288  1.00  0.00     0.074 A 
ATOM     65  C   UNL A   1      43.448  27.163  34.623  1.00  0.00     0.031 C 
ATOM     66  C   UNL A   1      44.501  25.696  32.753  1.00  0.00     0.031 A 
BRANCH  53  67
ATOM     67  C   UNL A   1      43.756  23.849  26.927  1.00  0.00    -0.014 A 
ATOM     68  C   UNL A   1      44.165  24.513  25.756  1.00  0.00     0.009 A 
ATOM     69  C   UNL A   1      43.710  22.444  26.840  1.00  0.00     0.009 A 
ATOM     70  C   UNL A   1      44.479  23.819  24.577  1.00  0.00     0.001 A 
ATOM     71  C   UNL A   1      44.053  21.741  25.678  1.00  0.00     0.001 A 
ATOM     72  C   UNL A   1      44.425  22.432  24.538  1.00  0.00     0.000 A 
ENDBRANCH  53  67
BRANCH  54  73
ATOM     73  C   UNL A   1      40.782  30.410  33.226  1.00  0.00    -0.014 A 
ATOM     74  C   UNL A   1      40.580  31.802  33.314  1.00  0.00     0.009 A 
ATOM     75  C   UNL A   1      39.668  29.565  33.315  1.00  0.00     0.009 A 
ATOM     76  C   UNL A   1      39.290  32.335  33.372  1.00  0.00     0.001 A 
ATOM     77  C   UNL A   1      38.377  30.103  33.387  1.00  0.00     0.001 A 
ATOM     78  C   UNL A   1      38.187  31.485  33.379  1.00  0.00     0.000 A 
ENDBRANCH  54  73
BRANCH  66  79
ATOM     79  C   UNL A   1      44.922  24.435  33.490  1.00  0.00    -0.014 A 
ATOM     80  C   UNL A   1      46.239  24.081  33.806  1.00  0.00     0.009 A 
ATOM     81  C   UNL A   1      43.930  23.490  33.853  1.00  0.00     0.009 A 
ATOM     82  C   UNL A   1      46.537  22.904  34.515  1.00  0.00     0.001 A 
ATOM     83  C   UNL A   1      44.220  22.310  34.543  1.00  0.00     0.001 A 
ATOM     84  C   UNL A   1      45.528  22.024  34.890  1.00  0.00     0.000 A 
ENDBRANCH  66  79
ENDBRANCH  40  41
ENDBRANCH  32  35
ENDBRANCH  30  31
ENDBRANCH  29  30
ENDBRANCH   1  29
TORSDOF 16
ENDMDL
MODEL 3
REMARK VINA RESULT:     -12.1      3.807      9.221
REMARK SMILES Cc1ccccc1OCc1nc2cc(C(=O)NCCCNC(=O)c3ccc(-c4c5nc(c(-c6ccccc6)c6ccc([nH]6)c(-c6ccccc6)c6nc(c(-c7ccccc7)c7ccc4[nH]7)C=C6)C=C5)cc3)ccc2n1C[C@H](C)O
REMARK SMILES IDX 18 1 17 2 15 3 16 4 14 6 10 7 11 8 75 9 12 10 74 11 13 12
REMARK SMILES IDX 73 13 72 14 9 15 8 16 7 17 1 18 2 19 3 20 4 21 6 22 5 23
REMARK SMILES IDX 76 24 77 25 78 26 79 27 19 29 20 30 21 31 22 32 23 34 24 35
REMARK SMILES IDX 25 36 71 37 26 38 70 39 27 40 28 41 29 42 64 43 30 44 69 45
REMARK SMILES IDX 63 46 65 47 31 48 68 49 62 50 61 51 32 53 54 54 39 55 53 56
REMARK SMILES IDX 40 57 43 58 52 59 66 60 41 61 42 62 51 64 67 65 44 66 33 67
REMARK SMILES IDX 34 68 38 69 35 70 37 71 36 72 55 73 56 74 60 75 57 76 59 77
REMARK SMILES IDX 58 78 45 79 46 80 50 81 47 82 49 83 48 84
REMARK H PARENT 17 5 79 28 21 33 65 52 43 63
REMARK Flexibility Score: inf
ROOT
ATOM      1  C   UNL A   1      38.079  23.237  26.455  1.00  0.00     0.118 C 
ENDROOT
BRANCH   1   2
ATOM      2  N   UNL A   1      37.260  22.102  26.010  1.00  0.00    -0.352 N 
ATOM      3  C   UNL A   1      35.887  22.062  25.810  1.00  0.00     0.251 C 
ATOM      4  O   UNL A   1      35.305  21.046  25.457  1.00  0.00    -0.269 OA
ATOM      5  H   UNL A   1      37.745  21.264  25.830  1.00  0.00     0.163 HD
BRANCH   3   6
ATOM      6  C   UNL A   1      35.162  23.335  25.991  1.00  0.00     0.042 A 
ATOM      7  C   UNL A   1      32.448  26.147  23.896  1.00  0.00     0.148 A 
ATOM      8  N   UNL A   1      33.753  25.952  23.746  1.00  0.00    -0.229 NA
ATOM      9  N   UNL A   1      31.929  25.063  24.558  1.00  0.00    -0.322 N 
ATOM     10  C   UNL A   1      34.068  25.000  24.696  1.00  0.00     0.090 A 
ATOM     11  C   UNL A   1      32.927  24.664  25.420  1.00  0.00     0.068 A 
ATOM     12  C   UNL A   1      35.248  24.304  24.975  1.00  0.00     0.044 A 
ATOM     13  C   UNL A   1      32.917  23.927  26.602  1.00  0.00     0.029 A 
ATOM     14  C   UNL A   1      34.099  23.268  26.899  1.00  0.00     0.016 A 
BRANCH   7  15
ATOM     15  C   UNL A   1      31.699  27.446  23.906  1.00  0.00     0.304 C 
BRANCH  15  16
ATOM     16  O   UNL A   1      30.882  27.379  22.717  1.00  0.00    -0.485 OA
BRANCH  16  17
ATOM     17  C   UNL A   1      29.880  28.302  22.620  1.00  0.00     0.122 A 
ATOM     18  C   UNL A   1      28.272  26.696  23.799  1.00  0.00     0.048 C 
ATOM     19  C   UNL A   1      28.612  28.006  23.157  1.00  0.00    -0.009 A 
ATOM     20  C   UNL A   1      27.629  29.004  23.170  1.00  0.00     0.007 A 
ATOM     21  C   UNL A   1      27.909  30.277  22.683  1.00  0.00     0.001 A 
ATOM     22  C   UNL A   1      30.159  29.579  22.138  1.00  0.00     0.047 A 
ATOM     23  C   UNL A   1      29.173  30.566  22.174  1.00  0.00     0.004 A 
ENDBRANCH  16  17
ENDBRANCH  15  16
ENDBRANCH   7  15
BRANCH   9  24
ATOM     24  C   UNL A   1      30.857  24.173  24.136  1.00  0.00     0.155 C 
BRANCH  24  25
ATOM     25  C   UNL A   1      31.188  23.085  23.115  1.00  0.00     0.131 C 
ATOM     26  C   UNL A   1      31.900  21.923  23.800  1.00  0.00     0.040 C 
BRANCH  25  27
ATOM     27  O   UNL A   1      32.052  23.634  22.120  1.00  0.00    -0.392 OA
ATOM     28  H   UNL A   1      32.864  23.960  22.538  1.00  0.00     0.211 HD
ENDBRANCH  25  27
ENDBRANCH  24  25
ENDBRANCH   9  24
ENDBRANCH   3   6
ENDBRANCH   1   2
BRANCH   1  29
ATOM     29  C   UNL A   1      39.578  22.984  26.283  1.00  0.00     0.042 C 
BRANCH  29  30
ATOM     30  C   UNL A   1      40.058  21.726  26.976  1.00  0.00     0.118 C 
BRANCH  30  31
ATOM     31  N   UNL A   1      40.875  20.836  26.153  1.00  0.00    -0.352 N 
ATOM     32  C   UNL A   1      42.258  20.821  26.044  1.00  0.00     0.251 C 
ATOM     33  H   UNL A   1      40.389  20.170  25.614  1.00  0.00     0.163 HD
ATOM     34  O   UNL A   1      42.831  20.009  25.327  1.00  0.00    -0.269 OA
BRANCH  32  35
ATOM     35  C   UNL A   1      43.033  21.721  26.930  1.00  0.00     0.039 A 
ATOM     36  C   UNL A   1      42.725  21.687  28.292  1.00  0.00     0.014 A 
ATOM     37  C   UNL A   1      43.740  22.789  26.384  1.00  0.00     0.014 A 
ATOM     38  C   UNL A   1      42.858  22.854  29.035  1.00  0.00     0.010 A 
ATOM     39  C   UNL A   1      43.763  23.979  27.084  1.00  0.00     0.010 A 
ATOM     40  C   UNL A   1      43.240  24.025  28.382  1.00  0.00    -0.014 A 
BRANCH  40  41
ATOM     41  C   UNL A   1      42.976  25.346  28.937  1.00  0.00     0.031 A 
ATOM     42  C   UNL A   1      41.832  26.139  28.458  1.00  0.00     0.074 A 
ATOM     43  C   UNL A   1      43.788  25.869  29.884  1.00  0.00     0.049 A 
ATOM     44  N   UNL A   1      41.793  27.428  28.506  1.00  0.00    -0.248 NA
ATOM     45  C   UNL A   1      40.677  25.550  27.786  1.00  0.00     0.031 C 
ATOM     46  C   UNL A   1      43.550  27.054  30.707  1.00  0.00     0.029 A 
ATOM     47  N   UNL A   1      45.126  25.554  30.114  1.00  0.00    -0.354 N 
ATOM     48  C   UNL A   1      40.504  27.796  28.221  1.00  0.00     0.074 A 
ATOM     49  C   UNL A   1      39.913  26.633  27.607  1.00  0.00     0.031 C 
ATOM     50  C   UNL A   1      44.729  27.521  31.146  1.00  0.00     0.029 A 
ATOM     51  C   UNL A   1      45.774  26.742  30.506  1.00  0.00     0.049 A 
ATOM     52  H   UNL A   1      45.542  24.667  30.019  1.00  0.00     0.167 HD
ATOM     53  C   UNL A   1      40.035  28.978  28.705  1.00  0.00     0.031 A 
ATOM     54  C   UNL A   1      46.802  27.259  29.774  1.00  0.00     0.031 A 
ATOM     55  C   UNL A   1      41.106  29.834  29.227  1.00  0.00     0.049 A 
ATOM     56  C   UNL A   1      46.546  28.647  29.216  1.00  0.00     0.074 A 
ATOM     57  C   UNL A   1      41.435  30.328  30.479  1.00  0.00     0.029 A 
ATOM     58  N   UNL A   1      42.187  30.131  28.407  1.00  0.00    -0.354 N 
ATOM     59  N   UNL A   1      45.418  29.295  29.311  1.00  0.00    -0.248 NA
ATOM     60  C   UNL A   1      47.525  29.365  28.403  1.00  0.00     0.031 C 
ATOM     61  C   UNL A   1      42.730  30.921  30.399  1.00  0.00     0.029 A 
ATOM     62  C   UNL A   1      43.174  30.810  29.095  1.00  0.00     0.049 A 
ATOM     63  H   UNL A   1      42.243  29.887  27.454  1.00  0.00     0.167 HD
ATOM     64  C   UNL A   1      45.467  30.432  28.540  1.00  0.00     0.074 A 
ATOM     65  C   UNL A   1      46.816  30.432  27.999  1.00  0.00     0.031 C 
ATOM     66  C   UNL A   1      44.372  31.236  28.377  1.00  0.00     0.031 A 
BRANCH  53  67
ATOM     67  C   UNL A   1      38.562  29.273  28.907  1.00  0.00    -0.014 A 
ATOM     68  C   UNL A   1      37.798  29.766  27.834  1.00  0.00     0.009 A 
ATOM     69  C   UNL A   1      37.891  29.205  30.144  1.00  0.00     0.009 A 
ATOM     70  C   UNL A   1      36.469  30.187  27.994  1.00  0.00     0.001 A 
ATOM     71  C   UNL A   1      36.555  29.592  30.308  1.00  0.00     0.001 A 
ATOM     72  C   UNL A   1      35.845  30.097  29.232  1.00  0.00     0.000 A 
ENDBRANCH  53  67
BRANCH  54  73
ATOM     73  C   UNL A   1      47.628  26.220  29.097  1.00  0.00    -0.014 A 
ATOM     74  C   UNL A   1      47.326  25.886  27.762  1.00  0.00     0.009 A 
ATOM     75  C   UNL A   1      48.872  25.840  29.617  1.00  0.00     0.009 A 
ATOM     76  C   UNL A   1      48.285  25.293  26.938  1.00  0.00     0.001 A 
ATOM     77  C   UNL A   1      49.827  25.233  28.792  1.00  0.00     0.001 A 
ATOM     78  C   UNL A   1      49.546  24.993  27.446  1.00  0.00     0.000 A 
ENDBRANCH  54  73
BRANCH  66  79
ATOM     79  C   UNL A   1      44.268  32.469  27.493  1.00  0.00    -0.014 A 
ATOM     80  C   UNL A   1      44.524  32.504  26.117  1.00  0.00     0.009 A 
ATOM     81  C   UNL A   1      43.941  33.713  28.087  1.00  0.00     0.009 A 
ATOM     82  C   UNL A   1      44.379  33.686  25.369  1.00  0.00     0.001 A 
ATOM     83  C   UNL A   1      43.811  34.895  27.354  1.00  0.00     0.001 A 
ATOM     84  C   UNL A   1      44.015  34.878  25.985  1.00  0.00     0.000 A 
ENDBRANCH  66  79
ENDBRANCH  40  41
ENDBRANCH  32  35
ENDBRANCH  30  31
ENDBRANCH  29  30
ENDBRANCH   1  29
TORSDOF 16
ENDMDL
