MODEL 1
REMARK VINA RESULT:     -10.1      0.000      0.000
REMARK SMILES C[C@@](NC(=O)c1cc(Br)c[nH]1)(C(=O)NCCCNC(=O)c1ccc(-c2c3nc(c(-c4ccccc4)c4ccc([nH]4)c(-c4ccccc4)c4nc(c(-c5ccccc5)c5ccc2[nH]5)C=C4)C=C3)cc1)C(F)(F)F
REMARK SMILES IDX 16 1 15 2 14 3 12 4 13 5 2 7 1 8 3 9 4 10 5 12 6 13 7 14
REMARK SMILES IDX 11 15 8 16 10 17 9 19 69 20 70 21 71 22 72 23 17 24 18 25
REMARK SMILES IDX 19 26 20 28 21 29 22 30 68 31 23 32 67 33 24 34 25 35 26 36
REMARK SMILES IDX 61 37 27 38 66 39 60 40 62 41 28 42 65 43 59 44 58 45 29 47
REMARK SMILES IDX 51 48 36 49 50 50 37 51 40 52 49 53 63 54 38 55 39 56 48 58
REMARK SMILES IDX 64 59 41 60 30 61 31 62 35 63 32 64 34 65 33 66 52 67 53 68
REMARK SMILES IDX 57 69 54 70 56 71 55 72 42 73 43 74 47 75 44 76 46 77 45 78
REMARK H PARENT 14 6 3 11 11 18 18 27 62 46 40 57
REMARK Flexibility Score: inf
ROOT
ATOM      1  C   UNL A   1      41.334  20.314  26.436  1.00  0.00     0.042 C 
ENDROOT
BRANCH   1   2
ATOM      2  C   UNL A   1      42.786  20.690  26.194  1.00  0.00     0.117 C 
BRANCH   2   3
ATOM      3  N   UNL A   1      42.926  21.626  25.090  1.00  0.00    -0.354 N 
ATOM      4  C   UNL A   1      44.036  22.157  24.502  1.00  0.00     0.254 C 
ATOM      5  O   UNL A   1      43.833  22.911  23.547  1.00  0.00    -0.272 OA
ATOM      6  H   UNL A   1      42.074  21.927  24.699  1.00  0.00     0.163 HD
BRANCH   4   7
ATOM      7  C   UNL A   1      45.445  21.944  25.078  1.00  0.00     0.212 C 
ATOM      8  C   UNL A   1      46.388  22.892  24.304  1.00  0.00     0.056 C 
BRANCH   7   9
ATOM      9  N   UNL A   1      45.568  22.256  26.535  1.00  0.00    -0.329 N 
ATOM     10  C   UNL A   1      45.183  23.348  27.272  1.00  0.00     0.268 C 
ATOM     11  H   UNL A   1      46.006  21.549  27.063  1.00  0.00     0.165 HD
ATOM     12  O   UNL A   1      45.102  23.188  28.489  1.00  0.00    -0.268 OA
BRANCH  10  13
ATOM     13  C   UNL A   1      45.081  24.646  26.653  1.00  0.00     0.105 A 
ATOM     14  C   UNL A   1      46.008  25.677  26.761  1.00  0.00     0.049 A 
ATOM     15  N   UNL A   1      44.046  25.137  25.884  1.00  0.00    -0.356 N 
ATOM     16  C   UNL A   1      45.598  26.708  25.899  1.00  0.00     0.036 A 
ATOM     17  C   UNL A   1      44.390  26.360  25.361  1.00  0.00     0.098 A 
ATOM     18  H   UNL A   1      43.188  24.680  25.734  1.00  0.00     0.166 HD
ATOM     19  Br  UNL A   1      46.594  28.252  25.554  1.00  0.00    -0.049 Br
ENDBRANCH  10  13
ENDBRANCH   7   9
BRANCH   7  20
ATOM     20  C   UNL A   1      45.888  20.500  24.763  1.00  0.00     0.420 C 
ATOM     21  F   UNL A   1      45.137  19.900  23.816  1.00  0.00    -0.168 F 
ATOM     22  F   UNL A   1      47.165  20.507  24.291  1.00  0.00    -0.168 F 
ATOM     23  F   UNL A   1      45.894  19.710  25.863  1.00  0.00    -0.168 F 
ENDBRANCH   7  20
ENDBRANCH   4   7
ENDBRANCH   2   3
ENDBRANCH   1   2
BRANCH   1  24
ATOM     24  C   UNL A   1      40.503  21.434  27.048  1.00  0.00     0.118 C 
BRANCH  24  25
ATOM     25  N   UNL A   1      39.335  21.790  26.254  1.00  0.00    -0.352 N 
ATOM     26  C   UNL A   1      38.719  23.015  26.138  1.00  0.00     0.251 C 
ATOM     27  H   UNL A   1      38.933  21.058  25.732  1.00  0.00     0.163 HD
ATOM     28  O   UNL A   1      37.658  23.131  25.535  1.00  0.00    -0.269 OA
BRANCH  26  29
ATOM     29  C   UNL A   1      39.336  24.191  26.785  1.00  0.00     0.039 A 
ATOM     30  C   UNL A   1      40.091  25.075  26.013  1.00  0.00     0.014 A 
ATOM     31  C   UNL A   1      39.110  24.447  28.141  1.00  0.00     0.014 A 
ATOM     32  C   UNL A   1      40.551  26.264  26.583  1.00  0.00     0.010 A 
ATOM     33  C   UNL A   1      39.496  25.667  28.681  1.00  0.00     0.010 A 
ATOM     34  C   UNL A   1      40.217  26.589  27.908  1.00  0.00    -0.014 A 
BRANCH  34  35
ATOM     35  C   UNL A   1      40.612  27.886  28.511  1.00  0.00     0.031 A 
ATOM     36  C   UNL A   1      42.023  28.093  28.989  1.00  0.00     0.074 A 
ATOM     37  C   UNL A   1      39.686  28.846  28.706  1.00  0.00     0.049 A 
ATOM     38  N   UNL A   1      42.538  29.114  29.624  1.00  0.00    -0.248 NA
ATOM     39  C   UNL A   1      42.970  26.992  28.750  1.00  0.00     0.031 C 
ATOM     40  C   UNL A   1      38.271  28.752  28.338  1.00  0.00     0.029 A 
ATOM     41  N   UNL A   1      39.798  30.090  29.275  1.00  0.00    -0.354 N 
ATOM     42  C   UNL A   1      43.856  28.766  29.888  1.00  0.00     0.074 A 
ATOM     43  C   UNL A   1      44.050  27.424  29.384  1.00  0.00     0.031 C 
ATOM     44  C   UNL A   1      37.655  29.900  28.663  1.00  0.00     0.029 A 
ATOM     45  C   UNL A   1      38.619  30.795  29.293  1.00  0.00     0.049 A 
ATOM     46  H   UNL A   1      40.643  30.443  29.636  1.00  0.00     0.167 HD
ATOM     47  C   UNL A   1      44.825  29.502  30.479  1.00  0.00     0.031 A 
ATOM     48  C   UNL A   1      38.346  32.026  29.764  1.00  0.00     0.031 A 
ATOM     49  C   UNL A   1      44.646  30.849  30.950  1.00  0.00     0.049 A 
ATOM     50  C   UNL A   1      39.447  32.837  30.388  1.00  0.00     0.074 A 
ATOM     51  C   UNL A   1      45.586  31.702  31.500  1.00  0.00     0.029 A 
ATOM     52  N   UNL A   1      43.446  31.539  30.916  1.00  0.00    -0.354 N 
ATOM     53  N   UNL A   1      40.703  32.513  30.576  1.00  0.00    -0.248 NA
ATOM     54  C   UNL A   1      39.093  34.184  30.854  1.00  0.00     0.031 C 
ATOM     55  C   UNL A   1      44.945  32.902  31.828  1.00  0.00     0.029 A 
ATOM     56  C   UNL A   1      43.616  32.806  31.447  1.00  0.00     0.049 A 
ATOM     57  H   UNL A   1      42.598  31.182  30.566  1.00  0.00     0.167 HD
ATOM     58  C   UNL A   1      41.295  33.625  31.160  1.00  0.00     0.074 A 
ATOM     59  C   UNL A   1      40.264  34.635  31.283  1.00  0.00     0.031 C 
ATOM     60  C   UNL A   1      42.579  33.796  31.558  1.00  0.00     0.031 A 
BRANCH  47  61
ATOM     61  C   UNL A   1      46.171  28.857  30.645  1.00  0.00    -0.014 A 
ATOM     62  C   UNL A   1      47.142  28.936  29.634  1.00  0.00     0.009 A 
ATOM     63  C   UNL A   1      46.478  28.175  31.833  1.00  0.00     0.009 A 
ATOM     64  C   UNL A   1      48.380  28.309  29.793  1.00  0.00     0.001 A 
ATOM     65  C   UNL A   1      47.726  27.572  31.999  1.00  0.00     0.001 A 
ATOM     66  C   UNL A   1      48.672  27.632  30.976  1.00  0.00     0.000 A 
ENDBRANCH  47  61
BRANCH  48  67
ATOM     67  C   UNL A   1      36.976  32.583  29.639  1.00  0.00    -0.014 A 
ATOM     68  C   UNL A   1      36.602  33.285  28.483  1.00  0.00     0.009 A 
ATOM     69  C   UNL A   1      36.038  32.420  30.671  1.00  0.00     0.009 A 
ATOM     70  C   UNL A   1      35.322  33.834  28.372  1.00  0.00     0.001 A 
ATOM     71  C   UNL A   1      34.752  32.950  30.546  1.00  0.00     0.001 A 
ATOM     72  C   UNL A   1      34.397  33.663  29.401  1.00  0.00     0.000 A 
ENDBRANCH  48  67
BRANCH  60  73
ATOM     73  C   UNL A   1      42.945  35.132  32.133  1.00  0.00    -0.014 A 
ATOM     74  C   UNL A   1      43.566  36.114  31.346  1.00  0.00     0.009 A 
ATOM     75  C   UNL A   1      42.627  35.426  33.467  1.00  0.00     0.009 A 
ATOM     76  C   UNL A   1      43.886  37.357  31.895  1.00  0.00     0.001 A 
ATOM     77  C   UNL A   1      42.927  36.677  34.007  1.00  0.00     0.001 A 
ATOM     78  C   UNL A   1      43.563  37.638  33.222  1.00  0.00     0.000 A 
ENDBRANCH  60  73
ENDBRANCH  34  35
ENDBRANCH  26  29
ENDBRANCH  24  25
ENDBRANCH   1  24
TORSDOF 13
ENDMDL
MODEL 2
REMARK VINA RESULT:     -10.0      4.485      7.214
REMARK SMILES C[C@@](NC(=O)c1cc(Br)c[nH]1)(C(=O)NCCCNC(=O)c1ccc(-c2c3nc(c(-c4ccccc4)c4ccc([nH]4)c(-c4ccccc4)c4nc(c(-c5ccccc5)c5ccc2[nH]5)C=C4)C=C3)cc1)C(F)(F)F
REMARK SMILES IDX 16 1 15 2 14 3 12 4 13 5 2 7 1 8 3 9 4 10 5 12 6 13 7 14
REMARK SMILES IDX 11 15 8 16 10 17 9 19 69 20 70 21 71 22 72 23 17 24 18 25
REMARK SMILES IDX 19 26 20 28 21 29 22 30 68 31 23 32 67 33 24 34 25 35 26 36
REMARK SMILES IDX 61 37 27 38 66 39 60 40 62 41 28 42 65 43 59 44 58 45 29 47
REMARK SMILES IDX 51 48 36 49 50 50 37 51 40 52 49 53 63 54 38 55 39 56 48 58
REMARK SMILES IDX 64 59 41 60 30 61 31 62 35 63 32 64 34 65 33 66 52 67 53 68
REMARK SMILES IDX 57 69 54 70 56 71 55 72 42 73 43 74 47 75 44 76 46 77 45 78
REMARK H PARENT 14 6 3 11 11 18 18 27 62 46 40 57
REMARK Flexibility Score: inf
ROOT
ATOM      1  C   UNL A   1      37.805  20.139  24.981  1.00  0.00     0.042 C 
ENDROOT
BRANCH   1   2
ATOM      2  C   UNL A   1      36.808  21.278  24.852  1.00  0.00     0.117 C 
BRANCH   2   3
ATOM      3  N   UNL A   1      36.040  21.465  26.073  1.00  0.00    -0.354 N 
ATOM      4  C   UNL A   1      34.848  22.090  26.294  1.00  0.00     0.254 C 
ATOM      5  O   UNL A   1      34.427  22.054  27.453  1.00  0.00    -0.272 OA
ATOM      6  H   UNL A   1      36.450  21.073  26.878  1.00  0.00     0.163 HD
BRANCH   4   7
ATOM      7  C   UNL A   1      34.141  22.907  25.201  1.00  0.00     0.212 C 
ATOM      8  C   UNL A   1      34.711  22.424  23.848  1.00  0.00     0.056 C 
BRANCH   7   9
ATOM      9  N   UNL A   1      32.656  22.736  25.167  1.00  0.00    -0.329 N 
ATOM     10  C   UNL A   1      31.854  21.656  25.438  1.00  0.00     0.268 C 
ATOM     11  H   UNL A   1      32.164  23.546  24.900  1.00  0.00     0.165 HD
ATOM     12  O   UNL A   1      30.667  21.895  25.658  1.00  0.00    -0.268 OA
BRANCH  10  13
ATOM     13  C   UNL A   1      32.356  20.315  25.271  1.00  0.00     0.105 A 
ATOM     14  C   UNL A   1      32.435  19.617  24.070  1.00  0.00     0.049 A 
ATOM     15  N   UNL A   1      32.805  19.452  26.249  1.00  0.00    -0.356 N 
ATOM     16  C   UNL A   1      33.106  18.410  24.325  1.00  0.00     0.036 A 
ATOM     17  C   UNL A   1      33.334  18.322  25.671  1.00  0.00     0.098 A 
ATOM     18  H   UNL A   1      32.755  19.620  27.216  1.00  0.00     0.166 HD
ATOM     19  Br  UNL A   1      33.612  17.185  23.006  1.00  0.00    -0.049 Br
ENDBRANCH  10  13
ENDBRANCH   7   9
BRANCH   7  20
ATOM     20  C   UNL A   1      34.543  24.388  25.364  1.00  0.00     0.420 C 
ATOM     21  F   UNL A   1      34.321  25.131  24.258  1.00  0.00    -0.168 F 
ATOM     22  F   UNL A   1      33.807  24.955  26.359  1.00  0.00    -0.168 F 
ATOM     23  F   UNL A   1      35.841  24.535  25.719  1.00  0.00    -0.168 F 
ENDBRANCH   7  20
ENDBRANCH   4   7
ENDBRANCH   2   3
ENDBRANCH   1   2
BRANCH   1  24
ATOM     24  C   UNL A   1      39.024  20.482  25.827  1.00  0.00     0.118 C 
BRANCH  24  25
ATOM     25  N   UNL A   1      40.052  19.450  25.809  1.00  0.00    -0.352 N 
ATOM     26  C   UNL A   1      41.392  19.571  26.095  1.00  0.00     0.251 C 
ATOM     27  H   UNL A   1      39.747  18.547  25.560  1.00  0.00     0.163 HD
ATOM     28  O   UNL A   1      42.163  18.637  25.904  1.00  0.00    -0.269 OA
BRANCH  26  29
ATOM     29  C   UNL A   1      41.903  20.861  26.603  1.00  0.00     0.039 A 
ATOM     30  C   UNL A   1      42.336  21.828  25.694  1.00  0.00     0.014 A 
ATOM     31  C   UNL A   1      41.891  21.131  27.974  1.00  0.00     0.014 A 
ATOM     32  C   UNL A   1      42.677  23.100  26.155  1.00  0.00     0.010 A 
ATOM     33  C   UNL A   1      42.150  22.420  28.421  1.00  0.00     0.010 A 
ATOM     34  C   UNL A   1      42.544  23.418  27.517  1.00  0.00    -0.014 A 
BRANCH  34  35
ATOM     35  C   UNL A   1      42.810  24.788  28.023  1.00  0.00     0.031 A 
ATOM     36  C   UNL A   1      44.203  25.178  28.434  1.00  0.00     0.074 A 
ATOM     37  C   UNL A   1      41.790  25.652  28.192  1.00  0.00     0.049 A 
ATOM     38  N   UNL A   1      44.620  26.289  28.986  1.00  0.00    -0.248 NA
ATOM     39  C   UNL A   1      45.258  24.173  28.230  1.00  0.00     0.031 C 
ATOM     40  C   UNL A   1      40.384  25.381  27.882  1.00  0.00     0.029 A 
ATOM     41  N   UNL A   1      41.780  26.935  28.677  1.00  0.00    -0.354 N 
ATOM     42  C   UNL A   1      45.976  26.104  29.222  1.00  0.00     0.074 A 
ATOM     43  C   UNL A   1      46.302  24.760  28.796  1.00  0.00     0.031 C 
ATOM     44  C   UNL A   1      39.654  26.474  28.157  1.00  0.00     0.029 A 
ATOM     45  C   UNL A   1      40.531  27.508  28.694  1.00  0.00     0.049 A 
ATOM     46  H   UNL A   1      42.591  27.401  28.984  1.00  0.00     0.167 HD
ATOM     47  C   UNL A   1      46.875  26.978  29.730  1.00  0.00     0.031 A 
ATOM     48  C   UNL A   1      40.138  28.731  29.097  1.00  0.00     0.031 A 
ATOM     49  C   UNL A   1      46.562  28.325  30.122  1.00  0.00     0.049 A 
ATOM     50  C   UNL A   1      41.160  29.696  29.628  1.00  0.00     0.074 A 
ATOM     51  C   UNL A   1      47.417  29.310  30.583  1.00  0.00     0.029 A 
ATOM     52  N   UNL A   1      45.292  28.878  30.089  1.00  0.00    -0.354 N 
ATOM     53  N   UNL A   1      42.450  29.524  29.790  1.00  0.00    -0.248 NA
ATOM     54  C   UNL A   1      40.673  31.025  30.022  1.00  0.00     0.031 C 
ATOM     55  C   UNL A   1      46.658  30.453  30.859  1.00  0.00     0.029 A 
ATOM     56  C   UNL A   1      45.337  30.188  30.533  1.00  0.00     0.049 A 
ATOM     57  H   UNL A   1      44.479  28.408  29.794  1.00  0.00     0.167 HD
ATOM     58  C   UNL A   1      42.932  30.730  30.281  1.00  0.00     0.074 A 
ATOM     59  C   UNL A   1      41.799  31.628  30.379  1.00  0.00     0.031 C 
ATOM     60  C   UNL A   1      44.200  31.064  30.620  1.00  0.00     0.031 A 
BRANCH  47  61
ATOM     61  C   UNL A   1      48.288  26.495  29.886  1.00  0.00    -0.014 A 
ATOM     62  C   UNL A   1      49.237  26.690  28.870  1.00  0.00     0.009 A 
ATOM     63  C   UNL A   1      48.680  25.851  31.070  1.00  0.00     0.009 A 
ATOM     64  C   UNL A   1      50.541  26.213  29.020  1.00  0.00     0.001 A 
ATOM     65  C   UNL A   1      49.992  25.399  31.228  1.00  0.00     0.001 A 
ATOM     66  C   UNL A   1      50.917  25.571  30.200  1.00  0.00     0.000 A 
ENDBRANCH  47  61
BRANCH  48  67
ATOM     67  C   UNL A   1      38.711  29.127  28.988  1.00  0.00    -0.014 A 
ATOM     68  C   UNL A   1      37.860  29.011  30.098  1.00  0.00     0.009 A 
ATOM     69  C   UNL A   1      38.193  29.618  27.780  1.00  0.00     0.009 A 
ATOM     70  C   UNL A   1      36.511  29.358  29.993  1.00  0.00     0.001 A 
ATOM     71  C   UNL A   1      36.849  29.986  27.685  1.00  0.00     0.001 A 
ATOM     72  C   UNL A   1      36.007  29.848  28.789  1.00  0.00     0.000 A 
ENDBRANCH  48  67
BRANCH  60  73
ATOM     73  C   UNL A   1      44.433  32.468  31.097  1.00  0.00    -0.014 A 
ATOM     74  C   UNL A   1      44.717  33.502  30.192  1.00  0.00     0.009 A 
ATOM     75  C   UNL A   1      44.325  32.764  32.463  1.00  0.00     0.009 A 
ATOM     76  C   UNL A   1      44.916  34.804  30.654  1.00  0.00     0.001 A 
ATOM     77  C   UNL A   1      44.503  34.071  32.919  1.00  0.00     0.001 A 
ATOM     78  C   UNL A   1      44.805  35.088  32.015  1.00  0.00     0.000 A 
ENDBRANCH  60  73
ENDBRANCH  34  35
ENDBRANCH  26  29
ENDBRANCH  24  25
ENDBRANCH   1  24
TORSDOF 13
ENDMDL
MODEL 3
REMARK VINA RESULT:      -9.9      4.240      6.823
REMARK SMILES C[C@@](NC(=O)c1cc(Br)c[nH]1)(C(=O)NCCCNC(=O)c1ccc(-c2c3nc(c(-c4ccccc4)c4ccc([nH]4)c(-c4ccccc4)c4nc(c(-c5ccccc5)c5ccc2[nH]5)C=C4)C=C3)cc1)C(F)(F)F
REMARK SMILES IDX 16 1 15 2 14 3 12 4 13 5 2 7 1 8 3 9 4 10 5 12 6 13 7 14
REMARK SMILES IDX 11 15 8 16 10 17 9 19 69 20 70 21 71 22 72 23 17 24 18 25
REMARK SMILES IDX 19 26 20 28 21 29 22 30 68 31 23 32 67 33 24 34 25 35 26 36
REMARK SMILES IDX 61 37 27 38 66 39 60 40 62 41 28 42 65 43 59 44 58 45 29 47
REMARK SMILES IDX 51 48 36 49 50 50 37 51 40 52 49 53 63 54 38 55 39 56 48 58
REMARK SMILES IDX 64 59 41 60 30 61 31 62 35 63 32 64 34 65 33 66 52 67 53 68
REMARK SMILES IDX 57 69 54 70 56 71 55 72 42 73 43 74 47 75 44 76 46 77 45 78
REMARK H PARENT 14 6 3 11 11 18 18 27 62 46 40 57
REMARK Flexibility Score: inf
ROOT
ATOM      1  C   UNL A   1      37.596  20.151  24.999  1.00  0.00     0.042 C 
ENDROOT
BRANCH   1   2
ATOM      2  C   UNL A   1      36.641  21.310  24.767  1.00  0.00     0.117 C 
BRANCH   2   3
ATOM      3  N   UNL A   1      35.940  21.685  25.985  1.00  0.00    -0.354 N 
ATOM      4  C   UNL A   1      34.610  21.689  26.287  1.00  0.00     0.254 C 
ATOM      5  O   UNL A   1      34.318  22.034  27.434  1.00  0.00    -0.272 OA
ATOM      6  H   UNL A   1      36.525  21.987  26.717  1.00  0.00     0.163 HD
BRANCH   4   7
ATOM      7  C   UNL A   1      33.532  21.418  25.225  1.00  0.00     0.212 C 
ATOM      8  C   UNL A   1      32.234  22.087  25.731  1.00  0.00     0.056 C 
BRANCH   7   9
ATOM      9  N   UNL A   1      33.845  21.975  23.873  1.00  0.00    -0.329 N 
ATOM     10  C   UNL A   1      34.073  23.258  23.444  1.00  0.00     0.268 C 
ATOM     11  H   UNL A   1      33.897  21.297  23.161  1.00  0.00     0.165 HD
ATOM     12  O   UNL A   1      34.637  23.382  22.358  1.00  0.00    -0.268 OA
BRANCH  10  13
ATOM     13  C   UNL A   1      33.494  24.376  24.148  1.00  0.00     0.105 A 
ATOM     14  C   UNL A   1      34.150  25.192  25.063  1.00  0.00     0.049 A 
ATOM     15  N   UNL A   1      32.191  24.825  24.096  1.00  0.00    -0.356 N 
ATOM     16  C   UNL A   1      33.274  26.235  25.406  1.00  0.00     0.036 A 
ATOM     17  C   UNL A   1      32.071  26.000  24.799  1.00  0.00     0.098 A 
ATOM     18  H   UNL A   1      31.455  24.371  23.627  1.00  0.00     0.166 HD
ATOM     19  Br  UNL A   1      33.738  27.693  26.481  1.00  0.00    -0.049 Br
ENDBRANCH  10  13
ENDBRANCH   7   9
BRANCH   7  20
ATOM     20  C   UNL A   1      33.272  19.898  25.171  1.00  0.00     0.420 C 
ATOM     21  F   UNL A   1      33.035  19.348  26.381  1.00  0.00    -0.168 F 
ATOM     22  F   UNL A   1      32.167  19.650  24.416  1.00  0.00    -0.168 F 
ATOM     23  F   UNL A   1      34.290  19.220  24.590  1.00  0.00    -0.168 F 
ENDBRANCH   7  20
ENDBRANCH   4   7
ENDBRANCH   2   3
ENDBRANCH   1   2
BRANCH   1  24
ATOM     24  C   UNL A   1      38.875  20.544  25.728  1.00  0.00     0.118 C 
BRANCH  24  25
ATOM     25  N   UNL A   1      39.883  19.494  25.738  1.00  0.00    -0.352 N 
ATOM     26  C   UNL A   1      41.216  19.589  26.066  1.00  0.00     0.251 C 
ATOM     27  H   UNL A   1      39.570  18.598  25.475  1.00  0.00     0.163 HD
ATOM     28  O   UNL A   1      41.975  18.642  25.895  1.00  0.00    -0.269 OA
BRANCH  26  29
ATOM     29  C   UNL A   1      41.734  20.867  26.595  1.00  0.00     0.039 A 
ATOM     30  C   UNL A   1      42.244  21.815  25.707  1.00  0.00     0.014 A 
ATOM     31  C   UNL A   1      41.652  21.147  27.963  1.00  0.00     0.014 A 
ATOM     32  C   UNL A   1      42.596  23.081  26.181  1.00  0.00     0.010 A 
ATOM     33  C   UNL A   1      41.923  22.431  28.417  1.00  0.00     0.010 A 
ATOM     34  C   UNL A   1      42.395  23.412  27.531  1.00  0.00    -0.014 A 
BRANCH  34  35
ATOM     35  C   UNL A   1      42.671  24.777  28.044  1.00  0.00     0.031 A 
ATOM     36  C   UNL A   1      44.064  25.150  28.471  1.00  0.00     0.074 A 
ATOM     37  C   UNL A   1      41.659  25.651  28.206  1.00  0.00     0.049 A 
ATOM     38  N   UNL A   1      44.488  26.254  29.030  1.00  0.00    -0.248 NA
ATOM     39  C   UNL A   1      45.111  24.134  28.274  1.00  0.00     0.031 C 
ATOM     40  C   UNL A   1      40.253  25.397  27.881  1.00  0.00     0.029 A 
ATOM     41  N   UNL A   1      41.658  26.934  28.696  1.00  0.00    -0.354 N 
ATOM     42  C   UNL A   1      45.840  26.053  29.279  1.00  0.00     0.074 A 
ATOM     43  C   UNL A   1      46.155  24.707  28.852  1.00  0.00     0.031 C 
ATOM     44  C   UNL A   1      39.533  26.498  28.152  1.00  0.00     0.029 A 
ATOM     45  C   UNL A   1      40.416  27.520  28.701  1.00  0.00     0.049 A 
ATOM     46  H   UNL A   1      42.472  27.389  29.012  1.00  0.00     0.167 HD
ATOM     47  C   UNL A   1      46.743  26.916  29.799  1.00  0.00     0.031 A 
ATOM     48  C   UNL A   1      40.033  28.746  29.105  1.00  0.00     0.031 A 
ATOM     49  C   UNL A   1      46.442  28.265  30.192  1.00  0.00     0.049 A 
ATOM     50  C   UNL A   1      41.061  29.697  29.650  1.00  0.00     0.074 A 
ATOM     51  C   UNL A   1      47.303  29.239  30.665  1.00  0.00     0.029 A 
ATOM     52  N   UNL A   1      45.178  28.832  30.148  1.00  0.00    -0.354 N 
ATOM     53  N   UNL A   1      42.346  29.511  29.824  1.00  0.00    -0.248 NA
ATOM     54  C   UNL A   1      40.584  31.031  30.043  1.00  0.00     0.031 C 
ATOM     55  C   UNL A   1      46.554  30.389  30.937  1.00  0.00     0.029 A 
ATOM     56  C   UNL A   1      45.233  30.140  30.597  1.00  0.00     0.049 A 
ATOM     57  H   UNL A   1      44.363  28.372  29.844  1.00  0.00     0.167 HD
ATOM     58  C   UNL A   1      42.837  30.709  30.323  1.00  0.00     0.074 A 
ATOM     59  C   UNL A   1      41.713  31.620  30.413  1.00  0.00     0.031 C 
ATOM     60  C   UNL A   1      44.105  31.029  30.676  1.00  0.00     0.031 A 
BRANCH  47  61
ATOM     61  C   UNL A   1      48.150  26.417  29.968  1.00  0.00    -0.014 A 
ATOM     62  C   UNL A   1      49.094  26.548  28.937  1.00  0.00     0.009 A 
ATOM     63  C   UNL A   1      48.540  25.821  31.177  1.00  0.00     0.009 A 
ATOM     64  C   UNL A   1      50.391  26.057  29.100  1.00  0.00     0.001 A 
ATOM     65  C   UNL A   1      49.845  25.355  31.347  1.00  0.00     0.001 A 
ATOM     66  C   UNL A   1      50.765  25.464  30.305  1.00  0.00     0.000 A 
ENDBRANCH  47  61
BRANCH  48  67
ATOM     67  C   UNL A   1      38.612  29.158  28.983  1.00  0.00    -0.014 A 
ATOM     68  C   UNL A   1      38.127  29.671  27.770  1.00  0.00     0.009 A 
ATOM     69  C   UNL A   1      37.736  29.044  30.073  1.00  0.00     0.009 A 
ATOM     70  C   UNL A   1      36.798  30.084  27.659  1.00  0.00     0.001 A 
ATOM     71  C   UNL A   1      36.401  29.436  29.951  1.00  0.00     0.001 A 
ATOM     72  C   UNL A   1      35.935  29.963  28.746  1.00  0.00     0.000 A 
ENDBRANCH  48  67
BRANCH  60  73
ATOM     73  C   UNL A   1      44.349  32.428  31.160  1.00  0.00    -0.014 A 
ATOM     74  C   UNL A   1      44.258  32.749  32.523  1.00  0.00     0.009 A 
ATOM     75  C   UNL A   1      44.712  33.426  30.244  1.00  0.00     0.009 A 
ATOM     76  C   UNL A   1      44.502  34.054  32.955  1.00  0.00     0.001 A 
ATOM     77  C   UNL A   1      44.977  34.724  30.682  1.00  0.00     0.001 A 
ATOM     78  C   UNL A   1      44.865  35.039  32.036  1.00  0.00     0.000 A 
ENDBRANCH  60  73
ENDBRANCH  34  35
ENDBRANCH  26  29
ENDBRANCH  24  25
ENDBRANCH   1  24
TORSDOF 13
ENDMDL
