MODEL 1
REMARK VINA RESULT:     -11.1      0.000      0.000
REMARK SMILES COc1ccccc1-n1c(C)nnc1SCC(=O)NCCCNC(=O)c1ccc(-c2c3nc(c(-c4ccccc4)c4ccc([nH]4)c(-c4ccccc4)c4nc(c(-c5ccccc5)c5ccc2[nH]5)C=C4)C=C3)cc1
REMARK SMILES IDX 20 1 19 2 17 3 18 4 16 6 15 7 14 8 9 9 10 10 11 11 12 12
REMARK SMILES IDX 13 13 8 14 3 15 4 16 5 17 7 18 6 19 2 20 1 21 21 22 22 23
REMARK SMILES IDX 23 24 24 25 25 27 26 28 27 29 73 30 28 31 72 32 29 33 30 34
REMARK SMILES IDX 31 35 66 36 32 37 71 38 65 39 67 40 33 41 70 42 64 43 63 44
REMARK SMILES IDX 34 46 56 47 41 48 55 49 42 50 45 51 54 52 68 53 43 54 44 55
REMARK SMILES IDX 53 57 69 58 46 59 35 60 36 61 40 62 37 63 39 64 38 65 57 66
REMARK SMILES IDX 58 67 62 68 59 69 61 70 60 71 47 72 48 73 52 74 49 75 51 76
REMARK SMILES IDX 50 77
REMARK H PARENT 19 5 23 26 67 45 45 56
REMARK Flexibility Score: inf
ROOT
ATOM      1  C   UNL A   1      32.781  30.856  26.898  1.00  0.00     0.117 C 
ENDROOT
BRANCH   1   2
ATOM      2  N   UNL A   1      31.837  29.796  27.220  1.00  0.00    -0.355 N 
ATOM      3  C   UNL A   1      31.984  28.443  27.144  1.00  0.00     0.230 C 
ATOM      4  O   UNL A   1      31.367  27.782  27.988  1.00  0.00    -0.274 OA
ATOM      5  H   UNL A   1      30.958  30.103  27.541  1.00  0.00     0.163 HD
BRANCH   3   6
ATOM      6  C   UNL A   1      32.922  27.742  26.174  1.00  0.00     0.178 C 
BRANCH   6   7
ATOM      7  S   UNL A   1      32.231  26.367  25.265  1.00  0.00    -0.076 SA
BRANCH   7   8
ATOM      8  C   UNL A   1      32.312  24.867  26.117  1.00  0.00     0.196 A 
ATOM      9  N   UNL A   1      33.230  23.835  26.099  1.00  0.00    -0.270 N 
ATOM     10  C   UNL A   1      32.786  22.937  27.063  1.00  0.00     0.135 A 
ATOM     11  C   UNL A   1      33.505  21.718  27.515  1.00  0.00     0.090 C 
ATOM     12  N   UNL A   1      31.674  23.390  27.599  1.00  0.00    -0.134 NA
ATOM     13  N   UNL A   1      31.383  24.588  27.010  1.00  0.00    -0.123 NA
BRANCH   9  14
ATOM     14  C   UNL A   1      34.367  23.634  25.311  1.00  0.00     0.091 A 
ATOM     15  C   UNL A   1      34.304  23.180  23.992  1.00  0.00     0.142 A 
ATOM     16  C   UNL A   1      35.518  22.960  23.327  1.00  0.00     0.048 A 
ATOM     17  C   UNL A   1      36.750  23.198  23.949  1.00  0.00     0.004 A 
ATOM     18  C   UNL A   1      35.601  23.919  25.930  1.00  0.00     0.031 A 
ATOM     19  C   UNL A   1      36.792  23.686  25.249  1.00  0.00     0.002 A 
BRANCH  15  20
ATOM     20  O   UNL A   1      33.208  22.770  23.290  1.00  0.00    -0.495 OA
ATOM     21  C   UNL A   1      33.152  22.973  21.888  1.00  0.00     0.278 C 
ENDBRANCH  15  20
ENDBRANCH   9  14
ENDBRANCH   7   8
ENDBRANCH   6   7
ENDBRANCH   3   6
ENDBRANCH   1   2
BRANCH   1  22
ATOM     22  C   UNL A   1      34.078  30.843  27.710  1.00  0.00     0.042 C 
BRANCH  22  23
ATOM     23  C   UNL A   1      34.686  32.217  27.935  1.00  0.00     0.118 C 
BRANCH  23  24
ATOM     24  N   UNL A   1      34.607  32.719  29.304  1.00  0.00    -0.352 N 
ATOM     25  C   UNL A   1      35.333  32.295  30.403  1.00  0.00     0.251 C 
ATOM     26  H   UNL A   1      33.960  33.443  29.464  1.00  0.00     0.163 HD
ATOM     27  O   UNL A   1      34.992  32.620  31.539  1.00  0.00    -0.269 OA
BRANCH  25  28
ATOM     28  C   UNL A   1      36.515  31.427  30.209  1.00  0.00     0.039 A 
ATOM     29  C   UNL A   1      37.769  31.966  29.912  1.00  0.00     0.014 A 
ATOM     30  C   UNL A   1      36.366  30.049  30.342  1.00  0.00     0.014 A 
ATOM     31  C   UNL A   1      38.872  31.115  29.840  1.00  0.00     0.010 A 
ATOM     32  C   UNL A   1      37.469  29.237  30.440  1.00  0.00     0.010 A 
ATOM     33  C   UNL A   1      38.718  29.749  30.130  1.00  0.00    -0.014 A 
BRANCH  33  34
ATOM     34  C   UNL A   1      39.871  28.858  30.186  1.00  0.00     0.031 A 
ATOM     35  C   UNL A   1      40.416  28.640  31.547  1.00  0.00     0.074 A 
ATOM     36  C   UNL A   1      40.324  28.126  29.146  1.00  0.00     0.049 A 
ATOM     37  N   UNL A   1      41.478  29.169  32.050  1.00  0.00    -0.248 NA
ATOM     38  C   UNL A   1      39.627  27.848  32.503  1.00  0.00     0.031 C 
ATOM     39  C   UNL A   1      39.697  27.936  27.830  1.00  0.00     0.029 A 
ATOM     40  N   UNL A   1      41.412  27.305  29.080  1.00  0.00    -0.354 N 
ATOM     41  C   UNL A   1      41.625  28.595  33.307  1.00  0.00     0.074 A 
ATOM     42  C   UNL A   1      40.370  27.955  33.609  1.00  0.00     0.031 C 
ATOM     43  C   UNL A   1      40.274  26.890  27.198  1.00  0.00     0.029 A 
ATOM     44  C   UNL A   1      41.435  26.481  27.964  1.00  0.00     0.049 A 
ATOM     45  H   UNL A   1      42.119  27.298  29.765  1.00  0.00     0.167 HD
ATOM     46  C   UNL A   1      42.864  28.430  33.850  1.00  0.00     0.031 A 
ATOM     47  C   UNL A   1      42.355  25.536  27.668  1.00  0.00     0.031 A 
ATOM     48  C   UNL A   1      43.867  29.109  33.069  1.00  0.00     0.049 A 
ATOM     49  C   UNL A   1      43.599  25.879  28.384  1.00  0.00     0.074 A 
ATOM     50  C   UNL A   1      44.306  30.398  32.874  1.00  0.00     0.029 A 
ATOM     51  N   UNL A   1      44.336  28.353  32.026  1.00  0.00    -0.354 N 
ATOM     52  N   UNL A   1      44.299  26.947  28.124  1.00  0.00    -0.248 NA
ATOM     53  C   UNL A   1      43.925  25.207  29.636  1.00  0.00     0.031 C 
ATOM     54  C   UNL A   1      44.902  30.421  31.576  1.00  0.00     0.029 A 
ATOM     55  C   UNL A   1      44.845  29.140  31.029  1.00  0.00     0.049 A 
ATOM     56  H   UNL A   1      44.310  27.370  31.997  1.00  0.00     0.167 HD
ATOM     57  C   UNL A   1      44.817  27.320  29.348  1.00  0.00     0.074 A 
ATOM     58  C   UNL A   1      44.721  26.129  30.183  1.00  0.00     0.031 C 
ATOM     59  C   UNL A   1      44.967  28.633  29.677  1.00  0.00     0.031 A 
BRANCH  46  60
ATOM     60  C   UNL A   1      43.265  27.262  34.725  1.00  0.00    -0.014 A 
ATOM     61  C   UNL A   1      43.426  26.002  34.117  1.00  0.00     0.009 A 
ATOM     62  C   UNL A   1      43.185  27.277  36.130  1.00  0.00     0.009 A 
ATOM     63  C   UNL A   1      43.442  24.820  34.870  1.00  0.00     0.001 A 
ATOM     64  C   UNL A   1      43.236  26.102  36.887  1.00  0.00     0.001 A 
ATOM     65  C   UNL A   1      43.339  24.871  36.255  1.00  0.00     0.000 A 
ENDBRANCH  46  60
BRANCH  47  66
ATOM     66  C   UNL A   1      42.185  24.254  26.959  1.00  0.00    -0.014 A 
ATOM     67  C   UNL A   1      42.918  23.977  25.795  1.00  0.00     0.009 A 
ATOM     68  C   UNL A   1      41.527  23.186  27.595  1.00  0.00     0.009 A 
ATOM     69  C   UNL A   1      43.041  22.666  25.320  1.00  0.00     0.001 A 
ATOM     70  C   UNL A   1      41.650  21.877  27.119  1.00  0.00     0.001 A 
ATOM     71  C   UNL A   1      42.424  21.615  25.994  1.00  0.00     0.000 A 
ENDBRANCH  47  66
BRANCH  59  72
ATOM     72  C   UNL A   1      45.078  29.627  28.556  1.00  0.00    -0.014 A 
ATOM     73  C   UNL A   1      46.283  29.946  27.910  1.00  0.00     0.009 A 
ATOM     74  C   UNL A   1      43.893  30.219  28.096  1.00  0.00     0.009 A 
ATOM     75  C   UNL A   1      46.299  30.855  26.846  1.00  0.00     0.001 A 
ATOM     76  C   UNL A   1      43.907  31.110  27.022  1.00  0.00     0.001 A 
ATOM     77  C   UNL A   1      45.110  31.433  26.401  1.00  0.00     0.000 A 
ENDBRANCH  59  72
ENDBRANCH  33  34
ENDBRANCH  25  28
ENDBRANCH  23  24
ENDBRANCH  22  23
ENDBRANCH   1  22
TORSDOF 14
ENDMDL
MODEL 2
REMARK VINA RESULT:     -10.9      2.621      8.128
REMARK SMILES COc1ccccc1-n1c(C)nnc1SCC(=O)NCCCNC(=O)c1ccc(-c2c3nc(c(-c4ccccc4)c4ccc([nH]4)c(-c4ccccc4)c4nc(c(-c5ccccc5)c5ccc2[nH]5)C=C4)C=C3)cc1
REMARK SMILES IDX 20 1 19 2 17 3 18 4 16 6 15 7 14 8 9 9 10 10 11 11 12 12
REMARK SMILES IDX 13 13 8 14 3 15 4 16 5 17 7 18 6 19 2 20 1 21 21 22 22 23
REMARK SMILES IDX 23 24 24 25 25 27 26 28 27 29 73 30 28 31 72 32 29 33 30 34
REMARK SMILES IDX 31 35 66 36 32 37 71 38 65 39 67 40 33 41 70 42 64 43 63 44
REMARK SMILES IDX 34 46 56 47 41 48 55 49 42 50 45 51 54 52 68 53 43 54 44 55
REMARK SMILES IDX 53 57 69 58 46 59 35 60 36 61 40 62 37 63 39 64 38 65 57 66
REMARK SMILES IDX 58 67 62 68 59 69 61 70 60 71 47 72 48 73 52 74 49 75 51 76
REMARK SMILES IDX 50 77
REMARK H PARENT 19 5 23 26 67 45 45 56
REMARK Flexibility Score: inf
ROOT
ATOM      1  C   UNL A   1      37.895  22.419  25.660  1.00  0.00     0.117 C 
ENDROOT
BRANCH   1   2
ATOM      2  N   UNL A   1      37.549  22.291  24.253  1.00  0.00    -0.355 N 
ATOM      3  C   UNL A   1      36.408  22.648  23.598  1.00  0.00     0.230 C 
ATOM      4  O   UNL A   1      36.548  23.018  22.426  1.00  0.00    -0.274 OA
ATOM      5  H   UNL A   1      38.245  21.884  23.687  1.00  0.00     0.163 HD
BRANCH   3   6
ATOM      6  C   UNL A   1      35.037  22.715  24.252  1.00  0.00     0.178 C 
BRANCH   6   7
ATOM      7  S   UNL A   1      34.612  24.263  25.037  1.00  0.00    -0.076 SA
BRANCH   7   8
ATOM      8  C   UNL A   1      34.011  25.451  23.937  1.00  0.00     0.196 A 
ATOM      9  N   UNL A   1      33.451  26.699  24.129  1.00  0.00    -0.270 N 
ATOM     10  C   UNL A   1      33.241  27.204  22.852  1.00  0.00     0.135 A 
ATOM     11  C   UNL A   1      32.772  28.575  22.524  1.00  0.00     0.090 C 
ATOM     12  N   UNL A   1      33.625  26.314  21.964  1.00  0.00    -0.134 NA
ATOM     13  N   UNL A   1      34.104  25.227  22.640  1.00  0.00    -0.123 NA
BRANCH   9  14
ATOM     14  C   UNL A   1      33.112  27.379  25.303  1.00  0.00     0.091 A 
ATOM     15  C   UNL A   1      31.836  27.324  25.869  1.00  0.00     0.142 A 
ATOM     16  C   UNL A   1      31.605  28.099  27.013  1.00  0.00     0.048 A 
ATOM     17  C   UNL A   1      32.610  28.890  27.582  1.00  0.00     0.004 A 
ATOM     18  C   UNL A   1      34.143  28.137  25.893  1.00  0.00     0.031 A 
ATOM     19  C   UNL A   1      33.884  28.903  27.026  1.00  0.00     0.002 A 
BRANCH  15  20
ATOM     20  O   UNL A   1      30.716  26.723  25.372  1.00  0.00    -0.495 OA
ATOM     21  C   UNL A   1      30.387  25.403  25.774  1.00  0.00     0.278 C 
ENDBRANCH  15  20
ENDBRANCH   9  14
ENDBRANCH   7   8
ENDBRANCH   6   7
ENDBRANCH   3   6
ENDBRANCH   1   2
BRANCH   1  22
ATOM     22  C   UNL A   1      39.030  21.509  26.139  1.00  0.00     0.042 C 
BRANCH  22  23
ATOM     23  C   UNL A   1      40.064  22.208  27.005  1.00  0.00     0.118 C 
BRANCH  23  24
ATOM     24  N   UNL A   1      41.454  21.855  26.727  1.00  0.00    -0.352 N 
ATOM     25  C   UNL A   1      42.527  22.711  26.559  1.00  0.00     0.251 C 
ATOM     26  H   UNL A   1      41.649  20.893  26.649  1.00  0.00     0.163 HD
ATOM     27  O   UNL A   1      43.583  22.302  26.081  1.00  0.00    -0.269 OA
BRANCH  25  28
ATOM     28  C   UNL A   1      42.393  24.135  26.939  1.00  0.00     0.039 A 
ATOM     29  C   UNL A   1      41.830  25.068  26.064  1.00  0.00     0.014 A 
ATOM     30  C   UNL A   1      42.822  24.538  28.200  1.00  0.00     0.014 A 
ATOM     31  C   UNL A   1      41.630  26.376  26.506  1.00  0.00     0.010 A 
ATOM     32  C   UNL A   1      42.473  25.771  28.692  1.00  0.00     0.010 A 
ATOM     33  C   UNL A   1      41.933  26.716  27.835  1.00  0.00    -0.014 A 
BRANCH  33  34
ATOM     34  C   UNL A   1      41.619  28.039  28.362  1.00  0.00     0.031 A 
ATOM     35  C   UNL A   1      42.602  29.091  28.009  1.00  0.00     0.074 A 
ATOM     36  C   UNL A   1      40.455  28.368  28.962  1.00  0.00     0.049 A 
ATOM     37  N   UNL A   1      43.509  29.592  28.777  1.00  0.00    -0.248 NA
ATOM     38  C   UNL A   1      42.674  29.549  26.614  1.00  0.00     0.031 C 
ATOM     39  C   UNL A   1      39.232  27.560  29.073  1.00  0.00     0.029 A 
ATOM     40  N   UNL A   1      40.083  29.553  29.527  1.00  0.00    -0.354 N 
ATOM     41  C   UNL A   1      44.116  30.598  28.035  1.00  0.00     0.074 A 
ATOM     42  C   UNL A   1      43.707  30.395  26.668  1.00  0.00     0.031 C 
ATOM     43  C   UNL A   1      38.199  28.348  29.444  1.00  0.00     0.029 A 
ATOM     44  C   UNL A   1      38.726  29.652  29.799  1.00  0.00     0.049 A 
ATOM     45  H   UNL A   1      40.722  30.276  29.723  1.00  0.00     0.167 HD
ATOM     46  C   UNL A   1      44.644  31.689  28.656  1.00  0.00     0.031 A 
ATOM     47  C   UNL A   1      38.071  30.722  30.303  1.00  0.00     0.031 A 
ATOM     48  C   UNL A   1      44.670  31.511  30.086  1.00  0.00     0.049 A 
ATOM     49  C   UNL A   1      39.054  31.547  31.032  1.00  0.00     0.074 A 
ATOM     50  C   UNL A   1      45.422  30.826  31.013  1.00  0.00     0.029 A 
ATOM     51  N   UNL A   1      43.493  31.864  30.692  1.00  0.00    -0.354 N 
ATOM     52  N   UNL A   1      39.663  31.142  32.110  1.00  0.00    -0.248 NA
ATOM     53  C   UNL A   1      39.627  32.726  30.395  1.00  0.00     0.031 C 
ATOM     54  C   UNL A   1      44.570  30.624  32.141  1.00  0.00     0.029 A 
ATOM     55  C   UNL A   1      43.336  31.222  31.890  1.00  0.00     0.049 A 
ATOM     56  H   UNL A   1      42.843  32.499  30.314  1.00  0.00     0.167 HD
ATOM     57  C   UNL A   1      40.913  31.722  32.032  1.00  0.00     0.074 A 
ATOM     58  C   UNL A   1      40.768  32.818  31.082  1.00  0.00     0.031 C 
ATOM     59  C   UNL A   1      42.021  31.067  32.478  1.00  0.00     0.031 A 
BRANCH  46  60
ATOM     60  C   UNL A   1      44.634  33.089  28.079  1.00  0.00    -0.014 A 
ATOM     61  C   UNL A   1      43.518  33.907  28.344  1.00  0.00     0.009 A 
ATOM     62  C   UNL A   1      45.499  33.517  27.056  1.00  0.00     0.009 A 
ATOM     63  C   UNL A   1      43.252  35.053  27.584  1.00  0.00     0.001 A 
ATOM     64  C   UNL A   1      45.255  34.681  26.318  1.00  0.00     0.001 A 
ATOM     65  C   UNL A   1      44.117  35.435  26.566  1.00  0.00     0.000 A 
ENDBRANCH  46  60
BRANCH  47  66
ATOM     66  C   UNL A   1      36.695  31.182  30.046  1.00  0.00    -0.014 A 
ATOM     67  C   UNL A   1      35.924  31.746  31.074  1.00  0.00     0.009 A 
ATOM     68  C   UNL A   1      36.248  31.344  28.721  1.00  0.00     0.009 A 
ATOM     69  C   UNL A   1      34.781  32.501  30.783  1.00  0.00     0.001 A 
ATOM     70  C   UNL A   1      35.106  32.097  28.431  1.00  0.00     0.001 A 
ATOM     71  C   UNL A   1      34.385  32.692  29.460  1.00  0.00     0.000 A 
ENDBRANCH  47  66
BRANCH  59  72
ATOM     72  C   UNL A   1      41.830  29.992  33.510  1.00  0.00    -0.014 A 
ATOM     73  C   UNL A   1      41.678  28.630  33.202  1.00  0.00     0.009 A 
ATOM     74  C   UNL A   1      41.867  30.375  34.859  1.00  0.00     0.009 A 
ATOM     75  C   UNL A   1      41.542  27.683  34.223  1.00  0.00     0.001 A 
ATOM     76  C   UNL A   1      41.751  29.427  35.877  1.00  0.00     0.001 A 
ATOM     77  C   UNL A   1      41.583  28.082  35.559  1.00  0.00     0.000 A 
ENDBRANCH  59  72
ENDBRANCH  33  34
ENDBRANCH  25  28
ENDBRANCH  23  24
ENDBRANCH  22  23
ENDBRANCH   1  22
TORSDOF 14
ENDMDL
MODEL 3
REMARK VINA RESULT:     -10.8      2.644      7.705
REMARK SMILES COc1ccccc1-n1c(C)nnc1SCC(=O)NCCCNC(=O)c1ccc(-c2c3nc(c(-c4ccccc4)c4ccc([nH]4)c(-c4ccccc4)c4nc(c(-c5ccccc5)c5ccc2[nH]5)C=C4)C=C3)cc1
REMARK SMILES IDX 20 1 19 2 17 3 18 4 16 6 15 7 14 8 9 9 10 10 11 11 12 12
REMARK SMILES IDX 13 13 8 14 3 15 4 16 5 17 7 18 6 19 2 20 1 21 21 22 22 23
REMARK SMILES IDX 23 24 24 25 25 27 26 28 27 29 73 30 28 31 72 32 29 33 30 34
REMARK SMILES IDX 31 35 66 36 32 37 71 38 65 39 67 40 33 41 70 42 64 43 63 44
REMARK SMILES IDX 34 46 56 47 41 48 55 49 42 50 45 51 54 52 68 53 43 54 44 55
REMARK SMILES IDX 53 57 69 58 46 59 35 60 36 61 40 62 37 63 39 64 38 65 57 66
REMARK SMILES IDX 58 67 62 68 59 69 61 70 60 71 47 72 48 73 52 74 49 75 51 76
REMARK SMILES IDX 50 77
REMARK H PARENT 19 5 23 26 67 45 45 56
REMARK Flexibility Score: inf
ROOT
ATOM      1  C   UNL A   1      39.101  21.851  26.247  1.00  0.00     0.117 C 
ENDROOT
BRANCH   1   2
ATOM      2  N   UNL A   1      38.314  22.872  25.571  1.00  0.00    -0.355 N 
ATOM      3  C   UNL A   1      36.972  23.106  25.609  1.00  0.00     0.230 C 
ATOM      4  O   UNL A   1      36.624  24.288  25.499  1.00  0.00    -0.274 OA
ATOM      5  H   UNL A   1      38.829  23.486  25.000  1.00  0.00     0.163 HD
BRANCH   3   6
ATOM      6  C   UNL A   1      35.928  22.034  25.879  1.00  0.00     0.178 C 
BRANCH   6   7
ATOM      7  S   UNL A   1      34.221  22.552  25.769  1.00  0.00    -0.076 SA
BRANCH   7   8
ATOM      8  C   UNL A   1      33.866  23.456  24.342  1.00  0.00     0.196 A 
ATOM      9  N   UNL A   1      33.389  24.738  24.146  1.00  0.00    -0.270 N 
ATOM     10  C   UNL A   1      33.388  24.919  22.768  1.00  0.00     0.135 A 
ATOM     11  C   UNL A   1      33.078  26.186  22.057  1.00  0.00     0.090 C 
ATOM     12  N   UNL A   1      33.810  23.820  22.185  1.00  0.00    -0.134 NA
ATOM     13  N   UNL A   1      34.107  22.913  23.164  1.00  0.00    -0.123 NA
BRANCH   9  14
ATOM     14  C   UNL A   1      32.957  25.703  25.061  1.00  0.00     0.091 A 
ATOM     15  C   UNL A   1      31.620  25.848  25.435  1.00  0.00     0.142 A 
ATOM     16  C   UNL A   1      31.306  26.893  26.314  1.00  0.00     0.048 A 
ATOM     17  C   UNL A   1      32.290  27.755  26.813  1.00  0.00     0.004 A 
ATOM     18  C   UNL A   1      33.961  26.538  25.592  1.00  0.00     0.031 A 
ATOM     19  C   UNL A   1      33.621  27.573  26.458  1.00  0.00     0.002 A 
BRANCH  15  20
ATOM     20  O   UNL A   1      30.529  25.192  24.943  1.00  0.00    -0.495 OA
ATOM     21  C   UNL A   1      29.778  25.768  23.886  1.00  0.00     0.278 C 
ENDBRANCH  15  20
ENDBRANCH   9  14
ENDBRANCH   7   8
ENDBRANCH   6   7
ENDBRANCH   3   6
ENDBRANCH   1   2
BRANCH   1  22
ATOM     22  C   UNL A   1      39.377  20.589  25.425  1.00  0.00     0.042 C 
BRANCH  22  23
ATOM     23  C   UNL A   1      40.008  19.457  26.217  1.00  0.00     0.118 C 
BRANCH  23  24
ATOM     24  N   UNL A   1      41.278  18.960  25.694  1.00  0.00    -0.352 N 
ATOM     25  C   UNL A   1      42.480  19.638  25.606  1.00  0.00     0.251 C 
ATOM     26  H   UNL A   1      41.277  18.033  25.363  1.00  0.00     0.163 HD
ATOM     27  O   UNL A   1      43.398  19.196  24.917  1.00  0.00    -0.269 OA
BRANCH  25  28
ATOM     28  C   UNL A   1      42.653  20.916  26.331  1.00  0.00     0.039 A 
ATOM     29  C   UNL A   1      42.984  22.093  25.655  1.00  0.00     0.014 A 
ATOM     30  C   UNL A   1      42.462  20.938  27.709  1.00  0.00     0.014 A 
ATOM     31  C   UNL A   1      43.035  23.292  26.367  1.00  0.00     0.010 A 
ATOM     32  C   UNL A   1      42.343  22.133  28.376  1.00  0.00     0.010 A 
ATOM     33  C   UNL A   1      42.687  23.308  27.729  1.00  0.00    -0.014 A 
BRANCH  33  34
ATOM     34  C   UNL A   1      42.608  24.562  28.469  1.00  0.00     0.031 A 
ATOM     35  C   UNL A   1      41.420  25.389  28.154  1.00  0.00     0.074 A 
ATOM     36  C   UNL A   1      43.418  24.898  29.495  1.00  0.00     0.049 A 
ATOM     37  N   UNL A   1      41.385  26.446  27.416  1.00  0.00    -0.248 NA
ATOM     38  C   UNL A   1      40.097  24.923  28.598  1.00  0.00     0.031 C 
ATOM     39  C   UNL A   1      44.410  24.056  30.180  1.00  0.00     0.029 A 
ATOM     40  N   UNL A   1      43.458  26.055  30.217  1.00  0.00    -0.354 N 
ATOM     41  C   UNL A   1      40.080  26.917  27.493  1.00  0.00     0.074 A 
ATOM     42  C   UNL A   1      39.297  25.847  28.059  1.00  0.00     0.031 C 
ATOM     43  C   UNL A   1      44.772  24.636  31.345  1.00  0.00     0.029 A 
ATOM     44  C   UNL A   1      44.208  25.972  31.383  1.00  0.00     0.049 A 
ATOM     45  H   UNL A   1      42.996  26.877  29.937  1.00  0.00     0.167 HD
ATOM     46  C   UNL A   1      39.819  28.249  27.378  1.00  0.00     0.031 A 
ATOM     47  C   UNL A   1      44.377  26.938  32.313  1.00  0.00     0.031 A 
ATOM     48  C   UNL A   1      40.994  28.974  26.963  1.00  0.00     0.049 A 
ATOM     49  C   UNL A   1      44.128  28.238  31.661  1.00  0.00     0.074 A 
ATOM     50  C   UNL A   1      41.705  29.181  25.804  1.00  0.00     0.029 A 
ATOM     51  N   UNL A   1      41.803  29.328  28.011  1.00  0.00    -0.354 N 
ATOM     52  N   UNL A   1      44.887  28.717  30.716  1.00  0.00    -0.248 NA
ATOM     53  C   UNL A   1      42.837  28.895  31.821  1.00  0.00     0.031 C 
ATOM     54  C   UNL A   1      43.037  29.500  26.209  1.00  0.00     0.029 A 
ATOM     55  C   UNL A   1      43.095  29.516  27.602  1.00  0.00     0.049 A 
ATOM     56  H   UNL A   1      41.494  29.434  28.939  1.00  0.00     0.167 HD
ATOM     57  C   UNL A   1      44.015  29.410  29.900  1.00  0.00     0.074 A 
ATOM     58  C   UNL A   1      42.832  29.647  30.718  1.00  0.00     0.031 C 
ATOM     59  C   UNL A   1      44.189  29.438  28.549  1.00  0.00     0.031 A 
BRANCH  46  60
ATOM     60  C   UNL A   1      38.723  28.974  28.130  1.00  0.00    -0.014 A 
ATOM     61  C   UNL A   1      38.588  28.724  29.509  1.00  0.00     0.009 A 
ATOM     62  C   UNL A   1      37.649  29.629  27.501  1.00  0.00     0.009 A 
ATOM     63  C   UNL A   1      37.418  29.055  30.204  1.00  0.00     0.001 A 
ATOM     64  C   UNL A   1      36.492  29.993  28.199  1.00  0.00     0.001 A 
ATOM     65  C   UNL A   1      36.366  29.683  29.546  1.00  0.00     0.000 A 
ENDBRANCH  46  60
BRANCH  47  66
ATOM     66  C   UNL A   1      44.556  26.810  33.771  1.00  0.00    -0.014 A 
ATOM     67  C   UNL A   1      45.441  27.654  34.460  1.00  0.00     0.009 A 
ATOM     68  C   UNL A   1      43.634  26.063  34.526  1.00  0.00     0.009 A 
ATOM     69  C   UNL A   1      45.363  27.794  35.851  1.00  0.00     0.001 A 
ATOM     70  C   UNL A   1      43.556  26.202  35.915  1.00  0.00     0.001 A 
ATOM     71  C   UNL A   1      44.407  27.083  36.574  1.00  0.00     0.000 A 
ENDBRANCH  47  66
BRANCH  59  72
ATOM     72  C   UNL A   1      45.570  29.186  28.017  1.00  0.00    -0.014 A 
ATOM     73  C   UNL A   1      46.054  27.916  27.665  1.00  0.00     0.009 A 
ATOM     74  C   UNL A   1      46.395  30.301  27.805  1.00  0.00     0.009 A 
ATOM     75  C   UNL A   1      47.342  27.768  27.139  1.00  0.00     0.001 A 
ATOM     76  C   UNL A   1      47.672  30.154  27.261  1.00  0.00     0.001 A 
ATOM     77  C   UNL A   1      48.148  28.887  26.934  1.00  0.00     0.000 A 
ENDBRANCH  59  72
ENDBRANCH  33  34
ENDBRANCH  25  28
ENDBRANCH  23  24
ENDBRANCH  22  23
ENDBRANCH   1  22
TORSDOF 14
ENDMDL
