MODEL 1
REMARK VINA RESULT:     -12.5      0.000      0.000
REMARK SMILES Cc1cc(NC(=O)c2ccc(Br)cc2N)ccc1C(=O)NCCCNC(=O)c1ccc(-c2c3nc(c(-c4ccccc4)c4ccc([nH]4)c(-c4ccccc4)c4nc(c(-c5ccccc5)c5ccc2[nH]5)C=C4)C=C3)cc1
REMARK SMILES IDX 22 1 21 2 19 3 20 4 18 6 1 7 2 8 3 9 4 10 17 11 16 12 5 13
REMARK SMILES IDX 6 14 7 16 8 17 9 18 14 19 10 20 13 21 11 22 12 23 15 24
REMARK SMILES IDX 23 27 24 28 25 29 26 30 27 32 28 33 29 34 75 35 30 36 74 37
REMARK SMILES IDX 31 38 32 39 33 40 68 41 34 42 73 43 67 44 69 45 35 46 72 47
REMARK SMILES IDX 66 48 65 49 36 51 58 52 43 53 57 54 44 55 47 56 56 57 70 58
REMARK SMILES IDX 45 59 46 60 55 62 71 63 48 64 37 65 38 66 42 67 39 68 41 69
REMARK SMILES IDX 40 70 59 71 60 72 64 73 61 74 63 75 62 76 49 77 50 78 54 79
REMARK SMILES IDX 51 80 53 81 52 82
REMARK H PARENT 21 5 5 15 15 25 15 26 25 31 69 50 47 61
REMARK Flexibility Score: inf
ROOT
ATOM      1  C   UNL A   1      31.755  30.714  26.004  1.00  0.00     0.118 C 
ENDROOT
BRANCH   1   2
ATOM      2  N   UNL A   1      32.375  30.088  24.848  1.00  0.00    -0.352 N 
ATOM      3  C   UNL A   1      32.369  28.825  24.309  1.00  0.00     0.251 C 
ATOM      4  O   UNL A   1      33.008  28.688  23.261  1.00  0.00    -0.269 OA
ATOM      5  H   UNL A   1      32.929  30.717  24.330  1.00  0.00     0.163 HD
BRANCH   3   6
ATOM      6  C   UNL A   1      31.604  27.634  24.810  1.00  0.00     0.042 A 
ATOM      7  C   UNL A   1      29.489  27.694  23.313  1.00  0.00     0.045 C 
ATOM      8  C   UNL A   1      30.366  27.133  24.375  1.00  0.00    -0.036 A 
ATOM      9  C   UNL A   1      29.839  25.979  24.980  1.00  0.00     0.030 A 
ATOM     10  C   UNL A   1      30.474  25.332  26.030  1.00  0.00     0.041 A 
ATOM     11  C   UNL A   1      32.172  27.029  25.960  1.00  0.00     0.016 A 
ATOM     12  C   UNL A   1      31.601  25.912  26.587  1.00  0.00     0.027 A 
BRANCH  10  13
ATOM     13  N   UNL A   1      30.003  24.096  26.498  1.00  0.00    -0.322 N 
ATOM     14  C   UNL A   1      30.510  22.838  26.203  1.00  0.00     0.257 C 
ATOM     15  H   UNL A   1      29.226  24.124  27.103  1.00  0.00     0.170 HD
ATOM     16  O   UNL A   1      29.815  21.836  26.364  1.00  0.00    -0.269 OA
BRANCH  14  17
ATOM     17  C   UNL A   1      31.929  22.674  25.750  1.00  0.00     0.063 A 
ATOM     18  C   UNL A   1      32.178  22.822  24.374  1.00  0.00     0.017 A 
ATOM     19  C   UNL A   1      32.995  22.389  26.636  1.00  0.00     0.045 A 
ATOM     20  C   UNL A   1      33.477  22.707  23.873  1.00  0.00     0.016 A 
ATOM     21  C   UNL A   1      34.289  22.263  26.109  1.00  0.00     0.042 A 
ATOM     22  C   UNL A   1      34.526  22.431  24.744  1.00  0.00     0.020 A 
ATOM     23  Br  UNL A   1      36.286  22.253  24.076  1.00  0.00    -0.051 Br
BRANCH  19  24
ATOM     24  N   UNL A   1      32.814  22.082  27.985  1.00  0.00    -0.398 N 
ATOM     25  H   UNL A   1      33.548  22.227  28.625  1.00  0.00     0.156 HD
ATOM     26  H   UNL A   1      31.952  21.723  28.296  1.00  0.00     0.156 HD
ENDBRANCH  19  24
ENDBRANCH  14  17
ENDBRANCH  10  13
ENDBRANCH   3   6
ENDBRANCH   1   2
BRANCH   1  27
ATOM     27  C   UNL A   1      32.529  30.398  27.285  1.00  0.00     0.042 C 
BRANCH  27  28
ATOM     28  C   UNL A   1      34.029  30.602  27.255  1.00  0.00     0.118 C 
BRANCH  28  29
ATOM     29  N   UNL A   1      34.505  31.365  28.418  1.00  0.00    -0.352 N 
ATOM     30  C   UNL A   1      35.636  31.152  29.201  1.00  0.00     0.251 C 
ATOM     31  H   UNL A   1      33.948  32.133  28.678  1.00  0.00     0.163 HD
ATOM     32  O   UNL A   1      35.981  31.921  30.053  1.00  0.00    -0.269 OA
BRANCH  30  33
ATOM     33  C   UNL A   1      36.470  29.983  28.830  1.00  0.00     0.039 A 
ATOM     34  C   UNL A   1      36.869  29.167  29.889  1.00  0.00     0.014 A 
ATOM     35  C   UNL A   1      37.177  30.030  27.631  1.00  0.00     0.014 A 
ATOM     36  C   UNL A   1      38.151  28.639  29.865  1.00  0.00     0.010 A 
ATOM     37  C   UNL A   1      38.483  29.574  27.646  1.00  0.00     0.010 A 
ATOM     38  C   UNL A   1      38.992  28.966  28.799  1.00  0.00    -0.014 A 
BRANCH  38  39
ATOM     39  C   UNL A   1      40.431  28.750  28.866  1.00  0.00     0.031 A 
ATOM     40  C   UNL A   1      40.976  27.508  28.300  1.00  0.00     0.074 A 
ATOM     41  C   UNL A   1      41.267  29.588  29.522  1.00  0.00     0.049 A 
ATOM     42  N   UNL A   1      41.921  26.819  28.847  1.00  0.00    -0.248 NA
ATOM     43  C   UNL A   1      40.433  26.910  27.090  1.00  0.00     0.031 C 
ATOM     44  C   UNL A   1      42.725  29.486  29.590  1.00  0.00     0.029 A 
ATOM     45  N   UNL A   1      40.957  30.557  30.476  1.00  0.00    -0.354 N 
ATOM     46  C   UNL A   1      42.319  25.891  27.917  1.00  0.00     0.074 A 
ATOM     47  C   UNL A   1      41.294  25.910  26.896  1.00  0.00     0.031 C 
ATOM     48  C   UNL A   1      43.141  30.072  30.723  1.00  0.00     0.029 A 
ATOM     49  C   UNL A   1      41.961  30.490  31.458  1.00  0.00     0.049 A 
ATOM     50  H   UNL A   1      40.186  31.169  30.463  1.00  0.00     0.167 HD
ATOM     51  C   UNL A   1      43.552  25.321  28.008  1.00  0.00     0.031 A 
ATOM     52  C   UNL A   1      41.714  30.261  32.780  1.00  0.00     0.031 A 
ATOM     53  C   UNL A   1      44.297  25.785  29.179  1.00  0.00     0.049 A 
ATOM     54  C   UNL A   1      42.405  29.026  33.325  1.00  0.00     0.074 A 
ATOM     55  C   UNL A   1      45.335  26.688  29.352  1.00  0.00     0.029 A 
ATOM     56  N   UNL A   1      43.804  25.524  30.450  1.00  0.00    -0.354 N 
ATOM     57  N   UNL A   1      43.139  28.213  32.618  1.00  0.00    -0.248 NA
ATOM     58  C   UNL A   1      42.209  28.541  34.690  1.00  0.00     0.031 C 
ATOM     59  C   UNL A   1      45.464  26.963  30.741  1.00  0.00     0.029 A 
ATOM     60  C   UNL A   1      44.515  26.219  31.414  1.00  0.00     0.049 A 
ATOM     61  H   UNL A   1      43.048  24.922  30.641  1.00  0.00     0.167 HD
ATOM     62  C   UNL A   1      43.461  27.103  33.362  1.00  0.00     0.074 A 
ATOM     63  C   UNL A   1      42.853  27.362  34.656  1.00  0.00     0.031 C 
ATOM     64  C   UNL A   1      44.159  26.057  32.822  1.00  0.00     0.031 A 
BRANCH  51  65
ATOM     65  C   UNL A   1      44.179  24.589  26.845  1.00  0.00    -0.014 A 
ATOM     66  C   UNL A   1      43.932  23.216  26.666  1.00  0.00     0.009 A 
ATOM     67  C   UNL A   1      45.066  25.178  25.927  1.00  0.00     0.009 A 
ATOM     68  C   UNL A   1      44.625  22.456  25.714  1.00  0.00     0.001 A 
ATOM     69  C   UNL A   1      45.802  24.417  25.008  1.00  0.00     0.001 A 
ATOM     70  C   UNL A   1      45.590  23.050  24.912  1.00  0.00     0.000 A 
ENDBRANCH  51  65
BRANCH  52  71
ATOM     71  C   UNL A   1      40.385  30.756  33.226  1.00  0.00    -0.014 A 
ATOM     72  C   UNL A   1      40.194  32.150  33.291  1.00  0.00     0.009 A 
ATOM     73  C   UNL A   1      39.260  29.923  33.160  1.00  0.00     0.009 A 
ATOM     74  C   UNL A   1      38.920  32.703  33.135  1.00  0.00     0.001 A 
ATOM     75  C   UNL A   1      37.984  30.483  33.020  1.00  0.00     0.001 A 
ATOM     76  C   UNL A   1      37.822  31.867  32.957  1.00  0.00     0.000 A 
ENDBRANCH  52  71
BRANCH  64  77
ATOM     77  C   UNL A   1      44.571  24.763  33.509  1.00  0.00    -0.014 A 
ATOM     78  C   UNL A   1      45.887  24.330  33.709  1.00  0.00     0.009 A 
ATOM     79  C   UNL A   1      43.563  23.870  33.949  1.00  0.00     0.009 A 
ATOM     80  C   UNL A   1      46.178  23.129  34.377  1.00  0.00     0.001 A 
ATOM     81  C   UNL A   1      43.842  22.668  34.606  1.00  0.00     0.001 A 
ATOM     82  C   UNL A   1      45.157  22.304  34.835  1.00  0.00     0.000 A 
ENDBRANCH  64  77
ENDBRANCH  38  39
ENDBRANCH  30  33
ENDBRANCH  28  29
ENDBRANCH  27  28
ENDBRANCH   1  27
TORSDOF 13
ENDMDL
MODEL 2
REMARK VINA RESULT:     -12.4      2.075      3.274
REMARK SMILES Cc1cc(NC(=O)c2ccc(Br)cc2N)ccc1C(=O)NCCCNC(=O)c1ccc(-c2c3nc(c(-c4ccccc4)c4ccc([nH]4)c(-c4ccccc4)c4nc(c(-c5ccccc5)c5ccc2[nH]5)C=C4)C=C3)cc1
REMARK SMILES IDX 22 1 21 2 19 3 20 4 18 6 1 7 2 8 3 9 4 10 17 11 16 12 5 13
REMARK SMILES IDX 6 14 7 16 8 17 9 18 14 19 10 20 13 21 11 22 12 23 15 24
REMARK SMILES IDX 23 27 24 28 25 29 26 30 27 32 28 33 29 34 75 35 30 36 74 37
REMARK SMILES IDX 31 38 32 39 33 40 68 41 34 42 73 43 67 44 69 45 35 46 72 47
REMARK SMILES IDX 66 48 65 49 36 51 58 52 43 53 57 54 44 55 47 56 56 57 70 58
REMARK SMILES IDX 45 59 46 60 55 62 71 63 48 64 37 65 38 66 42 67 39 68 41 69
REMARK SMILES IDX 40 70 59 71 60 72 64 73 61 74 63 75 62 76 49 77 50 78 54 79
REMARK SMILES IDX 51 80 53 81 52 82
REMARK H PARENT 21 5 5 15 15 25 15 26 25 31 69 50 47 61
REMARK Flexibility Score: inf
ROOT
ATOM      1  C   UNL A   1      33.040  30.457  26.822  1.00  0.00     0.118 C 
ENDROOT
BRANCH   1   2
ATOM      2  N   UNL A   1      33.256  30.092  25.431  1.00  0.00    -0.352 N 
ATOM      3  C   UNL A   1      32.902  29.025  24.643  1.00  0.00     0.251 C 
ATOM      4  O   UNL A   1      33.247  29.097  23.459  1.00  0.00    -0.269 OA
ATOM      5  H   UNL A   1      33.779  30.767  24.940  1.00  0.00     0.163 HD
BRANCH   3   6
ATOM      6  C   UNL A   1      32.072  27.840  25.047  1.00  0.00     0.042 A 
ATOM      7  C   UNL A   1      29.969  28.133  23.562  1.00  0.00     0.045 C 
ATOM      8  C   UNL A   1      30.811  27.443  24.575  1.00  0.00    -0.036 A 
ATOM      9  C   UNL A   1      30.221  26.273  25.086  1.00  0.00     0.030 A 
ATOM     10  C   UNL A   1      30.817  25.511  26.079  1.00  0.00     0.041 A 
ATOM     11  C   UNL A   1      32.604  27.116  26.144  1.00  0.00     0.016 A 
ATOM     12  C   UNL A   1      31.972  25.984  26.681  1.00  0.00     0.027 A 
BRANCH  10  13
ATOM     13  N   UNL A   1      30.280  24.268  26.447  1.00  0.00    -0.322 N 
ATOM     14  C   UNL A   1      30.744  23.012  26.084  1.00  0.00     0.257 C 
ATOM     15  H   UNL A   1      29.484  24.291  27.028  1.00  0.00     0.170 HD
ATOM     16  O   UNL A   1      30.002  22.033  26.155  1.00  0.00    -0.269 OA
BRANCH  14  17
ATOM     17  C   UNL A   1      32.170  22.817  25.667  1.00  0.00     0.063 A 
ATOM     18  C   UNL A   1      32.479  23.075  24.319  1.00  0.00     0.017 A 
ATOM     19  C   UNL A   1      33.186  22.399  26.559  1.00  0.00     0.045 A 
ATOM     20  C   UNL A   1      33.789  22.940  23.854  1.00  0.00     0.016 A 
ATOM     21  C   UNL A   1      34.491  22.254  26.066  1.00  0.00     0.042 A 
ATOM     22  C   UNL A   1      34.789  22.532  24.732  1.00  0.00     0.020 A 
ATOM     23  Br  UNL A   1      36.563  22.325  24.110  1.00  0.00    -0.051 Br
BRANCH  19  24
ATOM     24  N   UNL A   1      32.939  21.981  27.866  1.00  0.00    -0.398 N 
ATOM     25  H   UNL A   1      32.298  21.253  28.038  1.00  0.00     0.156 HD
ATOM     26  H   UNL A   1      33.407  22.412  28.618  1.00  0.00     0.156 HD
ENDBRANCH  19  24
ENDBRANCH  14  17
ENDBRANCH  10  13
ENDBRANCH   3   6
ENDBRANCH   1   2
BRANCH   1  27
ATOM     27  C   UNL A   1      34.362  30.530  27.587  1.00  0.00     0.042 C 
BRANCH  27  28
ATOM     28  C   UNL A   1      34.921  31.908  27.872  1.00  0.00     0.118 C 
BRANCH  28  29
ATOM     29  N   UNL A   1      33.903  32.809  28.432  1.00  0.00    -0.352 N 
ATOM     30  C   UNL A   1      34.028  33.740  29.460  1.00  0.00     0.251 C 
ATOM     31  H   UNL A   1      33.011  32.747  28.023  1.00  0.00     0.163 HD
ATOM     32  O   UNL A   1      33.151  34.504  29.744  1.00  0.00    -0.269 OA
BRANCH  30  33
ATOM     33  C   UNL A   1      35.365  33.825  30.098  1.00  0.00     0.039 A 
ATOM     34  C   UNL A   1      36.349  34.473  29.351  1.00  0.00     0.014 A 
ATOM     35  C   UNL A   1      35.684  32.901  31.089  1.00  0.00     0.014 A 
ATOM     36  C   UNL A   1      37.638  33.960  29.378  1.00  0.00     0.010 A 
ATOM     37  C   UNL A   1      36.947  32.339  31.052  1.00  0.00     0.010 A 
ATOM     38  C   UNL A   1      37.888  32.810  30.128  1.00  0.00    -0.014 A 
BRANCH  38  39
ATOM     39  C   UNL A   1      39.097  32.019  29.938  1.00  0.00     0.031 A 
ATOM     40  C   UNL A   1      38.953  30.616  29.523  1.00  0.00     0.074 A 
ATOM     41  C   UNL A   1      40.331  32.487  30.234  1.00  0.00     0.049 A 
ATOM     42  N   UNL A   1      39.671  29.649  29.988  1.00  0.00    -0.248 NA
ATOM     43  C   UNL A   1      37.921  30.192  28.589  1.00  0.00     0.031 C 
ATOM     44  C   UNL A   1      41.600  31.791  30.019  1.00  0.00     0.029 A 
ATOM     45  N   UNL A   1      40.682  33.581  31.026  1.00  0.00    -0.354 N 
ATOM     46  C   UNL A   1      39.419  28.558  29.193  1.00  0.00     0.074 A 
ATOM     47  C   UNL A   1      38.249  28.909  28.420  1.00  0.00     0.031 C 
ATOM     48  C   UNL A   1      42.494  32.251  30.908  1.00  0.00     0.029 A 
ATOM     49  C   UNL A   1      41.806  33.190  31.775  1.00  0.00     0.049 A 
ATOM     50  H   UNL A   1      40.230  34.455  31.053  1.00  0.00     0.167 HD
ATOM     51  C   UNL A   1      40.317  27.535  29.137  1.00  0.00     0.031 A 
ATOM     52  C   UNL A   1      41.853  33.209  33.138  1.00  0.00     0.031 A 
ATOM     53  C   UNL A   1      41.466  27.751  30.019  1.00  0.00     0.049 A 
ATOM     54  C   UNL A   1      42.136  31.855  33.758  1.00  0.00     0.074 A 
ATOM     55  C   UNL A   1      42.775  28.149  29.797  1.00  0.00     0.029 A 
ATOM     56  N   UNL A   1      41.268  27.839  31.389  1.00  0.00    -0.354 N 
ATOM     57  N   UNL A   1      42.286  30.748  33.086  1.00  0.00    -0.248 NA
ATOM     58  C   UNL A   1      42.141  31.625  35.201  1.00  0.00     0.031 C 
ATOM     59  C   UNL A   1      43.365  28.471  31.049  1.00  0.00     0.029 A 
ATOM     60  C   UNL A   1      42.419  28.259  32.034  1.00  0.00     0.049 A 
ATOM     61  H   UNL A   1      40.420  27.629  31.844  1.00  0.00     0.167 HD
ATOM     62  C   UNL A   1      42.345  29.679  33.948  1.00  0.00     0.074 A 
ATOM     63  C   UNL A   1      42.251  30.287  35.264  1.00  0.00     0.031 C 
ATOM     64  C   UNL A   1      42.418  28.391  33.489  1.00  0.00     0.031 A 
BRANCH  51  65
ATOM     65  C   UNL A   1      40.282  26.503  28.034  1.00  0.00    -0.014 A 
ATOM     66  C   UNL A   1      39.525  25.330  28.197  1.00  0.00     0.009 A 
ATOM     67  C   UNL A   1      41.015  26.601  26.839  1.00  0.00     0.009 A 
ATOM     68  C   UNL A   1      39.600  24.268  27.286  1.00  0.00     0.001 A 
ATOM     69  C   UNL A   1      41.136  25.525  25.949  1.00  0.00     0.001 A 
ATOM     70  C   UNL A   1      40.438  24.349  26.182  1.00  0.00     0.000 A 
ENDBRANCH  51  65
BRANCH  52  71
ATOM     71  C   UNL A   1      40.984  34.254  33.743  1.00  0.00    -0.014 A 
ATOM     72  C   UNL A   1      39.676  33.883  34.112  1.00  0.00     0.009 A 
ATOM     73  C   UNL A   1      41.548  35.399  34.319  1.00  0.00     0.009 A 
ATOM     74  C   UNL A   1      39.012  34.549  35.145  1.00  0.00     0.001 A 
ATOM     75  C   UNL A   1      40.871  36.072  35.343  1.00  0.00     0.001 A 
ATOM     76  C   UNL A   1      39.630  35.617  35.788  1.00  0.00     0.000 A 
ENDBRANCH  52  71
BRANCH  64  77
ATOM     77  C   UNL A   1      42.471  27.114  34.313  1.00  0.00    -0.014 A 
ATOM     78  C   UNL A   1      43.427  26.100  34.185  1.00  0.00     0.009 A 
ATOM     79  C   UNL A   1      41.450  26.871  35.266  1.00  0.00     0.009 A 
ATOM     80  C   UNL A   1      43.414  24.961  35.008  1.00  0.00     0.001 A 
ATOM     81  C   UNL A   1      41.423  25.736  36.082  1.00  0.00     0.001 A 
ATOM     82  C   UNL A   1      42.420  24.784  35.963  1.00  0.00     0.000 A 
ENDBRANCH  64  77
ENDBRANCH  38  39
ENDBRANCH  30  33
ENDBRANCH  28  29
ENDBRANCH  27  28
ENDBRANCH   1  27
TORSDOF 13
ENDMDL
MODEL 3
REMARK VINA RESULT:     -12.3      3.585      8.708
REMARK SMILES Cc1cc(NC(=O)c2ccc(Br)cc2N)ccc1C(=O)NCCCNC(=O)c1ccc(-c2c3nc(c(-c4ccccc4)c4ccc([nH]4)c(-c4ccccc4)c4nc(c(-c5ccccc5)c5ccc2[nH]5)C=C4)C=C3)cc1
REMARK SMILES IDX 22 1 21 2 19 3 20 4 18 6 1 7 2 8 3 9 4 10 17 11 16 12 5 13
REMARK SMILES IDX 6 14 7 16 8 17 9 18 14 19 10 20 13 21 11 22 12 23 15 24
REMARK SMILES IDX 23 27 24 28 25 29 26 30 27 32 28 33 29 34 75 35 30 36 74 37
REMARK SMILES IDX 31 38 32 39 33 40 68 41 34 42 73 43 67 44 69 45 35 46 72 47
REMARK SMILES IDX 66 48 65 49 36 51 58 52 43 53 57 54 44 55 47 56 56 57 70 58
REMARK SMILES IDX 45 59 46 60 55 62 71 63 48 64 37 65 38 66 42 67 39 68 41 69
REMARK SMILES IDX 40 70 59 71 60 72 64 73 61 74 63 75 62 76 49 77 50 78 54 79
REMARK SMILES IDX 51 80 53 81 52 82
REMARK H PARENT 21 5 5 15 15 25 15 26 25 31 69 50 47 61
REMARK Flexibility Score: inf
ROOT
ATOM      1  C   UNL A   1      38.008  21.041  25.377  1.00  0.00     0.118 C 
ENDROOT
BRANCH   1   2
ATOM      2  N   UNL A   1      37.567  21.774  24.202  1.00  0.00    -0.352 N 
ATOM      3  C   UNL A   1      36.394  22.377  23.819  1.00  0.00     0.251 C 
ATOM      4  O   UNL A   1      36.421  22.954  22.728  1.00  0.00    -0.269 OA
ATOM      5  H   UNL A   1      38.274  21.857  23.521  1.00  0.00     0.163 HD
BRANCH   3   6
ATOM      6  C   UNL A   1      35.129  22.482  24.622  1.00  0.00     0.042 A 
ATOM      7  C   UNL A   1      35.825  24.125  26.501  1.00  0.00     0.045 C 
ATOM      8  C   UNL A   1      34.873  23.244  25.772  1.00  0.00    -0.036 A 
ATOM      9  C   UNL A   1      33.594  23.206  26.355  1.00  0.00     0.030 A 
ATOM     10  C   UNL A   1      32.576  22.403  25.862  1.00  0.00     0.041 A 
ATOM     11  C   UNL A   1      34.114  21.581  24.210  1.00  0.00     0.016 A 
ATOM     12  C   UNL A   1      32.862  21.514  24.841  1.00  0.00     0.027 A 
BRANCH  10  13
ATOM     13  N   UNL A   1      31.271  22.513  26.368  1.00  0.00    -0.322 N 
ATOM     14  C   UNL A   1      30.507  23.666  26.477  1.00  0.00     0.257 C 
ATOM     15  H   UNL A   1      30.851  21.678  26.680  1.00  0.00     0.170 HD
ATOM     16  O   UNL A   1      29.552  23.706  27.251  1.00  0.00    -0.269 OA
BRANCH  14  17
ATOM     17  C   UNL A   1      30.790  24.853  25.608  1.00  0.00     0.063 A 
ATOM     18  C   UNL A   1      31.121  26.054  26.261  1.00  0.00     0.017 A 
ATOM     19  C   UNL A   1      30.740  24.806  24.194  1.00  0.00     0.045 A 
ATOM     20  C   UNL A   1      31.421  27.202  25.523  1.00  0.00     0.016 A 
ATOM     21  C   UNL A   1      31.029  25.975  23.474  1.00  0.00     0.042 A 
ATOM     22  C   UNL A   1      31.376  27.155  24.133  1.00  0.00     0.020 A 
ATOM     23  Br  UNL A   1      31.761  28.707  23.123  1.00  0.00    -0.051 Br
BRANCH  19  24
ATOM     24  N   UNL A   1      30.278  23.703  23.477  1.00  0.00    -0.398 N 
ATOM     25  H   UNL A   1      29.462  23.234  23.766  1.00  0.00     0.156 HD
ATOM     26  H   UNL A   1      30.766  23.395  22.679  1.00  0.00     0.156 HD
ENDBRANCH  19  24
ENDBRANCH  14  17
ENDBRANCH  10  13
ENDBRANCH   3   6
ENDBRANCH   1   2
BRANCH   1  27
ATOM     27  C   UNL A   1      39.356  21.561  25.879  1.00  0.00     0.042 C 
BRANCH  27  28
ATOM     28  C   UNL A   1      39.336  22.782  26.776  1.00  0.00     0.118 C 
BRANCH  28  29
ATOM     29  N   UNL A   1      40.675  23.115  27.281  1.00  0.00    -0.352 N 
ATOM     30  C   UNL A   1      41.157  24.337  27.745  1.00  0.00     0.251 C 
ATOM     31  H   UNL A   1      41.321  22.373  27.295  1.00  0.00     0.163 HD
ATOM     32  O   UNL A   1      42.239  24.451  28.246  1.00  0.00    -0.269 OA
BRANCH  30  33
ATOM     33  C   UNL A   1      40.198  25.468  27.706  1.00  0.00     0.039 A 
ATOM     34  C   UNL A   1      40.658  26.627  27.082  1.00  0.00     0.014 A 
ATOM     35  C   UNL A   1      39.173  25.498  28.649  1.00  0.00     0.014 A 
ATOM     36  C   UNL A   1      40.313  27.852  27.633  1.00  0.00     0.010 A 
ATOM     37  C   UNL A   1      38.897  26.713  29.248  1.00  0.00     0.010 A 
ATOM     38  C   UNL A   1      39.542  27.871  28.798  1.00  0.00    -0.014 A 
BRANCH  38  39
ATOM     39  C   UNL A   1      39.431  29.067  29.623  1.00  0.00     0.031 A 
ATOM     40  C   UNL A   1      38.449  30.090  29.236  1.00  0.00     0.074 A 
ATOM     41  C   UNL A   1      40.265  29.323  30.656  1.00  0.00     0.049 A 
ATOM     42  N   UNL A   1      38.669  31.361  29.296  1.00  0.00    -0.248 NA
ATOM     43  C   UNL A   1      37.151  29.740  28.678  1.00  0.00     0.031 C 
ATOM     44  C   UNL A   1      40.190  30.460  31.573  1.00  0.00     0.029 A 
ATOM     45  N   UNL A   1      41.505  28.749  30.938  1.00  0.00    -0.354 N 
ATOM     46  C   UNL A   1      37.458  31.978  29.099  1.00  0.00     0.074 A 
ATOM     47  C   UNL A   1      36.577  30.942  28.606  1.00  0.00     0.031 C 
ATOM     48  C   UNL A   1      41.421  30.705  32.051  1.00  0.00     0.029 A 
ATOM     49  C   UNL A   1      42.335  29.791  31.391  1.00  0.00     0.049 A 
ATOM     50  H   UNL A   1      41.750  27.801  30.840  1.00  0.00     0.167 HD
ATOM     51  C   UNL A   1      37.268  33.256  29.530  1.00  0.00     0.031 A 
ATOM     52  C   UNL A   1      43.522  30.122  30.806  1.00  0.00     0.031 A 
ATOM     53  C   UNL A   1      38.470  33.826  30.140  1.00  0.00     0.049 A 
ATOM     54  C   UNL A   1      43.578  31.554  30.309  1.00  0.00     0.074 A 
ATOM     55  C   UNL A   1      38.857  34.052  31.452  1.00  0.00     0.029 A 
ATOM     56  N   UNL A   1      39.615  33.986  29.372  1.00  0.00    -0.354 N 
ATOM     57  N   UNL A   1      42.591  32.403  30.381  1.00  0.00    -0.248 NA
ATOM     58  C   UNL A   1      44.716  32.097  29.571  1.00  0.00     0.031 C 
ATOM     59  C   UNL A   1      40.245  34.357  31.464  1.00  0.00     0.029 A 
ATOM     60  C   UNL A   1      40.701  34.327  30.161  1.00  0.00     0.049 A 
ATOM     61  H   UNL A   1      39.651  33.873  28.394  1.00  0.00     0.167 HD
ATOM     62  C   UNL A   1      42.902  33.545  29.680  1.00  0.00     0.074 A 
ATOM     63  C   UNL A   1      44.249  33.299  29.194  1.00  0.00     0.031 C 
ATOM     64  C   UNL A   1      41.998  34.562  29.531  1.00  0.00     0.031 A 
BRANCH  51  65
ATOM     65  C   UNL A   1      35.886  33.851  29.672  1.00  0.00    -0.014 A 
ATOM     66  C   UNL A   1      35.238  34.392  28.548  1.00  0.00     0.009 A 
ATOM     67  C   UNL A   1      35.196  33.960  30.892  1.00  0.00     0.009 A 
ATOM     68  C   UNL A   1      34.040  35.110  28.658  1.00  0.00     0.001 A 
ATOM     69  C   UNL A   1      34.026  34.720  31.020  1.00  0.00     0.001 A 
ATOM     70  C   UNL A   1      33.454  35.309  29.902  1.00  0.00     0.000 A 
ENDBRANCH  51  65
BRANCH  52  71
ATOM     71  C   UNL A   1      44.200  28.971  30.153  1.00  0.00    -0.014 A 
ATOM     72  C   UNL A   1      44.782  27.996  30.987  1.00  0.00     0.009 A 
ATOM     73  C   UNL A   1      43.905  28.635  28.825  1.00  0.00     0.009 A 
ATOM     74  C   UNL A   1      44.919  26.676  30.551  1.00  0.00     0.001 A 
ATOM     75  C   UNL A   1      44.059  27.313  28.389  1.00  0.00     0.001 A 
ATOM     76  C   UNL A   1      44.517  26.329  29.265  1.00  0.00     0.000 A 
ENDBRANCH  52  71
BRANCH  64  77
ATOM     77  C   UNL A   1      42.188  35.869  28.775  1.00  0.00    -0.014 A 
ATOM     78  C   UNL A   1      41.701  36.146  27.493  1.00  0.00     0.009 A 
ATOM     79  C   UNL A   1      42.964  36.896  29.367  1.00  0.00     0.009 A 
ATOM     80  C   UNL A   1      41.902  37.393  26.877  1.00  0.00     0.001 A 
ATOM     81  C   UNL A   1      43.179  38.136  28.758  1.00  0.00     0.001 A 
ATOM     82  C   UNL A   1      42.632  38.391  27.514  1.00  0.00     0.000 A 
ENDBRANCH  64  77
ENDBRANCH  38  39
ENDBRANCH  30  33
ENDBRANCH  28  29
ENDBRANCH  27  28
ENDBRANCH   1  27
TORSDOF 13
ENDMDL
