MODEL 1
REMARK VINA RESULT:     -10.3      0.000      0.000
REMARK SMILES CCC[C@@H](CNC(=O)N1C[C@@H](C)[C@H](C(=O)OC)C1)C(=O)NCCCNC(=O)c1ccc(-c2c3nc(c(-c4ccccc4)c4ccc([nH]4)c(-c4ccccc4)c4nc(c(-c5ccccc5)c5ccc2[nH]5)C=C4)C=C3)cc1
REMARK SMILES IDX 19 1 20 2 21 3 4 5 3 6 2 7 1 8 5 9 6 10 7 11 8 13 9 14 10 15
REMARK SMILES IDX 18 16 11 17 13 18 12 19 14 20 15 21 16 22 17 23 22 24 23 25
REMARK SMILES IDX 24 26 25 27 26 28 27 30 28 31 29 32 75 33 30 34 74 35 31 36
REMARK SMILES IDX 32 37 33 38 68 39 34 40 73 41 67 42 69 43 35 44 72 45 66 46
REMARK SMILES IDX 65 47 36 49 58 50 43 51 57 52 44 53 47 54 56 55 70 56 45 57
REMARK SMILES IDX 46 58 55 60 71 61 48 62 37 63 38 64 42 65 39 66 41 67 40 68
REMARK SMILES IDX 59 69 60 70 64 71 61 72 63 73 62 74 49 75 50 76 54 77 51 78
REMARK SMILES IDX 53 79 52 80
REMARK H PARENT 21 4 6 12 25 29 69 48 47 59
REMARK Flexibility Score: inf
ROOT
ATOM      1  C   UNL A   1      32.370  28.940  23.659  1.00  0.00     0.224 C 
ATOM      2  O   UNL A   1      33.213  29.021  22.758  1.00  0.00    -0.275 OA
ATOM      3  N   UNL A   1      32.793  29.190  24.920  1.00  0.00    -0.356 N 
ATOM      4  H   UNL A   1      33.765  29.324  25.002  1.00  0.00     0.163 HD
ENDROOT
BRANCH   1   5
ATOM      5  C   UNL A   1      30.939  28.548  23.317  1.00  0.00     0.097 C 
BRANCH   5   6
ATOM      6  C   UNL A   1      30.178  29.637  22.548  1.00  0.00     0.015 C 
BRANCH   6   7
ATOM      7  C   UNL A   1      28.873  30.108  23.198  1.00  0.00    -0.003 C 
ATOM      8  C   UNL A   1      27.658  29.261  22.848  1.00  0.00     0.004 C 
ENDBRANCH   6   7
ENDBRANCH   5   6
BRANCH   5   9
ATOM      9  C   UNL A   1      30.788  27.090  22.850  1.00  0.00     0.131 C 
BRANCH   9  10
ATOM     10  N   UNL A   1      31.700  26.615  21.821  1.00  0.00    -0.337 N 
ATOM     11  C   UNL A   1      32.672  25.665  21.926  1.00  0.00     0.317 C 
ATOM     12  H   UNL A   1      31.602  27.034  20.934  1.00  0.00     0.165 HD
ATOM     13  O   UNL A   1      33.609  25.678  21.131  1.00  0.00    -0.249 OA
BRANCH  11  14
ATOM     14  N   UNL A   1      32.612  24.817  22.985  1.00  0.00    -0.324 N 
ATOM     15  C   UNL A   1      32.317  23.408  22.882  1.00  0.00     0.125 C 
ATOM     16  C   UNL A   1      33.319  25.056  24.226  1.00  0.00     0.137 C 
ATOM     17  C   UNL A   1      31.915  23.046  24.304  1.00  0.00     0.021 C 
ATOM     18  C   UNL A   1      32.721  24.030  25.196  1.00  0.00     0.123 C 
ATOM     19  C   UNL A   1      32.180  21.584  24.621  1.00  0.00     0.010 C 
BRANCH  18  20
ATOM     20  C   UNL A   1      31.808  24.610  26.260  1.00  0.00     0.310 C 
ATOM     21  O   UNL A   1      31.510  23.989  27.275  1.00  0.00    -0.252 OA
BRANCH  20  22
ATOM     22  O   UNL A   1      31.331  25.841  25.946  1.00  0.00    -0.469 OA
ATOM     23  C   UNL A   1      29.903  25.937  25.949  1.00  0.00     0.282 C 
ENDBRANCH  20  22
ENDBRANCH  18  20
ENDBRANCH  11  14
ENDBRANCH   9  10
ENDBRANCH   5   9
ENDBRANCH   1   5
BRANCH   3  24
ATOM     24  C   UNL A   1      32.068  29.295  26.171  1.00  0.00     0.117 C 
BRANCH  24  25
ATOM     25  C   UNL A   1      31.665  30.721  26.488  1.00  0.00     0.042 C 
BRANCH  25  26
ATOM     26  C   UNL A   1      32.830  31.536  27.030  1.00  0.00     0.118 C 
BRANCH  26  27
ATOM     27  N   UNL A   1      32.447  32.902  27.379  1.00  0.00    -0.352 N 
ATOM     28  C   UNL A   1      33.061  33.807  28.216  1.00  0.00     0.251 C 
ATOM     29  H   UNL A   1      31.624  33.226  26.947  1.00  0.00     0.163 HD
ATOM     30  O   UNL A   1      32.510  34.857  28.514  1.00  0.00    -0.269 OA
BRANCH  28  31
ATOM     31  C   UNL A   1      34.385  33.482  28.779  1.00  0.00     0.039 A 
ATOM     32  C   UNL A   1      34.467  32.671  29.913  1.00  0.00     0.014 A 
ATOM     33  C   UNL A   1      35.544  33.951  28.161  1.00  0.00     0.014 A 
ATOM     34  C   UNL A   1      35.719  32.255  30.372  1.00  0.00     0.010 A 
ATOM     35  C   UNL A   1      36.777  33.448  28.548  1.00  0.00     0.010 A 
ATOM     36  C   UNL A   1      36.879  32.601  29.662  1.00  0.00    -0.014 A 
BRANCH  36  37
ATOM     37  C   UNL A   1      38.227  32.131  30.070  1.00  0.00     0.031 A 
ATOM     38  C   UNL A   1      38.733  30.814  29.547  1.00  0.00     0.074 A 
ATOM     39  C   UNL A   1      38.947  32.827  30.970  1.00  0.00     0.049 A 
ATOM     40  N   UNL A   1      39.790  30.131  29.907  1.00  0.00    -0.248 NA
ATOM     41  C   UNL A   1      37.921  30.159  28.506  1.00  0.00     0.031 C 
ATOM     42  C   UNL A   1      38.559  34.105  31.574  1.00  0.00     0.029 A 
ATOM     43  N   UNL A   1      40.160  32.545  31.548  1.00  0.00    -0.354 N 
ATOM     44  C   UNL A   1      39.750  28.961  29.159  1.00  0.00     0.074 A 
ATOM     45  C   UNL A   1      38.539  28.996  28.372  1.00  0.00     0.031 C 
ATOM     46  C   UNL A   1      39.525  34.505  32.416  1.00  0.00     0.029 A 
ATOM     47  C   UNL A   1      40.574  33.493  32.453  1.00  0.00     0.049 A 
ATOM     48  H   UNL A   1      40.683  31.739  31.335  1.00  0.00     0.167 HD
ATOM     49  C   UNL A   1      40.656  27.957  29.110  1.00  0.00     0.031 A 
ATOM     50  C   UNL A   1      41.670  33.530  33.235  1.00  0.00     0.031 A 
ATOM     51  C   UNL A   1      41.874  27.934  29.870  1.00  0.00     0.049 A 
ATOM     52  C   UNL A   1      42.651  32.390  33.175  1.00  0.00     0.074 A 
ATOM     53  C   UNL A   1      42.872  26.976  29.871  1.00  0.00     0.029 A 
ATOM     54  N   UNL A   1      42.267  28.928  30.751  1.00  0.00    -0.354 N 
ATOM     55  N   UNL A   1      42.613  31.303  32.442  1.00  0.00    -0.248 NA
ATOM     56  C   UNL A   1      43.832  32.488  34.045  1.00  0.00     0.031 C 
ATOM     57  C   UNL A   1      43.858  27.377  30.778  1.00  0.00     0.029 A 
ATOM     58  C   UNL A   1      43.494  28.607  31.303  1.00  0.00     0.049 A 
ATOM     59  H   UNL A   1      41.751  29.741  30.954  1.00  0.00     0.167 HD
ATOM     60  C   UNL A   1      43.781  30.611  32.732  1.00  0.00     0.074 A 
ATOM     61  C   UNL A   1      44.510  31.403  33.701  1.00  0.00     0.031 C 
ATOM     62  C   UNL A   1      44.214  29.425  32.242  1.00  0.00     0.031 A 
BRANCH  49  63
ATOM     63  C   UNL A   1      40.364  26.808  28.186  1.00  0.00    -0.014 A 
ATOM     64  C   UNL A   1      40.877  26.787  26.879  1.00  0.00     0.009 A 
ATOM     65  C   UNL A   1      39.595  25.724  28.632  1.00  0.00     0.009 A 
ATOM     66  C   UNL A   1      40.598  25.717  26.026  1.00  0.00     0.001 A 
ATOM     67  C   UNL A   1      39.342  24.641  27.787  1.00  0.00     0.001 A 
ATOM     68  C   UNL A   1      39.836  24.643  26.483  1.00  0.00     0.000 A 
ENDBRANCH  49  63
BRANCH  50  69
ATOM     69  C   UNL A   1      41.913  34.681  34.144  1.00  0.00    -0.014 A 
ATOM     70  C   UNL A   1      42.572  35.829  33.671  1.00  0.00     0.009 A 
ATOM     71  C   UNL A   1      41.529  34.628  35.491  1.00  0.00     0.009 A 
ATOM     72  C   UNL A   1      42.876  36.879  34.540  1.00  0.00     0.001 A 
ATOM     73  C   UNL A   1      41.808  35.694  36.352  1.00  0.00     0.001 A 
ATOM     74  C   UNL A   1      42.493  36.812  35.879  1.00  0.00     0.000 A 
ENDBRANCH  50  69
BRANCH  62  75
ATOM     75  C   UNL A   1      45.564  28.944  32.690  1.00  0.00    -0.014 A 
ATOM     76  C   UNL A   1      45.709  28.109  33.809  1.00  0.00     0.009 A 
ATOM     77  C   UNL A   1      46.700  29.289  31.942  1.00  0.00     0.009 A 
ATOM     78  C   UNL A   1      46.974  27.653  34.184  1.00  0.00     0.001 A 
ATOM     79  C   UNL A   1      47.958  28.809  32.304  1.00  0.00     0.001 A 
ATOM     80  C   UNL A   1      48.094  27.998  33.428  1.00  0.00     0.000 A 
ENDBRANCH  62  75
ENDBRANCH  36  37
ENDBRANCH  28  31
ENDBRANCH  26  27
ENDBRANCH  25  26
ENDBRANCH  24  25
ENDBRANCH   3  24
TORSDOF 17
ENDMDL
MODEL 2
REMARK VINA RESULT:      -9.9      3.417      8.565
REMARK SMILES CCC[C@@H](CNC(=O)N1C[C@@H](C)[C@H](C(=O)OC)C1)C(=O)NCCCNC(=O)c1ccc(-c2c3nc(c(-c4ccccc4)c4ccc([nH]4)c(-c4ccccc4)c4nc(c(-c5ccccc5)c5ccc2[nH]5)C=C4)C=C3)cc1
REMARK SMILES IDX 19 1 20 2 21 3 4 5 3 6 2 7 1 8 5 9 6 10 7 11 8 13 9 14 10 15
REMARK SMILES IDX 18 16 11 17 13 18 12 19 14 20 15 21 16 22 17 23 22 24 23 25
REMARK SMILES IDX 24 26 25 27 26 28 27 30 28 31 29 32 75 33 30 34 74 35 31 36
REMARK SMILES IDX 32 37 33 38 68 39 34 40 73 41 67 42 69 43 35 44 72 45 66 46
REMARK SMILES IDX 65 47 36 49 58 50 43 51 57 52 44 53 47 54 56 55 70 56 45 57
REMARK SMILES IDX 46 58 55 60 71 61 48 62 37 63 38 64 42 65 39 66 41 67 40 68
REMARK SMILES IDX 59 69 60 70 64 71 61 72 63 73 62 74 49 75 50 76 54 77 51 78
REMARK SMILES IDX 53 79 52 80
REMARK H PARENT 21 4 6 12 25 29 69 48 47 59
REMARK Flexibility Score: inf
ROOT
ATOM      1  C   UNL A   1      35.715  22.844  25.024  1.00  0.00     0.224 C 
ATOM      2  O   UNL A   1      35.969  24.037  25.223  1.00  0.00    -0.275 OA
ATOM      3  N   UNL A   1      36.751  21.976  25.094  1.00  0.00    -0.356 N 
ATOM      4  H   UNL A   1      37.630  22.403  25.209  1.00  0.00     0.163 HD
ENDROOT
BRANCH   1   5
ATOM      5  C   UNL A   1      34.290  22.422  24.692  1.00  0.00     0.097 C 
BRANCH   5   6
ATOM      6  C   UNL A   1      33.693  21.442  25.713  1.00  0.00     0.015 C 
BRANCH   6   7
ATOM      7  C   UNL A   1      33.994  21.763  27.181  1.00  0.00    -0.003 C 
ATOM      8  C   UNL A   1      32.894  22.542  27.888  1.00  0.00     0.004 C 
ENDBRANCH   6   7
ENDBRANCH   5   6
BRANCH   5   9
ATOM      9  C   UNL A   1      33.402  23.572  24.188  1.00  0.00     0.131 C 
BRANCH   9  10
ATOM     10  N   UNL A   1      33.819  24.262  22.976  1.00  0.00    -0.337 N 
ATOM     11  C   UNL A   1      33.581  25.555  22.616  1.00  0.00     0.317 C 
ATOM     12  H   UNL A   1      34.339  23.725  22.334  1.00  0.00     0.165 HD
ATOM     13  O   UNL A   1      33.616  25.861  21.426  1.00  0.00    -0.249 OA
BRANCH  11  14
ATOM     14  N   UNL A   1      33.202  26.421  23.591  1.00  0.00    -0.324 N 
ATOM     15  C   UNL A   1      34.023  27.502  24.082  1.00  0.00     0.125 C 
ATOM     16  C   UNL A   1      31.816  26.718  23.885  1.00  0.00     0.137 C 
ATOM     17  C   UNL A   1      33.371  27.836  25.416  1.00  0.00     0.021 C 
ATOM     18  C   UNL A   1      31.873  27.477  25.216  1.00  0.00     0.123 C 
ATOM     19  C   UNL A   1      33.599  29.284  25.819  1.00  0.00     0.010 C 
BRANCH  18  20
ATOM     20  C   UNL A   1      31.376  26.699  26.420  1.00  0.00     0.310 C 
ATOM     21  O   UNL A   1      30.971  27.255  27.435  1.00  0.00    -0.252 OA
BRANCH  20  22
ATOM     22  O   UNL A   1      31.475  25.354  26.270  1.00  0.00    -0.469 OA
ATOM     23  C   UNL A   1      30.234  24.654  26.399  1.00  0.00     0.282 C 
ENDBRANCH  20  22
ENDBRANCH  18  20
ENDBRANCH  11  14
ENDBRANCH   9  10
ENDBRANCH   5   9
ENDBRANCH   1   5
BRANCH   3  24
ATOM     24  C   UNL A   1      36.795  20.529  25.030  1.00  0.00     0.117 C 
BRANCH  24  25
ATOM     25  C   UNL A   1      38.187  20.005  24.737  1.00  0.00     0.042 C 
BRANCH  25  26
ATOM     26  C   UNL A   1      39.126  20.188  25.919  1.00  0.00     0.118 C 
BRANCH  26  27
ATOM     27  N   UNL A   1      40.248  19.253  25.897  1.00  0.00    -0.352 N 
ATOM     28  C   UNL A   1      41.590  19.475  26.112  1.00  0.00     0.251 C 
ATOM     29  H   UNL A   1      40.007  18.320  25.699  1.00  0.00     0.163 HD
ATOM     30  O   UNL A   1      42.412  18.596  25.896  1.00  0.00    -0.269 OA
BRANCH  28  31
ATOM     31  C   UNL A   1      42.033  20.803  26.579  1.00  0.00     0.039 A 
ATOM     32  C   UNL A   1      42.460  21.749  25.644  1.00  0.00     0.014 A 
ATOM     33  C   UNL A   1      41.992  21.119  27.936  1.00  0.00     0.014 A 
ATOM     34  C   UNL A   1      42.756  23.047  26.067  1.00  0.00     0.010 A 
ATOM     35  C   UNL A   1      42.177  22.433  28.338  1.00  0.00     0.010 A 
ATOM     36  C   UNL A   1      42.569  23.410  27.410  1.00  0.00    -0.014 A 
BRANCH  36  37
ATOM     37  C   UNL A   1      42.806  24.792  27.898  1.00  0.00     0.031 A 
ATOM     38  C   UNL A   1      44.190  25.187  28.337  1.00  0.00     0.074 A 
ATOM     39  C   UNL A   1      41.778  25.651  28.035  1.00  0.00     0.049 A 
ATOM     40  N   UNL A   1      44.584  26.269  28.959  1.00  0.00    -0.248 NA
ATOM     41  C   UNL A   1      45.269  24.217  28.077  1.00  0.00     0.031 C 
ATOM     42  C   UNL A   1      40.384  25.384  27.672  1.00  0.00     0.029 A 
ATOM     43  N   UNL A   1      41.748  26.928  28.538  1.00  0.00    -0.354 N 
ATOM     44  C   UNL A   1      45.944  26.094  29.185  1.00  0.00     0.074 A 
ATOM     45  C   UNL A   1      46.296  24.782  28.692  1.00  0.00     0.031 C 
ATOM     46  C   UNL A   1      39.643  26.471  27.940  1.00  0.00     0.029 A 
ATOM     47  C   UNL A   1      40.494  27.491  28.541  1.00  0.00     0.049 A 
ATOM     48  H   UNL A   1      42.550  27.396  28.866  1.00  0.00     0.167 HD
ATOM     49  C   UNL A   1      46.829  26.960  29.730  1.00  0.00     0.031 A 
ATOM     50  C   UNL A   1      40.079  28.690  28.993  1.00  0.00     0.031 A 
ATOM     51  C   UNL A   1      46.488  28.275  30.194  1.00  0.00     0.049 A 
ATOM     52  C   UNL A   1      41.081  29.626  29.613  1.00  0.00     0.074 A 
ATOM     53  C   UNL A   1      47.316  29.241  30.737  1.00  0.00     0.029 A 
ATOM     54  N   UNL A   1      45.212  28.815  30.151  1.00  0.00    -0.354 N 
ATOM     55  N   UNL A   1      42.369  29.457  29.795  1.00  0.00    -0.248 NA
ATOM     56  C   UNL A   1      40.572  30.923  30.082  1.00  0.00     0.031 C 
ATOM     57  C   UNL A   1      46.534  30.357  31.051  1.00  0.00     0.029 A 
ATOM     58  C   UNL A   1      45.230  30.101  30.658  1.00  0.00     0.049 A 
ATOM     59  H   UNL A   1      44.413  28.352  29.810  1.00  0.00     0.167 HD
ATOM     60  C   UNL A   1      42.829  30.639  30.360  1.00  0.00     0.074 A 
ATOM     61  C   UNL A   1      41.686  31.519  30.484  1.00  0.00     0.031 C 
ATOM     62  C   UNL A   1      44.085  30.969  30.744  1.00  0.00     0.031 A 
BRANCH  49  63
ATOM     63  C   UNL A   1      48.259  26.511  29.835  1.00  0.00    -0.014 A 
ATOM     64  C   UNL A   1      49.177  26.781  28.806  1.00  0.00     0.009 A 
ATOM     65  C   UNL A   1      48.704  25.838  30.983  1.00  0.00     0.009 A 
ATOM     66  C   UNL A   1      50.503  26.356  28.911  1.00  0.00     0.001 A 
ATOM     67  C   UNL A   1      50.038  25.442  31.098  1.00  0.00     0.001 A 
ATOM     68  C   UNL A   1      50.933  25.693  30.059  1.00  0.00     0.000 A 
ENDBRANCH  49  63
BRANCH  50  69
ATOM     69  C   UNL A   1      38.651  29.088  28.879  1.00  0.00    -0.014 A 
ATOM     70  C   UNL A   1      38.163  29.641  27.683  1.00  0.00     0.009 A 
ATOM     71  C   UNL A   1      37.779  28.960  29.970  1.00  0.00     0.009 A 
ATOM     72  C   UNL A   1      36.845  30.094  27.597  1.00  0.00     0.001 A 
ATOM     73  C   UNL A   1      36.451  29.386  29.871  1.00  0.00     0.001 A 
ATOM     74  C   UNL A   1      35.990  29.965  28.690  1.00  0.00     0.000 A 
ENDBRANCH  50  69
BRANCH  62  75
ATOM     75  C   UNL A   1      44.305  32.358  31.268  1.00  0.00    -0.014 A 
ATOM     76  C   UNL A   1      44.221  32.644  32.639  1.00  0.00     0.009 A 
ATOM     77  C   UNL A   1      44.656  33.383  30.375  1.00  0.00     0.009 A 
ATOM     78  C   UNL A   1      44.460  33.940  33.101  1.00  0.00     0.001 A 
ATOM     79  C   UNL A   1      44.921  34.669  30.844  1.00  0.00     0.001 A 
ATOM     80  C   UNL A   1      44.815  34.948  32.205  1.00  0.00     0.000 A 
ENDBRANCH  62  75
ENDBRANCH  36  37
ENDBRANCH  28  31
ENDBRANCH  26  27
ENDBRANCH  25  26
ENDBRANCH  24  25
ENDBRANCH   3  24
TORSDOF 17
ENDMDL
MODEL 3
REMARK VINA RESULT:      -9.9      3.362      8.605
REMARK SMILES CCC[C@@H](CNC(=O)N1C[C@@H](C)[C@H](C(=O)OC)C1)C(=O)NCCCNC(=O)c1ccc(-c2c3nc(c(-c4ccccc4)c4ccc([nH]4)c(-c4ccccc4)c4nc(c(-c5ccccc5)c5ccc2[nH]5)C=C4)C=C3)cc1
REMARK SMILES IDX 19 1 20 2 21 3 4 5 3 6 2 7 1 8 5 9 6 10 7 11 8 13 9 14 10 15
REMARK SMILES IDX 18 16 11 17 13 18 12 19 14 20 15 21 16 22 17 23 22 24 23 25
REMARK SMILES IDX 24 26 25 27 26 28 27 30 28 31 29 32 75 33 30 34 74 35 31 36
REMARK SMILES IDX 32 37 33 38 68 39 34 40 73 41 67 42 69 43 35 44 72 45 66 46
REMARK SMILES IDX 65 47 36 49 58 50 43 51 57 52 44 53 47 54 56 55 70 56 45 57
REMARK SMILES IDX 46 58 55 60 71 61 48 62 37 63 38 64 42 65 39 66 41 67 40 68
REMARK SMILES IDX 59 69 60 70 64 71 61 72 63 73 62 74 49 75 50 76 54 77 51 78
REMARK SMILES IDX 53 79 52 80
REMARK H PARENT 21 4 6 12 25 29 69 48 47 59
REMARK Flexibility Score: inf
ROOT
ATOM      1  C   UNL A   1      34.911  21.845  26.353  1.00  0.00     0.224 C 
ATOM      2  O   UNL A   1      34.439  21.661  27.481  1.00  0.00    -0.275 OA
ATOM      3  N   UNL A   1      36.099  21.255  26.082  1.00  0.00    -0.356 N 
ATOM      4  H   UNL A   1      36.516  20.808  26.853  1.00  0.00     0.163 HD
ENDROOT
BRANCH   1   5
ATOM      5  C   UNL A   1      34.165  22.722  25.357  1.00  0.00     0.097 C 
BRANCH   5   6
ATOM      6  C   UNL A   1      33.577  21.937  24.177  1.00  0.00     0.015 C 
BRANCH   6   7
ATOM      7  C   UNL A   1      33.091  22.790  23.000  1.00  0.00    -0.003 C 
ATOM      8  C   UNL A   1      31.578  22.824  22.835  1.00  0.00     0.004 C 
ENDBRANCH   6   7
ENDBRANCH   5   6
BRANCH   5   9
ATOM      9  C   UNL A   1      33.291  23.804  26.015  1.00  0.00     0.131 C 
BRANCH   9  10
ATOM     10  N   UNL A   1      31.946  23.427  26.423  1.00  0.00    -0.337 N 
ATOM     11  C   UNL A   1      30.824  24.201  26.452  1.00  0.00     0.317 C 
ATOM     12  H   UNL A   1      31.832  22.493  26.714  1.00  0.00     0.165 HD
ATOM     13  O   UNL A   1      29.899  23.885  27.196  1.00  0.00    -0.249 OA
BRANCH  11  14
ATOM     14  N   UNL A   1      30.836  25.354  25.735  1.00  0.00    -0.324 N 
ATOM     15  C   UNL A   1      29.957  25.629  24.624  1.00  0.00     0.125 C 
ATOM     16  C   UNL A   1      31.315  26.611  26.272  1.00  0.00     0.137 C 
ATOM     17  C   UNL A   1      30.665  26.774  23.913  1.00  0.00     0.021 C 
ATOM     18  C   UNL A   1      31.421  27.523  25.044  1.00  0.00     0.123 C 
ATOM     19  C   UNL A   1      29.698  27.657  23.142  1.00  0.00     0.010 C 
BRANCH  18  20
ATOM     20  C   UNL A   1      32.837  27.824  24.591  1.00  0.00     0.310 C 
ATOM     21  O   UNL A   1      33.758  27.982  25.386  1.00  0.00    -0.252 OA
BRANCH  20  22
ATOM     22  O   UNL A   1      32.958  27.944  23.245  1.00  0.00    -0.469 OA
ATOM     23  C   UNL A   1      34.167  28.578  22.816  1.00  0.00     0.282 C 
ENDBRANCH  20  22
ENDBRANCH  18  20
ENDBRANCH  11  14
ENDBRANCH   9  10
ENDBRANCH   5   9
ENDBRANCH   1   5
BRANCH   3  24
ATOM     24  C   UNL A   1      36.866  21.165  24.855  1.00  0.00     0.117 C 
BRANCH  24  25
ATOM     25  C   UNL A   1      37.916  20.073  24.908  1.00  0.00     0.042 C 
BRANCH  25  26
ATOM     26  C   UNL A   1      38.999  20.371  25.933  1.00  0.00     0.118 C 
BRANCH  26  27
ATOM     27  N   UNL A   1      40.110  19.425  25.870  1.00  0.00    -0.352 N 
ATOM     28  C   UNL A   1      41.457  19.628  26.065  1.00  0.00     0.251 C 
ATOM     29  H   UNL A   1      39.855  18.499  25.656  1.00  0.00     0.163 HD
ATOM     30  O   UNL A   1      42.266  18.745  25.815  1.00  0.00    -0.269 OA
BRANCH  28  31
ATOM     31  C   UNL A   1      41.924  20.940  26.553  1.00  0.00     0.039 A 
ATOM     32  C   UNL A   1      42.389  21.885  25.636  1.00  0.00     0.014 A 
ATOM     33  C   UNL A   1      41.866  21.244  27.913  1.00  0.00     0.014 A 
ATOM     34  C   UNL A   1      42.709  23.171  26.078  1.00  0.00     0.010 A 
ATOM     35  C   UNL A   1      42.075  22.549  28.332  1.00  0.00     0.010 A 
ATOM     36  C   UNL A   1      42.506  23.525  27.421  1.00  0.00    -0.014 A 
BRANCH  36  37
ATOM     37  C   UNL A   1      42.768  24.896  27.927  1.00  0.00     0.031 A 
ATOM     38  C   UNL A   1      44.157  25.259  28.375  1.00  0.00     0.074 A 
ATOM     39  C   UNL A   1      41.756  25.772  28.071  1.00  0.00     0.049 A 
ATOM     40  N   UNL A   1      44.570  26.326  29.011  1.00  0.00    -0.248 NA
ATOM     41  C   UNL A   1      45.219  24.273  28.107  1.00  0.00     0.031 C 
ATOM     42  C   UNL A   1      40.358  25.536  27.700  1.00  0.00     0.029 A 
ATOM     43  N   UNL A   1      41.748  27.044  28.589  1.00  0.00    -0.354 N 
ATOM     44  C   UNL A   1      45.925  26.123  29.240  1.00  0.00     0.074 A 
ATOM     45  C   UNL A   1      46.254  24.811  28.732  1.00  0.00     0.031 C 
ATOM     46  C   UNL A   1      39.636  26.634  27.978  1.00  0.00     0.029 A 
ATOM     47  C   UNL A   1      40.505  27.630  28.595  1.00  0.00     0.049 A 
ATOM     48  H   UNL A   1      42.557  27.493  28.926  1.00  0.00     0.167 HD
ATOM     49  C   UNL A   1      46.824  26.966  29.799  1.00  0.00     0.031 A 
ATOM     50  C   UNL A   1      40.110  28.831  29.061  1.00  0.00     0.031 A 
ATOM     51  C   UNL A   1      46.506  28.281  30.278  1.00  0.00     0.049 A 
ATOM     52  C   UNL A   1      41.128  29.740  29.696  1.00  0.00     0.074 A 
ATOM     53  C   UNL A   1      47.350  29.224  30.836  1.00  0.00     0.029 A 
ATOM     54  N   UNL A   1      45.240  28.845  30.237  1.00  0.00    -0.354 N 
ATOM     55  N   UNL A   1      42.411  29.544  29.880  1.00  0.00    -0.248 NA
ATOM     56  C   UNL A   1      40.641  31.040  30.179  1.00  0.00     0.031 C 
ATOM     57  C   UNL A   1      46.588  30.351  31.161  1.00  0.00     0.029 A 
ATOM     58  C   UNL A   1      45.281  30.124  30.761  1.00  0.00     0.049 A 
ATOM     59  H   UNL A   1      44.434  28.401  29.888  1.00  0.00     0.167 HD
ATOM     60  C   UNL A   1      42.891  30.710  30.461  1.00  0.00     0.074 A 
ATOM     61  C   UNL A   1      41.764  31.610  30.592  1.00  0.00     0.031 C 
ATOM     62  C   UNL A   1      44.152  31.012  30.853  1.00  0.00     0.031 A 
BRANCH  49  63
ATOM     63  C   UNL A   1      48.245  26.488  29.903  1.00  0.00    -0.014 A 
ATOM     64  C   UNL A   1      48.683  25.771  31.029  1.00  0.00     0.009 A 
ATOM     65  C   UNL A   1      49.148  26.729  28.857  1.00  0.00     0.009 A 
ATOM     66  C   UNL A   1      50.006  25.334  31.119  1.00  0.00     0.001 A 
ATOM     67  C   UNL A   1      50.462  26.265  28.937  1.00  0.00     0.001 A 
ATOM     68  C   UNL A   1      50.892  25.576  30.070  1.00  0.00     0.000 A 
ENDBRANCH  49  63
BRANCH  50  69
ATOM     69  C   UNL A   1      38.690  29.257  28.947  1.00  0.00    -0.014 A 
ATOM     70  C   UNL A   1      37.818  29.113  30.039  1.00  0.00     0.009 A 
ATOM     71  C   UNL A   1      38.188  29.770  27.743  1.00  0.00     0.009 A 
ATOM     72  C   UNL A   1      36.465  29.435  29.912  1.00  0.00     0.001 A 
ATOM     73  C   UNL A   1      36.840  30.120  27.628  1.00  0.00     0.001 A 
ATOM     74  C   UNL A   1      35.977  29.939  28.708  1.00  0.00     0.000 A 
ENDBRANCH  50  69
BRANCH  62  75
ATOM     75  C   UNL A   1      44.396  32.390  31.396  1.00  0.00    -0.014 A 
ATOM     76  C   UNL A   1      44.311  32.662  32.770  1.00  0.00     0.009 A 
ATOM     77  C   UNL A   1      44.771  33.419  30.517  1.00  0.00     0.009 A 
ATOM     78  C   UNL A   1      44.573  33.946  33.249  1.00  0.00     0.001 A 
ATOM     79  C   UNL A   1      45.058  34.694  31.003  1.00  0.00     0.001 A 
ATOM     80  C   UNL A   1      44.951  34.958  32.367  1.00  0.00     0.000 A 
ENDBRANCH  62  75
ENDBRANCH  36  37
ENDBRANCH  28  31
ENDBRANCH  26  27
ENDBRANCH  25  26
ENDBRANCH  24  25
ENDBRANCH   3  24
TORSDOF 17
ENDMDL
