MODEL 1
REMARK VINA RESULT:     -12.4      0.000      0.000
REMARK SMILES Cn1c(=O)c2c(-c3ccc(Cl)cc3)n(CC(=O)NCCCNC(=O)c3ccc(-c4c5nc(c(-c6ccccc6)c6ccc([nH]6)c(-c6ccccc6)c6nc(c(-c7ccccc7)c7ccc4[nH]7)C=C6)C=C5)cc3)cc2n(C)c1=O
REMARK SMILES IDX 20 1 19 2 18 3 16 4 17 5 15 7 14 8 1 9 2 10 3 11 77 12 4 13
REMARK SMILES IDX 5 14 75 15 78 16 6 17 74 18 76 19 73 20 7 21 8 22 13 23 9 24
REMARK SMILES IDX 12 25 10 26 11 27 21 28 22 29 23 30 24 32 25 33 26 34 72 35
REMARK SMILES IDX 27 36 71 37 28 38 29 39 30 40 65 41 31 42 70 43 64 44 66 45
REMARK SMILES IDX 32 46 69 47 63 48 62 49 33 51 55 52 40 53 54 54 41 55 44 56
REMARK SMILES IDX 53 57 67 58 42 59 43 60 52 62 68 63 45 64 34 65 35 66 39 67
REMARK SMILES IDX 36 68 38 69 37 70 56 71 57 72 61 73 58 74 60 75 59 76 46 77
REMARK SMILES IDX 47 78 51 79 48 80 50 81 49 82
REMARK H PARENT 18 6 22 31 66 50 44 61
REMARK Flexibility Score: inf
ROOT
ATOM      1  C   UNL A   1      37.763  19.716  25.004  1.00  0.00     0.042 C 
ENDROOT
BRANCH   1   2
ATOM      2  C   UNL A   1      36.605  20.714  25.077  1.00  0.00     0.117 C 
BRANCH   2   3
ATOM      3  N   UNL A   1      36.600  21.645  23.962  1.00  0.00    -0.354 N 
ATOM      4  C   UNL A   1      36.224  22.959  23.948  1.00  0.00     0.239 C 
ATOM      5  O   UNL A   1      36.274  23.570  22.878  1.00  0.00    -0.273 OA
ATOM      6  H   UNL A   1      36.910  21.282  23.100  1.00  0.00     0.163 HD
BRANCH   4   7
ATOM      7  C   UNL A   1      35.796  23.649  25.231  1.00  0.00     0.222 C 
BRANCH   7   8
ATOM      8  N   UNL A   1      34.541  24.384  25.097  1.00  0.00    -0.335 N 
ATOM      9  C   UNL A   1      29.151  26.514  23.935  1.00  0.00     0.158 C 
ATOM     10  N   UNL A   1      30.553  26.367  24.276  1.00  0.00    -0.263 N 
ATOM     11  C   UNL A   1      31.043  25.055  24.312  1.00  0.00     0.265 A 
ATOM     12  C   UNL A   1      31.297  27.545  24.470  1.00  0.00     0.330 A 
ATOM     13  O   UNL A   1      30.362  24.072  24.036  1.00  0.00    -0.268 OA
ATOM     14  C   UNL A   1      32.441  24.969  24.667  1.00  0.00     0.090 A 
ATOM     15  N   UNL A   1      32.648  27.401  24.810  1.00  0.00    -0.295 N 
ATOM     16  O   UNL A   1      30.784  28.658  24.329  1.00  0.00    -0.248 OA
ATOM     17  C   UNL A   1      33.274  23.865  24.837  1.00  0.00     0.064 A 
ATOM     18  C   UNL A   1      33.190  26.131  24.902  1.00  0.00     0.076 A 
ATOM     19  C   UNL A   1      33.455  28.590  25.046  1.00  0.00     0.155 C 
ATOM     20  C   UNL A   1      34.474  25.758  25.195  1.00  0.00     0.114 A 
BRANCH  17  21
ATOM     21  C   UNL A   1      32.976  22.432  24.691  1.00  0.00    -0.001 A 
ATOM     22  C   UNL A   1      32.996  21.574  25.797  1.00  0.00     0.012 A 
ATOM     23  C   UNL A   1      32.706  21.888  23.426  1.00  0.00     0.012 A 
ATOM     24  C   UNL A   1      32.809  20.197  25.630  1.00  0.00     0.021 A 
ATOM     25  C   UNL A   1      32.532  20.513  23.254  1.00  0.00     0.021 A 
ATOM     26  C   UNL A   1      32.592  19.671  24.358  1.00  0.00     0.041 A 
ATOM     27  Cl  UNL A   1      32.396  17.976  24.151  1.00  0.00    -0.084 Cl
ENDBRANCH  17  21
ENDBRANCH   7   8
ENDBRANCH   4   7
ENDBRANCH   2   3
ENDBRANCH   1   2
BRANCH   1  28
ATOM     28  C   UNL A   1      39.001  20.217  25.717  1.00  0.00     0.118 C 
BRANCH  28  29
ATOM     29  N   UNL A   1      40.072  19.217  25.740  1.00  0.00    -0.352 N 
ATOM     30  C   UNL A   1      41.421  19.426  25.927  1.00  0.00     0.251 C 
ATOM     31  H   UNL A   1      39.794  18.282  25.608  1.00  0.00     0.163 HD
ATOM     32  O   UNL A   1      42.246  18.572  25.608  1.00  0.00    -0.269 OA
BRANCH  30  33
ATOM     33  C   UNL A   1      41.857  20.699  26.518  1.00  0.00     0.039 A 
ATOM     34  C   UNL A   1      42.261  21.775  25.725  1.00  0.00     0.014 A 
ATOM     35  C   UNL A   1      41.799  20.812  27.903  1.00  0.00     0.014 A 
ATOM     36  C   UNL A   1      42.525  22.994  26.340  1.00  0.00     0.010 A 
ATOM     37  C   UNL A   1      41.879  22.048  28.483  1.00  0.00     0.010 A 
ATOM     38  C   UNL A   1      42.308  23.128  27.721  1.00  0.00    -0.014 A 
BRANCH  38  39
ATOM     39  C   UNL A   1      42.411  24.419  28.387  1.00  0.00     0.031 A 
ATOM     40  C   UNL A   1      41.282  25.348  28.121  1.00  0.00     0.074 A 
ATOM     41  C   UNL A   1      43.336  24.663  29.341  1.00  0.00     0.049 A 
ATOM     42  N   UNL A   1      41.344  26.486  27.518  1.00  0.00    -0.248 NA
ATOM     43  C   UNL A   1      39.910  24.922  28.447  1.00  0.00     0.031 C 
ATOM     44  C   UNL A   1      44.337  23.745  29.901  1.00  0.00     0.029 A 
ATOM     45  N   UNL A   1      43.486  25.767  30.118  1.00  0.00    -0.354 N 
ATOM     46  C   UNL A   1      40.059  27.015  27.547  1.00  0.00     0.074 A 
ATOM     47  C   UNL A   1      39.193  25.948  27.985  1.00  0.00     0.031 C 
ATOM     48  C   UNL A   1      44.793  24.233  31.076  1.00  0.00     0.029 A 
ATOM     49  C   UNL A   1      44.255  25.568  31.260  1.00  0.00     0.049 A 
ATOM     50  H   UNL A   1      43.084  26.637  29.892  1.00  0.00     0.167 HD
ATOM     51  C   UNL A   1      39.844  28.355  27.429  1.00  0.00     0.031 A 
ATOM     52  C   UNL A   1      44.418  26.430  32.295  1.00  0.00     0.031 A 
ATOM     53  C   UNL A   1      41.027  29.040  26.974  1.00  0.00     0.049 A 
ATOM     54  C   UNL A   1      44.056  27.777  31.797  1.00  0.00     0.074 A 
ATOM     55  C   UNL A   1      41.812  28.964  25.841  1.00  0.00     0.029 A 
ATOM     56  N   UNL A   1      41.794  29.661  27.932  1.00  0.00    -0.354 N 
ATOM     57  N   UNL A   1      44.763  28.415  30.908  1.00  0.00    -0.248 NA
ATOM     58  C   UNL A   1      42.672  28.206  31.920  1.00  0.00     0.031 C 
ATOM     59  C   UNL A   1      43.148  29.088  26.319  1.00  0.00     0.029 A 
ATOM     60  C   UNL A   1      43.100  29.320  27.696  1.00  0.00     0.049 A 
ATOM     61  H   UNL A   1      41.465  30.243  28.655  1.00  0.00     0.167 HD
ATOM     62  C   UNL A   1      43.824  28.976  30.056  1.00  0.00     0.074 A 
ATOM     63  C   UNL A   1      42.558  28.909  30.789  1.00  0.00     0.031 C 
ATOM     64  C   UNL A   1      44.098  29.161  28.731  1.00  0.00     0.031 A 
BRANCH  51  65
ATOM     65  C   UNL A   1      38.721  29.094  28.104  1.00  0.00    -0.014 A 
ATOM     66  C   UNL A   1      38.567  28.959  29.496  1.00  0.00     0.009 A 
ATOM     67  C   UNL A   1      37.649  29.669  27.399  1.00  0.00     0.009 A 
ATOM     68  C   UNL A   1      37.373  29.311  30.134  1.00  0.00     0.001 A 
ATOM     69  C   UNL A   1      36.470  30.060  28.039  1.00  0.00     0.001 A 
ATOM     70  C   UNL A   1      36.321  29.854  29.403  1.00  0.00     0.000 A 
ENDBRANCH  51  65
BRANCH  52  71
ATOM     71  C   UNL A   1      44.663  26.155  33.727  1.00  0.00    -0.014 A 
ATOM     72  C   UNL A   1      45.822  26.628  34.364  1.00  0.00     0.009 A 
ATOM     73  C   UNL A   1      43.627  25.664  34.543  1.00  0.00     0.009 A 
ATOM     74  C   UNL A   1      45.922  26.650  35.762  1.00  0.00     0.001 A 
ATOM     75  C   UNL A   1      43.727  25.684  35.940  1.00  0.00     0.001 A 
ATOM     76  C   UNL A   1      44.868  26.194  36.549  1.00  0.00     0.000 A 
ENDBRANCH  52  71
BRANCH  64  77
ATOM     77  C   UNL A   1      45.511  28.918  28.253  1.00  0.00    -0.014 A 
ATOM     78  C   UNL A   1      45.991  27.646  27.892  1.00  0.00     0.009 A 
ATOM     79  C   UNL A   1      46.312  30.033  27.970  1.00  0.00     0.009 A 
ATOM     80  C   UNL A   1      47.241  27.497  27.280  1.00  0.00     0.001 A 
ATOM     81  C   UNL A   1      47.549  29.887  27.340  1.00  0.00     0.001 A 
ATOM     82  C   UNL A   1      48.015  28.621  26.996  1.00  0.00     0.000 A 
ENDBRANCH  64  77
ENDBRANCH  38  39
ENDBRANCH  30  33
ENDBRANCH  28  29
ENDBRANCH   1  28
TORSDOF 12
ENDMDL
MODEL 2
REMARK VINA RESULT:     -12.2      5.011     10.462
REMARK SMILES Cn1c(=O)c2c(-c3ccc(Cl)cc3)n(CC(=O)NCCCNC(=O)c3ccc(-c4c5nc(c(-c6ccccc6)c6ccc([nH]6)c(-c6ccccc6)c6nc(c(-c7ccccc7)c7ccc4[nH]7)C=C6)C=C5)cc3)cc2n(C)c1=O
REMARK SMILES IDX 20 1 19 2 18 3 16 4 17 5 15 7 14 8 1 9 2 10 3 11 77 12 4 13
REMARK SMILES IDX 5 14 75 15 78 16 6 17 74 18 76 19 73 20 7 21 8 22 13 23 9 24
REMARK SMILES IDX 12 25 10 26 11 27 21 28 22 29 23 30 24 32 25 33 26 34 72 35
REMARK SMILES IDX 27 36 71 37 28 38 29 39 30 40 65 41 31 42 70 43 64 44 66 45
REMARK SMILES IDX 32 46 69 47 63 48 62 49 33 51 55 52 40 53 54 54 41 55 44 56
REMARK SMILES IDX 53 57 67 58 42 59 43 60 52 62 68 63 45 64 34 65 35 66 39 67
REMARK SMILES IDX 36 68 38 69 37 70 56 71 57 72 61 73 58 74 60 75 59 76 46 77
REMARK SMILES IDX 47 78 51 79 48 80 50 81 49 82
REMARK H PARENT 18 6 22 31 66 50 44 61
REMARK Flexibility Score: inf
ROOT
ATOM      1  C   UNL A   1      40.531  33.842  34.175  1.00  0.00     0.042 C 
ENDROOT
BRANCH   1   2
ATOM      2  C   UNL A   1      39.274  34.703  34.318  1.00  0.00     0.117 C 
BRANCH   2   3
ATOM      3  N   UNL A   1      38.402  34.243  35.386  1.00  0.00    -0.354 N 
ATOM      4  C   UNL A   1      37.359  33.363  35.318  1.00  0.00     0.239 C 
ATOM      5  O   UNL A   1      36.726  33.126  36.349  1.00  0.00    -0.273 OA
ATOM      6  H   UNL A   1      38.588  34.616  36.279  1.00  0.00     0.163 HD
BRANCH   4   7
ATOM      7  C   UNL A   1      37.023  32.670  34.009  1.00  0.00     0.222 C 
BRANCH   7   8
ATOM      8  N   UNL A   1      36.087  33.427  33.182  1.00  0.00    -0.335 N 
ATOM      9  C   UNL A   1      32.917  36.148  29.001  1.00  0.00     0.158 C 
ATOM     10  N   UNL A   1      33.541  35.758  30.251  1.00  0.00    -0.263 N 
ATOM     11  C   UNL A   1      34.353  34.618  30.203  1.00  0.00     0.265 A 
ATOM     12  C   UNL A   1      33.329  36.590  31.365  1.00  0.00     0.330 A 
ATOM     13  O   UNL A   1      34.576  33.990  29.171  1.00  0.00    -0.268 OA
ATOM     14  C   UNL A   1      34.940  34.271  31.477  1.00  0.00     0.090 A 
ATOM     15  N   UNL A   1      33.923  36.205  32.574  1.00  0.00    -0.295 N 
ATOM     16  O   UNL A   1      32.661  37.623  31.276  1.00  0.00    -0.248 OA
ATOM     17  C   UNL A   1      35.766  33.211  31.844  1.00  0.00     0.064 A 
ATOM     18  C   UNL A   1      34.708  35.066  32.609  1.00  0.00     0.076 A 
ATOM     19  C   UNL A   1      33.713  37.019  33.763  1.00  0.00     0.155 C 
ATOM     20  C   UNL A   1      35.396  34.521  33.660  1.00  0.00     0.114 A 
BRANCH  17  21
ATOM     21  C   UNL A   1      36.309  32.115  31.025  1.00  0.00    -0.001 A 
ATOM     22  C   UNL A   1      37.090  32.378  29.895  1.00  0.00     0.012 A 
ATOM     23  C   UNL A   1      36.016  30.780  31.341  1.00  0.00     0.012 A 
ATOM     24  C   UNL A   1      37.517  31.333  29.067  1.00  0.00     0.021 A 
ATOM     25  C   UNL A   1      36.429  29.735  30.512  1.00  0.00     0.021 A 
ATOM     26  C   UNL A   1      37.173  30.018  29.372  1.00  0.00     0.041 A 
ATOM     27  Cl  UNL A   1      37.669  28.737  28.338  1.00  0.00    -0.084 Cl
ENDBRANCH  17  21
ENDBRANCH   7   8
ENDBRANCH   4   7
ENDBRANCH   2   3
ENDBRANCH   1   2
BRANCH   1  28
ATOM     28  C   UNL A   1      41.375  34.248  32.985  1.00  0.00     0.118 C 
BRANCH  28  29
ATOM     29  N   UNL A   1      40.568  34.479  31.785  1.00  0.00    -0.352 N 
ATOM     30  C   UNL A   1      40.515  33.715  30.639  1.00  0.00     0.251 C 
ATOM     31  H   UNL A   1      39.991  35.277  31.798  1.00  0.00     0.163 HD
ATOM     32  O   UNL A   1      40.061  34.172  29.591  1.00  0.00    -0.269 OA
BRANCH  30  33
ATOM     33  C   UNL A   1      41.017  32.336  30.695  1.00  0.00     0.039 A 
ATOM     34  C   UNL A   1      40.242  31.294  31.210  1.00  0.00     0.014 A 
ATOM     35  C   UNL A   1      42.278  32.093  30.160  1.00  0.00     0.014 A 
ATOM     36  C   UNL A   1      40.720  29.992  31.103  1.00  0.00     0.010 A 
ATOM     37  C   UNL A   1      42.662  30.808  29.892  1.00  0.00     0.010 A 
ATOM     38  C   UNL A   1      41.924  29.756  30.419  1.00  0.00    -0.014 A 
BRANCH  38  39
ATOM     39  C   UNL A   1      42.387  28.405  30.137  1.00  0.00     0.031 A 
ATOM     40  C   UNL A   1      43.185  27.781  31.225  1.00  0.00     0.074 A 
ATOM     41  C   UNL A   1      41.938  27.697  29.077  1.00  0.00     0.049 A 
ATOM     42  N   UNL A   1      44.423  27.423  31.167  1.00  0.00    -0.248 NA
ATOM     43  C   UNL A   1      42.591  27.649  32.566  1.00  0.00     0.031 C 
ATOM     44  C   UNL A   1      40.937  28.087  28.076  1.00  0.00     0.029 A 
ATOM     45  N   UNL A   1      42.193  26.404  28.747  1.00  0.00    -0.354 N 
ATOM     46  C   UNL A   1      44.722  26.848  32.397  1.00  0.00     0.074 A 
ATOM     47  C   UNL A   1      43.614  27.156  33.267  1.00  0.00     0.031 C 
ATOM     48  C   UNL A   1      40.487  26.987  27.431  1.00  0.00     0.029 A 
ATOM     49  C   UNL A   1      41.288  25.851  27.847  1.00  0.00     0.049 A 
ATOM     50  H   UNL A   1      42.954  25.900  29.115  1.00  0.00     0.167 HD
ATOM     51  C   UNL A   1      45.753  25.968  32.532  1.00  0.00     0.031 A 
ATOM     52  C   UNL A   1      41.191  24.547  27.486  1.00  0.00     0.031 A 
ATOM     53  C   UNL A   1      46.615  25.983  31.378  1.00  0.00     0.049 A 
ATOM     54  C   UNL A   1      42.485  23.908  27.818  1.00  0.00     0.074 A 
ATOM     55  C   UNL A   1      47.386  26.947  30.761  1.00  0.00     0.029 A 
ATOM     56  N   UNL A   1      46.425  24.988  30.447  1.00  0.00    -0.354 N 
ATOM     57  N   UNL A   1      43.593  24.193  27.195  1.00  0.00    -0.248 NA
ATOM     58  C   UNL A   1      42.643  23.322  29.139  1.00  0.00     0.031 C 
ATOM     59  C   UNL A   1      47.202  26.719  29.366  1.00  0.00     0.029 A 
ATOM     60  C   UNL A   1      46.406  25.581  29.212  1.00  0.00     0.049 A 
ATOM     61  H   UNL A   1      46.322  24.027  30.634  1.00  0.00     0.167 HD
ATOM     62  C   UNL A   1      44.546  24.265  28.200  1.00  0.00     0.074 A 
ATOM     63  C   UNL A   1      43.930  23.612  29.356  1.00  0.00     0.031 C 
ATOM     64  C   UNL A   1      45.615  25.109  28.096  1.00  0.00     0.031 A 
BRANCH  51  65
ATOM     65  C   UNL A   1      45.759  24.816  33.500  1.00  0.00    -0.014 A 
ATOM     66  C   UNL A   1      46.901  24.615  34.299  1.00  0.00     0.009 A 
ATOM     67  C   UNL A   1      44.826  23.765  33.448  1.00  0.00     0.009 A 
ATOM     68  C   UNL A   1      47.129  23.397  34.947  1.00  0.00     0.001 A 
ATOM     69  C   UNL A   1      45.032  22.562  34.127  1.00  0.00     0.001 A 
ATOM     70  C   UNL A   1      46.198  22.367  34.854  1.00  0.00     0.000 A 
ENDBRANCH  51  65
BRANCH  52  71
ATOM     71  C   UNL A   1      40.006  23.765  27.068  1.00  0.00    -0.014 A 
ATOM     72  C   UNL A   1      38.793  24.403  26.765  1.00  0.00     0.009 A 
ATOM     73  C   UNL A   1      40.142  22.414  26.700  1.00  0.00     0.009 A 
ATOM     74  C   UNL A   1      37.773  23.729  26.079  1.00  0.00     0.001 A 
ATOM     75  C   UNL A   1      39.122  21.739  26.017  1.00  0.00     0.001 A 
ATOM     76  C   UNL A   1      37.944  22.403  25.691  1.00  0.00     0.000 A 
ENDBRANCH  52  71
BRANCH  64  77
ATOM     77  C   UNL A   1      45.840  25.819  26.781  1.00  0.00    -0.014 A 
ATOM     78  C   UNL A   1      45.201  27.026  26.442  1.00  0.00     0.009 A 
ATOM     79  C   UNL A   1      46.873  25.361  25.952  1.00  0.00     0.009 A 
ATOM     80  C   UNL A   1      45.578  27.741  25.300  1.00  0.00     0.001 A 
ATOM     81  C   UNL A   1      47.265  26.086  24.825  1.00  0.00     0.001 A 
ATOM     82  C   UNL A   1      46.617  27.275  24.497  1.00  0.00     0.000 A 
ENDBRANCH  64  77
ENDBRANCH  38  39
ENDBRANCH  30  33
ENDBRANCH  28  29
ENDBRANCH   1  28
TORSDOF 12
ENDMDL
MODEL 3
REMARK VINA RESULT:     -12.1      4.302      9.645
REMARK SMILES Cn1c(=O)c2c(-c3ccc(Cl)cc3)n(CC(=O)NCCCNC(=O)c3ccc(-c4c5nc(c(-c6ccccc6)c6ccc([nH]6)c(-c6ccccc6)c6nc(c(-c7ccccc7)c7ccc4[nH]7)C=C6)C=C5)cc3)cc2n(C)c1=O
REMARK SMILES IDX 20 1 19 2 18 3 16 4 17 5 15 7 14 8 1 9 2 10 3 11 77 12 4 13
REMARK SMILES IDX 5 14 75 15 78 16 6 17 74 18 76 19 73 20 7 21 8 22 13 23 9 24
REMARK SMILES IDX 12 25 10 26 11 27 21 28 22 29 23 30 24 32 25 33 26 34 72 35
REMARK SMILES IDX 27 36 71 37 28 38 29 39 30 40 65 41 31 42 70 43 64 44 66 45
REMARK SMILES IDX 32 46 69 47 63 48 62 49 33 51 55 52 40 53 54 54 41 55 44 56
REMARK SMILES IDX 53 57 67 58 42 59 43 60 52 62 68 63 45 64 34 65 35 66 39 67
REMARK SMILES IDX 36 68 38 69 37 70 56 71 57 72 61 73 58 74 60 75 59 76 46 77
REMARK SMILES IDX 47 78 51 79 48 80 50 81 49 82
REMARK H PARENT 18 6 22 31 66 50 44 61
REMARK Flexibility Score: inf
ROOT
ATOM      1  C   UNL A   1      46.856  26.792  28.029  1.00  0.00     0.042 C 
ENDROOT
BRANCH   1   2
ATOM      2  C   UNL A   1      46.845  25.345  27.528  1.00  0.00     0.117 C 
BRANCH   2   3
ATOM      3  N   UNL A   1      46.134  25.197  26.269  1.00  0.00    -0.354 N 
ATOM      4  C   UNL A   1      44.911  24.632  26.040  1.00  0.00     0.239 C 
ATOM      5  O   UNL A   1      44.497  24.586  24.880  1.00  0.00    -0.273 OA
ATOM      6  H   UNL A   1      46.596  25.550  25.474  1.00  0.00     0.163 HD
BRANCH   4   7
ATOM      7  C   UNL A   1      44.074  24.118  27.197  1.00  0.00     0.222 C 
BRANCH   7   8
ATOM      8  N   UNL A   1      42.925  23.325  26.767  1.00  0.00    -0.335 N 
ATOM      9  C   UNL A   1      37.690  20.843  25.596  1.00  0.00     0.158 C 
ATOM     10  N   UNL A   1      39.103  21.093  25.811  1.00  0.00    -0.263 N 
ATOM     11  C   UNL A   1      39.452  22.411  26.129  1.00  0.00     0.265 A 
ATOM     12  C   UNL A   1      39.970  19.987  25.749  1.00  0.00     0.330 A 
ATOM     13  O   UNL A   1      38.631  23.314  26.265  1.00  0.00    -0.268 OA
ATOM     14  C   UNL A   1      40.871  22.603  26.322  1.00  0.00     0.090 A 
ATOM     15  N   UNL A   1      41.335  20.232  25.945  1.00  0.00    -0.295 N 
ATOM     16  O   UNL A   1      39.544  18.848  25.545  1.00  0.00    -0.248 OA
ATOM     17  C   UNL A   1      41.607  23.750  26.614  1.00  0.00     0.064 A 
ATOM     18  C   UNL A   1      41.757  21.520  26.225  1.00  0.00     0.076 A 
ATOM     19  C   UNL A   1      42.277  19.125  25.865  1.00  0.00     0.155 C 
ATOM     20  C   UNL A   1      43.022  21.981  26.472  1.00  0.00     0.114 A 
BRANCH  17  21
ATOM     21  C   UNL A   1      41.148  25.131  26.829  1.00  0.00    -0.001 A 
ATOM     22  C   UNL A   1      40.223  25.435  27.834  1.00  0.00     0.012 A 
ATOM     23  C   UNL A   1      41.600  26.168  26.000  1.00  0.00     0.012 A 
ATOM     24  C   UNL A   1      39.718  26.735  27.965  1.00  0.00     0.021 A 
ATOM     25  C   UNL A   1      41.090  27.462  26.118  1.00  0.00     0.021 A 
ATOM     26  C   UNL A   1      40.144  27.738  27.097  1.00  0.00     0.041 A 
ATOM     27  Cl  UNL A   1      39.499  29.326  27.237  1.00  0.00    -0.084 Cl
ENDBRANCH  17  21
ENDBRANCH   7   8
ENDBRANCH   4   7
ENDBRANCH   2   3
ENDBRANCH   1   2
BRANCH   1  28
ATOM     28  C   UNL A   1      46.503  26.895  29.497  1.00  0.00     0.118 C 
BRANCH  28  29
ATOM     29  N   UNL A   1      46.042  25.619  30.049  1.00  0.00    -0.352 N 
ATOM     30  C   UNL A   1      44.965  25.395  30.880  1.00  0.00     0.251 C 
ATOM     31  H   UNL A   1      46.564  24.824  29.795  1.00  0.00     0.163 HD
ATOM     32  O   UNL A   1      44.870  24.355  31.529  1.00  0.00    -0.269 OA
BRANCH  30  33
ATOM     33  C   UNL A   1      43.928  26.431  30.975  1.00  0.00     0.039 A 
ATOM     34  C   UNL A   1      43.764  27.200  32.129  1.00  0.00     0.014 A 
ATOM     35  C   UNL A   1      43.147  26.657  29.846  1.00  0.00     0.014 A 
ATOM     36  C   UNL A   1      42.860  28.257  32.102  1.00  0.00     0.010 A 
ATOM     37  C   UNL A   1      42.400  27.799  29.761  1.00  0.00     0.010 A 
ATOM     38  C   UNL A   1      42.198  28.564  30.903  1.00  0.00    -0.014 A 
BRANCH  38  39
ATOM     39  C   UNL A   1      41.368  29.754  30.774  1.00  0.00     0.031 A 
ATOM     40  C   UNL A   1      42.098  30.980  30.359  1.00  0.00     0.074 A 
ATOM     41  C   UNL A   1      40.018  29.696  30.807  1.00  0.00     0.049 A 
ATOM     42  N   UNL A   1      42.245  32.061  31.048  1.00  0.00    -0.248 NA
ATOM     43  C   UNL A   1      42.854  30.972  29.095  1.00  0.00     0.031 C 
ATOM     44  C   UNL A   1      39.157  28.512  30.931  1.00  0.00     0.029 A 
ATOM     45  N   UNL A   1      39.117  30.690  30.596  1.00  0.00    -0.354 N 
ATOM     46  C   UNL A   1      42.952  32.945  30.240  1.00  0.00     0.074 A 
ATOM     47  C   UNL A   1      43.435  32.173  29.122  1.00  0.00     0.031 C 
ATOM     48  C   UNL A   1      37.902  28.820  30.535  1.00  0.00     0.029 A 
ATOM     49  C   UNL A   1      37.831  30.251  30.302  1.00  0.00     0.049 A 
ATOM     50  H   UNL A   1      39.355  31.645  30.648  1.00  0.00     0.167 HD
ATOM     51  C   UNL A   1      42.887  34.291  30.442  1.00  0.00     0.031 A 
ATOM     52  C   UNL A   1      36.789  31.006  29.874  1.00  0.00     0.031 A 
ATOM     53  C   UNL A   1      42.292  34.605  31.716  1.00  0.00     0.049 A 
ATOM     54  C   UNL A   1      37.093  32.408  30.237  1.00  0.00     0.074 A 
ATOM     55  C   UNL A   1      42.612  34.322  33.028  1.00  0.00     0.029 A 
ATOM     56  N   UNL A   1      40.961  34.952  31.712  1.00  0.00    -0.354 N 
ATOM     57  N   UNL A   1      37.134  32.826  31.470  1.00  0.00    -0.248 NA
ATOM     58  C   UNL A   1      37.818  33.226  29.276  1.00  0.00     0.031 C 
ATOM     59  C   UNL A   1      41.364  34.036  33.652  1.00  0.00     0.029 A 
ATOM     60  C   UNL A   1      40.349  34.246  32.714  1.00  0.00     0.049 A 
ATOM     61  H   UNL A   1      40.527  35.592  31.102  1.00  0.00     0.167 HD
ATOM     62  C   UNL A   1      38.243  33.656  31.519  1.00  0.00     0.074 A 
ATOM     63  C   UNL A   1      38.557  33.953  30.120  1.00  0.00     0.031 C 
ATOM     64  C   UNL A   1      38.982  33.779  32.661  1.00  0.00     0.031 A 
BRANCH  51  65
ATOM     65  C   UNL A   1      42.974  35.315  29.344  1.00  0.00    -0.014 A 
ATOM     66  C   UNL A   1      43.753  36.468  29.559  1.00  0.00     0.009 A 
ATOM     67  C   UNL A   1      42.101  35.335  28.242  1.00  0.00     0.009 A 
ATOM     68  C   UNL A   1      43.606  37.605  28.758  1.00  0.00     0.001 A 
ATOM     69  C   UNL A   1      41.982  36.455  27.415  1.00  0.00     0.001 A 
ATOM     70  C   UNL A   1      42.714  37.601  27.691  1.00  0.00     0.000 A 
ENDBRANCH  51  65
BRANCH  52  71
ATOM     71  C   UNL A   1      35.652  30.643  29.000  1.00  0.00    -0.014 A 
ATOM     72  C   UNL A   1      34.643  31.574  28.706  1.00  0.00     0.009 A 
ATOM     73  C   UNL A   1      35.697  29.466  28.229  1.00  0.00     0.009 A 
ATOM     74  C   UNL A   1      33.745  31.359  27.652  1.00  0.00     0.001 A 
ATOM     75  C   UNL A   1      34.798  29.249  27.177  1.00  0.00     0.001 A 
ATOM     76  C   UNL A   1      33.833  30.205  26.878  1.00  0.00     0.000 A 
ENDBRANCH  52  71
BRANCH  64  77
ATOM     77  C   UNL A   1      38.454  33.139  33.924  1.00  0.00    -0.014 A 
ATOM     78  C   UNL A   1      38.670  31.786  34.248  1.00  0.00     0.009 A 
ATOM     79  C   UNL A   1      37.897  33.973  34.904  1.00  0.00     0.009 A 
ATOM     80  C   UNL A   1      38.326  31.286  35.509  1.00  0.00     0.001 A 
ATOM     81  C   UNL A   1      37.574  33.479  36.169  1.00  0.00     0.001 A 
ATOM     82  C   UNL A   1      37.787  32.137  36.472  1.00  0.00     0.000 A 
ENDBRANCH  64  77
ENDBRANCH  38  39
ENDBRANCH  30  33
ENDBRANCH  28  29
ENDBRANCH   1  28
TORSDOF 12
ENDMDL
