MODEL 1
REMARK VINA RESULT:     -12.4      0.000      0.000
REMARK SMILES Cc1cc(C(=O)NCCCNC(=O)c2ccc(-c3c4nc(c(-c5ccccc5)c5ccc([nH]5)c(-c5ccccc5)c5nc(c(-c6ccccc6)c6ccc3[nH]6)C=C5)C=C4)cc2)ccc1NS(=O)(=O)c1c(F)cccc1F
REMARK SMILES IDX 8 1 7 2 5 3 6 4 4 6 1 7 2 8 3 9 64 10 63 11 62 12 65 13
REMARK SMILES IDX 66 15 67 16 68 17 69 18 70 19 75 20 71 21 72 22 74 23 76 24
REMARK SMILES IDX 73 25 9 26 10 27 11 28 12 29 13 31 14 32 15 33 61 34 16 35
REMARK SMILES IDX 60 36 17 37 18 38 19 39 54 40 20 41 59 42 53 43 55 44 21 45
REMARK SMILES IDX 58 46 52 47 51 48 22 50 44 51 29 52 43 53 30 54 33 55 42 56
REMARK SMILES IDX 56 57 31 58 32 59 41 61 57 62 34 63 23 64 24 65 28 66 25 67
REMARK SMILES IDX 27 68 26 69 45 70 46 71 50 72 47 73 49 74 48 75 35 76 36 77
REMARK SMILES IDX 40 78 37 79 39 80 38 81
REMARK H PARENT 7 5 65 14 11 30 55 49 33 60
REMARK Flexibility Score: inf
ROOT
ATOM      1  C   UNL A   1      37.542  21.533  25.461  1.00  0.00     0.118 C 
ENDROOT
BRANCH   1   2
ATOM      2  N   UNL A   1      36.335  21.477  26.275  1.00  0.00    -0.352 N 
ATOM      3  C   UNL A   1      35.125  22.126  26.269  1.00  0.00     0.251 C 
ATOM      4  O   UNL A   1      34.322  21.810  27.149  1.00  0.00    -0.269 OA
ATOM      5  H   UNL A   1      36.403  20.817  27.002  1.00  0.00     0.163 HD
BRANCH   3   6
ATOM      6  C   UNL A   1      34.749  23.230  25.336  1.00  0.00     0.040 A 
ATOM      7  C   UNL A   1      33.246  23.349  21.835  1.00  0.00     0.046 C 
ATOM      8  C   UNL A   1      33.671  23.809  23.205  1.00  0.00    -0.026 A 
ATOM      9  C   UNL A   1      34.211  22.858  24.091  1.00  0.00     0.019 A 
ATOM     10  C   UNL A   1      33.599  25.145  23.618  1.00  0.00     0.052 A 
ATOM     11  C   UNL A   1      34.370  25.542  24.710  1.00  0.00     0.028 A 
ATOM     12  C   UNL A   1      34.924  24.588  25.576  1.00  0.00     0.016 A 
BRANCH  10  13
ATOM     13  N   UNL A   1      32.604  25.976  23.025  1.00  0.00    -0.279 N 
ATOM     14  H   UNL A   1      32.766  26.241  22.091  1.00  0.00     0.180 HD
BRANCH  13  15
ATOM     15  S   UNL A   1      31.198  26.558  23.716  1.00  0.00     0.267 S 
ATOM     16  O   UNL A   1      30.548  27.350  22.673  1.00  0.00    -0.201 OA
ATOM     17  O   UNL A   1      30.551  25.424  24.306  1.00  0.00    -0.201 OA
BRANCH  15  18
ATOM     18  C   UNL A   1      31.603  27.653  25.025  1.00  0.00     0.158 A 
ATOM     19  C   UNL A   1      32.447  28.720  24.741  1.00  0.00     0.146 A 
ATOM     20  C   UNL A   1      31.233  27.418  26.342  1.00  0.00     0.146 A 
ATOM     21  F   UNL A   1      32.753  29.045  23.478  1.00  0.00    -0.205 F 
ATOM     22  C   UNL A   1      33.003  29.487  25.763  1.00  0.00     0.041 A 
ATOM     23  C   UNL A   1      31.798  28.169  27.377  1.00  0.00     0.041 A 
ATOM     24  F   UNL A   1      30.374  26.446  26.670  1.00  0.00    -0.205 F 
ATOM     25  C   UNL A   1      32.705  29.190  27.091  1.00  0.00     0.006 A 
ENDBRANCH  15  18
ENDBRANCH  13  15
ENDBRANCH  10  13
ENDBRANCH   3   6
ENDBRANCH   1   2
BRANCH   1  26
ATOM     26  C   UNL A   1      38.507  22.647  25.871  1.00  0.00     0.042 C 
BRANCH  26  27
ATOM     27  C   UNL A   1      39.671  22.134  26.719  1.00  0.00     0.118 C 
BRANCH  27  28
ATOM     28  N   UNL A   1      40.399  20.994  26.147  1.00  0.00    -0.352 N 
ATOM     29  C   UNL A   1      41.772  20.796  26.064  1.00  0.00     0.251 C 
ATOM     30  H   UNL A   1      39.841  20.276  25.772  1.00  0.00     0.163 HD
ATOM     31  O   UNL A   1      42.230  19.788  25.539  1.00  0.00    -0.269 OA
BRANCH  29  32
ATOM     32  C   UNL A   1      42.666  21.749  26.761  1.00  0.00     0.039 A 
ATOM     33  C   UNL A   1      42.723  21.653  28.155  1.00  0.00     0.014 A 
ATOM     34  C   UNL A   1      43.080  22.904  26.107  1.00  0.00     0.014 A 
ATOM     35  C   UNL A   1      42.857  22.819  28.897  1.00  0.00     0.010 A 
ATOM     36  C   UNL A   1      43.121  24.074  26.836  1.00  0.00     0.010 A 
ATOM     37  C   UNL A   1      42.907  24.036  28.218  1.00  0.00    -0.014 A 
BRANCH  37  38
ATOM     38  C   UNL A   1      42.669  25.310  28.878  1.00  0.00     0.031 A 
ATOM     39  C   UNL A   1      41.519  26.124  28.452  1.00  0.00     0.074 A 
ATOM     40  C   UNL A   1      43.488  25.773  29.851  1.00  0.00     0.049 A 
ATOM     41  N   UNL A   1      41.508  27.413  28.441  1.00  0.00    -0.248 NA
ATOM     42  C   UNL A   1      40.294  25.523  27.941  1.00  0.00     0.031 C 
ATOM     43  C   UNL A   1      43.279  26.961  30.676  1.00  0.00     0.029 A 
ATOM     44  N   UNL A   1      44.799  25.395  30.146  1.00  0.00    -0.354 N 
ATOM     45  C   UNL A   1      40.201  27.797  28.258  1.00  0.00     0.074 A 
ATOM     46  C   UNL A   1      39.512  26.599  27.831  1.00  0.00     0.031 C 
ATOM     47  C   UNL A   1      44.472  27.400  31.105  1.00  0.00     0.029 A 
ATOM     48  C   UNL A   1      45.487  26.580  30.469  1.00  0.00     0.049 A 
ATOM     49  H   UNL A   1      45.168  24.482  30.133  1.00  0.00     0.167 HD
ATOM     50  C   UNL A   1      39.801  29.039  28.651  1.00  0.00     0.031 A 
ATOM     51  C   UNL A   1      46.563  27.045  29.767  1.00  0.00     0.031 A 
ATOM     52  C   UNL A   1      40.914  29.836  29.173  1.00  0.00     0.049 A 
ATOM     53  C   UNL A   1      46.349  28.424  29.165  1.00  0.00     0.074 A 
ATOM     54  C   UNL A   1      41.319  30.192  30.450  1.00  0.00     0.029 A 
ATOM     55  N   UNL A   1      41.982  30.139  28.338  1.00  0.00    -0.354 N 
ATOM     56  N   UNL A   1      45.238  29.101  29.246  1.00  0.00    -0.248 NA
ATOM     57  C   UNL A   1      47.335  29.094  28.317  1.00  0.00     0.031 C 
ATOM     58  C   UNL A   1      42.645  30.704  30.375  1.00  0.00     0.029 A 
ATOM     59  C   UNL A   1      43.038  30.680  29.050  1.00  0.00     0.049 A 
ATOM     60  H   UNL A   1      41.987  29.987  27.366  1.00  0.00     0.167 HD
ATOM     61  C   UNL A   1      45.313  30.230  28.469  1.00  0.00     0.074 A 
ATOM     62  C   UNL A   1      46.650  30.175  27.903  1.00  0.00     0.031 C 
ATOM     63  C   UNL A   1      44.247  31.081  28.336  1.00  0.00     0.031 A 
BRANCH  50  64
ATOM     64  C   UNL A   1      38.344  29.397  28.843  1.00  0.00    -0.014 A 
ATOM     65  C   UNL A   1      37.586  29.854  27.750  1.00  0.00     0.009 A 
ATOM     66  C   UNL A   1      37.673  29.362  30.079  1.00  0.00     0.009 A 
ATOM     67  C   UNL A   1      36.287  30.357  27.905  1.00  0.00     0.001 A 
ATOM     68  C   UNL A   1      36.393  29.907  30.252  1.00  0.00     0.001 A 
ATOM     69  C   UNL A   1      35.704  30.418  29.163  1.00  0.00     0.000 A 
ENDBRANCH  50  64
BRANCH  51  70
ATOM     70  C   UNL A   1      47.370  25.957  29.149  1.00  0.00    -0.014 A 
ATOM     71  C   UNL A   1      46.999  25.530  27.858  1.00  0.00     0.009 A 
ATOM     72  C   UNL A   1      48.674  25.703  29.595  1.00  0.00     0.009 A 
ATOM     73  C   UNL A   1      47.958  25.036  26.971  1.00  0.00     0.001 A 
ATOM     74  C   UNL A   1      49.623  25.185  28.707  1.00  0.00     0.001 A 
ATOM     75  C   UNL A   1      49.280  24.910  27.384  1.00  0.00     0.000 A 
ENDBRANCH  51  70
BRANCH  63  76
ATOM     76  C   UNL A   1      44.189  32.356  27.511  1.00  0.00    -0.014 A 
ATOM     77  C   UNL A   1      44.005  33.645  28.024  1.00  0.00     0.009 A 
ATOM     78  C   UNL A   1      44.257  32.266  26.099  1.00  0.00     0.009 A 
ATOM     79  C   UNL A   1      43.985  34.776  27.191  1.00  0.00     0.001 A 
ATOM     80  C   UNL A   1      44.224  33.383  25.261  1.00  0.00     0.001 A 
ATOM     81  C   UNL A   1      44.105  34.647  25.812  1.00  0.00     0.000 A 
ENDBRANCH  63  76
ENDBRANCH  37  38
ENDBRANCH  29  32
ENDBRANCH  27  28
ENDBRANCH  26  27
ENDBRANCH   1  26
TORSDOF 13
ENDMDL
MODEL 2
REMARK VINA RESULT:     -12.2      3.689      8.715
REMARK SMILES Cc1cc(C(=O)NCCCNC(=O)c2ccc(-c3c4nc(c(-c5ccccc5)c5ccc([nH]5)c(-c5ccccc5)c5nc(c(-c6ccccc6)c6ccc3[nH]6)C=C5)C=C4)cc2)ccc1NS(=O)(=O)c1c(F)cccc1F
REMARK SMILES IDX 8 1 7 2 5 3 6 4 4 6 1 7 2 8 3 9 64 10 63 11 62 12 65 13
REMARK SMILES IDX 66 15 67 16 68 17 69 18 70 19 75 20 71 21 72 22 74 23 76 24
REMARK SMILES IDX 73 25 9 26 10 27 11 28 12 29 13 31 14 32 15 33 61 34 16 35
REMARK SMILES IDX 60 36 17 37 18 38 19 39 54 40 20 41 59 42 53 43 55 44 21 45
REMARK SMILES IDX 58 46 52 47 51 48 22 50 44 51 29 52 43 53 30 54 33 55 42 56
REMARK SMILES IDX 56 57 31 58 32 59 41 61 57 62 34 63 23 64 24 65 28 66 25 67
REMARK SMILES IDX 27 68 26 69 45 70 46 71 50 72 47 73 49 74 48 75 35 76 36 77
REMARK SMILES IDX 40 78 37 79 39 80 38 81
REMARK H PARENT 7 5 65 14 11 30 55 49 33 60
REMARK Flexibility Score: inf
ROOT
ATOM      1  C   UNL A   1      33.407  29.482  26.597  1.00  0.00     0.118 C 
ENDROOT
BRANCH   1   2
ATOM      2  N   UNL A   1      33.639  29.591  25.162  1.00  0.00    -0.352 N 
ATOM      3  C   UNL A   1      33.166  28.942  24.047  1.00  0.00     0.251 C 
ATOM      4  O   UNL A   1      33.612  29.315  22.960  1.00  0.00    -0.269 OA
ATOM      5  H   UNL A   1      34.287  30.297  24.938  1.00  0.00     0.163 HD
BRANCH   3   6
ATOM      6  C   UNL A   1      32.230  27.780  24.065  1.00  0.00     0.040 A 
ATOM      7  C   UNL A   1      32.229  24.349  22.404  1.00  0.00     0.046 C 
ATOM      8  C   UNL A   1      31.870  25.451  23.365  1.00  0.00    -0.026 A 
ATOM      9  C   UNL A   1      32.588  26.660  23.293  1.00  0.00     0.019 A 
ATOM     10  C   UNL A   1      30.825  25.347  24.291  1.00  0.00     0.052 A 
ATOM     11  C   UNL A   1      30.308  26.520  24.839  1.00  0.00     0.028 A 
ATOM     12  C   UNL A   1      31.018  27.726  24.744  1.00  0.00     0.016 A 
BRANCH  10  13
ATOM     13  N   UNL A   1      30.478  24.048  24.765  1.00  0.00    -0.279 N 
ATOM     14  H   UNL A   1      29.727  23.608  24.304  1.00  0.00     0.180 HD
BRANCH  13  15
ATOM     15  S   UNL A   1      31.184  23.177  26.004  1.00  0.00     0.267 S 
ATOM     16  O   UNL A   1      31.030  24.003  27.200  1.00  0.00    -0.201 OA
ATOM     17  O   UNL A   1      30.625  21.860  25.928  1.00  0.00    -0.201 OA
BRANCH  15  18
ATOM     18  C   UNL A   1      32.904  23.018  25.698  1.00  0.00     0.158 A 
ATOM     19  C   UNL A   1      33.707  24.131  25.921  1.00  0.00     0.146 A 
ATOM     20  C   UNL A   1      33.462  21.889  25.117  1.00  0.00     0.146 A 
ATOM     21  F   UNL A   1      33.238  25.208  26.565  1.00  0.00    -0.205 F 
ATOM     22  C   UNL A   1      35.028  24.162  25.479  1.00  0.00     0.041 A 
ATOM     23  C   UNL A   1      34.782  21.914  24.654  1.00  0.00     0.041 A 
ATOM     24  F   UNL A   1      32.757  20.766  24.937  1.00  0.00    -0.205 F 
ATOM     25  C   UNL A   1      35.561  23.060  24.811  1.00  0.00     0.006 A 
ENDBRANCH  15  18
ENDBRANCH  13  15
ENDBRANCH  10  13
ENDBRANCH   3   6
ENDBRANCH   1   2
BRANCH   1  26
ATOM     26  C   UNL A   1      34.693  29.440  27.423  1.00  0.00     0.042 C 
BRANCH  26  27
ATOM     27  C   UNL A   1      35.247  30.833  27.721  1.00  0.00     0.118 C 
BRANCH  27  28
ATOM     28  N   UNL A   1      34.231  31.864  27.970  1.00  0.00    -0.352 N 
ATOM     29  C   UNL A   1      34.246  32.887  28.909  1.00  0.00     0.251 C 
ATOM     30  H   UNL A   1      33.433  31.824  27.395  1.00  0.00     0.163 HD
ATOM     31  O   UNL A   1      33.305  33.667  29.002  1.00  0.00    -0.269 OA
BRANCH  29  32
ATOM     32  C   UNL A   1      35.486  33.114  29.686  1.00  0.00     0.039 A 
ATOM     33  C   UNL A   1      36.498  33.843  29.057  1.00  0.00     0.014 A 
ATOM     34  C   UNL A   1      35.763  32.305  30.783  1.00  0.00     0.014 A 
ATOM     35  C   UNL A   1      37.820  33.493  29.300  1.00  0.00     0.010 A 
ATOM     36  C   UNL A   1      37.067  31.891  30.960  1.00  0.00     0.010 A 
ATOM     37  C   UNL A   1      38.076  32.414  30.145  1.00  0.00    -0.014 A 
BRANCH  37  38
ATOM     38  C   UNL A   1      39.361  31.731  30.176  1.00  0.00     0.031 A 
ATOM     39  C   UNL A   1      39.480  30.417  29.524  1.00  0.00     0.074 A 
ATOM     40  C   UNL A   1      40.435  32.262  30.805  1.00  0.00     0.049 A 
ATOM     41  N   UNL A   1      40.239  29.465  29.946  1.00  0.00    -0.248 NA
ATOM     42  C   UNL A   1      38.685  30.059  28.356  1.00  0.00     0.031 C 
ATOM     43  C   UNL A   1      41.801  31.743  30.788  1.00  0.00     0.029 A 
ATOM     44  N   UNL A   1      40.474  33.258  31.782  1.00  0.00    -0.354 N 
ATOM     45  C   UNL A   1      40.292  28.527  28.944  1.00  0.00     0.074 A 
ATOM     46  C   UNL A   1      39.222  28.879  28.038  1.00  0.00     0.031 C 
ATOM     47  C   UNL A   1      42.433  32.162  31.895  1.00  0.00     0.029 A 
ATOM     48  C   UNL A   1      41.455  32.858  32.711  1.00  0.00     0.049 A 
ATOM     49  H   UNL A   1      39.927  34.076  31.816  1.00  0.00     0.167 HD
ATOM     50  C   UNL A   1      41.341  27.657  28.889  1.00  0.00     0.031 A 
ATOM     51  C   UNL A   1      41.192  32.608  34.028  1.00  0.00     0.031 A 
ATOM     52  C   UNL A   1      42.258  27.829  30.018  1.00  0.00     0.049 A 
ATOM     53  C   UNL A   1      41.526  31.189  34.458  1.00  0.00     0.074 A 
ATOM     54  C   UNL A   1      43.504  28.422  30.155  1.00  0.00     0.029 A 
ATOM     55  N   UNL A   1      41.791  27.623  31.310  1.00  0.00    -0.354 N 
ATOM     56  N   UNL A   1      41.971  30.261  33.658  1.00  0.00    -0.248 NA
ATOM     57  C   UNL A   1      41.267  30.672  35.801  1.00  0.00     0.031 C 
ATOM     58  C   UNL A   1      43.777  28.576  31.543  1.00  0.00     0.029 A 
ATOM     59  C   UNL A   1      42.709  28.059  32.250  1.00  0.00     0.049 A 
ATOM     60  H   UNL A   1      40.921  27.219  31.527  1.00  0.00     0.167 HD
ATOM     61  C   UNL A   1      42.022  29.055  34.312  1.00  0.00     0.074 A 
ATOM     62  C   UNL A   1      41.564  29.368  35.655  1.00  0.00     0.031 C 
ATOM     63  C   UNL A   1      42.400  27.905  33.670  1.00  0.00     0.031 A 
BRANCH  50  64
ATOM     64  C   UNL A   1      41.677  26.871  27.640  1.00  0.00    -0.014 A 
ATOM     65  C   UNL A   1      41.544  25.471  27.638  1.00  0.00     0.009 A 
ATOM     66  C   UNL A   1      42.182  27.439  26.457  1.00  0.00     0.009 A 
ATOM     67  C   UNL A   1      41.999  24.683  26.571  1.00  0.00     0.001 A 
ATOM     68  C   UNL A   1      42.683  26.658  25.406  1.00  0.00     0.001 A 
ATOM     69  C   UNL A   1      42.603  25.275  25.470  1.00  0.00     0.000 A 
ENDBRANCH  50  64
BRANCH  51  70
ATOM     70  C   UNL A   1      40.065  33.421  34.562  1.00  0.00    -0.014 A 
ATOM     71  C   UNL A   1      38.761  32.913  34.387  1.00  0.00     0.009 A 
ATOM     72  C   UNL A   1      40.290  34.366  35.571  1.00  0.00     0.009 A 
ATOM     73  C   UNL A   1      37.758  33.199  35.315  1.00  0.00     0.001 A 
ATOM     74  C   UNL A   1      39.272  34.665  36.483  1.00  0.00     0.001 A 
ATOM     75  C   UNL A   1      38.030  34.038  36.390  1.00  0.00     0.000 A 
ENDBRANCH  51  70
BRANCH  63  76
ATOM     76  C   UNL A   1      42.497  26.511  34.266  1.00  0.00    -0.014 A 
ATOM     77  C   UNL A   1      41.585  25.950  35.166  1.00  0.00     0.009 A 
ATOM     78  C   UNL A   1      43.625  25.709  33.960  1.00  0.00     0.009 A 
ATOM     79  C   UNL A   1      41.739  24.641  35.654  1.00  0.00     0.001 A 
ATOM     80  C   UNL A   1      43.794  24.412  34.452  1.00  0.00     0.001 A 
ATOM     81  C   UNL A   1      42.836  23.869  35.289  1.00  0.00     0.000 A 
ENDBRANCH  63  76
ENDBRANCH  37  38
ENDBRANCH  29  32
ENDBRANCH  27  28
ENDBRANCH  26  27
ENDBRANCH   1  26
TORSDOF 13
ENDMDL
MODEL 3
REMARK VINA RESULT:     -12.1      2.963      8.232
REMARK SMILES Cc1cc(C(=O)NCCCNC(=O)c2ccc(-c3c4nc(c(-c5ccccc5)c5ccc([nH]5)c(-c5ccccc5)c5nc(c(-c6ccccc6)c6ccc3[nH]6)C=C5)C=C4)cc2)ccc1NS(=O)(=O)c1c(F)cccc1F
REMARK SMILES IDX 8 1 7 2 5 3 6 4 4 6 1 7 2 8 3 9 64 10 63 11 62 12 65 13
REMARK SMILES IDX 66 15 67 16 68 17 69 18 70 19 75 20 71 21 72 22 74 23 76 24
REMARK SMILES IDX 73 25 9 26 10 27 11 28 12 29 13 31 14 32 15 33 61 34 16 35
REMARK SMILES IDX 60 36 17 37 18 38 19 39 54 40 20 41 59 42 53 43 55 44 21 45
REMARK SMILES IDX 58 46 52 47 51 48 22 50 44 51 29 52 43 53 30 54 33 55 42 56
REMARK SMILES IDX 56 57 31 58 32 59 41 61 57 62 34 63 23 64 24 65 28 66 25 67
REMARK SMILES IDX 27 68 26 69 45 70 46 71 50 72 47 73 49 74 48 75 35 76 36 77
REMARK SMILES IDX 40 78 37 79 39 80 38 81
REMARK H PARENT 7 5 65 14 11 30 55 49 33 60
REMARK Flexibility Score: inf
ROOT
ATOM      1  C   UNL A   1      33.561  30.217  26.522  1.00  0.00     0.118 C 
ENDROOT
BRANCH   1   2
ATOM      2  N   UNL A   1      32.375  30.117  25.681  1.00  0.00    -0.352 N 
ATOM      3  C   UNL A   1      31.687  29.089  25.085  1.00  0.00     0.251 C 
ATOM      4  O   UNL A   1      30.698  29.398  24.417  1.00  0.00    -0.269 OA
ATOM      5  H   UNL A   1      31.970  30.995  25.497  1.00  0.00     0.163 HD
BRANCH   3   6
ATOM      6  C   UNL A   1      32.094  27.653  25.118  1.00  0.00     0.040 A 
ATOM      7  C   UNL A   1      33.639  25.273  22.572  1.00  0.00     0.046 C 
ATOM      8  C   UNL A   1      33.208  25.829  23.904  1.00  0.00    -0.026 A 
ATOM      9  C   UNL A   1      32.639  27.116  23.938  1.00  0.00     0.019 A 
ATOM     10  C   UNL A   1      33.302  25.106  25.100  1.00  0.00     0.052 A 
ATOM     11  C   UNL A   1      32.526  25.517  26.183  1.00  0.00     0.028 A 
ATOM     12  C   UNL A   1      31.944  26.793  26.200  1.00  0.00     0.016 A 
BRANCH  10  13
ATOM     13  N   UNL A   1      34.320  24.113  25.203  1.00  0.00    -0.279 N 
ATOM     14  H   UNL A   1      35.241  24.448  25.285  1.00  0.00     0.180 HD
BRANCH  13  15
ATOM     15  S   UNL A   1      34.145  22.451  25.202  1.00  0.00     0.267 S 
ATOM     16  O   UNL A   1      33.398  22.135  26.417  1.00  0.00    -0.201 OA
ATOM     17  O   UNL A   1      33.641  22.109  23.905  1.00  0.00    -0.201 OA
BRANCH  15  18
ATOM     18  C   UNL A   1      35.723  21.699  25.350  1.00  0.00     0.158 A 
ATOM     19  C   UNL A   1      36.797  22.511  25.696  1.00  0.00     0.146 A 
ATOM     20  C   UNL A   1      35.960  20.378  25.002  1.00  0.00     0.146 A 
ATOM     21  F   UNL A   1      36.609  23.763  26.132  1.00  0.00    -0.205 F 
ATOM     22  C   UNL A   1      38.107  22.045  25.600  1.00  0.00     0.041 A 
ATOM     23  C   UNL A   1      37.272  19.904  24.886  1.00  0.00     0.041 A 
ATOM     24  F   UNL A   1      34.962  19.532  24.722  1.00  0.00    -0.205 F 
ATOM     25  C   UNL A   1      38.350  20.745  25.160  1.00  0.00     0.006 A 
ENDBRANCH  15  18
ENDBRANCH  13  15
ENDBRANCH  10  13
ENDBRANCH   3   6
ENDBRANCH   1   2
BRANCH   1  26
ATOM     26  C   UNL A   1      33.551  31.430  27.452  1.00  0.00     0.042 C 
BRANCH  26  27
ATOM     27  C   UNL A   1      34.436  31.234  28.684  1.00  0.00     0.118 C 
BRANCH  27  28
ATOM     28  N   UNL A   1      35.613  32.109  28.749  1.00  0.00    -0.352 N 
ATOM     29  C   UNL A   1      36.957  31.758  28.741  1.00  0.00     0.251 C 
ATOM     30  H   UNL A   1      35.425  33.074  28.806  1.00  0.00     0.163 HD
ATOM     31  O   UNL A   1      37.830  32.613  28.816  1.00  0.00    -0.269 OA
BRANCH  29  32
ATOM     32  C   UNL A   1      37.314  30.344  28.481  1.00  0.00     0.039 A 
ATOM     33  C   UNL A   1      37.519  29.531  29.599  1.00  0.00     0.014 A 
ATOM     34  C   UNL A   1      37.810  29.982  27.233  1.00  0.00     0.014 A 
ATOM     35  C   UNL A   1      38.505  28.554  29.539  1.00  0.00     0.010 A 
ATOM     36  C   UNL A   1      38.850  29.077  27.194  1.00  0.00     0.010 A 
ATOM     37  C   UNL A   1      39.260  28.443  28.372  1.00  0.00    -0.014 A 
BRANCH  37  38
ATOM     38  C   UNL A   1      40.532  27.739  28.327  1.00  0.00     0.031 A 
ATOM     39  C   UNL A   1      40.524  26.270  28.228  1.00  0.00     0.074 A 
ATOM     40  C   UNL A   1      41.714  28.395  28.395  1.00  0.00     0.049 A 
ATOM     41  N   UNL A   1      41.406  25.503  28.771  1.00  0.00    -0.248 NA
ATOM     42  C   UNL A   1      39.460  25.547  27.543  1.00  0.00     0.031 C 
ATOM     43  C   UNL A   1      43.045  27.816  28.222  1.00  0.00     0.029 A 
ATOM     44  N   UNL A   1      41.974  29.684  28.863  1.00  0.00    -0.354 N 
ATOM     45  C   UNL A   1      41.226  24.250  28.234  1.00  0.00     0.074 A 
ATOM     46  C   UNL A   1      39.938  24.301  27.578  1.00  0.00     0.031 C 
ATOM     47  C   UNL A   1      43.933  28.584  28.873  1.00  0.00     0.029 A 
ATOM     48  C   UNL A   1      43.183  29.604  29.581  1.00  0.00     0.049 A 
ATOM     49  H   UNL A   1      41.424  30.488  28.719  1.00  0.00     0.167 HD
ATOM     50  C   UNL A   1      42.255  23.356  28.247  1.00  0.00     0.031 A 
ATOM     51  C   UNL A   1      43.293  29.897  30.911  1.00  0.00     0.031 A 
ATOM     52  C   UNL A   1      43.435  23.885  28.938  1.00  0.00     0.049 A 
ATOM     53  C   UNL A   1      43.787  28.731  31.753  1.00  0.00     0.074 A 
ATOM     54  C   UNL A   1      44.647  24.398  28.502  1.00  0.00     0.029 A 
ATOM     55  N   UNL A   1      43.340  24.222  30.281  1.00  0.00    -0.354 N 
ATOM     56  N   UNL A   1      44.037  27.539  31.288  1.00  0.00    -0.248 NA
ATOM     57  C   UNL A   1      43.918  28.788  33.208  1.00  0.00     0.031 C 
ATOM     58  C   UNL A   1      45.276  25.053  29.597  1.00  0.00     0.029 A 
ATOM     59  C   UNL A   1      44.458  24.921  30.703  1.00  0.00     0.049 A 
ATOM     60  H   UNL A   1      42.576  23.993  30.858  1.00  0.00     0.167 HD
ATOM     61  C   UNL A   1      44.310  26.676  32.320  1.00  0.00     0.074 A 
ATOM     62  C   UNL A   1      44.217  27.510  33.506  1.00  0.00     0.031 C 
ATOM     63  C   UNL A   1      44.548  25.345  32.098  1.00  0.00     0.031 A 
BRANCH  50  64
ATOM     64  C   UNL A   1      42.275  22.132  27.359  1.00  0.00    -0.014 A 
ATOM     65  C   UNL A   1      41.403  21.061  27.625  1.00  0.00     0.009 A 
ATOM     66  C   UNL A   1      43.162  21.944  26.285  1.00  0.00     0.009 A 
ATOM     67  C   UNL A   1      41.496  19.840  26.942  1.00  0.00     0.001 A 
ATOM     68  C   UNL A   1      43.295  20.712  25.629  1.00  0.00     0.001 A 
ATOM     69  C   UNL A   1      42.467  19.653  25.968  1.00  0.00     0.000 A 
ENDBRANCH  50  64
BRANCH  51  70
ATOM     70  C   UNL A   1      42.319  30.927  31.364  1.00  0.00    -0.014 A 
ATOM     71  C   UNL A   1      42.576  32.265  30.999  1.00  0.00     0.009 A 
ATOM     72  C   UNL A   1      41.012  30.561  31.711  1.00  0.00     0.009 A 
ATOM     73  C   UNL A   1      41.522  33.160  30.802  1.00  0.00     0.001 A 
ATOM     74  C   UNL A   1      39.965  31.473  31.533  1.00  0.00     0.001 A 
ATOM     75  C   UNL A   1      40.213  32.747  31.023  1.00  0.00     0.000 A 
ENDBRANCH  51  70
BRANCH  63  76
ATOM     76  C   UNL A   1      44.857  24.282  33.139  1.00  0.00    -0.014 A 
ATOM     77  C   UNL A   1      46.125  24.005  33.661  1.00  0.00     0.009 A 
ATOM     78  C   UNL A   1      43.812  23.439  33.593  1.00  0.00     0.009 A 
ATOM     79  C   UNL A   1      46.321  23.016  34.641  1.00  0.00     0.001 A 
ATOM     80  C   UNL A   1      44.000  22.444  34.556  1.00  0.00     0.001 A 
ATOM     81  C   UNL A   1      45.258  22.244  35.096  1.00  0.00     0.000 A 
ENDBRANCH  63  76
ENDBRANCH  37  38
ENDBRANCH  29  32
ENDBRANCH  27  28
ENDBRANCH  26  27
ENDBRANCH   1  26
TORSDOF 13
ENDMDL
