MODEL 1
REMARK VINA RESULT:     -11.6      0.000      0.000
REMARK SMILES Cc1ccccc1C[C@@H](CC(F)(F)F)C(=O)NCCCNC(=O)c1ccc(-c2c3nc(c(-c4ccccc4)c4ccc([nH]4)c(-c4ccccc4)c4nc(c(-c5ccccc5)c5ccc2[nH]5)C=C4)C=C3)cc1
REMARK SMILES IDX 19 1 18 2 17 3 15 4 16 5 9 7 8 8 7 9 1 10 2 11 3 12 4 13
REMARK SMILES IDX 6 14 5 15 10 16 11 17 12 18 13 19 14 20 20 21 21 22 22 23
REMARK SMILES IDX 23 25 24 26 25 27 71 28 26 29 70 30 27 31 28 32 29 33 64 34
REMARK SMILES IDX 30 35 69 36 63 37 65 38 31 39 68 40 62 41 61 42 32 44 54 45
REMARK SMILES IDX 39 46 53 47 40 48 43 49 52 50 66 51 41 52 42 53 51 55 67 56
REMARK SMILES IDX 44 57 33 58 34 59 38 60 35 61 37 62 36 63 55 64 56 65 60 66
REMARK SMILES IDX 57 67 59 68 58 69 45 70 46 71 50 72 47 73 49 74 48 75
REMARK H PARENT 17 6 21 24 65 43 43 54
REMARK Flexibility Score: inf
ROOT
ATOM      1  C   UNL A   1      32.257  31.066  26.715  1.00  0.00     0.042 C 
ENDROOT
BRANCH   1   2
ATOM      2  C   UNL A   1      31.831  30.095  25.628  1.00  0.00     0.117 C 
BRANCH   2   3
ATOM      3  N   UNL A   1      32.868  29.831  24.645  1.00  0.00    -0.356 N 
ATOM      4  C   UNL A   1      33.071  28.782  23.806  1.00  0.00     0.223 C 
ATOM      5  O   UNL A   1      33.957  28.906  22.955  1.00  0.00    -0.275 OA
ATOM      6  H   UNL A   1      33.548  30.541  24.575  1.00  0.00     0.163 HD
BRANCH   4   7
ATOM      7  C   UNL A   1      32.247  27.493  23.853  1.00  0.00     0.092 C 
BRANCH   7   8
ATOM      8  C   UNL A   1      31.330  27.343  22.622  1.00  0.00     0.049 C 
BRANCH   8   9
ATOM      9  C   UNL A   1      30.049  28.151  22.615  1.00  0.00    -0.044 A 
ATOM     10  C   UNL A   1      28.616  26.434  23.919  1.00  0.00     0.044 C 
ATOM     11  C   UNL A   1      28.833  27.737  23.197  1.00  0.00    -0.048 A 
ATOM     12  C   UNL A   1      27.729  28.616  23.164  1.00  0.00     0.004 A 
ATOM     13  C   UNL A   1      27.817  29.877  22.577  1.00  0.00     0.000 A 
ATOM     14  C   UNL A   1      30.116  29.439  22.049  1.00  0.00     0.004 A 
ATOM     15  C   UNL A   1      29.016  30.290  22.019  1.00  0.00     0.000 A 
ENDBRANCH   8   9
ENDBRANCH   7   8
BRANCH   7  16
ATOM     16  C   UNL A   1      33.078  26.292  24.352  1.00  0.00     0.129 C 
BRANCH  16  17
ATOM     17  C   UNL A   1      33.298  26.096  25.834  1.00  0.00     0.389 C 
ATOM     18  F   UNL A   1      32.158  25.778  26.482  1.00  0.00    -0.171 F 
ATOM     19  F   UNL A   1      34.166  25.080  26.050  1.00  0.00    -0.171 F 
ATOM     20  F   UNL A   1      33.827  27.188  26.422  1.00  0.00    -0.171 F 
ENDBRANCH  16  17
ENDBRANCH   7  16
ENDBRANCH   4   7
ENDBRANCH   2   3
ENDBRANCH   1   2
BRANCH   1  21
ATOM     21  C   UNL A   1      33.486  30.581  27.446  1.00  0.00     0.118 C 
BRANCH  21  22
ATOM     22  N   UNL A   1      34.205  31.614  28.185  1.00  0.00    -0.352 N 
ATOM     23  C   UNL A   1      35.394  31.537  28.897  1.00  0.00     0.251 C 
ATOM     24  H   UNL A   1      33.781  32.502  28.177  1.00  0.00     0.163 HD
ATOM     25  O   UNL A   1      35.803  32.515  29.498  1.00  0.00    -0.269 OA
BRANCH  23  26
ATOM     26  C   UNL A   1      36.243  30.319  28.792  1.00  0.00     0.039 A 
ATOM     27  C   UNL A   1      36.414  29.535  29.941  1.00  0.00     0.014 A 
ATOM     28  C   UNL A   1      37.068  30.122  27.697  1.00  0.00     0.014 A 
ATOM     29  C   UNL A   1      37.580  28.790  30.088  1.00  0.00     0.010 A 
ATOM     30  C   UNL A   1      38.299  29.558  27.910  1.00  0.00     0.010 A 
ATOM     31  C   UNL A   1      38.571  28.924  29.124  1.00  0.00    -0.014 A 
BRANCH  31  32
ATOM     32  C   UNL A   1      39.945  28.481  29.266  1.00  0.00     0.031 A 
ATOM     33  C   UNL A   1      40.337  27.184  28.688  1.00  0.00     0.074 A 
ATOM     34  C   UNL A   1      40.869  29.343  29.742  1.00  0.00     0.049 A 
ATOM     35  N   UNL A   1      41.423  26.564  28.989  1.00  0.00    -0.248 NA
ATOM     36  C   UNL A   1      39.506  26.453  27.733  1.00  0.00     0.031 C 
ATOM     37  C   UNL A   1      42.321  29.257  29.619  1.00  0.00     0.029 A 
ATOM     38  N   UNL A   1      40.661  30.399  30.629  1.00  0.00    -0.354 N 
ATOM     39  C   UNL A   1      41.579  25.546  28.081  1.00  0.00     0.074 A 
ATOM     40  C   UNL A   1      40.333  25.472  27.361  1.00  0.00     0.031 C 
ATOM     41  C   UNL A   1      42.884  30.018  30.570  1.00  0.00     0.029 A 
ATOM     42  C   UNL A   1      41.814  30.488  31.434  1.00  0.00     0.049 A 
ATOM     43  H   UNL A   1      39.863  30.972  30.682  1.00  0.00     0.167 HD
ATOM     44  C   UNL A   1      42.802  24.964  27.952  1.00  0.00     0.031 A 
ATOM     45  C   UNL A   1      41.737  30.239  32.776  1.00  0.00     0.031 A 
ATOM     46  C   UNL A   1      43.752  25.505  28.918  1.00  0.00     0.049 A 
ATOM     47  C   UNL A   1      42.541  29.031  33.216  1.00  0.00     0.074 A 
ATOM     48  C   UNL A   1      44.753  26.458  28.835  1.00  0.00     0.029 A 
ATOM     49  N   UNL A   1      43.507  25.307  30.270  1.00  0.00    -0.354 N 
ATOM     50  N   UNL A   1      42.992  28.114  32.404  1.00  0.00    -0.248 NA
ATOM     51  C   UNL A   1      42.889  28.751  34.607  1.00  0.00     0.031 C 
ATOM     52  C   UNL A   1      45.076  26.869  30.156  1.00  0.00     0.029 A 
ATOM     53  C   UNL A   1      44.292  26.143  31.036  1.00  0.00     0.049 A 
ATOM     54  H   UNL A   1      42.860  24.659  30.633  1.00  0.00     0.167 HD
ATOM     55  C   UNL A   1      43.666  27.151  33.110  1.00  0.00     0.074 A 
ATOM     56  C   UNL A   1      43.580  27.602  34.487  1.00  0.00     0.031 C 
ATOM     57  C   UNL A   1      44.221  26.066  32.491  1.00  0.00     0.031 A 
BRANCH  44  58
ATOM     58  C   UNL A   1      43.191  24.097  26.785  1.00  0.00    -0.014 A 
ATOM     59  C   UNL A   1      42.992  22.707  26.864  1.00  0.00     0.009 A 
ATOM     60  C   UNL A   1      43.786  24.572  25.604  1.00  0.00     0.009 A 
ATOM     61  C   UNL A   1      43.433  21.836  25.860  1.00  0.00     0.001 A 
ATOM     62  C   UNL A   1      44.265  23.706  24.613  1.00  0.00     0.001 A 
ATOM     63  C   UNL A   1      44.094  22.334  24.744  1.00  0.00     0.000 A 
ENDBRANCH  44  58
BRANCH  45  64
ATOM     64  C   UNL A   1      40.443  30.689  33.369  1.00  0.00    -0.014 A 
ATOM     65  C   UNL A   1      40.181  32.074  33.390  1.00  0.00     0.009 A 
ATOM     66  C   UNL A   1      39.361  29.804  33.482  1.00  0.00     0.009 A 
ATOM     67  C   UNL A   1      38.870  32.557  33.374  1.00  0.00     0.001 A 
ATOM     68  C   UNL A   1      38.047  30.295  33.484  1.00  0.00     0.001 A 
ATOM     69  C   UNL A   1      37.802  31.665  33.385  1.00  0.00     0.000 A 
ENDBRANCH  45  64
BRANCH  57  70
ATOM     70  C   UNL A   1      44.787  24.815  33.138  1.00  0.00    -0.014 A 
ATOM     71  C   UNL A   1      46.088  24.675  33.629  1.00  0.00     0.009 A 
ATOM     72  C   UNL A   1      43.911  23.727  33.387  1.00  0.00     0.009 A 
ATOM     73  C   UNL A   1      46.493  23.517  34.312  1.00  0.00     0.001 A 
ATOM     74  C   UNL A   1      44.292  22.595  34.111  1.00  0.00     0.001 A 
ATOM     75  C   UNL A   1      45.593  22.487  34.567  1.00  0.00     0.000 A 
ENDBRANCH  57  70
ENDBRANCH  31  32
ENDBRANCH  23  26
ENDBRANCH  21  22
ENDBRANCH   1  21
TORSDOF 14
ENDMDL
MODEL 2
REMARK VINA RESULT:     -11.5      1.381      2.396
REMARK SMILES Cc1ccccc1C[C@@H](CC(F)(F)F)C(=O)NCCCNC(=O)c1ccc(-c2c3nc(c(-c4ccccc4)c4ccc([nH]4)c(-c4ccccc4)c4nc(c(-c5ccccc5)c5ccc2[nH]5)C=C4)C=C3)cc1
REMARK SMILES IDX 19 1 18 2 17 3 15 4 16 5 9 7 8 8 7 9 1 10 2 11 3 12 4 13
REMARK SMILES IDX 6 14 5 15 10 16 11 17 12 18 13 19 14 20 20 21 21 22 22 23
REMARK SMILES IDX 23 25 24 26 25 27 71 28 26 29 70 30 27 31 28 32 29 33 64 34
REMARK SMILES IDX 30 35 69 36 63 37 65 38 31 39 68 40 62 41 61 42 32 44 54 45
REMARK SMILES IDX 39 46 53 47 40 48 43 49 52 50 66 51 41 52 42 53 51 55 67 56
REMARK SMILES IDX 44 57 33 58 34 59 38 60 35 61 37 62 36 63 55 64 56 65 60 66
REMARK SMILES IDX 57 67 59 68 58 69 45 70 46 71 50 72 47 73 49 74 48 75
REMARK H PARENT 17 6 21 24 65 43 43 54
REMARK Flexibility Score: inf
ROOT
ATOM      1  C   UNL A   1      32.261  30.642  26.569  1.00  0.00     0.042 C 
ENDROOT
BRANCH   1   2
ATOM      2  C   UNL A   1      31.872  29.942  25.280  1.00  0.00     0.117 C 
BRANCH   2   3
ATOM      3  N   UNL A   1      32.991  29.716  24.380  1.00  0.00    -0.356 N 
ATOM      4  C   UNL A   1      33.446  28.591  23.769  1.00  0.00     0.223 C 
ATOM      5  O   UNL A   1      34.331  28.731  22.920  1.00  0.00    -0.275 OA
ATOM      6  H   UNL A   1      33.515  30.525  24.177  1.00  0.00     0.163 HD
BRANCH   4   7
ATOM      7  C   UNL A   1      32.898  27.193  24.063  1.00  0.00     0.092 C 
BRANCH   7   8
ATOM      8  C   UNL A   1      33.234  26.188  22.942  1.00  0.00     0.049 C 
BRANCH   8   9
ATOM      9  C   UNL A   1      33.216  24.718  23.306  1.00  0.00    -0.044 A 
ATOM     10  C   UNL A   1      30.643  24.439  23.265  1.00  0.00     0.044 C 
ATOM     11  C   UNL A   1      32.051  23.938  23.452  1.00  0.00    -0.048 A 
ATOM     12  C   UNL A   1      32.184  22.563  23.741  1.00  0.00     0.004 A 
ATOM     13  C   UNL A   1      33.434  21.963  23.879  1.00  0.00     0.000 A 
ATOM     14  C   UNL A   1      34.467  24.081  23.428  1.00  0.00     0.004 A 
ATOM     15  C   UNL A   1      34.579  22.726  23.721  1.00  0.00     0.000 A 
ENDBRANCH   8   9
ENDBRANCH   7   8
BRANCH   7  16
ATOM     16  C   UNL A   1      33.090  26.795  25.542  1.00  0.00     0.129 C 
BRANCH  16  17
ATOM     17  C   UNL A   1      31.887  26.447  26.388  1.00  0.00     0.389 C 
ATOM     18  F   UNL A   1      31.898  25.159  26.787  1.00  0.00    -0.171 F 
ATOM     19  F   UNL A   1      31.867  27.203  27.510  1.00  0.00    -0.171 F 
ATOM     20  F   UNL A   1      30.725  26.680  25.744  1.00  0.00    -0.171 F 
ENDBRANCH  16  17
ENDBRANCH   7  16
ENDBRANCH   4   7
ENDBRANCH   2   3
ENDBRANCH   1   2
BRANCH   1  21
ATOM     21  C   UNL A   1      33.703  30.380  26.934  1.00  0.00     0.118 C 
BRANCH  21  22
ATOM     22  N   UNL A   1      34.330  31.425  27.736  1.00  0.00    -0.352 N 
ATOM     23  C   UNL A   1      35.439  31.365  28.570  1.00  0.00     0.251 C 
ATOM     24  H   UNL A   1      33.901  32.309  27.677  1.00  0.00     0.163 HD
ATOM     25  O   UNL A   1      35.773  32.351  29.203  1.00  0.00    -0.269 OA
BRANCH  23  26
ATOM     26  C   UNL A   1      36.305  30.155  28.564  1.00  0.00     0.039 A 
ATOM     27  C   UNL A   1      36.468  29.457  29.768  1.00  0.00     0.014 A 
ATOM     28  C   UNL A   1      37.151  29.893  27.499  1.00  0.00     0.014 A 
ATOM     29  C   UNL A   1      37.641  28.740  29.985  1.00  0.00     0.010 A 
ATOM     30  C   UNL A   1      38.385  29.364  27.771  1.00  0.00     0.010 A 
ATOM     31  C   UNL A   1      38.646  28.821  29.030  1.00  0.00    -0.014 A 
BRANCH  31  32
ATOM     32  C   UNL A   1      40.023  28.409  29.224  1.00  0.00     0.031 A 
ATOM     33  C   UNL A   1      40.468  27.124  28.656  1.00  0.00     0.074 A 
ATOM     34  C   UNL A   1      40.907  29.289  29.740  1.00  0.00     0.049 A 
ATOM     35  N   UNL A   1      41.555  26.528  28.998  1.00  0.00    -0.248 NA
ATOM     36  C   UNL A   1      39.693  26.379  27.666  1.00  0.00     0.031 C 
ATOM     37  C   UNL A   1      42.364  29.237  29.674  1.00  0.00     0.029 A 
ATOM     38  N   UNL A   1      40.640  30.335  30.623  1.00  0.00    -0.354 N 
ATOM     39  C   UNL A   1      41.771  25.518  28.092  1.00  0.00     0.074 A 
ATOM     40  C   UNL A   1      40.556  25.420  27.323  1.00  0.00     0.031 C 
ATOM     41  C   UNL A   1      42.872  30.006  30.651  1.00  0.00     0.029 A 
ATOM     42  C   UNL A   1      41.758  30.446  31.474  1.00  0.00     0.049 A 
ATOM     43  H   UNL A   1      39.827  30.889  30.647  1.00  0.00     0.167 HD
ATOM     44  C   UNL A   1      43.010  24.965  28.009  1.00  0.00     0.031 A 
ATOM     45  C   UNL A   1      41.634  30.188  32.811  1.00  0.00     0.031 A 
ATOM     46  C   UNL A   1      43.909  25.523  29.015  1.00  0.00     0.049 A 
ATOM     47  C   UNL A   1      42.448  28.997  33.277  1.00  0.00     0.074 A 
ATOM     48  C   UNL A   1      44.890  26.499  28.975  1.00  0.00     0.029 A 
ATOM     49  N   UNL A   1      43.615  25.312  30.355  1.00  0.00    -0.354 N 
ATOM     50  N   UNL A   1      42.951  28.096  32.479  1.00  0.00    -0.248 NA
ATOM     51  C   UNL A   1      42.747  28.718  34.679  1.00  0.00     0.031 C 
ATOM     52  C   UNL A   1      45.151  26.910  30.310  1.00  0.00     0.029 A 
ATOM     53  C   UNL A   1      44.350  26.162  31.155  1.00  0.00     0.049 A 
ATOM     54  H   UNL A   1      42.970  24.648  30.689  1.00  0.00     0.167 HD
ATOM     55  C   UNL A   1      43.619  27.144  33.207  1.00  0.00     0.074 A 
ATOM     56  C   UNL A   1      43.469  27.586  34.582  1.00  0.00     0.031 C 
ATOM     57  C   UNL A   1      44.224  26.075  32.605  1.00  0.00     0.031 A 
BRANCH  44  58
ATOM     58  C   UNL A   1      43.466  24.114  26.855  1.00  0.00    -0.014 A 
ATOM     59  C   UNL A   1      44.229  24.699  25.829  1.00  0.00     0.009 A 
ATOM     60  C   UNL A   1      43.154  22.753  26.697  1.00  0.00     0.009 A 
ATOM     61  C   UNL A   1      44.590  23.989  24.676  1.00  0.00     0.001 A 
ATOM     62  C   UNL A   1      43.478  22.047  25.532  1.00  0.00     0.001 A 
ATOM     63  C   UNL A   1      44.192  22.668  24.516  1.00  0.00     0.000 A 
ENDBRANCH  44  58
BRANCH  45  64
ATOM     64  C   UNL A   1      40.308  30.605  33.354  1.00  0.00    -0.014 A 
ATOM     65  C   UNL A   1      40.028  31.987  33.405  1.00  0.00     0.009 A 
ATOM     66  C   UNL A   1      39.232  29.706  33.386  1.00  0.00     0.009 A 
ATOM     67  C   UNL A   1      38.712  32.456  33.341  1.00  0.00     0.001 A 
ATOM     68  C   UNL A   1      37.914  30.182  33.340  1.00  0.00     0.001 A 
ATOM     69  C   UNL A   1      37.656  31.551  33.272  1.00  0.00     0.000 A 
ENDBRANCH  45  64
BRANCH  57  70
ATOM     70  C   UNL A   1      44.792  24.835  33.269  1.00  0.00    -0.014 A 
ATOM     71  C   UNL A   1      46.121  24.665  33.664  1.00  0.00     0.009 A 
ATOM     72  C   UNL A   1      43.899  23.796  33.639  1.00  0.00     0.009 A 
ATOM     73  C   UNL A   1      46.537  23.525  34.371  1.00  0.00     0.001 A 
ATOM     74  C   UNL A   1      44.294  22.685  34.387  1.00  0.00     0.001 A 
ATOM     75  C   UNL A   1      45.622  22.546  34.747  1.00  0.00     0.000 A 
ENDBRANCH  57  70
ENDBRANCH  31  32
ENDBRANCH  23  26
ENDBRANCH  21  22
ENDBRANCH   1  21
TORSDOF 14
ENDMDL
MODEL 3
REMARK VINA RESULT:     -11.3      3.684      8.508
REMARK SMILES Cc1ccccc1C[C@@H](CC(F)(F)F)C(=O)NCCCNC(=O)c1ccc(-c2c3nc(c(-c4ccccc4)c4ccc([nH]4)c(-c4ccccc4)c4nc(c(-c5ccccc5)c5ccc2[nH]5)C=C4)C=C3)cc1
REMARK SMILES IDX 19 1 18 2 17 3 15 4 16 5 9 7 8 8 7 9 1 10 2 11 3 12 4 13
REMARK SMILES IDX 6 14 5 15 10 16 11 17 12 18 13 19 14 20 20 21 21 22 22 23
REMARK SMILES IDX 23 25 24 26 25 27 71 28 26 29 70 30 27 31 28 32 29 33 64 34
REMARK SMILES IDX 30 35 69 36 63 37 65 38 31 39 68 40 62 41 61 42 32 44 54 45
REMARK SMILES IDX 39 46 53 47 40 48 43 49 52 50 66 51 41 52 42 53 51 55 67 56
REMARK SMILES IDX 44 57 33 58 34 59 38 60 35 61 37 62 36 63 55 64 56 65 60 66
REMARK SMILES IDX 57 67 59 68 58 69 45 70 46 71 50 72 47 73 49 74 48 75
REMARK H PARENT 17 6 21 24 65 43 43 54
REMARK Flexibility Score: inf
ROOT
ATOM      1  C   UNL A   1      37.501  21.042  25.077  1.00  0.00     0.042 C 
ENDROOT
BRANCH   1   2
ATOM      2  C   UNL A   1      35.995  20.965  25.248  1.00  0.00     0.117 C 
BRANCH   2   3
ATOM      3  N   UNL A   1      35.526  21.504  26.513  1.00  0.00    -0.356 N 
ATOM      4  C   UNL A   1      34.518  22.366  26.810  1.00  0.00     0.223 C 
ATOM      5  O   UNL A   1      34.242  22.520  28.003  1.00  0.00    -0.275 OA
ATOM      6  H   UNL A   1      36.028  21.187  27.298  1.00  0.00     0.163 HD
BRANCH   4   7
ATOM      7  C   UNL A   1      33.712  23.118  25.747  1.00  0.00     0.092 C 
BRANCH   7   8
ATOM      8  C   UNL A   1      32.344  23.589  26.280  1.00  0.00     0.049 C 
BRANCH   8   9
ATOM      9  C   UNL A   1      31.753  24.835  25.652  1.00  0.00    -0.044 A 
ATOM     10  C   UNL A   1      30.785  23.669  23.553  1.00  0.00     0.044 C 
ATOM     11  C   UNL A   1      31.055  24.865  24.427  1.00  0.00    -0.048 A 
ATOM     12  C   UNL A   1      30.507  26.089  23.986  1.00  0.00     0.004 A 
ATOM     13  C   UNL A   1      30.637  27.259  24.733  1.00  0.00     0.000 A 
ATOM     14  C   UNL A   1      31.848  26.026  26.398  1.00  0.00     0.004 A 
ATOM     15  C   UNL A   1      31.308  27.225  25.944  1.00  0.00     0.000 A 
ENDBRANCH   8   9
ENDBRANCH   7   8
BRANCH   7  16
ATOM     16  C   UNL A   1      34.595  24.077  24.922  1.00  0.00     0.129 C 
BRANCH  16  17
ATOM     17  C   UNL A   1      34.740  23.870  23.432  1.00  0.00     0.389 C 
ATOM     18  F   UNL A   1      33.977  22.853  22.981  1.00  0.00    -0.171 F 
ATOM     19  F   UNL A   1      34.348  24.978  22.763  1.00  0.00    -0.171 F 
ATOM     20  F   UNL A   1      36.017  23.632  23.070  1.00  0.00    -0.171 F 
ENDBRANCH  16  17
ENDBRANCH   7  16
ENDBRANCH   4   7
ENDBRANCH   2   3
ENDBRANCH   1   2
BRANCH   1  21
ATOM     21  C   UNL A   1      38.077  22.274  25.734  1.00  0.00     0.118 C 
BRANCH  21  22
ATOM     22  N   UNL A   1      39.464  22.145  26.166  1.00  0.00    -0.352 N 
ATOM     23  C   UNL A   1      40.360  23.117  26.592  1.00  0.00     0.251 C 
ATOM     24  H   UNL A   1      39.820  21.227  26.155  1.00  0.00     0.163 HD
ATOM     25  O   UNL A   1      41.507  22.806  26.860  1.00  0.00    -0.269 OA
BRANCH  23  26
ATOM     26  C   UNL A   1      39.877  24.497  26.872  1.00  0.00     0.039 A 
ATOM     27  C   UNL A   1      40.421  25.549  26.124  1.00  0.00     0.014 A 
ATOM     28  C   UNL A   1      39.147  24.774  28.016  1.00  0.00     0.014 A 
ATOM     29  C   UNL A   1      40.484  26.821  26.685  1.00  0.00     0.010 A 
ATOM     30  C   UNL A   1      39.378  25.963  28.657  1.00  0.00     0.010 A 
ATOM     31  C   UNL A   1      40.083  26.976  28.005  1.00  0.00    -0.014 A 
BRANCH  31  32
ATOM     32  C   UNL A   1      40.365  28.131  28.837  1.00  0.00     0.031 A 
ATOM     33  C   UNL A   1      39.302  29.129  29.051  1.00  0.00     0.074 A 
ATOM     34  C   UNL A   1      41.511  28.166  29.549  1.00  0.00     0.049 A 
ATOM     35  N   UNL A   1      39.511  30.309  29.517  1.00  0.00    -0.248 NA
ATOM     36  C   UNL A   1      37.900  28.884  28.720  1.00  0.00     0.031 C 
ATOM     37  C   UNL A   1      41.823  29.006  30.702  1.00  0.00     0.029 A 
ATOM     38  N   UNL A   1      42.725  27.560  29.227  1.00  0.00    -0.354 N 
ATOM     39  C   UNL A   1      38.287  30.852  29.824  1.00  0.00     0.074 A 
ATOM     40  C   UNL A   1      37.312  29.959  29.251  1.00  0.00     0.031 C 
ATOM     41  C   UNL A   1      43.157  29.076  30.840  1.00  0.00     0.029 A 
ATOM     42  C   UNL A   1      43.744  28.417  29.685  1.00  0.00     0.049 A 
ATOM     43  H   UNL A   1      42.846  26.698  28.767  1.00  0.00     0.167 HD
ATOM     44  C   UNL A   1      38.236  31.933  30.648  1.00  0.00     0.031 A 
ATOM     45  C   UNL A   1      44.587  29.023  28.795  1.00  0.00     0.031 A 
ATOM     46  C   UNL A   1      39.575  32.392  31.004  1.00  0.00     0.049 A 
ATOM     47  C   UNL A   1      44.472  30.534  28.781  1.00  0.00     0.074 A 
ATOM     48  C   UNL A   1      40.377  32.210  32.118  1.00  0.00     0.029 A 
ATOM     49  N   UNL A   1      40.402  32.867  29.995  1.00  0.00    -0.354 N 
ATOM     50  N   UNL A   1      43.471  31.198  29.292  1.00  0.00    -0.248 NA
ATOM     51  C   UNL A   1      45.467  31.418  28.179  1.00  0.00     0.031 C 
ATOM     52  C   UNL A   1      41.712  32.536  31.754  1.00  0.00     0.029 A 
ATOM     53  C   UNL A   1      41.709  32.943  30.431  1.00  0.00     0.049 A 
ATOM     54  H   UNL A   1      40.099  33.115  29.093  1.00  0.00     0.167 HD
ATOM     55  C   UNL A   1      43.658  32.545  29.107  1.00  0.00     0.074 A 
ATOM     56  C   UNL A   1      44.929  32.630  28.412  1.00  0.00     0.031 C 
ATOM     57  C   UNL A   1      42.738  33.461  29.537  1.00  0.00     0.031 A 
BRANCH  44  58
ATOM     58  C   UNL A   1      36.979  32.403  31.327  1.00  0.00    -0.014 A 
ATOM     59  C   UNL A   1      36.062  33.190  30.606  1.00  0.00     0.009 A 
ATOM     60  C   UNL A   1      36.653  32.143  32.668  1.00  0.00     0.009 A 
ATOM     61  C   UNL A   1      34.929  33.750  31.211  1.00  0.00     0.001 A 
ATOM     62  C   UNL A   1      35.544  32.729  33.290  1.00  0.00     0.001 A 
ATOM     63  C   UNL A   1      34.683  33.540  32.562  1.00  0.00     0.000 A 
ENDBRANCH  44  58
BRANCH  45  64
ATOM     64  C   UNL A   1      44.888  28.160  27.615  1.00  0.00    -0.014 A 
ATOM     65  C   UNL A   1      45.508  26.916  27.856  1.00  0.00     0.009 A 
ATOM     66  C   UNL A   1      44.207  28.341  26.402  1.00  0.00     0.009 A 
ATOM     67  C   UNL A   1      45.325  25.841  26.980  1.00  0.00     0.001 A 
ATOM     68  C   UNL A   1      44.042  27.264  25.519  1.00  0.00     0.001 A 
ATOM     69  C   UNL A   1      44.561  26.007  25.829  1.00  0.00     0.000 A 
ENDBRANCH  45  64
BRANCH  57  70
ATOM     70  C   UNL A   1      42.680  34.942  29.211  1.00  0.00    -0.014 A 
ATOM     71  C   UNL A   1      43.291  35.957  29.950  1.00  0.00     0.009 A 
ATOM     72  C   UNL A   1      42.064  35.344  27.997  1.00  0.00     0.009 A 
ATOM     73  C   UNL A   1      43.277  37.292  29.514  1.00  0.00     0.001 A 
ATOM     74  C   UNL A   1      42.091  36.660  27.532  1.00  0.00     0.001 A 
ATOM     75  C   UNL A   1      42.693  37.640  28.300  1.00  0.00     0.000 A 
ENDBRANCH  57  70
ENDBRANCH  31  32
ENDBRANCH  23  26
ENDBRANCH  21  22
ENDBRANCH   1  21
TORSDOF 14
ENDMDL
