MODEL 1
REMARK VINA RESULT:     -12.2      0.000      0.000
REMARK SMILES O=C(NCCCNC(=O)[C@@H]1CCCN1S(=O)(=O)c1ccc2c3c(cccc13)C(=O)N2)c1ccc(-c2c3nc(c(-c4ccccc4)c4ccc([nH]4)c(-c4ccccc4)c4nc(c(-c5ccccc5)c5ccc2[nH]5)C=C4)C=C3)cc1
REMARK SMILES IDX 5 1 4 2 3 3 1 4 2 5 31 7 32 8 78 9 33 10 77 11 34 12 35 13
REMARK SMILES IDX 36 14 71 15 37 16 76 17 70 18 72 19 38 20 75 21 69 22 68 23
REMARK SMILES IDX 39 25 61 26 46 27 60 28 47 29 50 30 59 31 73 32 48 33 49 34
REMARK SMILES IDX 58 36 74 37 51 38 40 39 41 40 45 41 42 42 44 43 43 44 62 45
REMARK SMILES IDX 63 46 67 47 64 48 66 49 65 50 52 51 53 52 57 53 54 54 56 55
REMARK SMILES IDX 55 56 6 57 7 58 8 59 9 61 10 62 11 63 14 64 12 65 13 66
REMARK SMILES IDX 15 67 16 68 17 69 18 70 19 71 27 72 20 73 22 74 26 75 21 76
REMARK SMILES IDX 23 77 25 78 30 79 24 80 28 81 29 83
REMARK H PARENT 3 6 72 24 50 35 7 60 30 82
REMARK Flexibility Score: inf
ROOT
ATOM      1  C   UNL A   1      33.921  28.287  25.912  1.00  0.00     0.042 C 
ENDROOT
BRANCH   1   2
ATOM      2  C   UNL A   1      33.541  28.586  27.357  1.00  0.00     0.118 C 
BRANCH   2   3
ATOM      3  N   UNL A   1      33.509  30.010  27.650  1.00  0.00    -0.352 N 
ATOM      4  O   UNL A   1      34.262  31.945  28.542  1.00  0.00    -0.269 OA
ATOM      5  C   UNL A   1      34.491  30.787  28.212  1.00  0.00     0.251 C 
ATOM      6  H   UNL A   1      32.674  30.476  27.414  1.00  0.00     0.163 HD
BRANCH   5   7
ATOM      7  C   UNL A   1      35.825  30.200  28.447  1.00  0.00     0.039 A 
ATOM      8  C   UNL A   1      36.160  29.679  29.702  1.00  0.00     0.014 A 
ATOM      9  C   UNL A   1      36.758  30.206  27.408  1.00  0.00     0.014 A 
ATOM     10  C   UNL A   1      37.468  29.279  29.953  1.00  0.00     0.010 A 
ATOM     11  C   UNL A   1      38.054  29.748  27.645  1.00  0.00     0.010 A 
ATOM     12  C   UNL A   1      38.426  29.314  28.927  1.00  0.00    -0.014 A 
BRANCH  12  13
ATOM     13  C   UNL A   1      39.810  28.855  29.189  1.00  0.00     0.031 A 
ATOM     14  C   UNL A   1      40.258  27.483  28.777  1.00  0.00     0.074 A 
ATOM     15  C   UNL A   1      40.669  29.693  29.797  1.00  0.00     0.049 A 
ATOM     16  N   UNL A   1      41.422  26.913  28.956  1.00  0.00    -0.248 NA
ATOM     17  C   UNL A   1      39.280  26.643  28.067  1.00  0.00     0.031 C 
ATOM     18  C   UNL A   1      40.358  31.061  30.215  1.00  0.00     0.029 A 
ATOM     19  N   UNL A   1      41.979  29.519  30.162  1.00  0.00    -0.354 N 
ATOM     20  C   UNL A   1      41.319  25.652  28.383  1.00  0.00     0.074 A 
ATOM     21  C   UNL A   1      39.970  25.526  27.876  1.00  0.00     0.031 C 
ATOM     22  C   UNL A   1      41.455  31.613  30.752  1.00  0.00     0.029 A 
ATOM     23  C   UNL A   1      42.527  30.622  30.766  1.00  0.00     0.049 A 
ATOM     24  H   UNL A   1      42.478  28.686  30.004  1.00  0.00     0.167 HD
ATOM     25  C   UNL A   1      42.270  24.694  28.282  1.00  0.00     0.031 A 
ATOM     26  C   UNL A   1      43.751  30.817  31.290  1.00  0.00     0.031 A 
ATOM     27  C   UNL A   1      43.607  24.817  28.800  1.00  0.00     0.049 A 
ATOM     28  C   UNL A   1      44.759  29.709  31.241  1.00  0.00     0.074 A 
ATOM     29  C   UNL A   1      44.636  23.891  28.747  1.00  0.00     0.029 A 
ATOM     30  N   UNL A   1      44.102  25.928  29.464  1.00  0.00    -0.354 N 
ATOM     31  N   UNL A   1      44.643  28.517  30.710  1.00  0.00    -0.248 NA
ATOM     32  C   UNL A   1      46.066  29.971  31.859  1.00  0.00     0.031 C 
ATOM     33  C   UNL A   1      45.738  24.423  29.420  1.00  0.00     0.029 A 
ATOM     34  C   UNL A   1      45.416  25.704  29.839  1.00  0.00     0.049 A 
ATOM     35  H   UNL A   1      43.595  26.753  29.642  1.00  0.00     0.167 HD
ATOM     36  C   UNL A   1      45.867  27.894  30.906  1.00  0.00     0.074 A 
ATOM     37  C   UNL A   1      46.714  28.841  31.603  1.00  0.00     0.031 C 
ATOM     38  C   UNL A   1      46.251  26.649  30.534  1.00  0.00     0.031 A 
BRANCH  25  39
ATOM     39  C   UNL A   1      41.912  23.415  27.582  1.00  0.00    -0.014 A 
ATOM     40  C   UNL A   1      42.278  23.201  26.244  1.00  0.00     0.009 A 
ATOM     41  C   UNL A   1      41.306  22.370  28.299  1.00  0.00     0.009 A 
ATOM     42  C   UNL A   1      42.040  21.966  25.636  1.00  0.00     0.001 A 
ATOM     43  C   UNL A   1      41.092  21.130  27.695  1.00  0.00     0.001 A 
ATOM     44  C   UNL A   1      41.458  20.929  26.365  1.00  0.00     0.000 A 
ENDBRANCH  25  39
BRANCH  26  45
ATOM     45  C   UNL A   1      44.076  32.138  31.882  1.00  0.00    -0.014 A 
ATOM     46  C   UNL A   1      43.858  32.371  33.247  1.00  0.00     0.009 A 
ATOM     47  C   UNL A   1      44.686  33.137  31.108  1.00  0.00     0.009 A 
ATOM     48  C   UNL A   1      44.252  33.578  33.828  1.00  0.00     0.001 A 
ATOM     49  C   UNL A   1      45.099  34.334  31.696  1.00  0.00     0.001 A 
ATOM     50  C   UNL A   1      44.881  34.552  33.055  1.00  0.00     0.000 A 
ENDBRANCH  26  45
BRANCH  38  51
ATOM     51  C   UNL A   1      47.660  26.229  30.839  1.00  0.00    -0.014 A 
ATOM     52  C   UNL A   1      48.006  25.704  32.093  1.00  0.00     0.009 A 
ATOM     53  C   UNL A   1      48.628  26.264  29.822  1.00  0.00     0.009 A 
ATOM     54  C   UNL A   1      49.300  25.233  32.325  1.00  0.00     0.001 A 
ATOM     55  C   UNL A   1      49.913  25.768  30.049  1.00  0.00     0.001 A 
ATOM     56  C   UNL A   1      50.248  25.256  31.302  1.00  0.00     0.000 A 
ENDBRANCH  38  51
ENDBRANCH  12  13
ENDBRANCH   5   7
ENDBRANCH   2   3
ENDBRANCH   1   2
BRANCH   1  57
ATOM     57  C   UNL A   1      32.949  28.873  24.897  1.00  0.00     0.117 C 
BRANCH  57  58
ATOM     58  N   UNL A   1      31.658  28.209  24.976  1.00  0.00    -0.355 N 
ATOM     59  C   UNL A   1      31.243  27.050  24.385  1.00  0.00     0.238 C 
ATOM     60  H   UNL A   1      30.988  28.659  25.538  1.00  0.00     0.163 HD
ATOM     61  O   UNL A   1      30.084  26.688  24.585  1.00  0.00    -0.273 OA
BRANCH  59  62
ATOM     62  C   UNL A   1      32.206  26.310  23.501  1.00  0.00     0.162 C 
ATOM     63  C   UNL A   1      31.526  25.593  22.342  1.00  0.00     0.032 C 
ATOM     64  N   UNL A   1      33.163  25.291  24.055  1.00  0.00    -0.185 NA
ATOM     65  C   UNL A   1      32.689  24.882  21.683  1.00  0.00     0.019 C 
ATOM     66  C   UNL A   1      33.700  24.623  22.805  1.00  0.00     0.103 C 
BRANCH  64  67
ATOM     67  S   UNL A   1      32.621  24.118  25.212  1.00  0.00     0.244 S 
ATOM     68  O   UNL A   1      32.738  24.709  26.527  1.00  0.00    -0.207 OA
ATOM     69  O   UNL A   1      31.324  23.672  24.748  1.00  0.00    -0.207 OA
BRANCH  67  70
ATOM     70  C   UNL A   1      33.726  22.707  25.154  1.00  0.00     0.090 A 
ATOM     71  C   UNL A   1      33.178  21.490  24.667  1.00  0.00     0.024 A 
ATOM     72  C   UNL A   1      35.142  22.806  25.385  1.00  0.00     0.005 A 
ATOM     73  C   UNL A   1      33.917  20.296  24.599  1.00  0.00     0.028 A 
ATOM     74  C   UNL A   1      35.816  21.619  25.262  1.00  0.00     0.019 A 
ATOM     75  C   UNL A   1      36.006  23.906  25.666  1.00  0.00     0.010 A 
ATOM     76  C   UNL A   1      35.248  20.409  24.929  1.00  0.00     0.050 A 
ATOM     77  C   UNL A   1      37.187  21.420  25.375  1.00  0.00     0.050 A 
ATOM     78  C   UNL A   1      37.411  23.751  25.749  1.00  0.00     0.002 A 
ATOM     79  N   UNL A   1      36.253  19.461  24.909  1.00  0.00    -0.321 N 
ATOM     80  C   UNL A   1      38.028  22.502  25.606  1.00  0.00     0.014 A 
ATOM     81  C   UNL A   1      37.509  20.023  25.163  1.00  0.00     0.256 C 
ATOM     82  H   UNL A   1      36.104  18.504  24.736  1.00  0.00     0.170 HD
ATOM     83  O   UNL A   1      38.564  19.405  25.157  1.00  0.00    -0.269 OA
ENDBRANCH  67  70
ENDBRANCH  64  67
ENDBRANCH  59  62
ENDBRANCH  57  58
ENDBRANCH   1  57
TORSDOF 12
ENDMDL
MODEL 2
REMARK VINA RESULT:     -12.2      0.276      5.834
REMARK SMILES O=C(NCCCNC(=O)[C@@H]1CCCN1S(=O)(=O)c1ccc2c3c(cccc13)C(=O)N2)c1ccc(-c2c3nc(c(-c4ccccc4)c4ccc([nH]4)c(-c4ccccc4)c4nc(c(-c5ccccc5)c5ccc2[nH]5)C=C4)C=C3)cc1
REMARK SMILES IDX 5 1 4 2 3 3 1 4 2 5 31 7 32 8 78 9 33 10 77 11 34 12 35 13
REMARK SMILES IDX 36 14 71 15 37 16 76 17 70 18 72 19 38 20 75 21 69 22 68 23
REMARK SMILES IDX 39 25 61 26 46 27 60 28 47 29 50 30 59 31 73 32 48 33 49 34
REMARK SMILES IDX 58 36 74 37 51 38 40 39 41 40 45 41 42 42 44 43 43 44 62 45
REMARK SMILES IDX 63 46 67 47 64 48 66 49 65 50 52 51 53 52 57 53 54 54 56 55
REMARK SMILES IDX 55 56 6 57 7 58 8 59 9 61 10 62 11 63 14 64 12 65 13 66
REMARK SMILES IDX 15 67 16 68 17 69 18 70 19 71 27 72 20 73 22 74 26 75 21 76
REMARK SMILES IDX 23 77 25 78 30 79 24 80 28 81 29 83
REMARK H PARENT 3 6 72 24 50 35 7 60 30 82
REMARK Flexibility Score: inf
ROOT
ATOM      1  C   UNL A   1      33.985  28.529  25.792  1.00  0.00     0.042 C 
ENDROOT
BRANCH   1   2
ATOM      2  C   UNL A   1      33.647  28.708  27.268  1.00  0.00     0.118 C 
BRANCH   2   3
ATOM      3  N   UNL A   1      33.612  30.105  27.673  1.00  0.00    -0.352 N 
ATOM      4  O   UNL A   1      34.359  31.963  28.719  1.00  0.00    -0.269 OA
ATOM      5  C   UNL A   1      34.592  30.836  28.298  1.00  0.00     0.251 C 
ATOM      6  H   UNL A   1      32.777  30.587  27.474  1.00  0.00     0.163 HD
BRANCH   5   7
ATOM      7  C   UNL A   1      35.926  30.234  28.487  1.00  0.00     0.039 A 
ATOM      8  C   UNL A   1      36.273  29.648  29.710  1.00  0.00     0.014 A 
ATOM      9  C   UNL A   1      36.848  30.291  27.440  1.00  0.00     0.014 A 
ATOM     10  C   UNL A   1      37.582  29.233  29.926  1.00  0.00     0.010 A 
ATOM     11  C   UNL A   1      38.145  29.819  27.639  1.00  0.00     0.010 A 
ATOM     12  C   UNL A   1      38.530  29.318  28.893  1.00  0.00    -0.014 A 
BRANCH  12  13
ATOM     13  C   UNL A   1      39.915  28.843  29.116  1.00  0.00     0.031 A 
ATOM     14  C   UNL A   1      40.933  29.723  29.781  1.00  0.00     0.074 A 
ATOM     15  C   UNL A   1      40.248  27.601  28.720  1.00  0.00     0.049 A 
ATOM     16  N   UNL A   1      42.195  29.474  30.026  1.00  0.00    -0.248 NA
ATOM     17  C   UNL A   1      40.482  31.047  30.236  1.00  0.00     0.031 C 
ATOM     18  C   UNL A   1      39.335  26.644  28.093  1.00  0.00     0.029 A 
ATOM     19  N   UNL A   1      41.441  26.930  28.795  1.00  0.00    -0.354 N 
ATOM     20  C   UNL A   1      42.688  30.606  30.662  1.00  0.00     0.074 A 
ATOM     21  C   UNL A   1      41.599  31.555  30.741  1.00  0.00     0.031 C 
ATOM     22  C   UNL A   1      39.993  25.499  27.867  1.00  0.00     0.029 A 
ATOM     23  C   UNL A   1      41.384  25.659  28.282  1.00  0.00     0.049 A 
ATOM     24  H   UNL A   1      42.258  27.320  29.181  1.00  0.00     0.167 HD
ATOM     25  C   UNL A   1      43.933  30.824  31.146  1.00  0.00     0.031 A 
ATOM     26  C   UNL A   1      42.343  24.726  28.142  1.00  0.00     0.031 A 
ATOM     27  C   UNL A   1      45.017  29.883  31.055  1.00  0.00     0.049 A 
ATOM     28  C   UNL A   1      43.736  25.025  28.610  1.00  0.00     0.074 A 
ATOM     29  C   UNL A   1      46.316  30.024  31.513  1.00  0.00     0.029 A 
ATOM     30  N   UNL A   1      44.935  28.631  30.467  1.00  0.00    -0.354 N 
ATOM     31  N   UNL A   1      44.191  26.105  29.196  1.00  0.00    -0.248 NA
ATOM     32  C   UNL A   1      44.747  23.980  28.400  1.00  0.00     0.031 C 
ATOM     33  C   UNL A   1      47.032  28.878  31.162  1.00  0.00     0.029 A 
ATOM     34  C   UNL A   1      46.163  27.996  30.538  1.00  0.00     0.049 A 
ATOM     35  H   UNL A   1      44.123  28.250  30.060  1.00  0.00     0.167 HD
ATOM     36  C   UNL A   1      45.533  25.862  29.448  1.00  0.00     0.074 A 
ATOM     37  C   UNL A   1      45.820  24.531  28.954  1.00  0.00     0.031 C 
ATOM     38  C   UNL A   1      46.442  26.673  30.043  1.00  0.00     0.031 A 
BRANCH  25  39
ATOM     39  C   UNL A   1      44.206  32.135  31.826  1.00  0.00    -0.014 A 
ATOM     40  C   UNL A   1      44.068  32.265  33.217  1.00  0.00     0.009 A 
ATOM     41  C   UNL A   1      44.717  33.214  31.088  1.00  0.00     0.009 A 
ATOM     42  C   UNL A   1      44.433  33.453  33.854  1.00  0.00     0.001 A 
ATOM     43  C   UNL A   1      45.103  34.391  31.731  1.00  0.00     0.001 A 
ATOM     44  C   UNL A   1      44.960  34.510  33.112  1.00  0.00     0.000 A 
ENDBRANCH  25  39
BRANCH  26  45
ATOM     45  C   UNL A   1      41.987  23.414  27.550  1.00  0.00    -0.014 A 
ATOM     46  C   UNL A   1      42.242  23.160  26.195  1.00  0.00     0.009 A 
ATOM     47  C   UNL A   1      41.477  22.383  28.353  1.00  0.00     0.009 A 
ATOM     48  C   UNL A   1      41.998  21.895  25.656  1.00  0.00     0.001 A 
ATOM     49  C   UNL A   1      41.255  21.112  27.818  1.00  0.00     0.001 A 
ATOM     50  C   UNL A   1      41.516  20.871  26.470  1.00  0.00     0.000 A 
ENDBRANCH  26  45
BRANCH  38  51
ATOM     51  C   UNL A   1      47.835  26.147  30.229  1.00  0.00    -0.014 A 
ATOM     52  C   UNL A   1      48.785  26.225  29.199  1.00  0.00     0.009 A 
ATOM     53  C   UNL A   1      48.231  25.663  31.487  1.00  0.00     0.009 A 
ATOM     54  C   UNL A   1      50.101  25.816  29.424  1.00  0.00     0.001 A 
ATOM     55  C   UNL A   1      49.553  25.279  31.715  1.00  0.00     0.001 A 
ATOM     56  C   UNL A   1      50.486  25.353  30.682  1.00  0.00     0.000 A 
ENDBRANCH  38  51
ENDBRANCH  12  13
ENDBRANCH   5   7
ENDBRANCH   2   3
ENDBRANCH   1   2
BRANCH   1  57
ATOM     57  C   UNL A   1      32.879  28.998  24.857  1.00  0.00     0.117 C 
BRANCH  57  58
ATOM     58  N   UNL A   1      31.654  28.249  25.091  1.00  0.00    -0.355 N 
ATOM     59  C   UNL A   1      31.273  27.036  24.594  1.00  0.00     0.238 C 
ATOM     60  H   UNL A   1      31.007  28.679  25.695  1.00  0.00     0.163 HD
ATOM     61  O   UNL A   1      30.169  26.604  24.922  1.00  0.00    -0.273 OA
BRANCH  59  62
ATOM     62  C   UNL A   1      32.202  26.321  23.654  1.00  0.00     0.162 C 
ATOM     63  C   UNL A   1      31.483  25.680  22.475  1.00  0.00     0.032 C 
ATOM     64  N   UNL A   1      33.145  25.254  24.137  1.00  0.00    -0.185 NA
ATOM     65  C   UNL A   1      32.617  24.979  21.757  1.00  0.00     0.019 C 
ATOM     66  C   UNL A   1      33.643  24.640  22.843  1.00  0.00     0.103 C 
BRANCH  64  67
ATOM     67  S   UNL A   1      32.598  24.035  25.242  1.00  0.00     0.244 S 
ATOM     68  O   UNL A   1      32.668  24.588  26.577  1.00  0.00    -0.207 OA
ATOM     69  O   UNL A   1      31.324  23.577  24.731  1.00  0.00    -0.207 OA
BRANCH  67  70
ATOM     70  C   UNL A   1      33.735  22.650  25.172  1.00  0.00     0.090 A 
ATOM     71  C   UNL A   1      33.218  21.429  24.661  1.00  0.00     0.024 A 
ATOM     72  C   UNL A   1      35.146  22.776  25.419  1.00  0.00     0.005 A 
ATOM     73  C   UNL A   1      33.983  20.253  24.580  1.00  0.00     0.028 A 
ATOM     74  C   UNL A   1      35.846  21.606  25.283  1.00  0.00     0.019 A 
ATOM     75  C   UNL A   1      35.983  23.889  25.726  1.00  0.00     0.010 A 
ATOM     76  C   UNL A   1      35.308  20.390  24.925  1.00  0.00     0.050 A 
ATOM     77  C   UNL A   1      37.221  21.436  25.407  1.00  0.00     0.050 A 
ATOM     78  C   UNL A   1      37.389  23.765  25.821  1.00  0.00     0.002 A 
ATOM     79  N   UNL A   1      36.335  19.464  24.900  1.00  0.00    -0.321 N 
ATOM     80  C   UNL A   1      38.035  22.532  25.664  1.00  0.00     0.014 A 
ATOM     81  C   UNL A   1      37.575  20.049  25.175  1.00  0.00     0.256 C 
ATOM     82  H   UNL A   1      36.208  18.507  24.710  1.00  0.00     0.170 HD
ATOM     83  O   UNL A   1      38.644  19.455  25.170  1.00  0.00    -0.269 OA
ENDBRANCH  67  70
ENDBRANCH  64  67
ENDBRANCH  59  62
ENDBRANCH  57  58
ENDBRANCH   1  57
TORSDOF 12
ENDMDL
MODEL 3
REMARK VINA RESULT:     -12.1      2.224      7.978
REMARK SMILES O=C(NCCCNC(=O)[C@@H]1CCCN1S(=O)(=O)c1ccc2c3c(cccc13)C(=O)N2)c1ccc(-c2c3nc(c(-c4ccccc4)c4ccc([nH]4)c(-c4ccccc4)c4nc(c(-c5ccccc5)c5ccc2[nH]5)C=C4)C=C3)cc1
REMARK SMILES IDX 5 1 4 2 3 3 1 4 2 5 31 7 32 8 78 9 33 10 77 11 34 12 35 13
REMARK SMILES IDX 36 14 71 15 37 16 76 17 70 18 72 19 38 20 75 21 69 22 68 23
REMARK SMILES IDX 39 25 61 26 46 27 60 28 47 29 50 30 59 31 73 32 48 33 49 34
REMARK SMILES IDX 58 36 74 37 51 38 40 39 41 40 45 41 42 42 44 43 43 44 62 45
REMARK SMILES IDX 63 46 67 47 64 48 66 49 65 50 52 51 53 52 57 53 54 54 56 55
REMARK SMILES IDX 55 56 6 57 7 58 8 59 9 61 10 62 11 63 14 64 12 65 13 66
REMARK SMILES IDX 15 67 16 68 17 69 18 70 19 71 27 72 20 73 22 74 26 75 21 76
REMARK SMILES IDX 23 77 25 78 30 79 24 80 28 81 29 83
REMARK H PARENT 3 6 72 24 50 35 7 60 30 82
REMARK Flexibility Score: inf
ROOT
ATOM      1  C   UNL A   1      36.028  23.641  26.139  1.00  0.00     0.042 C 
ENDROOT
BRANCH   1   2
ATOM      2  C   UNL A   1      37.163  23.635  25.121  1.00  0.00     0.118 C 
BRANCH   2   3
ATOM      3  N   UNL A   1      38.212  22.683  25.452  1.00  0.00    -0.352 N 
ATOM      4  O   UNL A   1      40.241  22.037  26.207  1.00  0.00    -0.269 OA
ATOM      5  C   UNL A   1      39.378  22.905  26.142  1.00  0.00     0.251 C 
ATOM      6  H   UNL A   1      38.066  21.760  25.139  1.00  0.00     0.163 HD
BRANCH   5   7
ATOM      7  C   UNL A   1      39.596  24.218  26.779  1.00  0.00     0.039 A 
ATOM      8  C   UNL A   1      40.289  25.228  26.103  1.00  0.00     0.014 A 
ATOM      9  C   UNL A   1      39.132  24.423  28.080  1.00  0.00     0.014 A 
ATOM     10  C   UNL A   1      40.627  26.398  26.774  1.00  0.00     0.010 A 
ATOM     11  C   UNL A   1      39.421  25.621  28.732  1.00  0.00     0.010 A 
ATOM     12  C   UNL A   1      40.198  26.602  28.096  1.00  0.00    -0.014 A 
BRANCH  12  13
ATOM     13  C   UNL A   1      40.531  27.864  28.797  1.00  0.00     0.031 A 
ATOM     14  C   UNL A   1      41.889  28.075  29.401  1.00  0.00     0.074 A 
ATOM     15  C   UNL A   1      39.597  28.829  28.878  1.00  0.00     0.049 A 
ATOM     16  N   UNL A   1      42.335  29.106  30.072  1.00  0.00    -0.248 NA
ATOM     17  C   UNL A   1      42.876  26.999  29.225  1.00  0.00     0.031 C 
ATOM     18  C   UNL A   1      38.253  28.751  28.301  1.00  0.00     0.029 A 
ATOM     19  N   UNL A   1      39.638  30.065  29.469  1.00  0.00    -0.354 N 
ATOM     20  C   UNL A   1      43.651  28.805  30.399  1.00  0.00     0.074 A 
ATOM     21  C   UNL A   1      43.924  27.483  29.877  1.00  0.00     0.031 C 
ATOM     22  C   UNL A   1      37.608  29.901  28.542  1.00  0.00     0.029 A 
ATOM     23  C   UNL A   1      38.471  30.773  29.334  1.00  0.00     0.049 A 
ATOM     24  H   UNL A   1      40.428  30.412  29.942  1.00  0.00     0.167 HD
ATOM     25  C   UNL A   1      44.549  29.570  31.062  1.00  0.00     0.031 A 
ATOM     26  C   UNL A   1      38.120  31.983  29.806  1.00  0.00     0.031 A 
ATOM     27  C   UNL A   1      44.270  30.878  31.592  1.00  0.00     0.049 A 
ATOM     28  C   UNL A   1      39.106  32.774  30.612  1.00  0.00     0.074 A 
ATOM     29  C   UNL A   1      45.121  31.723  32.285  1.00  0.00     0.029 A 
ATOM     30  N   UNL A   1      43.052  31.533  31.490  1.00  0.00    -0.354 N 
ATOM     31  N   UNL A   1      40.341  32.471  30.925  1.00  0.00    -0.248 NA
ATOM     32  C   UNL A   1      38.654  34.074  31.127  1.00  0.00     0.031 C 
ATOM     33  C   UNL A   1      44.405  32.867  32.643  1.00  0.00     0.029 A 
ATOM     34  C   UNL A   1      43.126  32.762  32.121  1.00  0.00     0.049 A 
ATOM     35  H   UNL A   1      42.255  31.175  31.036  1.00  0.00     0.167 HD
ATOM     36  C   UNL A   1      40.824  33.549  31.652  1.00  0.00     0.074 A 
ATOM     37  C   UNL A   1      39.749  34.517  31.731  1.00  0.00     0.031 C 
ATOM     38  C   UNL A   1      42.052  33.719  32.198  1.00  0.00     0.031 A 
BRANCH  25  39
ATOM     39  C   UNL A   1      45.932  29.021  31.263  1.00  0.00    -0.014 A 
ATOM     40  C   UNL A   1      46.929  29.215  30.294  1.00  0.00     0.009 A 
ATOM     41  C   UNL A   1      46.273  28.406  32.479  1.00  0.00     0.009 A 
ATOM     42  C   UNL A   1      48.240  28.800  30.538  1.00  0.00     0.001 A 
ATOM     43  C   UNL A   1      47.590  28.015  32.728  1.00  0.00     0.001 A 
ATOM     44  C   UNL A   1      48.571  28.211  31.758  1.00  0.00     0.000 A 
ENDBRANCH  25  39
BRANCH  26  45
ATOM     45  C   UNL A   1      36.771  32.512  29.491  1.00  0.00    -0.014 A 
ATOM     46  C   UNL A   1      35.743  32.430  30.442  1.00  0.00     0.009 A 
ATOM     47  C   UNL A   1      36.529  33.179  28.280  1.00  0.00     0.009 A 
ATOM     48  C   UNL A   1      34.499  33.013  30.188  1.00  0.00     0.001 A 
ATOM     49  C   UNL A   1      35.292  33.779  28.038  1.00  0.00     0.001 A 
ATOM     50  C   UNL A   1      34.280  33.695  28.993  1.00  0.00     0.000 A 
ENDBRANCH  26  45
BRANCH  38  51
ATOM     51  C   UNL A   1      42.330  35.011  32.911  1.00  0.00    -0.014 A 
ATOM     52  C   UNL A   1      41.954  35.197  34.250  1.00  0.00     0.009 A 
ATOM     53  C   UNL A   1      43.072  36.013  32.265  1.00  0.00     0.009 A 
ATOM     54  C   UNL A   1      42.305  36.370  34.922  1.00  0.00     0.001 A 
ATOM     55  C   UNL A   1      43.443  37.172  32.948  1.00  0.00     0.001 A 
ATOM     56  C   UNL A   1      43.056  37.350  34.275  1.00  0.00     0.000 A 
ENDBRANCH  38  51
ENDBRANCH  12  13
ENDBRANCH   5   7
ENDBRANCH   2   3
ENDBRANCH   1   2
BRANCH   1  57
ATOM     57  C   UNL A   1      35.222  22.350  26.155  1.00  0.00     0.117 C 
BRANCH  57  58
ATOM     58  N   UNL A   1      34.560  22.140  24.877  1.00  0.00    -0.355 N 
ATOM     59  C   UNL A   1      33.340  22.581  24.451  1.00  0.00     0.238 C 
ATOM     60  H   UNL A   1      35.064  21.603  24.226  1.00  0.00     0.163 HD
ATOM     61  O   UNL A   1      32.977  22.259  23.321  1.00  0.00    -0.273 OA
BRANCH  59  62
ATOM     62  C   UNL A   1      32.502  23.398  25.394  1.00  0.00     0.162 C 
ATOM     63  C   UNL A   1      31.007  23.188  25.201  1.00  0.00     0.032 C 
ATOM     64  N   UNL A   1      32.656  24.891  25.495  1.00  0.00    -0.185 NA
ATOM     65  C   UNL A   1      30.419  24.167  26.196  1.00  0.00     0.019 C 
ATOM     66  C   UNL A   1      31.449  25.295  26.319  1.00  0.00     0.103 C 
BRANCH  64  67
ATOM     67  S   UNL A   1      32.792  25.857  24.062  1.00  0.00     0.244 S 
ATOM     68  O   UNL A   1      34.195  25.947  23.721  1.00  0.00    -0.207 OA
ATOM     69  O   UNL A   1      31.866  25.284  23.106  1.00  0.00    -0.207 OA
BRANCH  67  70
ATOM     70  C   UNL A   1      32.220  27.515  24.435  1.00  0.00     0.090 A 
ATOM     71  C   UNL A   1      31.010  27.925  23.813  1.00  0.00     0.024 A 
ATOM     72  C   UNL A   1      32.810  28.341  25.454  1.00  0.00     0.005 A 
ATOM     73  C   UNL A   1      30.462  29.208  23.985  1.00  0.00     0.028 A 
ATOM     74  C   UNL A   1      32.206  29.562  25.606  1.00  0.00     0.019 A 
ATOM     75  C   UNL A   1      33.870  28.127  26.384  1.00  0.00     0.010 A 
ATOM     76  C   UNL A   1      31.116  30.009  24.893  1.00  0.00     0.050 A 
ATOM     77  C   UNL A   1      32.524  30.539  26.542  1.00  0.00     0.050 A 
ATOM     78  C   UNL A   1      34.197  29.081  27.377  1.00  0.00     0.002 A 
ATOM     79  N   UNL A   1      30.813  31.282  25.339  1.00  0.00    -0.321 N 
ATOM     80  C   UNL A   1      33.529  30.308  27.473  1.00  0.00     0.014 A 
ATOM     81  C   UNL A   1      31.644  31.681  26.390  1.00  0.00     0.256 C 
ATOM     82  H   UNL A   1      30.096  31.840  24.961  1.00  0.00     0.170 HD
ATOM     83  O   UNL A   1      31.551  32.744  26.988  1.00  0.00    -0.269 OA
ENDBRANCH  67  70
ENDBRANCH  64  67
ENDBRANCH  59  62
ENDBRANCH  57  58
ENDBRANCH   1  57
TORSDOF 12
ENDMDL
