MODEL 1
REMARK VINA RESULT:     -12.6      0.000      0.000
REMARK SMILES COc1ccc(-c2ccc3n(c2=O)C[C@H]2C[C@@H]3CN(C(=O)CCCC(=O)NCCCNC(=O)c3ccc(-c4c5nc(c(-c6ccccc6)c6ccc([nH]6)c(-c6ccccc6)c6nc(c(-c7ccccc7)c7ccc4[nH]7)C=C6)C=C5)cc3)C2)cc1
REMARK SMILES IDX 25 1 26 2 27 3 24 5 23 6 22 7 20 8 21 9 19 10 7 11 8 12
REMARK SMILES IDX 12 13 9 14 11 15 13 16 10 17 14 18 17 19 15 20 16 21 18 22
REMARK SMILES IDX 82 23 6 24 3 25 4 26 84 27 5 28 83 29 2 30 1 31 28 32 29 33
REMARK SMILES IDX 30 34 31 35 32 36 33 38 34 39 35 40 81 41 36 42 80 43 37 44
REMARK SMILES IDX 38 45 39 46 74 47 40 48 79 49 73 50 75 51 41 52 78 53 72 54
REMARK SMILES IDX 71 55 42 57 64 58 49 59 63 60 50 61 53 62 62 63 76 64 51 65
REMARK SMILES IDX 52 66 61 68 77 69 54 70 43 71 44 72 48 73 45 74 47 75 46 76
REMARK SMILES IDX 65 77 66 78 70 79 67 80 69 81 68 82 55 83 56 84 60 85 57 86
REMARK SMILES IDX 59 87 58 88
REMARK H PARENT 27 4 31 37 75 56 53 67
REMARK Flexibility Score: inf
ROOT
ATOM      1  C   UNL A   1      37.127  23.362  25.874  1.00  0.00     0.220 C 
ATOM      2  O   UNL A   1      37.831  24.157  26.509  1.00  0.00    -0.275 OA
ATOM      3  N   UNL A   1      37.801  22.361  25.255  1.00  0.00    -0.356 N 
ATOM      4  H   UNL A   1      38.780  22.465  25.276  1.00  0.00     0.163 HD
ENDROOT
BRANCH   1   5
ATOM      5  C   UNL A   1      35.606  23.510  25.913  1.00  0.00     0.100 C 
BRANCH   5   6
ATOM      6  C   UNL A   1      34.914  24.729  25.314  1.00  0.00     0.020 C 
BRANCH   6   7
ATOM      7  C   UNL A   1      33.828  25.507  26.055  1.00  0.00     0.101 C 
BRANCH   7   8
ATOM      8  C   UNL A   1      33.444  26.950  25.704  1.00  0.00     0.222 C 
ATOM      9  O   UNL A   1      33.944  27.840  26.407  1.00  0.00    -0.275 OA
BRANCH   8  10
ATOM     10  N   UNL A   1      32.722  27.288  24.563  1.00  0.00    -0.342 N 
ATOM     11  C   UNL A   1      32.285  22.381  23.796  1.00  0.00     0.047 A 
ATOM     12  C   UNL A   1      31.205  22.764  24.496  1.00  0.00     0.016 A 
ATOM     13  C   UNL A   1      32.958  23.379  22.896  1.00  0.00     0.258 A 
ATOM     14  C   UNL A   1      30.662  24.085  24.372  1.00  0.00     0.023 A 
ATOM     15  N   UNL A   1      32.362  24.647  22.818  1.00  0.00    -0.311 N 
ATOM     16  O   UNL A   1      33.964  23.074  22.257  1.00  0.00    -0.269 OA
ATOM     17  C   UNL A   1      31.219  24.984  23.547  1.00  0.00     0.026 A 
ATOM     18  C   UNL A   1      32.967  25.584  21.877  1.00  0.00     0.131 C 
ATOM     19  C   UNL A   1      30.668  26.398  23.480  1.00  0.00     0.056 C 
ATOM     20  C   UNL A   1      32.539  27.043  22.039  1.00  0.00     0.029 C 
ATOM     21  C   UNL A   1      31.026  27.087  22.163  1.00  0.00     0.019 C 
ATOM     22  C   UNL A   1      31.257  27.216  24.643  1.00  0.00     0.129 C 
ATOM     23  C   UNL A   1      33.201  27.721  23.253  1.00  0.00     0.125 C 
BRANCH  11  24
ATOM     24  C   UNL A   1      32.744  20.987  23.876  1.00  0.00    -0.013 A 
ATOM     25  C   UNL A   1      33.633  18.329  23.918  1.00  0.00     0.118 A 
ATOM     26  C   UNL A   1      34.206  19.274  24.770  1.00  0.00     0.047 A 
ATOM     27  C   UNL A   1      32.589  18.698  23.073  1.00  0.00     0.047 A 
ATOM     28  C   UNL A   1      33.773  20.603  24.741  1.00  0.00     0.013 A 
ATOM     29  C   UNL A   1      32.151  20.023  23.049  1.00  0.00     0.013 A 
BRANCH  25  30
ATOM     30  O   UNL A   1      34.130  17.057  24.002  1.00  0.00    -0.497 OA
ATOM     31  C   UNL A   1      33.236  16.131  24.617  1.00  0.00     0.278 C 
ENDBRANCH  25  30
ENDBRANCH  11  24
ENDBRANCH   8  10
ENDBRANCH   7   8
ENDBRANCH   6   7
ENDBRANCH   5   6
ENDBRANCH   1   5
BRANCH   3  32
ATOM     32  C   UNL A   1      37.356  21.176  24.571  1.00  0.00     0.117 C 
BRANCH  32  33
ATOM     33  C   UNL A   1      38.071  19.911  24.996  1.00  0.00     0.042 C 
BRANCH  33  34
ATOM     34  C   UNL A   1      39.261  20.219  25.877  1.00  0.00     0.118 C 
BRANCH  34  35
ATOM     35  N   UNL A   1      40.225  19.118  25.937  1.00  0.00    -0.352 N 
ATOM     36  C   UNL A   1      41.586  19.163  26.134  1.00  0.00     0.251 C 
ATOM     37  H   UNL A   1      39.844  18.217  25.818  1.00  0.00     0.163 HD
ATOM     38  O   UNL A   1      42.264  18.145  26.027  1.00  0.00    -0.269 OA
BRANCH  36  39
ATOM     39  C   UNL A   1      42.225  20.461  26.427  1.00  0.00     0.039 A 
ATOM     40  C   UNL A   1      42.679  21.262  25.377  1.00  0.00     0.014 A 
ATOM     41  C   UNL A   1      42.279  20.925  27.741  1.00  0.00     0.014 A 
ATOM     42  C   UNL A   1      43.088  22.571  25.642  1.00  0.00     0.010 A 
ATOM     43  C   UNL A   1      42.543  22.263  27.979  1.00  0.00     0.010 A 
ATOM     44  C   UNL A   1      42.965  23.100  26.937  1.00  0.00    -0.014 A 
BRANCH  44  45
ATOM     45  C   UNL A   1      43.290  24.512  27.252  1.00  0.00     0.031 A 
ATOM     46  C   UNL A   1      44.722  24.976  27.181  1.00  0.00     0.074 A 
ATOM     47  C   UNL A   1      42.329  25.344  27.700  1.00  0.00     0.049 A 
ATOM     48  N   UNL A   1      45.239  26.122  27.538  1.00  0.00    -0.248 NA
ATOM     49  C   UNL A   1      45.710  23.999  26.690  1.00  0.00     0.031 C 
ATOM     50  C   UNL A   1      40.914  25.005  27.871  1.00  0.00     0.029 A 
ATOM     51  N   UNL A   1      42.403  26.655  28.100  1.00  0.00    -0.354 N 
ATOM     52  C   UNL A   1      46.610  25.983  27.361  1.00  0.00     0.074 A 
ATOM     53  C   UNL A   1      46.850  24.625  26.929  1.00  0.00     0.031 C 
ATOM     54  C   UNL A   1      40.248  26.093  28.291  1.00  0.00     0.029 A 
ATOM     55  C   UNL A   1      41.192  27.190  28.467  1.00  0.00     0.049 A 
ATOM     56  H   UNL A   1      43.247  27.164  28.123  1.00  0.00     0.167 HD
ATOM     57  C   UNL A   1      47.585  26.910  27.513  1.00  0.00     0.031 A 
ATOM     58  C   UNL A   1      40.880  28.428  28.894  1.00  0.00     0.031 A 
ATOM     59  C   UNL A   1      47.338  28.274  27.891  1.00  0.00     0.049 A 
ATOM     60  C   UNL A   1      41.974  29.449  29.034  1.00  0.00     0.074 A 
ATOM     61  C   UNL A   1      48.238  29.320  27.984  1.00  0.00     0.029 A 
ATOM     62  N   UNL A   1      46.094  28.780  28.230  1.00  0.00    -0.354 N 
ATOM     63  N   UNL A   1      43.257  29.325  28.790  1.00  0.00    -0.248 NA
ATOM     64  C   UNL A   1      41.576  30.783  29.504  1.00  0.00     0.031 C 
ATOM     65  C   UNL A   1      47.543  30.451  28.423  1.00  0.00     0.029 A 
ATOM     66  C   UNL A   1      46.204  30.120  28.556  1.00  0.00     0.049 A 
ATOM     67  H   UNL A   1      45.255  28.263  28.239  1.00  0.00     0.167 HD
ATOM     68  C   UNL A   1      43.813  30.570  29.048  1.00  0.00     0.074 A 
ATOM     69  C   UNL A   1      42.726  31.438  29.454  1.00  0.00     0.031 C 
ATOM     70  C   UNL A   1      45.106  30.963  28.954  1.00  0.00     0.031 A 
BRANCH  57  71
ATOM     71  C   UNL A   1      49.001  26.468  27.267  1.00  0.00    -0.014 A 
ATOM     72  C   UNL A   1      49.561  26.491  25.979  1.00  0.00     0.009 A 
ATOM     73  C   UNL A   1      49.786  26.017  28.338  1.00  0.00     0.009 A 
ATOM     74  C   UNL A   1      50.858  26.021  25.762  1.00  0.00     0.001 A 
ATOM     75  C   UNL A   1      51.095  25.581  28.124  1.00  0.00     0.001 A 
ATOM     76  C   UNL A   1      51.624  25.569  26.834  1.00  0.00     0.000 A 
ENDBRANCH  57  71
BRANCH  58  77
ATOM     77  C   UNL A   1      39.466  28.788  29.175  1.00  0.00    -0.014 A 
ATOM     78  C   UNL A   1      38.659  29.319  28.156  1.00  0.00     0.009 A 
ATOM     79  C   UNL A   1      38.912  28.606  30.451  1.00  0.00     0.009 A 
ATOM     80  C   UNL A   1      37.336  29.682  28.415  1.00  0.00     0.001 A 
ATOM     81  C   UNL A   1      37.580  28.946  30.700  1.00  0.00     0.001 A 
ATOM     82  C   UNL A   1      36.797  29.491  29.685  1.00  0.00     0.000 A 
ENDBRANCH  58  77
BRANCH  70  83
ATOM     83  C   UNL A   1      45.410  32.401  29.261  1.00  0.00    -0.014 A 
ATOM     84  C   UNL A   1      45.784  32.806  30.551  1.00  0.00     0.009 A 
ATOM     85  C   UNL A   1      45.369  33.353  28.230  1.00  0.00     0.009 A 
ATOM     86  C   UNL A   1      46.083  34.145  30.809  1.00  0.00     0.001 A 
ATOM     87  C   UNL A   1      45.695  34.685  28.485  1.00  0.00     0.001 A 
ATOM     88  C   UNL A   1      46.043  35.081  29.774  1.00  0.00     0.000 A 
ENDBRANCH  70  83
ENDBRANCH  44  45
ENDBRANCH  36  39
ENDBRANCH  34  35
ENDBRANCH  33  34
ENDBRANCH  32  33
ENDBRANCH   3  32
TORSDOF 16
ENDMDL
MODEL 2
REMARK VINA RESULT:     -12.4      0.492      5.620
REMARK SMILES COc1ccc(-c2ccc3n(c2=O)C[C@H]2C[C@@H]3CN(C(=O)CCCC(=O)NCCCNC(=O)c3ccc(-c4c5nc(c(-c6ccccc6)c6ccc([nH]6)c(-c6ccccc6)c6nc(c(-c7ccccc7)c7ccc4[nH]7)C=C6)C=C5)cc3)C2)cc1
REMARK SMILES IDX 25 1 26 2 27 3 24 5 23 6 22 7 20 8 21 9 19 10 7 11 8 12
REMARK SMILES IDX 12 13 9 14 11 15 13 16 10 17 14 18 17 19 15 20 16 21 18 22
REMARK SMILES IDX 82 23 6 24 3 25 4 26 84 27 5 28 83 29 2 30 1 31 28 32 29 33
REMARK SMILES IDX 30 34 31 35 32 36 33 38 34 39 35 40 81 41 36 42 80 43 37 44
REMARK SMILES IDX 38 45 39 46 74 47 40 48 79 49 73 50 75 51 41 52 78 53 72 54
REMARK SMILES IDX 71 55 42 57 64 58 49 59 63 60 50 61 53 62 62 63 76 64 51 65
REMARK SMILES IDX 52 66 61 68 77 69 54 70 43 71 44 72 48 73 45 74 47 75 46 76
REMARK SMILES IDX 65 77 66 78 70 79 67 80 69 81 68 82 55 83 56 84 60 85 57 86
REMARK SMILES IDX 59 87 58 88
REMARK H PARENT 27 4 31 37 75 56 53 67
REMARK Flexibility Score: inf
ROOT
ATOM      1  C   UNL A   1      37.189  23.252  25.763  1.00  0.00     0.220 C 
ATOM      2  O   UNL A   1      37.981  23.960  26.398  1.00  0.00    -0.275 OA
ATOM      3  N   UNL A   1      37.760  22.279  25.009  1.00  0.00    -0.356 N 
ATOM      4  H   UNL A   1      38.741  22.340  24.955  1.00  0.00     0.163 HD
ENDROOT
BRANCH   1   5
ATOM      5  C   UNL A   1      35.685  23.459  25.944  1.00  0.00     0.100 C 
BRANCH   5   6
ATOM      6  C   UNL A   1      34.965  24.634  25.292  1.00  0.00     0.020 C 
BRANCH   6   7
ATOM      7  C   UNL A   1      33.899  25.453  26.019  1.00  0.00     0.101 C 
BRANCH   7   8
ATOM      8  C   UNL A   1      33.592  26.918  25.679  1.00  0.00     0.222 C 
ATOM      9  O   UNL A   1      34.146  27.774  26.384  1.00  0.00    -0.275 OA
BRANCH   8  10
ATOM     10  N   UNL A   1      32.882  27.302  24.546  1.00  0.00    -0.342 N 
ATOM     11  C   UNL A   1      32.231  22.430  23.712  1.00  0.00     0.047 A 
ATOM     12  C   UNL A   1      31.171  22.849  24.421  1.00  0.00     0.016 A 
ATOM     13  C   UNL A   1      32.944  23.411  22.823  1.00  0.00     0.258 A 
ATOM     14  C   UNL A   1      30.685  24.194  24.318  1.00  0.00     0.023 A 
ATOM     15  N   UNL A   1      32.402  24.705  22.765  1.00  0.00    -0.311 N 
ATOM     16  O   UNL A   1      33.934  23.072  22.176  1.00  0.00    -0.269 OA
ATOM     17  C   UNL A   1      31.278  25.080  23.504  1.00  0.00     0.026 A 
ATOM     18  C   UNL A   1      33.045  25.628  21.836  1.00  0.00     0.131 C 
ATOM     19  C   UNL A   1      30.788  26.517  23.459  1.00  0.00     0.056 C 
ATOM     20  C   UNL A   1      32.680  27.102  22.020  1.00  0.00     0.029 C 
ATOM     21  C   UNL A   1      31.171  27.209  22.151  1.00  0.00     0.019 C 
ATOM     22  C   UNL A   1      31.416  27.292  24.632  1.00  0.00     0.129 C 
ATOM     23  C   UNL A   1      33.375  27.733  23.241  1.00  0.00     0.125 C 
BRANCH  11  24
ATOM     24  C   UNL A   1      32.631  21.017  23.769  1.00  0.00    -0.013 A 
ATOM     25  C   UNL A   1      33.415  18.326  23.772  1.00  0.00     0.118 A 
ATOM     26  C   UNL A   1      33.938  19.210  24.716  1.00  0.00     0.047 A 
ATOM     27  C   UNL A   1      32.469  18.772  22.851  1.00  0.00     0.047 A 
ATOM     28  C   UNL A   1      33.558  20.555  24.709  1.00  0.00     0.013 A 
ATOM     29  C   UNL A   1      32.084  20.113  22.847  1.00  0.00     0.013 A 
BRANCH  25  30
ATOM     30  O   UNL A   1      33.855  17.032  23.844  1.00  0.00    -0.497 OA
ATOM     31  C   UNL A   1      33.330  16.308  24.954  1.00  0.00     0.278 C 
ENDBRANCH  25  30
ENDBRANCH  11  24
ENDBRANCH   8  10
ENDBRANCH   7   8
ENDBRANCH   6   7
ENDBRANCH   5   6
ENDBRANCH   1   5
BRANCH   3  32
ATOM     32  C   UNL A   1      37.203  21.176  24.271  1.00  0.00     0.117 C 
BRANCH  32  33
ATOM     33  C   UNL A   1      37.769  19.826  24.657  1.00  0.00     0.042 C 
BRANCH  33  34
ATOM     34  C   UNL A   1      38.628  19.921  25.898  1.00  0.00     0.118 C 
BRANCH  34  35
ATOM     35  N   UNL A   1      39.840  19.103  25.815  1.00  0.00    -0.352 N 
ATOM     36  C   UNL A   1      41.145  19.454  26.074  1.00  0.00     0.251 C 
ATOM     37  H   UNL A   1      39.700  18.170  25.533  1.00  0.00     0.163 HD
ATOM     38  O   UNL A   1      42.059  18.672  25.829  1.00  0.00    -0.269 OA
BRANCH  36  39
ATOM     39  C   UNL A   1      41.433  20.801  26.606  1.00  0.00     0.039 A 
ATOM     40  C   UNL A   1      42.013  20.936  27.870  1.00  0.00     0.014 A 
ATOM     41  C   UNL A   1      41.217  21.922  25.806  1.00  0.00     0.014 A 
ATOM     42  C   UNL A   1      42.474  22.189  28.280  1.00  0.00     0.010 A 
ATOM     43  C   UNL A   1      41.804  23.127  26.153  1.00  0.00     0.010 A 
ATOM     44  C   UNL A   1      42.427  23.282  27.399  1.00  0.00    -0.014 A 
BRANCH  44  45
ATOM     45  C   UNL A   1      42.993  24.607  27.747  1.00  0.00     0.031 A 
ATOM     46  C   UNL A   1      42.071  25.708  28.205  1.00  0.00     0.074 A 
ATOM     47  C   UNL A   1      44.303  24.857  27.553  1.00  0.00     0.049 A 
ATOM     48  N   UNL A   1      42.335  26.968  28.432  1.00  0.00    -0.248 NA
ATOM     49  C   UNL A   1      40.652  25.352  28.381  1.00  0.00     0.031 C 
ATOM     50  C   UNL A   1      45.293  23.897  27.058  1.00  0.00     0.029 A 
ATOM     51  N   UNL A   1      45.028  26.006  27.746  1.00  0.00    -0.354 N 
ATOM     52  C   UNL A   1      41.113  27.558  28.727  1.00  0.00     0.074 A 
ATOM     53  C   UNL A   1      40.100  26.537  28.587  1.00  0.00     0.031 C 
ATOM     54  C   UNL A   1      46.502  24.482  27.037  1.00  0.00     0.029 A 
ATOM     55  C   UNL A   1      46.366  25.869  27.468  1.00  0.00     0.049 A 
ATOM     56  H   UNL A   1      44.626  26.851  28.056  1.00  0.00     0.167 HD
ATOM     57  C   UNL A   1      40.854  28.829  29.112  1.00  0.00     0.031 A 
ATOM     58  C   UNL A   1      47.370  26.762  27.552  1.00  0.00     0.031 A 
ATOM     59  C   UNL A   1      41.868  29.829  29.302  1.00  0.00     0.049 A 
ATOM     60  C   UNL A   1      47.064  28.162  28.004  1.00  0.00     0.074 A 
ATOM     61  C   UNL A   1      41.729  31.119  29.780  1.00  0.00     0.029 A 
ATOM     62  N   UNL A   1      43.214  29.640  29.031  1.00  0.00    -0.354 N 
ATOM     63  N   UNL A   1      45.913  28.686  28.353  1.00  0.00    -0.248 NA
ATOM     64  C   UNL A   1      48.198  29.094  28.078  1.00  0.00     0.031 C 
ATOM     65  C   UNL A   1      42.988  31.727  29.755  1.00  0.00     0.029 A 
ATOM     66  C   UNL A   1      43.916  30.799  29.310  1.00  0.00     0.049 A 
ATOM     67  H   UNL A   1      43.612  28.807  28.691  1.00  0.00     0.167 HD
ATOM     68  C   UNL A   1      46.188  29.997  28.716  1.00  0.00     0.074 A 
ATOM     69  C   UNL A   1      47.617  30.184  28.557  1.00  0.00     0.031 C 
ATOM     70  C   UNL A   1      45.338  30.960  29.146  1.00  0.00     0.031 A 
BRANCH  57  71
ATOM     71  C   UNL A   1      39.415  29.198  29.350  1.00  0.00    -0.014 A 
ATOM     72  C   UNL A   1      38.799  28.973  30.593  1.00  0.00     0.009 A 
ATOM     73  C   UNL A   1      38.663  29.774  28.316  1.00  0.00     0.009 A 
ATOM     74  C   UNL A   1      37.447  29.268  30.775  1.00  0.00     0.001 A 
ATOM     75  C   UNL A   1      37.321  30.101  28.513  1.00  0.00     0.001 A 
ATOM     76  C   UNL A   1      36.710  29.834  29.737  1.00  0.00     0.000 A 
ENDBRANCH  57  71
BRANCH  58  77
ATOM     77  C   UNL A   1      48.765  26.350  27.249  1.00  0.00    -0.014 A 
ATOM     78  C   UNL A   1      49.265  26.471  25.943  1.00  0.00     0.009 A 
ATOM     79  C   UNL A   1      49.603  25.837  28.251  1.00  0.00     0.009 A 
ATOM     80  C   UNL A   1      50.568  26.066  25.642  1.00  0.00     0.001 A 
ATOM     81  C   UNL A   1      50.914  25.457  27.951  1.00  0.00     0.001 A 
ATOM     82  C   UNL A   1      51.391  25.563  26.646  1.00  0.00     0.000 A 
ENDBRANCH  58  77
BRANCH  70  83
ATOM     83  C   UNL A   1      45.934  32.289  29.509  1.00  0.00    -0.014 A 
ATOM     84  C   UNL A   1      46.433  32.535  30.797  1.00  0.00     0.009 A 
ATOM     85  C   UNL A   1      46.041  33.290  28.531  1.00  0.00     0.009 A 
ATOM     86  C   UNL A   1      47.002  33.772  31.106  1.00  0.00     0.001 A 
ATOM     87  C   UNL A   1      46.636  34.515  28.836  1.00  0.00     0.001 A 
ATOM     88  C   UNL A   1      47.108  34.757  30.124  1.00  0.00     0.000 A 
ENDBRANCH  70  83
ENDBRANCH  44  45
ENDBRANCH  36  39
ENDBRANCH  34  35
ENDBRANCH  33  34
ENDBRANCH  32  33
ENDBRANCH   3  32
TORSDOF 16
ENDMDL
MODEL 3
REMARK VINA RESULT:     -12.3      1.538      2.123
REMARK SMILES COc1ccc(-c2ccc3n(c2=O)C[C@H]2C[C@@H]3CN(C(=O)CCCC(=O)NCCCNC(=O)c3ccc(-c4c5nc(c(-c6ccccc6)c6ccc([nH]6)c(-c6ccccc6)c6nc(c(-c7ccccc7)c7ccc4[nH]7)C=C6)C=C5)cc3)C2)cc1
REMARK SMILES IDX 25 1 26 2 27 3 24 5 23 6 22 7 20 8 21 9 19 10 7 11 8 12
REMARK SMILES IDX 12 13 9 14 11 15 13 16 10 17 14 18 17 19 15 20 16 21 18 22
REMARK SMILES IDX 82 23 6 24 3 25 4 26 84 27 5 28 83 29 2 30 1 31 28 32 29 33
REMARK SMILES IDX 30 34 31 35 32 36 33 38 34 39 35 40 81 41 36 42 80 43 37 44
REMARK SMILES IDX 38 45 39 46 74 47 40 48 79 49 73 50 75 51 41 52 78 53 72 54
REMARK SMILES IDX 71 55 42 57 64 58 49 59 63 60 50 61 53 62 62 63 76 64 51 65
REMARK SMILES IDX 52 66 61 68 77 69 54 70 43 71 44 72 48 73 45 74 47 75 46 76
REMARK SMILES IDX 65 77 66 78 70 79 67 80 69 81 68 82 55 83 56 84 60 85 57 86
REMARK SMILES IDX 59 87 58 88
REMARK H PARENT 27 4 31 37 75 56 53 67
REMARK Flexibility Score: inf
ROOT
ATOM      1  C   UNL A   1      36.510  23.028  24.288  1.00  0.00     0.220 C 
ATOM      2  O   UNL A   1      36.095  23.395  23.181  1.00  0.00    -0.275 OA
ATOM      3  N   UNL A   1      37.379  21.986  24.263  1.00  0.00    -0.356 N 
ATOM      4  H   UNL A   1      37.471  21.564  23.379  1.00  0.00     0.163 HD
ENDROOT
BRANCH   1   5
ATOM      5  C   UNL A   1      36.101  23.806  25.539  1.00  0.00     0.100 C 
BRANCH   5   6
ATOM      6  C   UNL A   1      34.745  24.496  25.633  1.00  0.00     0.020 C 
BRANCH   6   7
ATOM      7  C   UNL A   1      34.491  25.894  25.071  1.00  0.00     0.101 C 
BRANCH   7   8
ATOM      8  C   UNL A   1      33.460  26.862  25.669  1.00  0.00     0.222 C 
ATOM      9  O   UNL A   1      33.886  27.671  26.505  1.00  0.00    -0.275 OA
BRANCH   8  10
ATOM     10  N   UNL A   1      32.156  26.971  25.195  1.00  0.00    -0.342 N 
ATOM     11  C   UNL A   1      32.235  21.999  24.821  1.00  0.00     0.047 A 
ATOM     12  C   UNL A   1      31.734  22.291  26.032  1.00  0.00     0.016 A 
ATOM     13  C   UNL A   1      32.050  22.986  23.702  1.00  0.00     0.258 A 
ATOM     14  C   UNL A   1      30.999  23.500  26.267  1.00  0.00     0.023 A 
ATOM     15  N   UNL A   1      31.309  24.139  24.005  1.00  0.00    -0.311 N 
ATOM     16  O   UNL A   1      32.515  22.766  22.584  1.00  0.00    -0.269 OA
ATOM     17  C   UNL A   1      30.785  24.380  25.277  1.00  0.00     0.026 A 
ATOM     18  C   UNL A   1      31.060  25.052  22.894  1.00  0.00     0.131 C 
ATOM     19  C   UNL A   1      30.061  25.684  25.563  1.00  0.00     0.056 C 
ATOM     20  C   UNL A   1      30.559  26.442  23.289  1.00  0.00     0.029 C 
ATOM     21  C   UNL A   1      29.437  26.277  24.300  1.00  0.00     0.019 C 
ATOM     22  C   UNL A   1      31.068  26.694  26.141  1.00  0.00     0.129 C 
ATOM     23  C   UNL A   1      31.678  27.331  23.863  1.00  0.00     0.125 C 
BRANCH  11  24
ATOM     24  C   UNL A   1      32.891  20.704  24.600  1.00  0.00    -0.013 A 
ATOM     25  C   UNL A   1      34.174  18.231  24.285  1.00  0.00     0.118 A 
ATOM     26  C   UNL A   1      32.863  18.404  23.839  1.00  0.00     0.047 A 
ATOM     27  C   UNL A   1      34.861  19.302  24.852  1.00  0.00     0.047 A 
ATOM     28  C   UNL A   1      32.217  19.632  24.006  1.00  0.00     0.013 A 
ATOM     29  C   UNL A   1      34.220  20.530  25.014  1.00  0.00     0.013 A 
BRANCH  25  30
ATOM     30  O   UNL A   1      34.720  16.991  24.095  1.00  0.00    -0.497 OA
ATOM     31  C   UNL A   1      34.360  16.044  25.098  1.00  0.00     0.278 C 
ENDBRANCH  25  30
ENDBRANCH  11  24
ENDBRANCH   8  10
ENDBRANCH   7   8
ENDBRANCH   6   7
ENDBRANCH   5   6
ENDBRANCH   1   5
BRANCH   3  32
ATOM     32  C   UNL A   1      38.191  21.381  25.285  1.00  0.00     0.117 C 
BRANCH  32  33
ATOM     33  C   UNL A   1      38.714  20.007  24.926  1.00  0.00     0.042 C 
BRANCH  33  34
ATOM     34  C   UNL A   1      39.381  19.343  26.109  1.00  0.00     0.118 C 
BRANCH  34  35
ATOM     35  N   UNL A   1      40.758  18.928  25.827  1.00  0.00    -0.352 N 
ATOM     36  C   UNL A   1      41.924  19.650  25.940  1.00  0.00     0.251 C 
ATOM     37  H   UNL A   1      40.863  18.001  25.512  1.00  0.00     0.163 HD
ATOM     38  O   UNL A   1      42.985  19.183  25.537  1.00  0.00    -0.269 OA
BRANCH  36  39
ATOM     39  C   UNL A   1      41.871  21.012  26.507  1.00  0.00     0.039 A 
ATOM     40  C   UNL A   1      41.847  21.183  27.894  1.00  0.00     0.014 A 
ATOM     41  C   UNL A   1      41.948  22.118  25.662  1.00  0.00     0.014 A 
ATOM     42  C   UNL A   1      42.008  22.463  28.428  1.00  0.00     0.010 A 
ATOM     43  C   UNL A   1      42.254  23.359  26.194  1.00  0.00     0.010 A 
ATOM     44  C   UNL A   1      42.273  23.553  27.582  1.00  0.00    -0.014 A 
BRANCH  44  45
ATOM     45  C   UNL A   1      42.552  24.913  28.102  1.00  0.00     0.031 A 
ATOM     46  C   UNL A   1      43.953  25.270  28.527  1.00  0.00     0.074 A 
ATOM     47  C   UNL A   1      41.542  25.785  28.294  1.00  0.00     0.049 A 
ATOM     48  N   UNL A   1      44.387  26.349  29.125  1.00  0.00    -0.248 NA
ATOM     49  C   UNL A   1      44.995  24.255  28.292  1.00  0.00     0.031 C 
ATOM     50  C   UNL A   1      40.131  25.543  27.980  1.00  0.00     0.029 A 
ATOM     51  N   UNL A   1      41.551  27.057  28.808  1.00  0.00    -0.354 N 
ATOM     52  C   UNL A   1      45.733  26.117  29.379  1.00  0.00     0.074 A 
ATOM     53  C   UNL A   1      46.029  24.777  28.931  1.00  0.00     0.031 C 
ATOM     54  C   UNL A   1      39.422  26.649  28.260  1.00  0.00     0.029 A 
ATOM     55  C   UNL A   1      40.315  27.658  28.817  1.00  0.00     0.049 A 
ATOM     56  H   UNL A   1      42.368  27.499  29.139  1.00  0.00     0.167 HD
ATOM     57  C   UNL A   1      46.654  26.956  29.909  1.00  0.00     0.031 A 
ATOM     58  C   UNL A   1      39.947  28.885  29.228  1.00  0.00     0.031 A 
ATOM     59  C   UNL A   1      46.369  28.308  30.305  1.00  0.00     0.049 A 
ATOM     60  C   UNL A   1      40.990  29.809  29.793  1.00  0.00     0.074 A 
ATOM     61  C   UNL A   1      47.245  29.274  30.766  1.00  0.00     0.029 A 
ATOM     62  N   UNL A   1      45.109  28.883  30.276  1.00  0.00    -0.354 N 
ATOM     63  N   UNL A   1      42.275  29.605  29.957  1.00  0.00    -0.248 NA
ATOM     64  C   UNL A   1      40.530  31.137  30.225  1.00  0.00     0.031 C 
ATOM     65  C   UNL A   1      46.504  30.424  31.058  1.00  0.00     0.029 A 
ATOM     66  C   UNL A   1      45.178  30.188  30.733  1.00  0.00     0.049 A 
ATOM     67  H   UNL A   1      44.287  28.433  29.976  1.00  0.00     0.167 HD
ATOM     68  C   UNL A   1      42.782  30.785  30.482  1.00  0.00     0.074 A 
ATOM     69  C   UNL A   1      41.668  31.705  30.597  1.00  0.00     0.031 C 
ATOM     70  C   UNL A   1      44.055  31.084  30.835  1.00  0.00     0.031 A 
BRANCH  57  71
ATOM     71  C   UNL A   1      48.050  26.425  30.086  1.00  0.00    -0.014 A 
ATOM     72  C   UNL A   1      48.995  26.494  29.049  1.00  0.00     0.009 A 
ATOM     73  C   UNL A   1      48.424  25.842  31.305  1.00  0.00     0.009 A 
ATOM     74  C   UNL A   1      50.267  25.943  29.212  1.00  0.00     0.001 A 
ATOM     75  C   UNL A   1      49.708  25.323  31.478  1.00  0.00     0.001 A 
ATOM     76  C   UNL A   1      50.623  25.360  30.427  1.00  0.00     0.000 A 
ENDBRANCH  57  71
BRANCH  58  77
ATOM     77  C   UNL A   1      38.538  29.333  29.079  1.00  0.00    -0.014 A 
ATOM     78  C   UNL A   1      37.661  29.272  30.173  1.00  0.00     0.009 A 
ATOM     79  C   UNL A   1      38.059  29.820  27.853  1.00  0.00     0.009 A 
ATOM     80  C   UNL A   1      36.329  29.668  30.038  1.00  0.00     0.001 A 
ATOM     81  C   UNL A   1      36.732  30.240  27.728  1.00  0.00     0.001 A 
ATOM     82  C   UNL A   1      35.867  30.155  28.817  1.00  0.00     0.000 A 
ENDBRANCH  58  77
BRANCH  70  83
ATOM     83  C   UNL A   1      44.318  32.472  31.343  1.00  0.00    -0.014 A 
ATOM     84  C   UNL A   1      44.602  33.528  30.464  1.00  0.00     0.009 A 
ATOM     85  C   UNL A   1      44.231  32.734  32.719  1.00  0.00     0.009 A 
ATOM     86  C   UNL A   1      44.823  34.814  30.957  1.00  0.00     0.001 A 
ATOM     87  C   UNL A   1      44.423  34.026  33.207  1.00  0.00     0.001 A 
ATOM     88  C   UNL A   1      44.727  35.063  32.327  1.00  0.00     0.000 A 
ENDBRANCH  70  83
ENDBRANCH  44  45
ENDBRANCH  36  39
ENDBRANCH  34  35
ENDBRANCH  33  34
ENDBRANCH  32  33
ENDBRANCH   3  32
TORSDOF 16
ENDMDL
