MODEL 1
REMARK VINA RESULT:      -8.9      0.000      0.000
REMARK SMILES CN(C)c1cc(C(F)(F)F)cc(-c2cccc(/C=C/C(=O)NCCCNC(=O)c3ccc(-c4c5nc(c(-c6ccccc6)c6ccc([nH]6)c(-c6ccccc6)c6nc(c(-c7ccccc7)c7ccc4[nH]7)C=C6)C=C5)cc3)c2)n1
REMARK SMILES IDX 23 1 22 2 20 3 21 4 19 6 18 7 17 8 13 9 14 10 77 11 15 12
REMARK SMILES IDX 16 13 12 14 4 15 5 16 78 17 6 18 11 19 2 20 1 21 3 22 7 23
REMARK SMILES IDX 8 24 9 25 10 26 24 27 25 28 26 29 27 30 28 32 29 33 30 34
REMARK SMILES IDX 76 35 31 36 75 37 32 38 33 39 34 40 69 41 35 42 74 43 68 44
REMARK SMILES IDX 70 45 36 46 73 47 67 48 66 49 37 51 59 52 44 53 58 54 45 55
REMARK SMILES IDX 48 56 57 57 71 58 46 59 47 60 56 62 72 63 49 64 38 65 39 66
REMARK SMILES IDX 43 67 40 68 42 69 41 70 60 71 61 72 65 73 62 74 64 75 63 76
REMARK SMILES IDX 50 77 51 78 55 79 52 80 54 81 53 82
REMARK H PARENT 22 5 26 31 70 50 48 61
REMARK Flexibility Score: inf
ROOT
ATOM      1  C   UNL A   1      44.422  20.564  25.554  1.00  0.00     0.118 C 
ENDROOT
BRANCH   1   2
ATOM      2  N   UNL A   1      45.647  20.902  24.851  1.00  0.00    -0.352 N 
ATOM      3  C   UNL A   1      46.157  22.106  24.477  1.00  0.00     0.244 C 
ATOM      4  O   UNL A   1      47.277  22.157  23.973  1.00  0.00    -0.270 OA
ATOM      5  H   UNL A   1      46.204  20.129  24.604  1.00  0.00     0.163 HD
BRANCH   3   6
ATOM      6  C   UNL A   1      45.427  23.365  24.746  1.00  0.00     0.072 C 
ATOM      7  C   UNL A   1      46.017  24.551  24.950  1.00  0.00     0.014 C 
BRANCH   7   8
ATOM      8  C   UNL A   1      45.308  25.806  25.238  1.00  0.00    -0.025 A 
ATOM      9  C   UNL A   1      45.464  28.147  25.950  1.00  0.00     0.001 A 
ATOM     10  C   UNL A   1      44.064  28.200  25.999  1.00  0.00     0.010 A 
ATOM     11  C   UNL A   1      46.070  26.939  25.564  1.00  0.00     0.018 A 
ATOM     12  C   UNL A   1      43.294  27.086  25.662  1.00  0.00     0.001 A 
ATOM     13  C   UNL A   1      43.913  25.892  25.289  1.00  0.00     0.008 A 
BRANCH   9  14
ATOM     14  C   UNL A   1      46.277  29.304  26.337  1.00  0.00     0.073 A 
ATOM     15  C   UNL A   1      46.309  31.628  26.601  1.00  0.00     0.129 A 
ATOM     16  C   UNL A   1      47.626  31.566  27.045  1.00  0.00     0.060 A 
ATOM     17  N   UNL A   1      45.650  30.502  26.256  1.00  0.00    -0.231 NA
ATOM     18  C   UNL A   1      48.275  30.331  27.159  1.00  0.00     0.061 A 
ATOM     19  C   UNL A   1      47.581  29.178  26.789  1.00  0.00     0.042 A 
BRANCH  15  20
ATOM     20  N   UNL A   1      45.634  32.843  26.549  1.00  0.00    -0.363 N 
ATOM     21  C   UNL A   1      44.207  32.848  26.822  1.00  0.00     0.144 C 
ATOM     22  C   UNL A   1      46.410  34.022  26.900  1.00  0.00     0.144 C 
ENDBRANCH  15  20
BRANCH  18  23
ATOM     23  C   UNL A   1      49.669  30.235  27.710  1.00  0.00     0.416 C 
ATOM     24  F   UNL A   1      49.897  29.044  28.329  1.00  0.00    -0.166 F 
ATOM     25  F   UNL A   1      50.621  30.341  26.743  1.00  0.00    -0.166 F 
ATOM     26  F   UNL A   1      49.962  31.196  28.630  1.00  0.00    -0.166 F 
ENDBRANCH  18  23
ENDBRANCH   9  14
ENDBRANCH   7   8
ENDBRANCH   3   6
ENDBRANCH   1   2
BRANCH   1  27
ATOM     27  C   UNL A   1      43.937  19.163  25.181  1.00  0.00     0.042 C 
BRANCH  27  28
ATOM     28  C   UNL A   1      43.010  18.547  26.226  1.00  0.00     0.118 C 
BRANCH  28  29
ATOM     29  N   UNL A   1      41.614  18.584  25.811  1.00  0.00    -0.352 N 
ATOM     30  C   UNL A   1      40.647  19.529  26.047  1.00  0.00     0.251 C 
ATOM     31  H   UNL A   1      41.319  17.812  25.276  1.00  0.00     0.163 HD
ATOM     32  O   UNL A   1      39.473  19.270  25.804  1.00  0.00    -0.269 OA
BRANCH  30  33
ATOM     33  C   UNL A   1      41.009  20.850  26.601  1.00  0.00     0.039 A 
ATOM     34  C   UNL A   1      41.079  21.005  27.990  1.00  0.00     0.014 A 
ATOM     35  C   UNL A   1      41.241  21.944  25.763  1.00  0.00     0.014 A 
ATOM     36  C   UNL A   1      41.438  22.240  28.533  1.00  0.00     0.010 A 
ATOM     37  C   UNL A   1      41.671  23.152  26.302  1.00  0.00     0.010 A 
ATOM     38  C   UNL A   1      41.770  23.315  27.692  1.00  0.00    -0.014 A 
BRANCH  38  39
ATOM     39  C   UNL A   1      42.226  24.615  28.243  1.00  0.00     0.031 A 
ATOM     40  C   UNL A   1      41.250  25.742  28.434  1.00  0.00     0.074 A 
ATOM     41  C   UNL A   1      43.535  24.802  28.504  1.00  0.00     0.049 A 
ATOM     42  N   UNL A   1      41.473  26.971  28.830  1.00  0.00    -0.248 NA
ATOM     43  C   UNL A   1      39.841  25.461  28.115  1.00  0.00     0.031 C 
ATOM     44  C   UNL A   1      44.588  23.800  28.328  1.00  0.00     0.029 A 
ATOM     45  N   UNL A   1      44.204  25.908  28.965  1.00  0.00    -0.354 N 
ATOM     46  C   UNL A   1      40.241  27.612  28.784  1.00  0.00     0.074 A 
ATOM     47  C   UNL A   1      39.283  26.652  28.280  1.00  0.00     0.031 C 
ATOM     48  C   UNL A   1      45.764  24.328  28.703  1.00  0.00     0.029 A 
ATOM     49  C   UNL A   1      45.558  25.715  29.101  1.00  0.00     0.049 A 
ATOM     50  H   UNL A   1      43.757  26.759  29.178  1.00  0.00     0.167 HD
ATOM     51  C   UNL A   1      39.931  28.879  29.146  1.00  0.00     0.031 A 
ATOM     52  C   UNL A   1      46.525  26.565  29.494  1.00  0.00     0.031 A 
ATOM     53  C   UNL A   1      40.883  29.829  29.658  1.00  0.00     0.049 A 
ATOM     54  C   UNL A   1      46.158  27.972  29.872  1.00  0.00     0.074 A 
ATOM     55  C   UNL A   1      40.657  31.119  30.107  1.00  0.00     0.029 A 
ATOM     56  N   UNL A   1      42.243  29.592  29.785  1.00  0.00    -0.354 N 
ATOM     57  N   UNL A   1      44.977  28.542  29.887  1.00  0.00    -0.248 NA
ATOM     58  C   UNL A   1      47.257  28.850  30.297  1.00  0.00     0.031 C 
ATOM     59  C   UNL A   1      41.890  31.681  30.455  1.00  0.00     0.029 A 
ATOM     60  C   UNL A   1      42.874  30.721  30.280  1.00  0.00     0.049 A 
ATOM     61  H   UNL A   1      42.693  28.747  29.556  1.00  0.00     0.167 HD
ATOM     62  C   UNL A   1      45.187  29.834  30.354  1.00  0.00     0.074 A 
ATOM     63  C   UNL A   1      46.605  29.957  30.621  1.00  0.00     0.031 C 
ATOM     64  C   UNL A   1      44.285  30.827  30.544  1.00  0.00     0.031 A 
BRANCH  51  65
ATOM     65  C   UNL A   1      38.499  29.316  28.988  1.00  0.00    -0.014 A 
ATOM     66  C   UNL A   1      38.003  29.757  27.750  1.00  0.00     0.009 A 
ATOM     67  C   UNL A   1      37.625  29.251  30.083  1.00  0.00     0.009 A 
ATOM     68  C   UNL A   1      36.673  30.163  27.625  1.00  0.00     0.001 A 
ATOM     69  C   UNL A   1      36.288  29.628  29.947  1.00  0.00     0.001 A 
ATOM     70  C   UNL A   1      35.815  30.093  28.721  1.00  0.00     0.000 A 
ENDBRANCH  51  65
BRANCH  52  71
ATOM     71  C   UNL A   1      47.937  26.103  29.568  1.00  0.00    -0.014 A 
ATOM     72  C   UNL A   1      48.505  25.749  30.801  1.00  0.00     0.009 A 
ATOM     73  C   UNL A   1      48.726  26.020  28.409  1.00  0.00     0.009 A 
ATOM     74  C   UNL A   1      49.841  25.349  30.877  1.00  0.00     0.001 A 
ATOM     75  C   UNL A   1      50.053  25.590  28.485  1.00  0.00     0.001 A 
ATOM     76  C   UNL A   1      50.612  25.265  29.720  1.00  0.00     0.000 A 
ENDBRANCH  52  71
BRANCH  64  77
ATOM     77  C   UNL A   1      44.798  32.122  31.110  1.00  0.00    -0.014 A 
ATOM     78  C   UNL A   1      44.845  32.350  32.493  1.00  0.00     0.009 A 
ATOM     79  C   UNL A   1      45.280  33.113  30.239  1.00  0.00     0.009 A 
ATOM     80  C   UNL A   1      45.335  33.557  32.993  1.00  0.00     0.001 A 
ATOM     81  C   UNL A   1      45.798  34.307  30.743  1.00  0.00     0.001 A 
ATOM     82  C   UNL A   1      45.816  34.532  32.118  1.00  0.00     0.000 A 
ENDBRANCH  64  77
ENDBRANCH  38  39
ENDBRANCH  30  33
ENDBRANCH  28  29
ENDBRANCH  27  28
ENDBRANCH   1  27
TORSDOF 14
ENDMDL
MODEL 2
REMARK VINA RESULT:      -8.6      5.451      8.223
REMARK SMILES CN(C)c1cc(C(F)(F)F)cc(-c2cccc(/C=C/C(=O)NCCCNC(=O)c3ccc(-c4c5nc(c(-c6ccccc6)c6ccc([nH]6)c(-c6ccccc6)c6nc(c(-c7ccccc7)c7ccc4[nH]7)C=C6)C=C5)cc3)c2)n1
REMARK SMILES IDX 23 1 22 2 20 3 21 4 19 6 18 7 17 8 13 9 14 10 77 11 15 12
REMARK SMILES IDX 16 13 12 14 4 15 5 16 78 17 6 18 11 19 2 20 1 21 3 22 7 23
REMARK SMILES IDX 8 24 9 25 10 26 24 27 25 28 26 29 27 30 28 32 29 33 30 34
REMARK SMILES IDX 76 35 31 36 75 37 32 38 33 39 34 40 69 41 35 42 74 43 68 44
REMARK SMILES IDX 70 45 36 46 73 47 67 48 66 49 37 51 59 52 44 53 58 54 45 55
REMARK SMILES IDX 48 56 57 57 71 58 46 59 47 60 56 62 72 63 49 64 38 65 39 66
REMARK SMILES IDX 43 67 40 68 42 69 41 70 60 71 61 72 65 73 62 74 64 75 63 76
REMARK SMILES IDX 50 77 51 78 55 79 52 80 54 81 53 82
REMARK H PARENT 22 5 26 31 70 50 48 61
REMARK Flexibility Score: inf
ROOT
ATOM      1  C   UNL A   1      37.444  20.791  24.910  1.00  0.00     0.118 C 
ENDROOT
BRANCH   1   2
ATOM      2  N   UNL A   1      37.910  21.932  25.678  1.00  0.00    -0.352 N 
ATOM      3  C   UNL A   1      37.547  23.242  25.637  1.00  0.00     0.244 C 
ATOM      4  O   UNL A   1      38.014  24.023  26.464  1.00  0.00    -0.270 OA
ATOM      5  H   UNL A   1      38.607  21.722  26.341  1.00  0.00     0.163 HD
BRANCH   3   6
ATOM      6  C   UNL A   1      36.535  23.728  24.674  1.00  0.00     0.072 C 
ATOM      7  C   UNL A   1      35.267  24.023  24.994  1.00  0.00     0.014 C 
BRANCH   7   8
ATOM      8  C   UNL A   1      34.245  24.487  24.046  1.00  0.00    -0.025 A 
ATOM      9  C   UNL A   1      32.569  26.187  23.487  1.00  0.00     0.001 A 
ATOM     10  C   UNL A   1      32.145  25.383  22.420  1.00  0.00     0.010 A 
ATOM     11  C   UNL A   1      33.626  25.723  24.290  1.00  0.00     0.018 A 
ATOM     12  C   UNL A   1      32.763  24.160  22.156  1.00  0.00     0.001 A 
ATOM     13  C   UNL A   1      33.804  23.711  22.969  1.00  0.00     0.008 A 
BRANCH   9  14
ATOM     14  C   UNL A   1      31.900  27.456  23.789  1.00  0.00     0.073 A 
ATOM     15  C   UNL A   1      30.161  28.902  23.190  1.00  0.00     0.129 A 
ATOM     16  C   UNL A   1      30.516  29.766  24.220  1.00  0.00     0.060 A 
ATOM     17  N   UNL A   1      30.851  27.760  22.988  1.00  0.00    -0.231 NA
ATOM     18  C   UNL A   1      31.581  29.449  25.072  1.00  0.00     0.061 A 
ATOM     19  C   UNL A   1      32.289  28.268  24.842  1.00  0.00     0.042 A 
BRANCH  15  20
ATOM     20  N   UNL A   1      29.063  29.174  22.381  1.00  0.00    -0.363 N 
ATOM     21  C   UNL A   1      27.763  28.674  22.795  1.00  0.00     0.144 C 
ATOM     22  C   UNL A   1      29.118  30.415  21.624  1.00  0.00     0.144 C 
ENDBRANCH  15  20
BRANCH  18  23
ATOM     23  C   UNL A   1      31.930  30.330  26.238  1.00  0.00     0.416 C 
ATOM     24  F   UNL A   1      31.584  29.768  27.430  1.00  0.00    -0.166 F 
ATOM     25  F   UNL A   1      33.265  30.584  26.319  1.00  0.00    -0.166 F 
ATOM     26  F   UNL A   1      31.319  31.547  26.208  1.00  0.00    -0.166 F 
ENDBRANCH  18  23
ENDBRANCH   9  14
ENDBRANCH   7   8
ENDBRANCH   3   6
ENDBRANCH   1   2
BRANCH   1  27
ATOM     27  C   UNL A   1      38.416  19.616  25.016  1.00  0.00     0.042 C 
BRANCH  27  28
ATOM     28  C   UNL A   1      39.390  19.741  26.185  1.00  0.00     0.118 C 
BRANCH  28  29
ATOM     29  N   UNL A   1      40.653  19.064  25.920  1.00  0.00    -0.352 N 
ATOM     30  C   UNL A   1      41.932  19.560  25.895  1.00  0.00     0.251 C 
ATOM     31  H   UNL A   1      40.577  18.101  25.732  1.00  0.00     0.163 HD
ATOM     32  O   UNL A   1      42.840  18.877  25.431  1.00  0.00    -0.269 OA
BRANCH  30  33
ATOM     33  C   UNL A   1      42.222  20.914  26.412  1.00  0.00     0.039 A 
ATOM     34  C   UNL A   1      42.227  21.122  27.796  1.00  0.00     0.014 A 
ATOM     35  C   UNL A   1      42.447  21.985  25.544  1.00  0.00     0.014 A 
ATOM     36  C   UNL A   1      42.517  22.388  28.307  1.00  0.00     0.010 A 
ATOM     37  C   UNL A   1      42.809  23.228  26.054  1.00  0.00     0.010 A 
ATOM     38  C   UNL A   1      42.843  23.444  27.440  1.00  0.00    -0.014 A 
BRANCH  38  39
ATOM     39  C   UNL A   1      43.228  24.780  27.960  1.00  0.00     0.031 A 
ATOM     40  C   UNL A   1      42.175  25.816  28.241  1.00  0.00     0.074 A 
ATOM     41  C   UNL A   1      44.532  25.083  28.112  1.00  0.00     0.049 A 
ATOM     42  N   UNL A   1      42.321  27.059  28.625  1.00  0.00    -0.248 NA
ATOM     43  C   UNL A   1      40.774  25.411  28.038  1.00  0.00     0.031 C 
ATOM     44  C   UNL A   1      45.651  24.178  27.840  1.00  0.00     0.029 A 
ATOM     45  N   UNL A   1      45.137  26.244  28.522  1.00  0.00    -0.354 N 
ATOM     46  C   UNL A   1      41.037  27.588  28.687  1.00  0.00     0.074 A 
ATOM     47  C   UNL A   1      40.130  26.547  28.258  1.00  0.00     0.031 C 
ATOM     48  C   UNL A   1      46.803  24.808  28.119  1.00  0.00     0.029 A 
ATOM     49  C   UNL A   1      46.509  26.172  28.543  1.00  0.00     0.049 A 
ATOM     50  H   UNL A   1      44.636  27.052  28.778  1.00  0.00     0.167 HD
ATOM     51  C   UNL A   1      40.648  28.823  29.082  1.00  0.00     0.031 A 
ATOM     52  C   UNL A   1      47.427  27.104  28.859  1.00  0.00     0.031 A 
ATOM     53  C   UNL A   1      41.552  29.854  29.520  1.00  0.00     0.049 A 
ATOM     54  C   UNL A   1      46.970  28.473  29.276  1.00  0.00     0.074 A 
ATOM     55  C   UNL A   1      41.251  31.119  29.995  1.00  0.00     0.029 A 
ATOM     56  N   UNL A   1      42.933  29.739  29.530  1.00  0.00    -0.354 N 
ATOM     57  N   UNL A   1      45.749  28.936  29.394  1.00  0.00    -0.248 NA
ATOM     58  C   UNL A   1      48.019  29.446  29.614  1.00  0.00     0.031 C 
ATOM     59  C   UNL A   1      42.455  31.789  30.242  1.00  0.00     0.029 A 
ATOM     60  C   UNL A   1      43.502  30.920  29.979  1.00  0.00     0.049 A 
ATOM     61  H   UNL A   1      43.436  28.937  29.258  1.00  0.00     0.167 HD
ATOM     62  C   UNL A   1      45.882  30.242  29.851  1.00  0.00     0.074 A 
ATOM     63  C   UNL A   1      47.301  30.491  30.000  1.00  0.00     0.031 C 
ATOM     64  C   UNL A   1      44.915  31.151  30.124  1.00  0.00     0.031 A 
BRANCH  51  65
ATOM     65  C   UNL A   1      39.175  29.131  29.048  1.00  0.00    -0.014 A 
ATOM     66  C   UNL A   1      38.560  29.629  27.888  1.00  0.00     0.009 A 
ATOM     67  C   UNL A   1      38.385  28.886  30.181  1.00  0.00     0.009 A 
ATOM     68  C   UNL A   1      37.193  29.914  27.878  1.00  0.00     0.001 A 
ATOM     69  C   UNL A   1      37.012  29.141  30.158  1.00  0.00     0.001 A 
ATOM     70  C   UNL A   1      36.419  29.665  29.010  1.00  0.00     0.000 A 
ENDBRANCH  51  65
BRANCH  52  71
ATOM     71  C   UNL A   1      48.875  26.770  28.810  1.00  0.00    -0.014 A 
ATOM     72  C   UNL A   1      49.535  26.303  29.958  1.00  0.00     0.009 A 
ATOM     73  C   UNL A   1      49.607  26.922  27.622  1.00  0.00     0.009 A 
ATOM     74  C   UNL A   1      50.903  26.021  29.923  1.00  0.00     0.001 A 
ATOM     75  C   UNL A   1      50.968  26.611  27.583  1.00  0.00     0.001 A 
ATOM     76  C   UNL A   1      51.617  26.171  28.736  1.00  0.00     0.000 A 
ENDBRANCH  52  71
BRANCH  64  77
ATOM     77  C   UNL A   1      45.357  32.487  30.653  1.00  0.00    -0.014 A 
ATOM     78  C   UNL A   1      45.538  32.707  32.027  1.00  0.00     0.009 A 
ATOM     79  C   UNL A   1      45.636  33.529  29.754  1.00  0.00     0.009 A 
ATOM     80  C   UNL A   1      45.959  33.954  32.492  1.00  0.00     0.001 A 
ATOM     81  C   UNL A   1      46.086  34.764  30.219  1.00  0.00     0.001 A 
ATOM     82  C   UNL A   1      46.237  34.979  31.588  1.00  0.00     0.000 A 
ENDBRANCH  64  77
ENDBRANCH  38  39
ENDBRANCH  30  33
ENDBRANCH  28  29
ENDBRANCH  27  28
ENDBRANCH   1  27
TORSDOF 14
ENDMDL
MODEL 3
REMARK VINA RESULT:      -8.5      7.201     12.704
REMARK SMILES CN(C)c1cc(C(F)(F)F)cc(-c2cccc(/C=C/C(=O)NCCCNC(=O)c3ccc(-c4c5nc(c(-c6ccccc6)c6ccc([nH]6)c(-c6ccccc6)c6nc(c(-c7ccccc7)c7ccc4[nH]7)C=C6)C=C5)cc3)c2)n1
REMARK SMILES IDX 23 1 22 2 20 3 21 4 19 6 18 7 17 8 13 9 14 10 77 11 15 12
REMARK SMILES IDX 16 13 12 14 4 15 5 16 78 17 6 18 11 19 2 20 1 21 3 22 7 23
REMARK SMILES IDX 8 24 9 25 10 26 24 27 25 28 26 29 27 30 28 32 29 33 30 34
REMARK SMILES IDX 76 35 31 36 75 37 32 38 33 39 34 40 69 41 35 42 74 43 68 44
REMARK SMILES IDX 70 45 36 46 73 47 67 48 66 49 37 51 59 52 44 53 58 54 45 55
REMARK SMILES IDX 48 56 57 57 71 58 46 59 47 60 56 62 72 63 49 64 38 65 39 66
REMARK SMILES IDX 43 67 40 68 42 69 41 70 60 71 61 72 65 73 62 74 64 75 63 76
REMARK SMILES IDX 50 77 51 78 55 79 52 80 54 81 53 82
REMARK H PARENT 22 5 26 31 70 50 48 61
REMARK Flexibility Score: inf
ROOT
ATOM      1  C   UNL A   1      31.499  30.654  26.329  1.00  0.00     0.118 C 
ENDROOT
BRANCH   1   2
ATOM      2  N   UNL A   1      31.397  30.335  24.915  1.00  0.00    -0.352 N 
ATOM      3  C   UNL A   1      31.234  29.145  24.280  1.00  0.00     0.244 C 
ATOM      4  O   UNL A   1      31.071  29.129  23.061  1.00  0.00    -0.270 OA
ATOM      5  H   UNL A   1      31.454  31.114  24.316  1.00  0.00     0.163 HD
BRANCH   3   6
ATOM      6  C   UNL A   1      31.162  27.874  25.035  1.00  0.00     0.072 C 
ATOM      7  C   UNL A   1      31.469  26.674  24.525  1.00  0.00     0.014 C 
BRANCH   7   8
ATOM      8  C   UNL A   1      31.383  25.401  25.255  1.00  0.00    -0.025 A 
ATOM      9  C   UNL A   1      32.350  23.184  25.659  1.00  0.00     0.001 A 
ATOM     10  C   UNL A   1      31.229  22.864  26.438  1.00  0.00     0.010 A 
ATOM     11  C   UNL A   1      32.411  24.462  25.077  1.00  0.00     0.018 A 
ATOM     12  C   UNL A   1      30.207  23.794  26.638  1.00  0.00     0.001 A 
ATOM     13  C   UNL A   1      30.281  25.055  26.044  1.00  0.00     0.008 A 
BRANCH   9  14
ATOM     14  C   UNL A   1      33.407  22.199  25.418  1.00  0.00     0.073 A 
ATOM     15  C   UNL A   1      35.713  21.803  25.465  1.00  0.00     0.129 A 
ATOM     16  C   UNL A   1      35.503  20.492  25.050  1.00  0.00     0.060 A 
ATOM     17  N   UNL A   1      34.668  22.637  25.647  1.00  0.00    -0.231 NA
ATOM     18  C   UNL A   1      34.202  20.019  24.837  1.00  0.00     0.061 A 
ATOM     19  C   UNL A   1      33.135  20.899  25.021  1.00  0.00     0.042 A 
BRANCH  15  20
ATOM     20  N   UNL A   1      36.995  22.262  25.745  1.00  0.00    -0.363 N 
ATOM     21  C   UNL A   1      38.122  21.423  25.377  1.00  0.00     0.144 C 
ATOM     22  C   UNL A   1      37.174  23.706  25.731  1.00  0.00     0.144 C 
ENDBRANCH  15  20
BRANCH  18  23
ATOM     23  C   UNL A   1      33.950  18.586  24.464  1.00  0.00     0.416 C 
ATOM     24  F   UNL A   1      33.201  17.935  25.397  1.00  0.00    -0.166 F 
ATOM     25  F   UNL A   1      33.271  18.463  23.290  1.00  0.00    -0.166 F 
ATOM     26  F   UNL A   1      35.086  17.849  24.317  1.00  0.00    -0.166 F 
ENDBRANCH  18  23
ENDBRANCH   9  14
ENDBRANCH   7   8
ENDBRANCH   3   6
ENDBRANCH   1   2
BRANCH   1  27
ATOM     27  C   UNL A   1      31.403  32.160  26.568  1.00  0.00     0.042 C 
BRANCH  27  28
ATOM     28  C   UNL A   1      32.633  32.741  27.260  1.00  0.00     0.118 C 
BRANCH  28  29
ATOM     29  N   UNL A   1      32.452  34.143  27.613  1.00  0.00    -0.352 N 
ATOM     30  C   UNL A   1      33.043  34.888  28.602  1.00  0.00     0.251 C 
ATOM     31  H   UNL A   1      31.807  34.632  27.053  1.00  0.00     0.163 HD
ATOM     32  O   UNL A   1      32.592  35.995  28.882  1.00  0.00    -0.269 OA
BRANCH  30  33
ATOM     33  C   UNL A   1      34.212  34.364  29.338  1.00  0.00     0.039 A 
ATOM     34  C   UNL A   1      34.011  33.749  30.579  1.00  0.00     0.014 A 
ATOM     35  C   UNL A   1      35.507  34.510  28.833  1.00  0.00     0.014 A 
ATOM     36  C   UNL A   1      35.099  33.230  31.281  1.00  0.00     0.010 A 
ATOM     37  C   UNL A   1      36.581  33.927  29.498  1.00  0.00     0.010 A 
ATOM     38  C   UNL A   1      36.390  33.285  30.731  1.00  0.00    -0.014 A 
BRANCH  38  39
ATOM     39  C   UNL A   1      37.552  32.675  31.423  1.00  0.00     0.031 A 
ATOM     40  C   UNL A   1      38.238  31.472  30.836  1.00  0.00     0.074 A 
ATOM     41  C   UNL A   1      37.944  33.162  32.617  1.00  0.00     0.049 A 
ATOM     42  N   UNL A   1      39.217  30.757  31.330  1.00  0.00    -0.248 NA
ATOM     43  C   UNL A   1      37.742  30.994  29.536  1.00  0.00     0.031 C 
ATOM     44  C   UNL A   1      37.339  34.301  33.309  1.00  0.00     0.029 A 
ATOM     45  N   UNL A   1      38.942  32.750  33.464  1.00  0.00    -0.354 N 
ATOM     46  C   UNL A   1      39.438  29.735  30.415  1.00  0.00     0.074 A 
ATOM     47  C   UNL A   1      38.461  29.895  29.360  1.00  0.00     0.031 C 
ATOM     48  C   UNL A   1      37.996  34.515  34.461  1.00  0.00     0.029 A 
ATOM     49  C   UNL A   1      39.035  33.503  34.611  1.00  0.00     0.049 A 
ATOM     50  H   UNL A   1      39.534  31.989  33.270  1.00  0.00     0.167 HD
ATOM     51  C   UNL A   1      40.378  28.761  30.441  1.00  0.00     0.031 A 
ATOM     52  C   UNL A   1      39.860  33.385  35.668  1.00  0.00     0.031 A 
ATOM     53  C   UNL A   1      41.356  28.611  31.486  1.00  0.00     0.049 A 
ATOM     54  C   UNL A   1      40.882  32.284  35.681  1.00  0.00     0.074 A 
ATOM     55  C   UNL A   1      42.387  27.691  31.575  1.00  0.00     0.029 A 
ATOM     56  N   UNL A   1      41.419  29.396  32.626  1.00  0.00    -0.354 N 
ATOM     57  N   UNL A   1      41.121  31.367  34.775  1.00  0.00    -0.248 NA
ATOM     58  C   UNL A   1      41.757  32.210  36.860  1.00  0.00     0.031 C 
ATOM     59  C   UNL A   1      43.042  27.888  32.796  1.00  0.00     0.029 A 
ATOM     60  C   UNL A   1      42.456  28.967  33.438  1.00  0.00     0.049 A 
ATOM     61  H   UNL A   1      40.816  30.148  32.829  1.00  0.00     0.167 HD
ATOM     62  C   UNL A   1      42.194  30.627  35.260  1.00  0.00     0.074 A 
ATOM     63  C   UNL A   1      42.565  31.212  36.531  1.00  0.00     0.031 C 
ATOM     64  C   UNL A   1      42.815  29.561  34.699  1.00  0.00     0.031 A 
BRANCH  51  65
ATOM     65  C   UNL A   1      40.386  27.773  29.306  1.00  0.00    -0.014 A 
ATOM     66  C   UNL A   1      39.626  26.594  29.359  1.00  0.00     0.009 A 
ATOM     67  C   UNL A   1      41.137  28.043  28.152  1.00  0.00     0.009 A 
ATOM     68  C   UNL A   1      39.651  25.686  28.298  1.00  0.00     0.001 A 
ATOM     69  C   UNL A   1      41.135  27.148  27.079  1.00  0.00     0.001 A 
ATOM     70  C   UNL A   1      40.400  25.967  27.157  1.00  0.00     0.000 A 
ENDBRANCH  51  65
BRANCH  52  71
ATOM     71  C   UNL A   1      39.765  34.347  36.798  1.00  0.00    -0.014 A 
ATOM     72  C   UNL A   1      40.465  35.563  36.755  1.00  0.00     0.009 A 
ATOM     73  C   UNL A   1      38.983  34.054  37.926  1.00  0.00     0.009 A 
ATOM     74  C   UNL A   1      40.405  36.452  37.830  1.00  0.00     0.001 A 
ATOM     75  C   UNL A   1      38.901  34.959  38.987  1.00  0.00     0.001 A 
ATOM     76  C   UNL A   1      39.621  36.152  38.942  1.00  0.00     0.000 A 
ENDBRANCH  52  71
BRANCH  64  77
ATOM     77  C   UNL A   1      43.990  28.984  35.438  1.00  0.00    -0.014 A 
ATOM     78  C   UNL A   1      43.834  27.934  36.355  1.00  0.00     0.009 A 
ATOM     79  C   UNL A   1      45.279  29.475  35.177  1.00  0.00     0.009 A 
ATOM     80  C   UNL A   1      44.943  27.409  37.021  1.00  0.00     0.001 A 
ATOM     81  C   UNL A   1      46.389  28.928  35.821  1.00  0.00     0.001 A 
ATOM     82  C   UNL A   1      46.219  27.903  36.750  1.00  0.00     0.000 A 
ENDBRANCH  64  77
ENDBRANCH  38  39
ENDBRANCH  30  33
ENDBRANCH  28  29
ENDBRANCH  27  28
ENDBRANCH   1  27
TORSDOF 14
ENDMDL
