MODEL 1
REMARK VINA RESULT:     -11.6      0.000      0.000
REMARK SMILES [NH3+][C@H](CS[C@@H]1CC(=O)N(c2ccc3ccccc3c2)C1=O)C(=O)NCCCNC(=O)c1ccc(-c2c3nc(c(-c4ccccc4)c4ccc([nH]4)c(-c4ccccc4)c4nc(c(-c5ccccc5)c5ccc2[nH]5)C=C4)C=C3)cc1
REMARK SMILES IDX 25 1 24 2 22 3 23 4 2 6 1 7 3 11 4 12 5 13 6 14 20 15 7 16
REMARK SMILES IDX 9 17 21 18 8 19 10 20 11 21 19 22 12 23 18 24 13 25 17 26
REMARK SMILES IDX 14 27 16 28 15 29 26 30 27 31 28 32 29 33 30 35 31 36 32 37
REMARK SMILES IDX 78 38 33 39 77 40 34 41 35 42 36 43 71 44 37 45 76 46 70 47
REMARK SMILES IDX 72 48 38 49 75 50 69 51 68 52 39 54 61 55 46 56 60 57 47 58
REMARK SMILES IDX 50 59 59 60 73 61 48 62 49 63 58 65 74 66 51 67 40 68 41 69
REMARK SMILES IDX 45 70 42 71 44 72 43 73 62 74 63 75 67 76 64 77 66 78 65 79
REMARK SMILES IDX 52 80 53 81 57 82 54 83 56 84 55 85
REMARK H PARENT 24 5 1 8 1 9 1 10 28 34 72 53 50 64
REMARK Flexibility Score: inf
ROOT
ATOM      1  C   UNL A   1      31.824  29.568  25.441  1.00  0.00     0.118 C 
ENDROOT
BRANCH   1   2
ATOM      2  N   UNL A   1      32.892  29.718  24.473  1.00  0.00    -0.351 N 
ATOM      3  C   UNL A   1      33.343  28.924  23.465  1.00  0.00     0.279 C 
ATOM      4  O   UNL A   1      34.513  29.112  23.112  1.00  0.00    -0.268 OA
ATOM      5  H   UNL A   1      33.391  30.563  24.563  1.00  0.00     0.163 HD
BRANCH   3   6
ATOM      6  C   UNL A   1      32.443  27.935  22.693  1.00  0.00     0.280 C 
BRANCH   6   7
ATOM      7  N   UNL A   1      31.297  28.695  22.148  1.00  0.00    -0.347 N 
ATOM      8  H   UNL A   1      30.645  28.052  21.698  1.00  0.00     0.345 HD
ATOM      9  H   UNL A   1      31.632  29.372  21.463  1.00  0.00     0.345 HD
ATOM     10  H   UNL A   1      30.822  29.186  22.906  1.00  0.00     0.345 HD
ENDBRANCH   6   7
BRANCH   6  11
ATOM     11  C   UNL A   1      32.097  26.609  23.402  1.00  0.00     0.145 C 
BRANCH  11  12
ATOM     12  S   UNL A   1      30.287  26.402  23.747  1.00  0.00    -0.141 SA
BRANCH  12  13
ATOM     13  C   UNL A   1      30.243  24.711  24.463  1.00  0.00     0.146 C 
ATOM     14  C   UNL A   1      30.220  24.742  25.987  1.00  0.00     0.125 C 
ATOM     15  C   UNL A   1      31.491  23.930  24.143  1.00  0.00     0.247 C 
ATOM     16  C   UNL A   1      31.457  24.000  26.408  1.00  0.00     0.235 C 
ATOM     17  N   UNL A   1      32.187  23.684  25.295  1.00  0.00    -0.250 N 
ATOM     18  O   UNL A   1      31.758  23.507  23.024  1.00  0.00    -0.273 OA
ATOM     19  O   UNL A   1      31.716  23.749  27.578  1.00  0.00    -0.274 OA
BRANCH  17  20
ATOM     20  C   UNL A   1      33.413  22.982  25.299  1.00  0.00     0.052 A 
ATOM     21  C   UNL A   1      33.455  21.627  24.971  1.00  0.00     0.027 A 
ATOM     22  C   UNL A   1      34.608  23.654  25.599  1.00  0.00     0.035 A 
ATOM     23  C   UNL A   1      34.683  20.964  24.882  1.00  0.00     0.011 A 
ATOM     24  C   UNL A   1      35.844  22.978  25.587  1.00  0.00    -0.016 A 
ATOM     25  C   UNL A   1      35.882  21.624  25.190  1.00  0.00    -0.018 A 
ATOM     26  C   UNL A   1      37.040  23.615  25.964  1.00  0.00     0.009 A 
ATOM     27  C   UNL A   1      37.118  20.961  25.120  1.00  0.00     0.009 A 
ATOM     28  C   UNL A   1      38.258  22.931  25.920  1.00  0.00     0.001 A 
ATOM     29  C   UNL A   1      38.298  21.612  25.482  1.00  0.00     0.001 A 
ENDBRANCH  17  20
ENDBRANCH  12  13
ENDBRANCH  11  12
ENDBRANCH   6  11
ENDBRANCH   3   6
ENDBRANCH   1   2
BRANCH   1  30
ATOM     30  C   UNL A   1      32.235  28.567  26.521  1.00  0.00     0.042 C 
BRANCH  30  31
ATOM     31  C   UNL A   1      33.568  28.908  27.187  1.00  0.00     0.118 C 
BRANCH  31  32
ATOM     32  N   UNL A   1      33.596  30.264  27.716  1.00  0.00    -0.352 N 
ATOM     33  C   UNL A   1      34.586  30.901  28.424  1.00  0.00     0.251 C 
ATOM     34  H   UNL A   1      32.791  30.802  27.541  1.00  0.00     0.163 HD
ATOM     35  O   UNL A   1      34.371  31.993  28.938  1.00  0.00    -0.269 OA
BRANCH  33  36
ATOM     36  C   UNL A   1      35.901  30.252  28.594  1.00  0.00     0.039 A 
ATOM     37  C   UNL A   1      36.777  30.214  27.505  1.00  0.00     0.014 A 
ATOM     38  C   UNL A   1      36.272  29.688  29.817  1.00  0.00     0.014 A 
ATOM     39  C   UNL A   1      38.056  29.677  27.666  1.00  0.00     0.010 A 
ATOM     40  C   UNL A   1      37.570  29.214  29.995  1.00  0.00     0.010 A 
ATOM     41  C   UNL A   1      38.476  29.213  28.923  1.00  0.00    -0.014 A 
BRANCH  41  42
ATOM     42  C   UNL A   1      39.869  28.753  29.145  1.00  0.00     0.031 A 
ATOM     43  C   UNL A   1      40.896  29.685  29.723  1.00  0.00     0.074 A 
ATOM     44  C   UNL A   1      40.225  27.513  28.755  1.00  0.00     0.049 A 
ATOM     45  N   UNL A   1      42.175  29.482  29.923  1.00  0.00    -0.248 NA
ATOM     46  C   UNL A   1      40.434  31.028  30.106  1.00  0.00     0.031 C 
ATOM     47  C   UNL A   1      39.331  26.526  28.145  1.00  0.00     0.029 A 
ATOM     48  N   UNL A   1      41.439  26.875  28.805  1.00  0.00    -0.354 N 
ATOM     49  C   UNL A   1      42.671  30.672  30.438  1.00  0.00     0.074 A 
ATOM     50  C   UNL A   1      41.567  31.608  30.478  1.00  0.00     0.031 C 
ATOM     51  C   UNL A   1      40.021  25.401  27.901  1.00  0.00     0.029 A 
ATOM     52  C   UNL A   1      41.411  25.600  28.294  1.00  0.00     0.049 A 
ATOM     53  H   UNL A   1      42.252  27.291  29.172  1.00  0.00     0.167 HD
ATOM     54  C   UNL A   1      43.927  30.958  30.856  1.00  0.00     0.031 A 
ATOM     55  C   UNL A   1      42.396  24.695  28.147  1.00  0.00     0.031 A 
ATOM     56  C   UNL A   1      45.023  30.026  30.819  1.00  0.00     0.049 A 
ATOM     57  C   UNL A   1      43.788  25.046  28.593  1.00  0.00     0.074 A 
ATOM     58  C   UNL A   1      46.319  30.202  31.273  1.00  0.00     0.029 A 
ATOM     59  N   UNL A   1      44.954  28.747  30.292  1.00  0.00    -0.354 N 
ATOM     60  N   UNL A   1      44.223  26.152  29.144  1.00  0.00    -0.248 NA
ATOM     61  C   UNL A   1      44.820  24.017  28.404  1.00  0.00     0.031 C 
ATOM     62  C   UNL A   1      47.048  29.047  30.971  1.00  0.00     0.029 A 
ATOM     63  C   UNL A   1      46.192  28.131  30.380  1.00  0.00     0.049 A 
ATOM     64  H   UNL A   1      44.145  28.335  29.910  1.00  0.00     0.167 HD
ATOM     65  C   UNL A   1      45.575  25.947  29.385  1.00  0.00     0.074 A 
ATOM     66  C   UNL A   1      45.881  24.603  28.941  1.00  0.00     0.031 C 
ATOM     67  C   UNL A   1      46.483  26.797  29.925  1.00  0.00     0.031 A 
BRANCH  54  68
ATOM     68  C   UNL A   1      44.184  32.343  31.379  1.00  0.00    -0.014 A 
ATOM     69  C   UNL A   1      44.660  33.363  30.538  1.00  0.00     0.009 A 
ATOM     70  C   UNL A   1      43.912  32.645  32.723  1.00  0.00     0.009 A 
ATOM     71  C   UNL A   1      44.895  34.644  31.041  1.00  0.00     0.001 A 
ATOM     72  C   UNL A   1      44.120  33.934  33.216  1.00  0.00     0.001 A 
ATOM     73  C   UNL A   1      44.620  34.930  32.378  1.00  0.00     0.000 A 
ENDBRANCH  54  68
BRANCH  55  74
ATOM     74  C   UNL A   1      42.103  23.365  27.552  1.00  0.00    -0.014 A 
ATOM     75  C   UNL A   1      41.527  22.349  28.330  1.00  0.00     0.009 A 
ATOM     76  C   UNL A   1      42.401  23.102  26.205  1.00  0.00     0.009 A 
ATOM     77  C   UNL A   1      41.280  21.090  27.779  1.00  0.00     0.001 A 
ATOM     78  C   UNL A   1      42.125  21.851  25.649  1.00  0.00     0.001 A 
ATOM     79  C   UNL A   1      41.575  20.843  26.438  1.00  0.00     0.000 A 
ENDBRANCH  55  74
BRANCH  67  80
ATOM     80  C   UNL A   1      47.887  26.287  30.084  1.00  0.00    -0.014 A 
ATOM     81  C   UNL A   1      48.801  26.328  29.019  1.00  0.00     0.009 A 
ATOM     82  C   UNL A   1      48.312  25.792  31.327  1.00  0.00     0.009 A 
ATOM     83  C   UNL A   1      50.102  25.852  29.188  1.00  0.00     0.001 A 
ATOM     84  C   UNL A   1      49.622  25.344  31.500  1.00  0.00     0.001 A 
ATOM     85  C   UNL A   1      50.513  25.365  30.428  1.00  0.00     0.000 A 
ENDBRANCH  67  80
ENDBRANCH  41  42
ENDBRANCH  33  36
ENDBRANCH  31  32
ENDBRANCH  30  31
ENDBRANCH   1  30
TORSDOF 15
ENDMDL
MODEL 2
REMARK VINA RESULT:     -11.6      2.526      7.990
REMARK SMILES [NH3+][C@H](CS[C@@H]1CC(=O)N(c2ccc3ccccc3c2)C1=O)C(=O)NCCCNC(=O)c1ccc(-c2c3nc(c(-c4ccccc4)c4ccc([nH]4)c(-c4ccccc4)c4nc(c(-c5ccccc5)c5ccc2[nH]5)C=C4)C=C3)cc1
REMARK SMILES IDX 25 1 24 2 22 3 23 4 2 6 1 7 3 11 4 12 5 13 6 14 20 15 7 16
REMARK SMILES IDX 9 17 21 18 8 19 10 20 11 21 19 22 12 23 18 24 13 25 17 26
REMARK SMILES IDX 14 27 16 28 15 29 26 30 27 31 28 32 29 33 30 35 31 36 32 37
REMARK SMILES IDX 78 38 33 39 77 40 34 41 35 42 36 43 71 44 37 45 76 46 70 47
REMARK SMILES IDX 72 48 38 49 75 50 69 51 68 52 39 54 61 55 46 56 60 57 47 58
REMARK SMILES IDX 50 59 59 60 73 61 48 62 49 63 58 65 74 66 51 67 40 68 41 69
REMARK SMILES IDX 45 70 42 71 44 72 43 73 62 74 63 75 67 76 64 77 66 78 65 79
REMARK SMILES IDX 52 80 53 81 57 82 54 83 56 84 55 85
REMARK H PARENT 24 5 1 8 1 9 1 10 28 34 72 53 50 64
REMARK Flexibility Score: inf
ROOT
ATOM      1  C   UNL A   1      35.690  21.921  26.270  1.00  0.00     0.118 C 
ENDROOT
BRANCH   1   2
ATOM      2  N   UNL A   1      34.702  21.848  27.328  1.00  0.00    -0.351 N 
ATOM      3  C   UNL A   1      33.371  22.120  27.367  1.00  0.00     0.279 C 
ATOM      4  O   UNL A   1      32.905  22.383  28.482  1.00  0.00    -0.268 OA
ATOM      5  H   UNL A   1      35.068  21.542  28.190  1.00  0.00     0.163 HD
BRANCH   3   6
ATOM      6  C   UNL A   1      32.438  21.984  26.143  1.00  0.00     0.280 C 
BRANCH   6   7
ATOM      7  N   UNL A   1      32.439  20.564  25.727  1.00  0.00    -0.347 N 
ATOM      8  H   UNL A   1      31.634  20.385  25.127  1.00  0.00     0.345 HD
ATOM      9  H   UNL A   1      32.386  19.967  26.553  1.00  0.00     0.345 HD
ATOM     10  H   UNL A   1      33.297  20.360  25.216  1.00  0.00     0.345 HD
ENDBRANCH   6   7
BRANCH   6  11
ATOM     11  C   UNL A   1      32.618  23.018  25.013  1.00  0.00     0.145 C 
BRANCH  11  12
ATOM     12  S   UNL A   1      32.212  22.356  23.329  1.00  0.00    -0.141 SA
BRANCH  12  13
ATOM     13  C   UNL A   1      31.732  23.889  22.439  1.00  0.00     0.146 C 
ATOM     14  C   UNL A   1      32.875  24.435  21.594  1.00  0.00     0.125 C 
ATOM     15  C   UNL A   1      31.421  25.019  23.387  1.00  0.00     0.247 C 
ATOM     16  C   UNL A   1      33.136  25.812  22.137  1.00  0.00     0.235 C 
ATOM     17  N   UNL A   1      32.350  26.012  23.239  1.00  0.00    -0.250 N 
ATOM     18  O   UNL A   1      30.422  25.053  24.097  1.00  0.00    -0.273 OA
ATOM     19  O   UNL A   1      33.939  26.585  21.631  1.00  0.00    -0.274 OA
BRANCH  17  20
ATOM     20  C   UNL A   1      32.320  27.193  24.012  1.00  0.00     0.052 A 
ATOM     21  C   UNL A   1      31.276  28.108  23.872  1.00  0.00     0.027 A 
ATOM     22  C   UNL A   1      33.327  27.439  24.959  1.00  0.00     0.035 A 
ATOM     23  C   UNL A   1      31.203  29.223  24.711  1.00  0.00     0.011 A 
ATOM     24  C   UNL A   1      33.305  28.599  25.758  1.00  0.00    -0.016 A 
ATOM     25  C   UNL A   1      32.209  29.484  25.653  1.00  0.00    -0.018 A 
ATOM     26  C   UNL A   1      34.346  28.902  26.652  1.00  0.00     0.009 A 
ATOM     27  C   UNL A   1      32.153  30.612  26.488  1.00  0.00     0.009 A 
ATOM     28  C   UNL A   1      34.291  30.047  27.453  1.00  0.00     0.001 A 
ATOM     29  C   UNL A   1      33.187  30.890  27.382  1.00  0.00     0.001 A 
ENDBRANCH  17  20
ENDBRANCH  12  13
ENDBRANCH  11  12
ENDBRANCH   6  11
ENDBRANCH   3   6
ENDBRANCH   1   2
BRANCH   1  30
ATOM     30  C   UNL A   1      36.076  23.379  26.016  1.00  0.00     0.042 C 
BRANCH  30  31
ATOM     31  C   UNL A   1      37.309  23.533  25.125  1.00  0.00     0.118 C 
BRANCH  31  32
ATOM     32  N   UNL A   1      38.396  22.648  25.519  1.00  0.00    -0.352 N 
ATOM     33  C   UNL A   1      39.534  22.933  26.231  1.00  0.00     0.251 C 
ATOM     34  H   UNL A   1      38.301  21.710  25.234  1.00  0.00     0.163 HD
ATOM     35  O   UNL A   1      40.427  22.098  26.327  1.00  0.00    -0.269 OA
BRANCH  33  36
ATOM     36  C   UNL A   1      39.697  24.262  26.855  1.00  0.00     0.039 A 
ATOM     37  C   UNL A   1      39.167  24.474  28.131  1.00  0.00     0.014 A 
ATOM     38  C   UNL A   1      40.370  25.290  26.191  1.00  0.00     0.014 A 
ATOM     39  C   UNL A   1      39.379  25.697  28.772  1.00  0.00     0.010 A 
ATOM     40  C   UNL A   1      40.638  26.484  26.857  1.00  0.00     0.010 A 
ATOM     41  C   UNL A   1      40.153  26.694  28.157  1.00  0.00    -0.014 A 
BRANCH  41  42
ATOM     42  C   UNL A   1      40.493  27.950  28.871  1.00  0.00     0.031 A 
ATOM     43  C   UNL A   1      41.813  28.095  29.571  1.00  0.00     0.074 A 
ATOM     44  C   UNL A   1      39.576  28.935  28.946  1.00  0.00     0.049 A 
ATOM     45  N   UNL A   1      42.255  29.088  30.302  1.00  0.00    -0.248 NA
ATOM     46  C   UNL A   1      42.752  26.967  29.459  1.00  0.00     0.031 C 
ATOM     47  C   UNL A   1      38.242  28.901  28.341  1.00  0.00     0.029 A 
ATOM     48  N   UNL A   1      39.624  30.153  29.574  1.00  0.00    -0.354 N 
ATOM     49  C   UNL A   1      43.512  28.701  30.746  1.00  0.00     0.074 A 
ATOM     50  C   UNL A   1      43.745  27.364  30.243  1.00  0.00     0.031 C 
ATOM     51  C   UNL A   1      37.610  30.055  28.607  1.00  0.00     0.029 A 
ATOM     52  C   UNL A   1      38.472  30.890  29.436  1.00  0.00     0.049 A 
ATOM     53  H   UNL A   1      40.409  30.471  30.077  1.00  0.00     0.167 HD
ATOM     54  C   UNL A   1      44.400  29.399  31.493  1.00  0.00     0.031 A 
ATOM     55  C   UNL A   1      38.141  32.097  29.929  1.00  0.00     0.031 A 
ATOM     56  C   UNL A   1      44.170  30.729  31.991  1.00  0.00     0.049 A 
ATOM     57  C   UNL A   1      39.134  32.841  30.777  1.00  0.00     0.074 A 
ATOM     58  C   UNL A   1      45.031  31.544  32.706  1.00  0.00     0.029 A 
ATOM     59  N   UNL A   1      42.989  31.438  31.830  1.00  0.00    -0.354 N 
ATOM     60  N   UNL A   1      40.346  32.488  31.129  1.00  0.00    -0.248 NA
ATOM     61  C   UNL A   1      38.712  34.152  31.289  1.00  0.00     0.031 C 
ATOM     62  C   UNL A   1      44.352  32.724  33.026  1.00  0.00     0.029 A 
ATOM     63  C   UNL A   1      43.088  32.668  32.460  1.00  0.00     0.049 A 
ATOM     64  H   UNL A   1      42.198  31.116  31.341  1.00  0.00     0.167 HD
ATOM     65  C   UNL A   1      40.840  33.542  31.886  1.00  0.00     0.074 A 
ATOM     66  C   UNL A   1      39.805  34.554  31.924  1.00  0.00     0.031 C 
ATOM     67  C   UNL A   1      42.045  33.661  32.497  1.00  0.00     0.031 A 
BRANCH  54  68
ATOM     68  C   UNL A   1      45.703  28.728  31.827  1.00  0.00    -0.014 A 
ATOM     69  C   UNL A   1      46.825  28.861  30.993  1.00  0.00     0.009 A 
ATOM     70  C   UNL A   1      45.823  27.982  33.010  1.00  0.00     0.009 A 
ATOM     71  C   UNL A   1      48.028  28.230  31.317  1.00  0.00     0.001 A 
ATOM     72  C   UNL A   1      47.035  27.377  33.347  1.00  0.00     0.001 A 
ATOM     73  C   UNL A   1      48.133  27.492  32.496  1.00  0.00     0.000 A 
ENDBRANCH  54  68
BRANCH  55  74
ATOM     74  C   UNL A   1      36.808  32.683  29.632  1.00  0.00    -0.014 A 
ATOM     75  C   UNL A   1      35.764  32.586  30.565  1.00  0.00     0.009 A 
ATOM     76  C   UNL A   1      36.570  33.338  28.414  1.00  0.00     0.009 A 
ATOM     77  C   UNL A   1      34.503  33.110  30.274  1.00  0.00     0.001 A 
ATOM     78  C   UNL A   1      35.316  33.888  28.137  1.00  0.00     0.001 A 
ATOM     79  C   UNL A   1      34.281  33.764  29.062  1.00  0.00     0.000 A 
ENDBRANCH  55  74
BRANCH  67  80
ATOM     80  C   UNL A   1      42.312  34.938  33.239  1.00  0.00    -0.014 A 
ATOM     81  C   UNL A   1      41.852  35.127  34.552  1.00  0.00     0.009 A 
ATOM     82  C   UNL A   1      43.066  35.954  32.630  1.00  0.00     0.009 A 
ATOM     83  C   UNL A   1      42.113  36.322  35.226  1.00  0.00     0.001 A 
ATOM     84  C   UNL A   1      43.351  37.135  33.317  1.00  0.00     0.001 A 
ATOM     85  C   UNL A   1      42.866  37.322  34.611  1.00  0.00     0.000 A 
ENDBRANCH  67  80
ENDBRANCH  41  42
ENDBRANCH  33  36
ENDBRANCH  31  32
ENDBRANCH  30  31
ENDBRANCH   1  30
TORSDOF 15
ENDMDL
MODEL 3
REMARK VINA RESULT:     -11.5      2.370      7.892
REMARK SMILES [NH3+][C@H](CS[C@@H]1CC(=O)N(c2ccc3ccccc3c2)C1=O)C(=O)NCCCNC(=O)c1ccc(-c2c3nc(c(-c4ccccc4)c4ccc([nH]4)c(-c4ccccc4)c4nc(c(-c5ccccc5)c5ccc2[nH]5)C=C4)C=C3)cc1
REMARK SMILES IDX 25 1 24 2 22 3 23 4 2 6 1 7 3 11 4 12 5 13 6 14 20 15 7 16
REMARK SMILES IDX 9 17 21 18 8 19 10 20 11 21 19 22 12 23 18 24 13 25 17 26
REMARK SMILES IDX 14 27 16 28 15 29 26 30 27 31 28 32 29 33 30 35 31 36 32 37
REMARK SMILES IDX 78 38 33 39 77 40 34 41 35 42 36 43 71 44 37 45 76 46 70 47
REMARK SMILES IDX 72 48 38 49 75 50 69 51 68 52 39 54 61 55 46 56 60 57 47 58
REMARK SMILES IDX 50 59 59 60 73 61 48 62 49 63 58 65 74 66 51 67 40 68 41 69
REMARK SMILES IDX 45 70 42 71 44 72 43 73 62 74 63 75 67 76 64 77 66 78 65 79
REMARK SMILES IDX 52 80 53 81 57 82 54 83 56 84 55 85
REMARK H PARENT 24 5 1 8 1 9 1 10 28 34 72 53 50 64
REMARK Flexibility Score: inf
ROOT
ATOM      1  C   UNL A   1      36.512  20.665  25.160  1.00  0.00     0.118 C 
ENDROOT
BRANCH   1   2
ATOM      2  N   UNL A   1      36.795  21.913  25.841  1.00  0.00    -0.351 N 
ATOM      3  C   UNL A   1      36.326  23.179  25.680  1.00  0.00     0.279 C 
ATOM      4  O   UNL A   1      37.059  24.084  26.098  1.00  0.00    -0.268 OA
ATOM      5  H   UNL A   1      37.459  21.827  26.564  1.00  0.00     0.163 HD
BRANCH   3   6
ATOM      6  C   UNL A   1      34.915  23.503  25.141  1.00  0.00     0.280 C 
BRANCH   6   7
ATOM      7  N   UNL A   1      35.062  23.987  23.751  1.00  0.00    -0.347 N 
ATOM      8  H   UNL A   1      34.962  23.203  23.105  1.00  0.00     0.345 HD
ATOM      9  H   UNL A   1      35.983  24.408  23.632  1.00  0.00     0.345 HD
ATOM     10  H   UNL A   1      34.343  24.683  23.555  1.00  0.00     0.345 HD
ENDBRANCH   6   7
BRANCH   6  11
ATOM     11  C   UNL A   1      33.997  24.341  26.054  1.00  0.00     0.145 C 
BRANCH  11  12
ATOM     12  S   UNL A   1      32.960  23.321  27.204  1.00  0.00    -0.141 SA
BRANCH  12  13
ATOM     13  C   UNL A   1      31.279  23.590  26.516  1.00  0.00     0.146 C 
ATOM     14  C   UNL A   1      31.063  22.809  25.225  1.00  0.00     0.125 C 
ATOM     15  C   UNL A   1      31.060  25.023  26.104  1.00  0.00     0.247 C 
ATOM     16  C   UNL A   1      30.762  23.853  24.186  1.00  0.00     0.235 C 
ATOM     17  N   UNL A   1      30.907  25.093  24.746  1.00  0.00    -0.250 N 
ATOM     18  O   UNL A   1      30.940  25.947  26.900  1.00  0.00    -0.273 OA
ATOM     19  O   UNL A   1      30.444  23.574  23.037  1.00  0.00    -0.274 OA
BRANCH  17  20
ATOM     20  C   UNL A   1      30.703  26.317  24.073  1.00  0.00     0.052 A 
ATOM     21  C   UNL A   1      31.784  27.037  23.566  1.00  0.00     0.027 A 
ATOM     22  C   UNL A   1      29.401  26.804  23.877  1.00  0.00     0.035 A 
ATOM     23  C   UNL A   1      31.566  28.196  22.815  1.00  0.00     0.011 A 
ATOM     24  C   UNL A   1      29.173  28.011  23.189  1.00  0.00    -0.016 A 
ATOM     25  C   UNL A   1      30.270  28.697  22.622  1.00  0.00    -0.018 A 
ATOM     26  C   UNL A   1      27.883  28.555  23.054  1.00  0.00     0.009 A 
ATOM     27  C   UNL A   1      30.043  29.870  21.886  1.00  0.00     0.009 A 
ATOM     28  C   UNL A   1      27.678  29.742  22.345  1.00  0.00     0.001 A 
ATOM     29  C   UNL A   1      28.755  30.389  21.748  1.00  0.00     0.001 A 
ENDBRANCH  17  20
ENDBRANCH  12  13
ENDBRANCH  11  12
ENDBRANCH   6  11
ENDBRANCH   3   6
ENDBRANCH   1   2
BRANCH   1  30
ATOM     30  C   UNL A   1      37.818  19.933  24.847  1.00  0.00     0.042 C 
BRANCH  30  31
ATOM     31  C   UNL A   1      38.989  20.383  25.719  1.00  0.00     0.118 C 
BRANCH  31  32
ATOM     32  N   UNL A   1      40.055  19.393  25.775  1.00  0.00    -0.352 N 
ATOM     33  C   UNL A   1      41.380  19.558  26.095  1.00  0.00     0.251 C 
ATOM     34  H   UNL A   1      39.787  18.472  25.552  1.00  0.00     0.163 HD
ATOM     35  O   UNL A   1      42.174  18.639  25.926  1.00  0.00    -0.269 OA
BRANCH  33  36
ATOM     36  C   UNL A   1      41.854  20.858  26.612  1.00  0.00     0.039 A 
ATOM     37  C   UNL A   1      42.354  21.799  25.707  1.00  0.00     0.014 A 
ATOM     38  C   UNL A   1      41.802  21.151  27.977  1.00  0.00     0.014 A 
ATOM     39  C   UNL A   1      42.732  23.063  26.164  1.00  0.00     0.010 A 
ATOM     40  C   UNL A   1      42.116  22.433  28.421  1.00  0.00     0.010 A 
ATOM     41  C   UNL A   1      42.575  23.403  27.517  1.00  0.00    -0.014 A 
BRANCH  41  42
ATOM     42  C   UNL A   1      42.855  24.778  27.999  1.00  0.00     0.031 A 
ATOM     43  C   UNL A   1      44.245  25.176  28.404  1.00  0.00     0.074 A 
ATOM     44  C   UNL A   1      41.835  25.648  28.140  1.00  0.00     0.049 A 
ATOM     45  N   UNL A   1      44.664  26.308  28.913  1.00  0.00    -0.248 NA
ATOM     46  C   UNL A   1      45.300  24.164  28.238  1.00  0.00     0.031 C 
ATOM     47  C   UNL A   1      40.432  25.371  27.819  1.00  0.00     0.029 A 
ATOM     48  N   UNL A   1      41.820  26.940  28.602  1.00  0.00    -0.354 N 
ATOM     49  C   UNL A   1      46.024  26.139  29.142  1.00  0.00     0.074 A 
ATOM     50  C   UNL A   1      46.351  24.783  28.760  1.00  0.00     0.031 C 
ATOM     51  C   UNL A   1      39.700  26.467  28.070  1.00  0.00     0.029 A 
ATOM     52  C   UNL A   1      40.568  27.507  28.610  1.00  0.00     0.049 A 
ATOM     53  H   UNL A   1      42.629  27.416  28.899  1.00  0.00     0.167 HD
ATOM     54  C   UNL A   1      46.922  27.037  29.613  1.00  0.00     0.031 A 
ATOM     55  C   UNL A   1      40.161  28.724  29.017  1.00  0.00     0.031 A 
ATOM     56  C   UNL A   1      46.596  28.387  29.989  1.00  0.00     0.049 A 
ATOM     57  C   UNL A   1      41.174  29.692  29.560  1.00  0.00     0.074 A 
ATOM     58  C   UNL A   1      47.447  29.390  30.422  1.00  0.00     0.029 A 
ATOM     59  N   UNL A   1      45.317  28.920  29.984  1.00  0.00    -0.354 N 
ATOM     60  N   UNL A   1      42.468  29.539  29.704  1.00  0.00    -0.248 NA
ATOM     61  C   UNL A   1      40.668  31.003  29.990  1.00  0.00     0.031 C 
ATOM     62  C   UNL A   1      46.674  30.514  30.731  1.00  0.00     0.029 A 
ATOM     63  C   UNL A   1      45.350  30.230  30.437  1.00  0.00     0.049 A 
ATOM     64  H   UNL A   1      44.505  28.441  29.702  1.00  0.00     0.167 HD
ATOM     65  C   UNL A   1      42.934  30.740  30.221  1.00  0.00     0.074 A 
ATOM     66  C   UNL A   1      41.788  31.617  30.346  1.00  0.00     0.031 C 
ATOM     67  C   UNL A   1      44.200  31.086  30.565  1.00  0.00     0.031 A 
BRANCH  54  68
ATOM     68  C   UNL A   1      48.347  26.579  29.757  1.00  0.00    -0.014 A 
ATOM     69  C   UNL A   1      49.285  26.783  28.732  1.00  0.00     0.009 A 
ATOM     70  C   UNL A   1      48.767  25.968  30.949  1.00  0.00     0.009 A 
ATOM     71  C   UNL A   1      50.603  26.350  28.882  1.00  0.00     0.001 A 
ATOM     72  C   UNL A   1      50.094  25.563  31.109  1.00  0.00     0.001 A 
ATOM     73  C   UNL A   1      51.008  25.745  30.072  1.00  0.00     0.000 A 
ENDBRANCH  54  68
BRANCH  55  74
ATOM     74  C   UNL A   1      38.727  29.099  28.923  1.00  0.00    -0.014 A 
ATOM     75  C   UNL A   1      37.888  28.987  30.043  1.00  0.00     0.009 A 
ATOM     76  C   UNL A   1      38.187  29.568  27.715  1.00  0.00     0.009 A 
ATOM     77  C   UNL A   1      36.533  29.312  29.947  1.00  0.00     0.001 A 
ATOM     78  C   UNL A   1      36.838  29.919  27.630  1.00  0.00     0.001 A 
ATOM     79  C   UNL A   1      36.010  29.781  28.743  1.00  0.00     0.000 A 
ENDBRANCH  55  74
BRANCH  67  80
ATOM     80  C   UNL A   1      44.411  32.478  31.086  1.00  0.00    -0.014 A 
ATOM     81  C   UNL A   1      44.375  32.752  32.463  1.00  0.00     0.009 A 
ATOM     82  C   UNL A   1      44.684  33.525  30.191  1.00  0.00     0.009 A 
ATOM     83  C   UNL A   1      44.575  34.053  32.928  1.00  0.00     0.001 A 
ATOM     84  C   UNL A   1      44.914  34.818  30.662  1.00  0.00     0.001 A 
ATOM     85  C   UNL A   1      44.850  35.083  32.029  1.00  0.00     0.000 A 
ENDBRANCH  67  80
ENDBRANCH  41  42
ENDBRANCH  33  36
ENDBRANCH  31  32
ENDBRANCH  30  31
ENDBRANCH   1  30
TORSDOF 15
ENDMDL
