MODEL 1
REMARK VINA RESULT:     -12.6      0.000      0.000
REMARK SMILES Cc1ccc(C(=O)c2cccc(C)c2C(=O)NCCCNC(=O)c2ccc(-c3c4nc(c(-c5ccccc5)c5ccc([nH]5)c(-c5ccccc5)c5nc(c(-c6ccccc6)c6ccc3[nH]6)C=C5)C=C4)cc2)c(C)c1
REMARK SMILES IDX 19 1 18 2 17 3 15 4 16 5 14 7 8 8 9 9 10 10 12 11 11 12
REMARK SMILES IDX 13 13 6 14 7 15 5 16 1 17 2 18 3 19 74 20 4 21 72 22 73 23
REMARK SMILES IDX 20 24 21 25 22 26 23 28 24 29 25 30 71 31 26 32 70 33 27 34
REMARK SMILES IDX 28 35 29 36 64 37 30 38 69 39 63 40 65 41 31 42 68 43 62 44
REMARK SMILES IDX 61 45 32 47 54 48 39 49 53 50 40 51 43 52 52 53 66 54 41 55
REMARK SMILES IDX 42 56 51 58 67 59 44 60 33 61 34 62 38 63 35 64 37 65 36 66
REMARK SMILES IDX 55 67 56 68 60 69 57 70 59 71 58 72 45 73 46 74 50 75 47 76
REMARK SMILES IDX 49 77 48 78
REMARK H PARENT 17 6 21 27 65 46 43 57
REMARK Flexibility Score: inf
ROOT
ATOM      1  C   UNL A   1      32.413  31.318  27.025  1.00  0.00     0.042 C 
ENDROOT
BRANCH   1   2
ATOM      2  C   UNL A   1      31.766  30.440  25.977  1.00  0.00     0.118 C 
BRANCH   2   3
ATOM      3  N   UNL A   1      32.677  29.743  25.098  1.00  0.00    -0.352 N 
ATOM      4  C   UNL A   1      32.403  28.767  24.162  1.00  0.00     0.252 C 
ATOM      5  O   UNL A   1      33.313  28.418  23.412  1.00  0.00    -0.269 OA
ATOM      6  H   UNL A   1      33.625  29.999  25.177  1.00  0.00     0.163 HD
BRANCH   4   7
ATOM      7  C   UNL A   1      31.087  28.051  24.132  1.00  0.00     0.053 A 
ATOM      8  C   UNL A   1      30.790  26.944  24.959  1.00  0.00     0.036 A 
ATOM      9  C   UNL A   1      29.551  26.290  24.848  1.00  0.00     0.013 A 
ATOM     10  C   UNL A   1      28.616  26.703  23.907  1.00  0.00     0.001 A 
ATOM     11  C   UNL A   1      30.086  28.526  23.242  1.00  0.00    -0.038 A 
ATOM     12  C   UNL A   1      28.873  27.826  23.126  1.00  0.00     0.004 A 
ATOM     13  C   UNL A   1      30.239  29.800  22.447  1.00  0.00     0.045 C 
BRANCH   8  14
ATOM     14  C   UNL A   1      31.683  26.532  26.069  1.00  0.00     0.194 C 
ATOM     15  O   UNL A   1      31.557  27.161  27.115  1.00  0.00    -0.289 OA
BRANCH  14  16
ATOM     16  C   UNL A   1      32.706  25.420  25.930  1.00  0.00     0.025 A 
ATOM     17  C   UNL A   1      35.613  22.252  25.373  1.00  0.00     0.044 C 
ATOM     18  C   UNL A   1      34.640  23.365  25.631  1.00  0.00    -0.051 A 
ATOM     19  C   UNL A   1      34.978  24.691  25.375  1.00  0.00     0.004 A 
ATOM     20  C   UNL A   1      33.356  23.076  26.098  1.00  0.00     0.007 A 
ATOM     21  C   UNL A   1      34.027  25.705  25.533  1.00  0.00     0.013 A 
ATOM     22  C   UNL A   1      32.390  24.087  26.282  1.00  0.00    -0.040 A 
ATOM     23  C   UNL A   1      31.066  23.677  26.876  1.00  0.00     0.045 C 
ENDBRANCH  14  16
ENDBRANCH   8  14
ENDBRANCH   4   7
ENDBRANCH   2   3
ENDBRANCH   1   2
BRANCH   1  24
ATOM     24  C   UNL A   1      33.654  30.671  27.628  1.00  0.00     0.118 C 
BRANCH  24  25
ATOM     25  N   UNL A   1      34.441  31.582  28.475  1.00  0.00    -0.352 N 
ATOM     26  C   UNL A   1      35.727  31.406  28.961  1.00  0.00     0.251 C 
ATOM     27  H   UNL A   1      33.997  32.424  28.728  1.00  0.00     0.163 HD
ATOM     28  O   UNL A   1      36.356  32.319  29.483  1.00  0.00    -0.269 OA
BRANCH  26  29
ATOM     29  C   UNL A   1      36.352  30.085  28.754  1.00  0.00     0.039 A 
ATOM     30  C   UNL A   1      36.634  29.329  29.893  1.00  0.00     0.014 A 
ATOM     31  C   UNL A   1      37.015  29.872  27.548  1.00  0.00     0.014 A 
ATOM     32  C   UNL A   1      37.790  28.559  29.905  1.00  0.00     0.010 A 
ATOM     33  C   UNL A   1      38.210  29.175  27.594  1.00  0.00     0.010 A 
ATOM     34  C   UNL A   1      38.645  28.609  28.802  1.00  0.00    -0.014 A 
BRANCH  34  35
ATOM     35  C   UNL A   1      40.071  28.298  28.919  1.00  0.00     0.031 A 
ATOM     36  C   UNL A   1      40.610  27.027  28.403  1.00  0.00     0.074 A 
ATOM     37  C   UNL A   1      40.930  29.172  29.497  1.00  0.00     0.049 A 
ATOM     38  N   UNL A   1      41.664  26.448  28.874  1.00  0.00    -0.248 NA
ATOM     39  C   UNL A   1      39.961  26.270  27.341  1.00  0.00     0.031 C 
ATOM     40  C   UNL A   1      42.390  29.120  29.486  1.00  0.00     0.029 A 
ATOM     41  N   UNL A   1      40.629  30.165  30.430  1.00  0.00    -0.354 N 
ATOM     42  C   UNL A   1      42.001  25.439  28.007  1.00  0.00     0.074 A 
ATOM     43  C   UNL A   1      40.862  25.309  27.127  1.00  0.00     0.031 C 
ATOM     44  C   UNL A   1      42.859  29.820  30.531  1.00  0.00     0.029 A 
ATOM     45  C   UNL A   1      41.718  30.249  31.317  1.00  0.00     0.049 A 
ATOM     46  H   UNL A   1      39.808  30.706  30.462  1.00  0.00     0.167 HD
ATOM     47  C   UNL A   1      43.261  24.920  28.033  1.00  0.00     0.031 A 
ATOM     48  C   UNL A   1      41.562  30.041  32.655  1.00  0.00     0.031 A 
ATOM     49  C   UNL A   1      44.073  25.469  29.124  1.00  0.00     0.049 A 
ATOM     50  C   UNL A   1      42.353  28.873  33.206  1.00  0.00     0.074 A 
ATOM     51  C   UNL A   1      45.130  26.363  29.183  1.00  0.00     0.029 A 
ATOM     52  N   UNL A   1      43.652  25.288  30.437  1.00  0.00    -0.354 N 
ATOM     53  N   UNL A   1      43.048  28.033  32.489  1.00  0.00    -0.248 NA
ATOM     54  C   UNL A   1      42.338  28.509  34.618  1.00  0.00     0.031 C 
ATOM     55  C   UNL A   1      45.347  26.713  30.545  1.00  0.00     0.029 A 
ATOM     56  C   UNL A   1      44.427  26.025  31.314  1.00  0.00     0.049 A 
ATOM     57  H   UNL A   1      42.903  24.711  30.706  1.00  0.00     0.167 HD
ATOM     58  C   UNL A   1      43.502  27.005  33.283  1.00  0.00     0.074 A 
ATOM     59  C   UNL A   1      43.045  27.367  34.613  1.00  0.00     0.031 C 
ATOM     60  C   UNL A   1      44.170  25.934  32.751  1.00  0.00     0.031 A 
BRANCH  47  61
ATOM     61  C   UNL A   1      43.832  24.112  26.888  1.00  0.00    -0.014 A 
ATOM     62  C   UNL A   1      44.408  24.769  25.785  1.00  0.00     0.009 A 
ATOM     63  C   UNL A   1      43.783  22.710  26.802  1.00  0.00     0.009 A 
ATOM     64  C   UNL A   1      44.796  24.078  24.627  1.00  0.00     0.001 A 
ATOM     65  C   UNL A   1      44.122  22.016  25.632  1.00  0.00     0.001 A 
ATOM     66  C   UNL A   1      44.619  22.705  24.537  1.00  0.00     0.000 A 
ENDBRANCH  47  61
BRANCH  48  67
ATOM     67  C   UNL A   1      40.243  30.494  33.177  1.00  0.00    -0.014 A 
ATOM     68  C   UNL A   1      40.002  31.880  33.265  1.00  0.00     0.009 A 
ATOM     69  C   UNL A   1      39.153  29.617  33.251  1.00  0.00     0.009 A 
ATOM     70  C   UNL A   1      38.697  32.377  33.305  1.00  0.00     0.001 A 
ATOM     71  C   UNL A   1      37.847  30.120  33.302  1.00  0.00     0.001 A 
ATOM     72  C   UNL A   1      37.619  31.497  33.295  1.00  0.00     0.000 A 
ENDBRANCH  48  67
BRANCH  60  73
ATOM     73  C   UNL A   1      44.646  24.676  33.467  1.00  0.00    -0.014 A 
ATOM     74  C   UNL A   1      45.977  24.306  33.689  1.00  0.00     0.009 A 
ATOM     75  C   UNL A   1      43.675  23.771  33.970  1.00  0.00     0.009 A 
ATOM     76  C   UNL A   1      46.318  23.144  34.404  1.00  0.00     0.001 A 
ATOM     77  C   UNL A   1      44.005  22.616  34.686  1.00  0.00     0.001 A 
ATOM     78  C   UNL A   1      45.334  22.306  34.912  1.00  0.00     0.000 A 
ENDBRANCH  60  73
ENDBRANCH  34  35
ENDBRANCH  26  29
ENDBRANCH  24  25
ENDBRANCH   1  24
TORSDOF 12
ENDMDL
MODEL 2
REMARK VINA RESULT:     -12.4      3.590      8.798
REMARK SMILES Cc1ccc(C(=O)c2cccc(C)c2C(=O)NCCCNC(=O)c2ccc(-c3c4nc(c(-c5ccccc5)c5ccc([nH]5)c(-c5ccccc5)c5nc(c(-c6ccccc6)c6ccc3[nH]6)C=C5)C=C4)cc2)c(C)c1
REMARK SMILES IDX 19 1 18 2 17 3 15 4 16 5 14 7 8 8 9 9 10 10 12 11 11 12
REMARK SMILES IDX 13 13 6 14 7 15 5 16 1 17 2 18 3 19 74 20 4 21 72 22 73 23
REMARK SMILES IDX 20 24 21 25 22 26 23 28 24 29 25 30 71 31 26 32 70 33 27 34
REMARK SMILES IDX 28 35 29 36 64 37 30 38 69 39 63 40 65 41 31 42 68 43 62 44
REMARK SMILES IDX 61 45 32 47 54 48 39 49 53 50 40 51 43 52 52 53 66 54 41 55
REMARK SMILES IDX 42 56 51 58 67 59 44 60 33 61 34 62 38 63 35 64 37 65 36 66
REMARK SMILES IDX 55 67 56 68 60 69 57 70 59 71 58 72 45 73 46 74 50 75 47 76
REMARK SMILES IDX 49 77 48 78
REMARK H PARENT 17 6 21 27 65 46 43 57
REMARK Flexibility Score: inf
ROOT
ATOM      1  C   UNL A   1      38.143  20.931  25.337  1.00  0.00     0.042 C 
ENDROOT
BRANCH   1   2
ATOM      2  C   UNL A   1      36.662  20.893  25.032  1.00  0.00     0.118 C 
BRANCH   2   3
ATOM      3  N   UNL A   1      35.812  21.581  25.976  1.00  0.00    -0.352 N 
ATOM      4  C   UNL A   1      34.453  21.813  25.911  1.00  0.00     0.252 C 
ATOM      5  O   UNL A   1      33.903  22.286  26.904  1.00  0.00    -0.269 OA
ATOM      6  H   UNL A   1      36.264  21.932  26.778  1.00  0.00     0.163 HD
BRANCH   4   7
ATOM      7  C   UNL A   1      33.681  21.625  24.641  1.00  0.00     0.053 A 
ATOM      8  C   UNL A   1      33.611  22.606  23.627  1.00  0.00     0.036 A 
ATOM      9  C   UNL A   1      32.832  22.383  22.479  1.00  0.00     0.013 A 
ATOM     10  C   UNL A   1      32.100  21.210  22.339  1.00  0.00     0.001 A 
ATOM     11  C   UNL A   1      33.008  20.389  24.443  1.00  0.00    -0.038 A 
ATOM     12  C   UNL A   1      32.205  20.212  23.303  1.00  0.00     0.004 A 
ATOM     13  C   UNL A   1      33.163  19.216  25.380  1.00  0.00     0.045 C 
BRANCH   8  14
ATOM     14  C   UNL A   1      34.464  23.819  23.648  1.00  0.00     0.194 C 
ATOM     15  O   UNL A   1      35.607  23.674  23.225  1.00  0.00    -0.289 OA
BRANCH  14  16
ATOM     16  C   UNL A   1      33.977  25.157  24.173  1.00  0.00     0.025 A 
ATOM     17  C   UNL A   1      32.463  28.901  25.750  1.00  0.00     0.044 C 
ATOM     18  C   UNL A   1      33.055  27.636  25.202  1.00  0.00    -0.051 A 
ATOM     19  C   UNL A   1      33.734  26.742  26.025  1.00  0.00     0.004 A 
ATOM     20  C   UNL A   1      32.896  27.318  23.851  1.00  0.00     0.007 A 
ATOM     21  C   UNL A   1      34.197  25.524  25.516  1.00  0.00     0.013 A 
ATOM     22  C   UNL A   1      33.373  26.105  23.315  1.00  0.00    -0.040 A 
ATOM     23  C   UNL A   1      33.228  25.903  21.828  1.00  0.00     0.045 C 
ENDBRANCH  14  16
ENDBRANCH   8  14
ENDBRANCH   4   7
ENDBRANCH   2   3
ENDBRANCH   1   2
BRANCH   1  24
ATOM     24  C   UNL A   1      38.601  22.316  25.780  1.00  0.00     0.118 C 
BRANCH  24  25
ATOM     25  N   UNL A   1      40.034  22.386  26.106  1.00  0.00    -0.352 N 
ATOM     26  C   UNL A   1      40.725  23.420  26.719  1.00  0.00     0.251 C 
ATOM     27  H   UNL A   1      40.571  21.598  25.858  1.00  0.00     0.163 HD
ATOM     28  O   UNL A   1      41.873  23.284  27.125  1.00  0.00    -0.269 OA
BRANCH  26  29
ATOM     29  C   UNL A   1      39.994  24.682  26.941  1.00  0.00     0.039 A 
ATOM     30  C   UNL A   1      40.439  25.806  26.241  1.00  0.00     0.014 A 
ATOM     31  C   UNL A   1      39.246  24.793  28.110  1.00  0.00     0.014 A 
ATOM     32  C   UNL A   1      40.388  27.041  26.876  1.00  0.00     0.010 A 
ATOM     33  C   UNL A   1      39.278  26.008  28.773  1.00  0.00     0.010 A 
ATOM     34  C   UNL A   1      39.942  27.102  28.198  1.00  0.00    -0.014 A 
BRANCH  34  35
ATOM     35  C   UNL A   1      40.341  28.188  29.095  1.00  0.00     0.031 A 
ATOM     36  C   UNL A   1      39.397  29.267  29.440  1.00  0.00     0.074 A 
ATOM     37  C   UNL A   1      41.583  28.224  29.636  1.00  0.00     0.049 A 
ATOM     38  N   UNL A   1      39.760  30.462  29.770  1.00  0.00    -0.248 NA
ATOM     39  C   UNL A   1      37.953  29.097  29.382  1.00  0.00     0.031 C 
ATOM     40  C   UNL A   1      42.058  29.092  30.711  1.00  0.00     0.029 A 
ATOM     41  N   UNL A   1      42.743  27.632  29.136  1.00  0.00    -0.354 N 
ATOM     42  C   UNL A   1      38.650  31.109  30.253  1.00  0.00     0.074 A 
ATOM     43  C   UNL A   1      37.539  30.255  29.901  1.00  0.00     0.031 C 
ATOM     44  C   UNL A   1      43.393  29.196  30.630  1.00  0.00     0.029 A 
ATOM     45  C   UNL A   1      43.815  28.495  29.432  1.00  0.00     0.049 A 
ATOM     46  H   UNL A   1      42.801  26.771  28.664  1.00  0.00     0.167 HD
ATOM     47  C   UNL A   1      38.802  32.224  31.022  1.00  0.00     0.031 A 
ATOM     48  C   UNL A   1      44.596  29.020  28.447  1.00  0.00     0.031 A 
ATOM     49  C   UNL A   1      40.201  32.652  31.124  1.00  0.00     0.049 A 
ATOM     50  C   UNL A   1      44.570  30.532  28.364  1.00  0.00     0.074 A 
ATOM     51  C   UNL A   1      41.151  32.608  32.131  1.00  0.00     0.029 A 
ATOM     52  N   UNL A   1      40.888  32.998  29.965  1.00  0.00    -0.354 N 
ATOM     53  N   UNL A   1      43.796  31.309  29.069  1.00  0.00    -0.248 NA
ATOM     54  C   UNL A   1      45.362  31.280  27.393  1.00  0.00     0.031 C 
ATOM     55  C   UNL A   1      42.417  32.938  31.569  1.00  0.00     0.029 A 
ATOM     56  C   UNL A   1      42.233  33.191  30.222  1.00  0.00     0.049 A 
ATOM     57  H   UNL A   1      40.472  33.093  29.079  1.00  0.00     0.167 HD
ATOM     58  C   UNL A   1      43.910  32.608  28.630  1.00  0.00     0.074 A 
ATOM     59  C   UNL A   1      44.922  32.533  27.590  1.00  0.00     0.031 C 
ATOM     60  C   UNL A   1      43.120  33.605  29.136  1.00  0.00     0.031 A 
BRANCH  47  61
ATOM     61  C   UNL A   1      37.695  32.760  31.905  1.00  0.00    -0.014 A 
ATOM     62  C   UNL A   1      37.605  32.346  33.246  1.00  0.00     0.009 A 
ATOM     63  C   UNL A   1      36.677  33.624  31.466  1.00  0.00     0.009 A 
ATOM     64  C   UNL A   1      36.508  32.677  34.055  1.00  0.00     0.001 A 
ATOM     65  C   UNL A   1      35.553  33.921  32.250  1.00  0.00     0.001 A 
ATOM     66  C   UNL A   1      35.463  33.434  33.545  1.00  0.00     0.000 A 
ENDBRANCH  47  61
BRANCH  48  67
ATOM     67  C   UNL A   1      44.779  28.109  27.283  1.00  0.00    -0.014 A 
ATOM     68  C   UNL A   1      45.608  26.981  27.445  1.00  0.00     0.009 A 
ATOM     69  C   UNL A   1      43.908  28.149  26.188  1.00  0.00     0.009 A 
ATOM     70  C   UNL A   1      45.484  25.875  26.601  1.00  0.00     0.001 A 
ATOM     71  C   UNL A   1      43.794  27.043  25.337  1.00  0.00     0.001 A 
ATOM     72  C   UNL A   1      44.556  25.896  25.563  1.00  0.00     0.000 A 
ENDBRANCH  48  67
BRANCH  60  73
ATOM     73  C   UNL A   1      43.049  35.062  28.693  1.00  0.00    -0.014 A 
ATOM     74  C   UNL A   1      43.372  36.178  29.471  1.00  0.00     0.009 A 
ATOM     75  C   UNL A   1      42.617  35.349  27.372  1.00  0.00     0.009 A 
ATOM     76  C   UNL A   1      43.318  37.486  28.956  1.00  0.00     0.001 A 
ATOM     77  C   UNL A   1      42.565  36.646  26.850  1.00  0.00     0.001 A 
ATOM     78  C   UNL A   1      42.926  37.719  27.645  1.00  0.00     0.000 A 
ENDBRANCH  60  73
ENDBRANCH  34  35
ENDBRANCH  26  29
ENDBRANCH  24  25
ENDBRANCH   1  24
TORSDOF 12
ENDMDL
MODEL 3
REMARK VINA RESULT:     -12.2      4.278      7.405
REMARK SMILES Cc1ccc(C(=O)c2cccc(C)c2C(=O)NCCCNC(=O)c2ccc(-c3c4nc(c(-c5ccccc5)c5ccc([nH]5)c(-c5ccccc5)c5nc(c(-c6ccccc6)c6ccc3[nH]6)C=C5)C=C4)cc2)c(C)c1
REMARK SMILES IDX 19 1 18 2 17 3 15 4 16 5 14 7 8 8 9 9 10 10 12 11 11 12
REMARK SMILES IDX 13 13 6 14 7 15 5 16 1 17 2 18 3 19 74 20 4 21 72 22 73 23
REMARK SMILES IDX 20 24 21 25 22 26 23 28 24 29 25 30 71 31 26 32 70 33 27 34
REMARK SMILES IDX 28 35 29 36 64 37 30 38 69 39 63 40 65 41 31 42 68 43 62 44
REMARK SMILES IDX 61 45 32 47 54 48 39 49 53 50 40 51 43 52 52 53 66 54 41 55
REMARK SMILES IDX 42 56 51 58 67 59 44 60 33 61 34 62 38 63 35 64 37 65 36 66
REMARK SMILES IDX 55 67 56 68 60 69 57 70 59 71 58 72 45 73 46 74 50 75 47 76
REMARK SMILES IDX 49 77 48 78
REMARK H PARENT 17 6 21 27 65 46 43 57
REMARK Flexibility Score: inf
ROOT
ATOM      1  C   UNL A   1      38.548  24.077  26.497  1.00  0.00     0.042 C 
ENDROOT
BRANCH   1   2
ATOM      2  C   UNL A   1      37.256  23.731  25.792  1.00  0.00     0.118 C 
BRANCH   2   3
ATOM      3  N   UNL A   1      37.376  23.422  24.385  1.00  0.00    -0.352 N 
ATOM      4  C   UNL A   1      36.440  22.867  23.536  1.00  0.00     0.252 C 
ATOM      5  O   UNL A   1      36.702  22.832  22.336  1.00  0.00    -0.269 OA
ATOM      6  H   UNL A   1      38.245  23.637  23.975  1.00  0.00     0.163 HD
BRANCH   4   7
ATOM      7  C   UNL A   1      35.199  22.205  24.055  1.00  0.00     0.053 A 
ATOM      8  C   UNL A   1      33.901  22.722  23.844  1.00  0.00     0.036 A 
ATOM      9  C   UNL A   1      32.783  22.076  24.396  1.00  0.00     0.013 A 
ATOM     10  C   UNL A   1      32.940  20.939  25.180  1.00  0.00     0.001 A 
ATOM     11  C   UNL A   1      35.340  20.988  24.775  1.00  0.00    -0.038 A 
ATOM     12  C   UNL A   1      34.206  20.387  25.349  1.00  0.00     0.004 A 
ATOM     13  C   UNL A   1      36.658  20.264  24.905  1.00  0.00     0.045 C 
BRANCH   8  14
ATOM     14  C   UNL A   1      33.648  23.850  22.914  1.00  0.00     0.194 C 
ATOM     15  O   UNL A   1      33.591  23.558  21.724  1.00  0.00    -0.289 OA
BRANCH  14  16
ATOM     16  C   UNL A   1      33.487  25.283  23.388  1.00  0.00     0.025 A 
ATOM     17  C   UNL A   1      32.912  29.326  24.843  1.00  0.00     0.044 C 
ATOM     18  C   UNL A   1      33.181  27.946  24.321  1.00  0.00    -0.051 A 
ATOM     19  C   UNL A   1      33.865  27.006  25.087  1.00  0.00     0.004 A 
ATOM     20  C   UNL A   1      32.708  27.570  23.062  1.00  0.00     0.007 A 
ATOM     21  C   UNL A   1      34.025  25.696  24.623  1.00  0.00     0.013 A 
ATOM     22  C   UNL A   1      32.877  26.261  22.568  1.00  0.00    -0.040 A 
ATOM     23  C   UNL A   1      32.408  25.988  21.161  1.00  0.00     0.045 C 
ENDBRANCH  14  16
ENDBRANCH   8  14
ENDBRANCH   4   7
ENDBRANCH   2   3
ENDBRANCH   1   2
BRANCH   1  24
ATOM     24  C   UNL A   1      39.347  22.834  26.869  1.00  0.00     0.118 C 
BRANCH  24  25
ATOM     25  N   UNL A   1      40.461  22.552  25.949  1.00  0.00    -0.352 N 
ATOM     26  C   UNL A   1      41.818  22.749  26.158  1.00  0.00     0.251 C 
ATOM     27  H   UNL A   1      40.211  22.175  25.074  1.00  0.00     0.163 HD
ATOM     28  O   UNL A   1      42.666  22.288  25.404  1.00  0.00    -0.269 OA
BRANCH  26  29
ATOM     29  C   UNL A   1      42.214  23.477  27.379  1.00  0.00     0.039 A 
ATOM     30  C   UNL A   1      42.199  24.872  27.322  1.00  0.00     0.014 A 
ATOM     31  C   UNL A   1      42.982  22.788  28.315  1.00  0.00     0.014 A 
ATOM     32  C   UNL A   1      43.184  25.571  28.009  1.00  0.00     0.010 A 
ATOM     33  C   UNL A   1      44.014  23.480  28.925  1.00  0.00     0.010 A 
ATOM     34  C   UNL A   1      44.173  24.853  28.685  1.00  0.00    -0.014 A 
BRANCH  34  35
ATOM     35  C   UNL A   1      45.490  25.431  28.960  1.00  0.00     0.031 A 
ATOM     36  C   UNL A   1      46.648  25.109  28.106  1.00  0.00     0.074 A 
ATOM     37  C   UNL A   1      45.676  26.279  30.000  1.00  0.00     0.049 A 
ATOM     38  N   UNL A   1      47.873  25.131  28.516  1.00  0.00    -0.248 NA
ATOM     39  C   UNL A   1      46.510  24.676  26.723  1.00  0.00     0.031 C 
ATOM     40  C   UNL A   1      46.847  27.109  30.270  1.00  0.00     0.029 A 
ATOM     41  N   UNL A   1      44.915  26.371  31.166  1.00  0.00    -0.354 N 
ATOM     42  C   UNL A   1      48.679  25.023  27.410  1.00  0.00     0.074 A 
ATOM     43  C   UNL A   1      47.787  24.646  26.336  1.00  0.00     0.031 C 
ATOM     44  C   UNL A   1      46.879  27.407  31.578  1.00  0.00     0.029 A 
ATOM     45  C   UNL A   1      45.796  26.684  32.217  1.00  0.00     0.049 A 
ATOM     46  H   UNL A   1      43.942  26.241  31.239  1.00  0.00     0.167 HD
ATOM     47  C   UNL A   1      49.985  25.401  27.488  1.00  0.00     0.031 A 
ATOM     48  C   UNL A   1      45.926  25.866  33.300  1.00  0.00     0.031 A 
ATOM     49  C   UNL A   1      50.382  25.777  28.849  1.00  0.00     0.049 A 
ATOM     50  C   UNL A   1      47.317  25.298  33.494  1.00  0.00     0.074 A 
ATOM     51  C   UNL A   1      50.661  26.982  29.473  1.00  0.00     0.029 A 
ATOM     52  N   UNL A   1      50.288  24.834  29.865  1.00  0.00    -0.354 N 
ATOM     53  N   UNL A   1      48.311  25.449  32.664  1.00  0.00    -0.248 NA
ATOM     54  C   UNL A   1      47.661  24.426  34.611  1.00  0.00     0.031 C 
ATOM     55  C   UNL A   1      50.741  26.754  30.875  1.00  0.00     0.029 A 
ATOM     56  C   UNL A   1      50.519  25.408  31.102  1.00  0.00     0.049 A 
ATOM     57  H   UNL A   1      50.083  23.882  29.724  1.00  0.00     0.167 HD
ATOM     58  C   UNL A   1      49.375  24.672  33.061  1.00  0.00     0.074 A 
ATOM     59  C   UNL A   1      48.918  24.068  34.301  1.00  0.00     0.031 C 
ATOM     60  C   UNL A   1      50.508  24.568  32.299  1.00  0.00     0.031 A 
BRANCH  47  61
ATOM     61  C   UNL A   1      50.824  25.688  26.261  1.00  0.00    -0.014 A 
ATOM     62  C   UNL A   1      52.073  25.061  26.102  1.00  0.00     0.009 A 
ATOM     63  C   UNL A   1      50.473  26.606  25.256  1.00  0.00     0.009 A 
ATOM     64  C   UNL A   1      52.960  25.417  25.075  1.00  0.00     0.001 A 
ATOM     65  C   UNL A   1      51.370  27.004  24.255  1.00  0.00     0.001 A 
ATOM     66  C   UNL A   1      52.623  26.416  24.173  1.00  0.00     0.000 A 
ENDBRANCH  47  61
BRANCH  48  67
ATOM     67  C   UNL A   1      44.666  25.169  33.675  1.00  0.00    -0.014 A 
ATOM     68  C   UNL A   1      44.492  23.835  33.255  1.00  0.00     0.009 A 
ATOM     69  C   UNL A   1      43.837  25.666  34.689  1.00  0.00     0.009 A 
ATOM     70  C   UNL A   1      43.596  22.989  33.912  1.00  0.00     0.001 A 
ATOM     71  C   UNL A   1      42.931  24.818  35.338  1.00  0.00     0.001 A 
ATOM     72  C   UNL A   1      42.835  23.474  34.973  1.00  0.00     0.000 A 
ENDBRANCH  48  67
BRANCH  60  73
ATOM     73  C   UNL A   1      51.724  23.681  32.541  1.00  0.00    -0.014 A 
ATOM     74  C   UNL A   1      53.034  24.119  32.758  1.00  0.00     0.009 A 
ATOM     75  C   UNL A   1      51.546  22.273  32.553  1.00  0.00     0.009 A 
ATOM     76  C   UNL A   1      54.086  23.221  33.019  1.00  0.00     0.001 A 
ATOM     77  C   UNL A   1      52.584  21.374  32.817  1.00  0.00     0.001 A 
ATOM     78  C   UNL A   1      53.859  21.852  33.060  1.00  0.00     0.000 A 
ENDBRANCH  60  73
ENDBRANCH  34  35
ENDBRANCH  26  29
ENDBRANCH  24  25
ENDBRANCH   1  24
TORSDOF 12
ENDMDL
