MODEL 1
REMARK VINA RESULT:     -10.9      0.000      0.000
REMARK SMILES COc1ncccc1C[N@@H+]1CCC[C@H]1C(=O)NCCCNC(=O)c1ccc(-c2c3nc(c(-c4ccccc4)c4ccc([nH]4)c(-c4ccccc4)c4nc(c(-c5ccccc5)c5ccc2[nH]5)C=C4)C=C3)cc1
REMARK SMILES IDX 18 1 17 2 15 3 16 4 14 6 10 7 11 8 12 10 13 11 9 12 8 13
REMARK SMILES IDX 3 14 4 15 5 16 7 17 6 18 2 19 1 20 19 21 20 22 21 23 22 24
REMARK SMILES IDX 23 26 24 27 25 28 71 29 26 30 70 31 27 32 28 33 29 34 64 35
REMARK SMILES IDX 30 36 69 37 63 38 65 39 31 40 68 41 62 42 61 43 32 45 54 46
REMARK SMILES IDX 39 47 53 48 40 49 43 50 52 51 66 52 41 53 42 54 51 56 67 57
REMARK SMILES IDX 44 58 33 59 34 60 38 61 35 62 37 63 36 64 55 65 56 66 60 67
REMARK SMILES IDX 57 68 59 69 58 70 45 71 46 72 50 73 47 74 49 75 48 76
REMARK H PARENT 17 5 10 9 21 25 65 44 43 55
REMARK Flexibility Score: inf
ROOT
ATOM      1  C   UNL A   1      31.639  30.523  26.052  1.00  0.00     0.118 C 
ENDROOT
BRANCH   1   2
ATOM      2  N   UNL A   1      30.975  30.263  24.780  1.00  0.00    -0.351 N 
ATOM      3  C   UNL A   1      30.944  29.200  23.928  1.00  0.00     0.278 C 
ATOM      4  O   UNL A   1      30.326  29.380  22.869  1.00  0.00    -0.268 OA
ATOM      5  H   UNL A   1      30.428  31.021  24.469  1.00  0.00     0.163 HD
BRANCH   3   6
ATOM      6  C   UNL A   1      31.555  27.807  24.214  1.00  0.00     0.274 C 
ATOM      7  N   UNL A   1      30.902  27.135  25.337  1.00  0.00    -0.321 N 
ATOM      8  C   UNL A   1      29.917  26.226  24.751  1.00  0.00     0.263 C 
ATOM      9  H   UNL A   1      30.405  27.803  25.925  1.00  0.00     0.349 HD
ATOM     10  C   UNL A   1      30.570  25.687  23.506  1.00  0.00     0.068 C 
ATOM     11  C   UNL A   1      31.339  26.894  22.993  1.00  0.00     0.081 C 
BRANCH   7  12
ATOM     12  C   UNL A   1      31.773  26.653  26.415  1.00  0.00     0.305 C 
BRANCH  12  13
ATOM     13  C   UNL A   1      32.659  25.484  26.084  1.00  0.00     0.068 A 
ATOM     14  C   UNL A   1      32.252  24.176  26.361  1.00  0.00     0.221 A 
ATOM     15  N   UNL A   1      32.894  23.072  25.926  1.00  0.00    -0.222 NA
ATOM     16  C   UNL A   1      34.016  23.282  25.205  1.00  0.00     0.115 A 
ATOM     17  C   UNL A   1      33.858  25.655  25.388  1.00  0.00     0.017 A 
ATOM     18  C   UNL A   1      34.551  24.534  24.940  1.00  0.00     0.021 A 
BRANCH  14  19
ATOM     19  O   UNL A   1      31.163  24.013  27.192  1.00  0.00    -0.481 OA
ATOM     20  C   UNL A   1      30.306  22.954  26.785  1.00  0.00     0.280 C 
ENDBRANCH  14  19
ENDBRANCH  12  13
ENDBRANCH   7  12
ENDBRANCH   3   6
ENDBRANCH   1   2
BRANCH   1  21
ATOM     21  C   UNL A   1      31.432  31.950  26.524  1.00  0.00     0.042 C 
BRANCH  21  22
ATOM     22  C   UNL A   1      32.655  32.489  27.242  1.00  0.00     0.118 C 
BRANCH  22  23
ATOM     23  N   UNL A   1      32.496  33.890  27.626  1.00  0.00    -0.352 N 
ATOM     24  C   UNL A   1      33.157  34.633  28.568  1.00  0.00     0.251 C 
ATOM     25  H   UNL A   1      31.802  34.379  27.127  1.00  0.00     0.163 HD
ATOM     26  O   UNL A   1      32.718  35.731  28.907  1.00  0.00    -0.269 OA
BRANCH  24  27
ATOM     27  C   UNL A   1      34.387  34.106  29.187  1.00  0.00     0.039 A 
ATOM     28  C   UNL A   1      34.302  33.399  30.388  1.00  0.00     0.014 A 
ATOM     29  C   UNL A   1      35.625  34.302  28.572  1.00  0.00     0.014 A 
ATOM     30  C   UNL A   1      35.451  32.818  30.924  1.00  0.00     0.010 A 
ATOM     31  C   UNL A   1      36.740  33.625  29.039  1.00  0.00     0.010 A 
ATOM     32  C   UNL A   1      36.668  32.885  30.226  1.00  0.00    -0.014 A 
BRANCH  32  33
ATOM     33  C   UNL A   1      37.885  32.197  30.717  1.00  0.00     0.031 A 
ATOM     34  C   UNL A   1      38.691  32.806  31.832  1.00  0.00     0.074 A 
ATOM     35  C   UNL A   1      38.306  31.073  30.106  1.00  0.00     0.049 A 
ATOM     36  N   UNL A   1      39.828  32.403  32.342  1.00  0.00    -0.248 NA
ATOM     37  C   UNL A   1      38.171  34.046  32.432  1.00  0.00     0.031 C 
ATOM     38  C   UNL A   1      37.636  30.414  28.982  1.00  0.00     0.029 A 
ATOM     39  N   UNL A   1      39.407  30.289  30.340  1.00  0.00    -0.354 N 
ATOM     40  C   UNL A   1      40.164  33.350  33.301  1.00  0.00     0.074 A 
ATOM     41  C   UNL A   1      39.148  34.376  33.264  1.00  0.00     0.031 C 
ATOM     42  C   UNL A   1      38.320  29.309  28.649  1.00  0.00     0.029 A 
ATOM     43  C   UNL A   1      39.502  29.209  29.498  1.00  0.00     0.049 A 
ATOM     44  H   UNL A   1      40.066  30.484  31.045  1.00  0.00     0.167 HD
ATOM     45  C   UNL A   1      41.213  33.352  34.157  1.00  0.00     0.031 A 
ATOM     46  C   UNL A   1      40.443  28.251  29.411  1.00  0.00     0.031 A 
ATOM     47  C   UNL A   1      42.216  32.322  34.200  1.00  0.00     0.049 A 
ATOM     48  C   UNL A   1      41.610  28.288  30.358  1.00  0.00     0.074 A 
ATOM     49  C   UNL A   1      43.285  32.198  35.068  1.00  0.00     0.029 A 
ATOM     50  N   UNL A   1      42.272  31.241  33.334  1.00  0.00    -0.354 N 
ATOM     51  N   UNL A   1      41.873  29.148  31.313  1.00  0.00    -0.248 NA
ATOM     52  C   UNL A   1      42.607  27.217  30.221  1.00  0.00     0.031 C 
ATOM     53  C   UNL A   1      44.025  31.075  34.688  1.00  0.00     0.029 A 
ATOM     54  C   UNL A   1      43.377  30.461  33.628  1.00  0.00     0.049 A 
ATOM     55  H   UNL A   1      41.623  31.055  32.618  1.00  0.00     0.167 HD
ATOM     56  C   UNL A   1      43.048  28.707  31.907  1.00  0.00     0.074 A 
ATOM     57  C   UNL A   1      43.434  27.491  31.219  1.00  0.00     0.031 C 
ATOM     58  C   UNL A   1      43.745  29.256  32.931  1.00  0.00     0.031 A 
BRANCH  45  59
ATOM     59  C   UNL A   1      41.331  34.509  35.110  1.00  0.00    -0.014 A 
ATOM     60  C   UNL A   1      42.116  35.633  34.800  1.00  0.00     0.009 A 
ATOM     61  C   UNL A   1      40.617  34.494  36.318  1.00  0.00     0.009 A 
ATOM     62  C   UNL A   1      42.211  36.699  35.697  1.00  0.00     0.001 A 
ATOM     63  C   UNL A   1      40.689  35.575  37.198  1.00  0.00     0.001 A 
ATOM     64  C   UNL A   1      41.493  36.672  36.891  1.00  0.00     0.000 A 
ENDBRANCH  45  59
BRANCH  46  65
ATOM     65  C   UNL A   1      40.321  27.170  28.397  1.00  0.00    -0.014 A 
ATOM     66  C   UNL A   1      40.887  27.322  27.120  1.00  0.00     0.009 A 
ATOM     67  C   UNL A   1      39.627  25.986  28.692  1.00  0.00     0.009 A 
ATOM     68  C   UNL A   1      40.730  26.326  26.153  1.00  0.00     0.001 A 
ATOM     69  C   UNL A   1      39.502  24.978  27.734  1.00  0.00     0.001 A 
ATOM     70  C   UNL A   1      40.043  25.154  26.462  1.00  0.00     0.000 A 
ENDBRANCH  46  65
BRANCH  58  71
ATOM     71  C   UNL A   1      44.977  28.530  33.394  1.00  0.00    -0.014 A 
ATOM     72  C   UNL A   1      44.908  27.519  34.365  1.00  0.00     0.009 A 
ATOM     73  C   UNL A   1      46.219  28.832  32.813  1.00  0.00     0.009 A 
ATOM     74  C   UNL A   1      46.065  26.849  34.767  1.00  0.00     0.001 A 
ATOM     75  C   UNL A   1      47.367  28.138  33.193  1.00  0.00     0.001 A 
ATOM     76  C   UNL A   1      47.291  27.154  34.177  1.00  0.00     0.000 A 
ENDBRANCH  58  71
ENDBRANCH  32  33
ENDBRANCH  24  27
ENDBRANCH  22  23
ENDBRANCH  21  22
ENDBRANCH   1  21
TORSDOF 13
ENDMDL
MODEL 2
REMARK VINA RESULT:     -10.9      2.921      4.578
REMARK SMILES COc1ncccc1C[N@@H+]1CCC[C@H]1C(=O)NCCCNC(=O)c1ccc(-c2c3nc(c(-c4ccccc4)c4ccc([nH]4)c(-c4ccccc4)c4nc(c(-c5ccccc5)c5ccc2[nH]5)C=C4)C=C3)cc1
REMARK SMILES IDX 18 1 17 2 15 3 16 4 14 6 10 7 11 8 12 10 13 11 9 12 8 13
REMARK SMILES IDX 3 14 4 15 5 16 7 17 6 18 2 19 1 20 19 21 20 22 21 23 22 24
REMARK SMILES IDX 23 26 24 27 25 28 71 29 26 30 70 31 27 32 28 33 29 34 64 35
REMARK SMILES IDX 30 36 69 37 63 38 65 39 31 40 68 41 62 42 61 43 32 45 54 46
REMARK SMILES IDX 39 47 53 48 40 49 43 50 52 51 66 52 41 53 42 54 51 56 67 57
REMARK SMILES IDX 44 58 33 59 34 60 38 61 35 62 37 63 36 64 55 65 56 66 60 67
REMARK SMILES IDX 57 68 59 69 58 70 45 71 46 72 50 73 47 74 49 75 48 76
REMARK H PARENT 17 5 10 9 21 25 65 44 43 55
REMARK Flexibility Score: inf
ROOT
ATOM      1  C   UNL A   1      31.512  27.552  26.367  1.00  0.00     0.118 C 
ENDROOT
BRANCH   1   2
ATOM      2  N   UNL A   1      30.758  26.359  26.733  1.00  0.00    -0.351 N 
ATOM      3  C   UNL A   1      30.729  25.077  26.269  1.00  0.00     0.278 C 
ATOM      4  O   UNL A   1      29.871  24.342  26.779  1.00  0.00    -0.268 OA
ATOM      5  H   UNL A   1      30.133  26.512  27.478  1.00  0.00     0.163 HD
BRANCH   3   6
ATOM      6  C   UNL A   1      31.707  24.481  25.227  1.00  0.00     0.274 C 
ATOM      7  N   UNL A   1      32.962  24.039  25.835  1.00  0.00    -0.321 N 
ATOM      8  C   UNL A   1      32.824  22.600  26.052  1.00  0.00     0.263 C 
ATOM      9  H   UNL A   1      33.108  24.483  26.741  1.00  0.00     0.349 HD
ATOM     10  C   UNL A   1      32.057  22.093  24.860  1.00  0.00     0.068 C 
ATOM     11  C   UNL A   1      31.078  23.226  24.596  1.00  0.00     0.081 C 
BRANCH   7  12
ATOM     12  C   UNL A   1      34.201  24.562  25.247  1.00  0.00     0.305 C 
BRANCH  12  13
ATOM     13  C   UNL A   1      34.041  25.523  24.101  1.00  0.00     0.068 A 
ATOM     14  C   UNL A   1      33.848  25.057  22.798  1.00  0.00     0.221 A 
ATOM     15  N   UNL A   1      33.507  25.840  21.754  1.00  0.00    -0.222 NA
ATOM     16  C   UNL A   1      33.384  27.160  22.015  1.00  0.00     0.115 A 
ATOM     17  C   UNL A   1      33.965  26.902  24.314  1.00  0.00     0.017 A 
ATOM     18  C   UNL A   1      33.631  27.737  23.252  1.00  0.00     0.021 A 
BRANCH  14  19
ATOM     19  O   UNL A   1      34.091  23.720  22.560  1.00  0.00    -0.481 OA
ATOM     20  C   UNL A   1      33.225  23.163  21.579  1.00  0.00     0.280 C 
ENDBRANCH  14  19
ENDBRANCH  12  13
ENDBRANCH   7  12
ENDBRANCH   3   6
ENDBRANCH   1   2
BRANCH   1  21
ATOM     21  C   UNL A   1      31.989  28.322  27.584  1.00  0.00     0.042 C 
BRANCH  21  22
ATOM     22  C   UNL A   1      33.418  28.806  27.420  1.00  0.00     0.118 C 
BRANCH  22  23
ATOM     23  N   UNL A   1      33.555  30.230  27.721  1.00  0.00    -0.352 N 
ATOM     24  C   UNL A   1      34.590  30.920  28.296  1.00  0.00     0.251 C 
ATOM     25  H   UNL A   1      32.779  30.782  27.470  1.00  0.00     0.163 HD
ATOM     26  O   UNL A   1      34.420  32.076  28.681  1.00  0.00    -0.269 OA
BRANCH  24  27
ATOM     27  C   UNL A   1      35.901  30.267  28.467  1.00  0.00     0.039 A 
ATOM     28  C   UNL A   1      36.813  30.275  27.411  1.00  0.00     0.014 A 
ATOM     29  C   UNL A   1      36.231  29.657  29.678  1.00  0.00     0.014 A 
ATOM     30  C   UNL A   1      38.088  29.743  27.603  1.00  0.00     0.010 A 
ATOM     31  C   UNL A   1      37.532  29.239  29.906  1.00  0.00     0.010 A 
ATOM     32  C   UNL A   1      38.472  29.267  28.867  1.00  0.00    -0.014 A 
BRANCH  32  33
ATOM     33  C   UNL A   1      39.848  28.785  29.133  1.00  0.00     0.031 A 
ATOM     34  C   UNL A   1      40.859  29.711  29.753  1.00  0.00     0.074 A 
ATOM     35  C   UNL A   1      40.206  27.547  28.742  1.00  0.00     0.049 A 
ATOM     36  N   UNL A   1      42.131  29.507  29.985  1.00  0.00    -0.248 NA
ATOM     37  C   UNL A   1      40.389  31.055  30.132  1.00  0.00     0.031 C 
ATOM     38  C   UNL A   1      39.329  26.574  28.087  1.00  0.00     0.029 A 
ATOM     39  N   UNL A   1      41.411  26.897  28.833  1.00  0.00    -0.354 N 
ATOM     40  C   UNL A   1      42.611  30.697  30.514  1.00  0.00     0.074 A 
ATOM     41  C   UNL A   1      41.516  31.638  30.514  1.00  0.00     0.031 C 
ATOM     42  C   UNL A   1      40.013  25.442  27.867  1.00  0.00     0.029 A 
ATOM     43  C   UNL A   1      41.389  25.625  28.317  1.00  0.00     0.049 A 
ATOM     44  H   UNL A   1      42.214  27.305  29.230  1.00  0.00     0.167 HD
ATOM     45  C   UNL A   1      43.851  30.975  30.982  1.00  0.00     0.031 A 
ATOM     46  C   UNL A   1      42.371  24.711  28.207  1.00  0.00     0.031 A 
ATOM     47  C   UNL A   1      44.936  30.032  30.992  1.00  0.00     0.049 A 
ATOM     48  C   UNL A   1      43.744  25.053  28.715  1.00  0.00     0.074 A 
ATOM     49  C   UNL A   1      46.212  30.194  31.500  1.00  0.00     0.029 A 
ATOM     50  N   UNL A   1      44.871  28.751  30.466  1.00  0.00    -0.354 N 
ATOM     51  N   UNL A   1      44.164  26.157  29.284  1.00  0.00    -0.248 NA
ATOM     52  C   UNL A   1      44.778  24.018  28.572  1.00  0.00     0.031 C 
ATOM     53  C   UNL A   1      46.939  29.033  31.225  1.00  0.00     0.029 A 
ATOM     54  C   UNL A   1      46.095  28.122  30.609  1.00  0.00     0.049 A 
ATOM     55  H   UNL A   1      44.073  28.349  30.054  1.00  0.00     0.167 HD
ATOM     56  C   UNL A   1      45.500  25.940  29.593  1.00  0.00     0.074 A 
ATOM     57  C   UNL A   1      45.815  24.592  29.166  1.00  0.00     0.031 C 
ATOM     58  C   UNL A   1      46.388  26.780  30.178  1.00  0.00     0.031 A 
BRANCH  45  59
ATOM     59  C   UNL A   1      44.098  32.360  31.516  1.00  0.00    -0.014 A 
ATOM     60  C   UNL A   1      44.544  33.395  30.679  1.00  0.00     0.009 A 
ATOM     61  C   UNL A   1      43.843  32.643  32.867  1.00  0.00     0.009 A 
ATOM     62  C   UNL A   1      44.766  34.675  31.192  1.00  0.00     0.001 A 
ATOM     63  C   UNL A   1      44.035  33.931  33.370  1.00  0.00     0.001 A 
ATOM     64  C   UNL A   1      44.505  34.943  32.535  1.00  0.00     0.000 A 
ENDBRANCH  45  59
BRANCH  46  65
ATOM     65  C   UNL A   1      42.094  23.383  27.599  1.00  0.00    -0.014 A 
ATOM     66  C   UNL A   1      41.546  22.344  28.369  1.00  0.00     0.009 A 
ATOM     67  C   UNL A   1      42.389  23.140  26.248  1.00  0.00     0.009 A 
ATOM     68  C   UNL A   1      41.331  21.083  27.807  1.00  0.00     0.001 A 
ATOM     69  C   UNL A   1      42.141  21.888  25.680  1.00  0.00     0.001 A 
ATOM     70  C   UNL A   1      41.624  20.857  26.464  1.00  0.00     0.000 A 
ENDBRANCH  46  65
BRANCH  58  71
ATOM     71  C   UNL A   1      47.775  26.254  30.423  1.00  0.00    -0.014 A 
ATOM     72  C   UNL A   1      48.745  26.251  29.410  1.00  0.00     0.009 A 
ATOM     73  C   UNL A   1      48.126  25.797  31.703  1.00  0.00     0.009 A 
ATOM     74  C   UNL A   1      50.030  25.770  29.666  1.00  0.00     0.001 A 
ATOM     75  C   UNL A   1      49.420  25.349  31.965  1.00  0.00     0.001 A 
ATOM     76  C   UNL A   1      50.369  25.326  30.944  1.00  0.00     0.000 A 
ENDBRANCH  58  71
ENDBRANCH  32  33
ENDBRANCH  24  27
ENDBRANCH  22  23
ENDBRANCH  21  22
ENDBRANCH   1  21
TORSDOF 13
ENDMDL
MODEL 3
REMARK VINA RESULT:     -10.8      4.075      9.421
REMARK SMILES COc1ncccc1C[N@@H+]1CCC[C@H]1C(=O)NCCCNC(=O)c1ccc(-c2c3nc(c(-c4ccccc4)c4ccc([nH]4)c(-c4ccccc4)c4nc(c(-c5ccccc5)c5ccc2[nH]5)C=C4)C=C3)cc1
REMARK SMILES IDX 18 1 17 2 15 3 16 4 14 6 10 7 11 8 12 10 13 11 9 12 8 13
REMARK SMILES IDX 3 14 4 15 5 16 7 17 6 18 2 19 1 20 19 21 20 22 21 23 22 24
REMARK SMILES IDX 23 26 24 27 25 28 71 29 26 30 70 31 27 32 28 33 29 34 64 35
REMARK SMILES IDX 30 36 69 37 63 38 65 39 31 40 68 41 62 42 61 43 32 45 54 46
REMARK SMILES IDX 39 47 53 48 40 49 43 50 52 51 66 52 41 53 42 54 51 56 67 57
REMARK SMILES IDX 44 58 33 59 34 60 38 61 35 62 37 63 36 64 55 65 56 66 60 67
REMARK SMILES IDX 57 68 59 69 58 70 45 71 46 72 50 73 47 74 49 75 48 76
REMARK H PARENT 17 5 10 9 21 25 65 44 43 55
REMARK Flexibility Score: inf
ROOT
ATOM      1  C   UNL A   1      36.708  20.634  25.006  1.00  0.00     0.118 C 
ENDROOT
BRANCH   1   2
ATOM      2  N   UNL A   1      35.391  20.009  24.991  1.00  0.00    -0.351 N 
ATOM      3  C   UNL A   1      34.115  20.487  25.019  1.00  0.00     0.278 C 
ATOM      4  O   UNL A   1      33.222  19.630  25.088  1.00  0.00    -0.268 OA
ATOM      5  H   UNL A   1      35.431  19.026  24.952  1.00  0.00     0.163 HD
BRANCH   3   6
ATOM      6  C   UNL A   1      33.717  21.980  24.909  1.00  0.00     0.274 C 
ATOM      7  N   UNL A   1      34.041  22.545  23.600  1.00  0.00    -0.321 N 
ATOM      8  C   UNL A   1      32.808  22.491  22.816  1.00  0.00     0.263 C 
ATOM      9  H   UNL A   1      34.745  21.983  23.122  1.00  0.00     0.349 HD
ATOM     10  C   UNL A   1      31.706  22.802  23.794  1.00  0.00     0.068 C 
ATOM     11  C   UNL A   1      32.190  22.113  25.060  1.00  0.00     0.081 C 
BRANCH   7  12
ATOM     12  C   UNL A   1      34.846  23.772  23.591  1.00  0.00     0.305 C 
BRANCH  12  13
ATOM     13  C   UNL A   1      34.153  25.026  24.051  1.00  0.00     0.068 A 
ATOM     14  C   UNL A   1      33.566  25.897  23.130  1.00  0.00     0.221 A 
ATOM     15  N   UNL A   1      32.766  26.931  23.465  1.00  0.00    -0.222 NA
ATOM     16  C   UNL A   1      32.570  27.127  24.787  1.00  0.00     0.115 A 
ATOM     17  C   UNL A   1      33.974  25.302  25.409  1.00  0.00     0.017 A 
ATOM     18  C   UNL A   1      33.169  26.372  25.785  1.00  0.00     0.021 A 
BRANCH  14  19
ATOM     19  O   UNL A   1      33.883  25.723  21.799  1.00  0.00    -0.481 OA
ATOM     20  C   UNL A   1      32.747  25.765  20.945  1.00  0.00     0.280 C 
ENDBRANCH  14  19
ENDBRANCH  12  13
ENDBRANCH   7  12
ENDBRANCH   3   6
ENDBRANCH   1   2
BRANCH   1  21
ATOM     21  C   UNL A   1      37.826  19.611  25.078  1.00  0.00     0.042 C 
BRANCH  21  22
ATOM     22  C   UNL A   1      39.133  20.237  25.530  1.00  0.00     0.118 C 
BRANCH  22  23
ATOM     23  N   UNL A   1      40.159  19.232  25.802  1.00  0.00    -0.352 N 
ATOM     24  C   UNL A   1      41.475  19.380  26.153  1.00  0.00     0.251 C 
ATOM     25  H   UNL A   1      39.856  18.298  25.718  1.00  0.00     0.163 HD
ATOM     26  O   UNL A   1      42.237  18.416  26.106  1.00  0.00    -0.269 OA
BRANCH  24  27
ATOM     27  C   UNL A   1      41.978  20.701  26.572  1.00  0.00     0.039 A 
ATOM     28  C   UNL A   1      42.487  21.576  25.610  1.00  0.00     0.014 A 
ATOM     29  C   UNL A   1      41.935  21.078  27.915  1.00  0.00     0.014 A 
ATOM     30  C   UNL A   1      42.874  22.861  25.991  1.00  0.00     0.010 A 
ATOM     31  C   UNL A   1      42.205  22.390  28.271  1.00  0.00     0.010 A 
ATOM     32  C   UNL A   1      42.688  23.292  27.315  1.00  0.00    -0.014 A 
BRANCH  32  33
ATOM     33  C   UNL A   1      42.996  24.681  27.732  1.00  0.00     0.031 A 
ATOM     34  C   UNL A   1      44.426  25.102  27.935  1.00  0.00     0.074 A 
ATOM     35  C   UNL A   1      41.990  25.533  28.004  1.00  0.00     0.049 A 
ATOM     36  N   UNL A   1      44.895  26.240  28.378  1.00  0.00    -0.248 NA
ATOM     37  C   UNL A   1      45.465  24.102  27.634  1.00  0.00     0.031 C 
ATOM     38  C   UNL A   1      40.561  25.226  27.892  1.00  0.00     0.029 A 
ATOM     39  N   UNL A   1      42.014  26.832  28.442  1.00  0.00    -0.354 N 
ATOM     40  C   UNL A   1      46.275  26.084  28.427  1.00  0.00     0.074 A 
ATOM     41  C   UNL A   1      46.566  24.727  28.028  1.00  0.00     0.031 C 
ATOM     42  C   UNL A   1      39.850  26.316  28.216  1.00  0.00     0.029 A 
ATOM     43  C   UNL A   1      40.767  27.380  28.609  1.00  0.00     0.049 A 
ATOM     44  H   UNL A   1      42.848  27.325  28.619  1.00  0.00     0.167 HD
ATOM     45  C   UNL A   1      47.219  26.999  28.751  1.00  0.00     0.031 A 
ATOM     46  C   UNL A   1      40.401  28.601  29.044  1.00  0.00     0.031 A 
ATOM     47  C   UNL A   1      46.926  28.353  29.135  1.00  0.00     0.049 A 
ATOM     48  C   UNL A   1      41.468  29.590  29.418  1.00  0.00     0.074 A 
ATOM     49  C   UNL A   1      47.811  29.375  29.424  1.00  0.00     0.029 A 
ATOM     50  N   UNL A   1      45.649  28.870  29.287  1.00  0.00    -0.354 N 
ATOM     51  N   UNL A   1      42.772  29.453  29.385  1.00  0.00    -0.248 NA
ATOM     52  C   UNL A   1      41.013  30.908  29.884  1.00  0.00     0.031 C 
ATOM     53  C   UNL A   1      47.070  30.495  29.811  1.00  0.00     0.029 A 
ATOM     54  C   UNL A   1      45.723  30.191  29.696  1.00  0.00     0.049 A 
ATOM     55  H   UNL A   1      44.815  28.374  29.126  1.00  0.00     0.167 HD
ATOM     56  C   UNL A   1      43.293  30.672  29.796  1.00  0.00     0.074 A 
ATOM     57  C   UNL A   1      42.164  31.544  30.054  1.00  0.00     0.031 C 
ATOM     58  C   UNL A   1      44.588  31.040  29.947  1.00  0.00     0.031 A 
BRANCH  45  59
ATOM     59  C   UNL A   1      48.656  26.559  28.710  1.00  0.00    -0.014 A 
ATOM     60  C   UNL A   1      49.402  26.612  27.520  1.00  0.00     0.009 A 
ATOM     61  C   UNL A   1      49.286  26.121  29.885  1.00  0.00     0.009 A 
ATOM     62  C   UNL A   1      50.737  26.201  27.502  1.00  0.00     0.001 A 
ATOM     63  C   UNL A   1      50.630  25.742  29.871  1.00  0.00     0.001 A 
ATOM     64  C   UNL A   1      51.351  25.773  28.678  1.00  0.00     0.000 A 
ENDBRANCH  45  59
BRANCH  46  65
ATOM     65  C   UNL A   1      38.962  28.961  29.142  1.00  0.00    -0.014 A 
ATOM     66  C   UNL A   1      38.290  29.528  28.047  1.00  0.00     0.009 A 
ATOM     67  C   UNL A   1      38.252  28.753  30.336  1.00  0.00     0.009 A 
ATOM     68  C   UNL A   1      36.951  29.909  28.157  1.00  0.00     0.001 A 
ATOM     69  C   UNL A   1      36.904  29.104  30.432  1.00  0.00     0.001 A 
ATOM     70  C   UNL A   1      36.258  29.693  29.346  1.00  0.00     0.000 A 
ENDBRANCH  46  65
BRANCH  58  71
ATOM     71  C   UNL A   1      44.857  32.455  30.378  1.00  0.00    -0.014 A 
ATOM     72  C   UNL A   1      44.970  33.495  29.442  1.00  0.00     0.009 A 
ATOM     73  C   UNL A   1      44.951  32.757  31.746  1.00  0.00     0.009 A 
ATOM     74  C   UNL A   1      45.206  34.803  29.868  1.00  0.00     0.001 A 
ATOM     75  C   UNL A   1      45.152  34.070  32.169  1.00  0.00     0.001 A 
ATOM     76  C   UNL A   1      45.290  35.091  31.230  1.00  0.00     0.000 A 
ENDBRANCH  58  71
ENDBRANCH  32  33
ENDBRANCH  24  27
ENDBRANCH  22  23
ENDBRANCH  21  22
ENDBRANCH   1  21
TORSDOF 13
ENDMDL
