MODEL 1
REMARK VINA RESULT:     -10.5      0.000      0.000
REMARK SMILES C[C@H](NC(=O)NCCc1ccccc1F)C(=O)NCCCNC(=O)c1ccc(-c2c3nc(c(-c4ccccc4)c4ccc([nH]4)c(-c4ccccc4)c4nc(c(-c5ccccc5)c5ccc2[nH]5)C=C4)C=C3)cc1
REMARK SMILES IDX 19 1 18 2 16 3 17 4 2 6 1 7 3 8 4 9 5 11 6 12 7 14 8 15 9 16
REMARK SMILES IDX 10 17 14 18 11 19 13 20 15 21 12 22 20 23 21 24 22 25 23 26
REMARK SMILES IDX 24 28 25 29 26 30 72 31 27 32 71 33 28 34 29 35 30 36 65 37
REMARK SMILES IDX 31 38 70 39 64 40 66 41 32 42 69 43 63 44 62 45 33 47 55 48
REMARK SMILES IDX 40 49 54 50 41 51 44 52 53 53 67 54 42 55 43 56 52 58 68 59
REMARK SMILES IDX 45 60 34 61 35 62 39 63 36 64 38 65 37 66 56 67 57 68 61 69
REMARK SMILES IDX 58 70 60 71 59 72 46 73 47 74 51 75 48 76 50 77 49 78
REMARK H PARENT 18 5 3 10 6 13 22 27 66 46 44 57
REMARK Flexibility Score: inf
ROOT
ATOM      1  C   UNL A   1      31.718  27.289  26.259  1.00  0.00     0.117 C 
ENDROOT
BRANCH   1   2
ATOM      2  N   UNL A   1      31.211  28.002  25.098  1.00  0.00    -0.354 N 
ATOM      3  C   UNL A   1      31.768  28.157  23.866  1.00  0.00     0.242 C 
ATOM      4  O   UNL A   1      31.089  28.689  22.985  1.00  0.00    -0.273 OA
ATOM      5  H   UNL A   1      30.337  28.438  25.221  1.00  0.00     0.163 HD
BRANCH   3   6
ATOM      6  C   UNL A   1      33.166  27.608  23.581  1.00  0.00     0.170 C 
ATOM      7  C   UNL A   1      34.111  28.760  23.213  1.00  0.00     0.041 C 
BRANCH   6   8
ATOM      8  N   UNL A   1      33.106  26.560  22.564  1.00  0.00    -0.327 N 
ATOM      9  C   UNL A   1      33.504  25.284  22.544  1.00  0.00     0.315 C 
ATOM     10  H   UNL A   1      32.688  26.855  21.722  1.00  0.00     0.166 HD
ATOM     11  O   UNL A   1      33.317  24.636  21.513  1.00  0.00    -0.249 OA
ATOM     12  N   UNL A   1      34.097  24.678  23.580  1.00  0.00    -0.338 N 
ATOM     13  H   UNL A   1      34.324  23.737  23.396  1.00  0.00     0.165 HD
BRANCH  12  14
ATOM     14  C   UNL A   1      34.480  25.101  24.918  1.00  0.00     0.122 C 
BRANCH  14  15
ATOM     15  C   UNL A   1      34.587  23.938  25.899  1.00  0.00     0.060 C 
BRANCH  15  16
ATOM     16  C   UNL A   1      35.879  23.202  25.705  1.00  0.00    -0.010 A 
ATOM     17  C   UNL A   1      37.098  23.767  26.087  1.00  0.00     0.007 A 
ATOM     18  C   UNL A   1      35.861  21.899  25.194  1.00  0.00     0.126 A 
ATOM     19  C   UNL A   1      38.272  23.023  25.972  1.00  0.00     0.000 A 
ATOM     20  C   UNL A   1      37.024  21.151  25.086  1.00  0.00     0.039 A 
ATOM     21  F   UNL A   1      34.694  21.343  24.834  1.00  0.00    -0.207 F 
ATOM     22  C   UNL A   1      38.234  21.715  25.481  1.00  0.00     0.003 A 
ENDBRANCH  15  16
ENDBRANCH  14  15
ENDBRANCH  12  14
ENDBRANCH   6   8
ENDBRANCH   3   6
ENDBRANCH   1   2
BRANCH   1  23
ATOM     23  C   UNL A   1      32.042  28.235  27.395  1.00  0.00     0.042 C 
BRANCH  23  24
ATOM     24  C   UNL A   1      33.436  28.828  27.290  1.00  0.00     0.118 C 
BRANCH  24  25
ATOM     25  N   UNL A   1      33.496  30.220  27.720  1.00  0.00    -0.352 N 
ATOM     26  C   UNL A   1      34.525  30.886  28.346  1.00  0.00     0.251 C 
ATOM     27  H   UNL A   1      32.691  30.756  27.537  1.00  0.00     0.163 HD
ATOM     28  O   UNL A   1      34.359  32.005  28.808  1.00  0.00    -0.269 OA
BRANCH  26  29
ATOM     29  C   UNL A   1      35.825  30.203  28.471  1.00  0.00     0.039 A 
ATOM     30  C   UNL A   1      36.731  30.267  27.413  1.00  0.00     0.014 A 
ATOM     31  C   UNL A   1      36.168  29.577  29.672  1.00  0.00     0.014 A 
ATOM     32  C   UNL A   1      38.021  29.766  27.594  1.00  0.00     0.010 A 
ATOM     33  C   UNL A   1      37.482  29.192  29.888  1.00  0.00     0.010 A 
ATOM     34  C   UNL A   1      38.417  29.270  28.848  1.00  0.00    -0.014 A 
BRANCH  34  35
ATOM     35  C   UNL A   1      39.806  28.815  29.091  1.00  0.00     0.031 A 
ATOM     36  C   UNL A   1      40.793  29.741  29.748  1.00  0.00     0.074 A 
ATOM     37  C   UNL A   1      40.194  27.598  28.662  1.00  0.00     0.049 A 
ATOM     38  N   UNL A   1      42.059  29.542  30.013  1.00  0.00    -0.248 NA
ATOM     39  C   UNL A   1      40.306  31.079  30.125  1.00  0.00     0.031 C 
ATOM     40  C   UNL A   1      39.346  26.635  27.952  1.00  0.00     0.029 A 
ATOM     41  N   UNL A   1      41.404  26.961  28.763  1.00  0.00    -0.354 N 
ATOM     42  C   UNL A   1      42.518  30.732  30.564  1.00  0.00     0.074 A 
ATOM     43  C   UNL A   1      41.418  31.668  30.534  1.00  0.00     0.031 C 
ATOM     44  C   UNL A   1      40.051  25.515  27.724  1.00  0.00     0.029 A 
ATOM     45  C   UNL A   1      41.405  25.694  28.233  1.00  0.00     0.049 A 
ATOM     46  H   UNL A   1      42.197  27.373  29.176  1.00  0.00     0.167 HD
ATOM     47  C   UNL A   1      43.737  31.013  31.078  1.00  0.00     0.031 A 
ATOM     48  C   UNL A   1      42.388  24.777  28.172  1.00  0.00     0.031 A 
ATOM     49  C   UNL A   1      44.823  30.074  31.127  1.00  0.00     0.049 A 
ATOM     50  C   UNL A   1      43.730  25.108  28.762  1.00  0.00     0.074 A 
ATOM     51  C   UNL A   1      46.078  30.234  31.684  1.00  0.00     0.029 A 
ATOM     52  N   UNL A   1      44.777  28.793  30.597  1.00  0.00    -0.354 N 
ATOM     53  N   UNL A   1      44.124  26.210  29.352  1.00  0.00    -0.248 NA
ATOM     54  C   UNL A   1      44.757  24.060  28.691  1.00  0.00     0.031 C 
ATOM     55  C   UNL A   1      46.811  29.066  31.449  1.00  0.00     0.029 A 
ATOM     56  C   UNL A   1      45.992  28.159  30.796  1.00  0.00     0.049 A 
ATOM     57  H   UNL A   1      43.998  28.394  30.146  1.00  0.00     0.167 HD
ATOM     58  C   UNL A   1      45.435  25.979  29.748  1.00  0.00     0.074 A 
ATOM     59  C   UNL A   1      45.760  24.626  29.347  1.00  0.00     0.031 C 
ATOM     60  C   UNL A   1      46.293  26.812  30.385  1.00  0.00     0.031 A 
BRANCH  47  61
ATOM     61  C   UNL A   1      43.951  32.396  31.629  1.00  0.00    -0.014 A 
ATOM     62  C   UNL A   1      44.502  33.418  30.838  1.00  0.00     0.009 A 
ATOM     63  C   UNL A   1      43.578  32.686  32.950  1.00  0.00     0.009 A 
ATOM     64  C   UNL A   1      44.713  34.691  31.372  1.00  0.00     0.001 A 
ATOM     65  C   UNL A   1      43.761  33.969  33.471  1.00  0.00     0.001 A 
ATOM     66  C   UNL A   1      44.337  34.967  32.686  1.00  0.00     0.000 A 
ENDBRANCH  47  61
BRANCH  48  67
ATOM     67  C   UNL A   1      42.132  23.448  27.557  1.00  0.00    -0.014 A 
ATOM     68  C   UNL A   1      41.478  22.442  28.286  1.00  0.00     0.009 A 
ATOM     69  C   UNL A   1      42.543  23.175  26.243  1.00  0.00     0.009 A 
ATOM     70  C   UNL A   1      41.268  21.182  27.722  1.00  0.00     0.001 A 
ATOM     71  C   UNL A   1      42.304  21.924  25.671  1.00  0.00     0.001 A 
ATOM     72  C   UNL A   1      41.676  20.925  26.414  1.00  0.00     0.000 A 
ENDBRANCH  48  67
BRANCH  60  73
ATOM     73  C   UNL A   1      47.653  26.266  30.716  1.00  0.00    -0.014 A 
ATOM     74  C   UNL A   1      47.951  25.771  31.995  1.00  0.00     0.009 A 
ATOM     75  C   UNL A   1      48.642  26.221  29.721  1.00  0.00     0.009 A 
ATOM     76  C   UNL A   1      49.224  25.278  32.282  1.00  0.00     0.001 A 
ATOM     77  C   UNL A   1      49.905  25.698  30.001  1.00  0.00     0.001 A 
ATOM     78  C   UNL A   1      50.198  25.238  31.284  1.00  0.00     0.000 A 
ENDBRANCH  60  73
ENDBRANCH  34  35
ENDBRANCH  26  29
ENDBRANCH  24  25
ENDBRANCH  23  24
ENDBRANCH   1  23
TORSDOF 14
ENDMDL
MODEL 2
REMARK VINA RESULT:     -10.4      3.298      5.708
REMARK SMILES C[C@H](NC(=O)NCCc1ccccc1F)C(=O)NCCCNC(=O)c1ccc(-c2c3nc(c(-c4ccccc4)c4ccc([nH]4)c(-c4ccccc4)c4nc(c(-c5ccccc5)c5ccc2[nH]5)C=C4)C=C3)cc1
REMARK SMILES IDX 19 1 18 2 16 3 17 4 2 6 1 7 3 8 4 9 5 11 6 12 7 14 8 15 9 16
REMARK SMILES IDX 10 17 14 18 11 19 13 20 15 21 12 22 20 23 21 24 22 25 23 26
REMARK SMILES IDX 24 28 25 29 26 30 72 31 27 32 71 33 28 34 29 35 30 36 65 37
REMARK SMILES IDX 31 38 70 39 64 40 66 41 32 42 69 43 63 44 62 45 33 47 55 48
REMARK SMILES IDX 40 49 54 50 41 51 44 52 53 53 67 54 42 55 43 56 52 58 68 59
REMARK SMILES IDX 45 60 34 61 35 62 39 63 36 64 38 65 37 66 56 67 57 68 61 69
REMARK SMILES IDX 58 70 60 71 59 72 46 73 47 74 51 75 48 76 50 77 49 78
REMARK H PARENT 18 5 3 10 6 13 22 27 66 46 44 57
REMARK Flexibility Score: inf
ROOT
ATOM      1  C   UNL A   1      31.978  30.153  26.233  1.00  0.00     0.117 C 
ENDROOT
BRANCH   1   2
ATOM      2  N   UNL A   1      32.898  30.052  25.112  1.00  0.00    -0.354 N 
ATOM      3  C   UNL A   1      33.209  28.975  24.341  1.00  0.00     0.242 C 
ATOM      4  O   UNL A   1      33.918  29.157  23.349  1.00  0.00    -0.273 OA
ATOM      5  H   UNL A   1      33.366  30.886  24.877  1.00  0.00     0.163 HD
BRANCH   3   6
ATOM      6  C   UNL A   1      32.621  27.601  24.667  1.00  0.00     0.170 C 
ATOM      7  C   UNL A   1      33.400  26.965  25.827  1.00  0.00     0.041 C 
BRANCH   6   8
ATOM      8  N   UNL A   1      32.580  26.766  23.469  1.00  0.00    -0.327 N 
ATOM      9  C   UNL A   1      31.674  26.605  22.499  1.00  0.00     0.315 C 
ATOM     10  H   UNL A   1      33.384  26.207  23.353  1.00  0.00     0.166 HD
ATOM     11  O   UNL A   1      31.927  25.803  21.599  1.00  0.00    -0.249 OA
ATOM     12  N   UNL A   1      30.509  27.263  22.459  1.00  0.00    -0.338 N 
ATOM     13  H   UNL A   1      29.962  27.027  21.675  1.00  0.00     0.165 HD
BRANCH  12  14
ATOM     14  C   UNL A   1      29.875  28.253  23.315  1.00  0.00     0.122 C 
BRANCH  14  15
ATOM     15  C   UNL A   1      28.558  28.771  22.746  1.00  0.00     0.060 C 
BRANCH  15  16
ATOM     16  C   UNL A   1      28.562  30.270  22.686  1.00  0.00    -0.010 A 
ATOM     17  C   UNL A   1      29.019  31.036  23.760  1.00  0.00     0.007 A 
ATOM     18  C   UNL A   1      28.164  30.914  21.508  1.00  0.00     0.126 A 
ATOM     19  C   UNL A   1      29.091  32.423  23.640  1.00  0.00     0.000 A 
ATOM     20  C   UNL A   1      28.241  32.293  21.381  1.00  0.00     0.039 A 
ATOM     21  F   UNL A   1      27.733  30.186  20.466  1.00  0.00    -0.207 F 
ATOM     22  C   UNL A   1      28.710  33.050  22.450  1.00  0.00     0.003 A 
ENDBRANCH  15  16
ENDBRANCH  14  15
ENDBRANCH  12  14
ENDBRANCH   6   8
ENDBRANCH   3   6
ENDBRANCH   1   2
BRANCH   1  23
ATOM     23  C   UNL A   1      31.663  31.595  26.566  1.00  0.00     0.042 C 
BRANCH  23  24
ATOM     24  C   UNL A   1      32.788  32.288  27.313  1.00  0.00     0.118 C 
BRANCH  24  25
ATOM     25  N   UNL A   1      32.486  33.677  27.638  1.00  0.00    -0.352 N 
ATOM     26  C   UNL A   1      33.120  34.513  28.528  1.00  0.00     0.251 C 
ATOM     27  H   UNL A   1      31.723  34.070  27.154  1.00  0.00     0.163 HD
ATOM     28  O   UNL A   1      32.638  35.596  28.825  1.00  0.00    -0.269 OA
BRANCH  26  29
ATOM     29  C   UNL A   1      34.383  34.057  29.136  1.00  0.00     0.039 A 
ATOM     30  C   UNL A   1      34.341  33.304  30.308  1.00  0.00     0.014 A 
ATOM     31  C   UNL A   1      35.595  34.309  28.488  1.00  0.00     0.014 A 
ATOM     32  C   UNL A   1      35.519  32.732  30.788  1.00  0.00     0.010 A 
ATOM     33  C   UNL A   1      36.738  33.642  28.900  1.00  0.00     0.010 A 
ATOM     34  C   UNL A   1      36.715  32.858  30.061  1.00  0.00    -0.014 A 
BRANCH  34  35
ATOM     35  C   UNL A   1      37.959  32.187  30.503  1.00  0.00     0.031 A 
ATOM     36  C   UNL A   1      38.805  32.810  31.578  1.00  0.00     0.074 A 
ATOM     37  C   UNL A   1      38.360  31.055  29.890  1.00  0.00     0.049 A 
ATOM     38  N   UNL A   1      39.943  32.397  32.075  1.00  0.00    -0.248 NA
ATOM     39  C   UNL A   1      38.331  34.082  32.148  1.00  0.00     0.031 C 
ATOM     40  C   UNL A   1      37.659  30.389  28.788  1.00  0.00     0.029 A 
ATOM     41  N   UNL A   1      39.457  30.262  30.112  1.00  0.00    -0.354 N 
ATOM     42  C   UNL A   1      40.326  33.367  32.994  1.00  0.00     0.074 A 
ATOM     43  C   UNL A   1      39.338  34.420  32.938  1.00  0.00     0.031 C 
ATOM     44  C   UNL A   1      38.320  29.266  28.462  1.00  0.00     0.029 A 
ATOM     45  C   UNL A   1      39.507  29.154  29.302  1.00  0.00     0.049 A 
ATOM     46  H   UNL A   1      40.143  30.468  30.786  1.00  0.00     0.167 HD
ATOM     47  C   UNL A   1      41.388  33.369  33.831  1.00  0.00     0.031 A 
ATOM     48  C   UNL A   1      40.407  28.155  29.248  1.00  0.00     0.031 A 
ATOM     49  C   UNL A   1      42.357  32.311  33.899  1.00  0.00     0.049 A 
ATOM     50  C   UNL A   1      41.571  28.172  30.198  1.00  0.00     0.074 A 
ATOM     51  C   UNL A   1      43.435  32.182  34.757  1.00  0.00     0.029 A 
ATOM     52  N   UNL A   1      42.362  31.196  33.075  1.00  0.00    -0.354 N 
ATOM     53  N   UNL A   1      41.875  29.057  31.117  1.00  0.00    -0.248 NA
ATOM     54  C   UNL A   1      42.507  27.044  30.114  1.00  0.00     0.031 C 
ATOM     55  C   UNL A   1      44.121  31.011  34.419  1.00  0.00     0.029 A 
ATOM     56  C   UNL A   1      43.437  30.383  33.390  1.00  0.00     0.049 A 
ATOM     57  H   UNL A   1      41.699  31.010  32.371  1.00  0.00     0.167 HD
ATOM     58  C   UNL A   1      43.020  28.579  31.739  1.00  0.00     0.074 A 
ATOM     59  C   UNL A   1      43.344  27.317  31.104  1.00  0.00     0.031 C 
ATOM     60  C   UNL A   1      43.741  29.133  32.743  1.00  0.00     0.031 A 
BRANCH  47  61
ATOM     61  C   UNL A   1      41.547  34.557  34.739  1.00  0.00    -0.014 A 
ATOM     62  C   UNL A   1      42.317  35.668  34.357  1.00  0.00     0.009 A 
ATOM     63  C   UNL A   1      40.903  34.574  35.986  1.00  0.00     0.009 A 
ATOM     64  C   UNL A   1      42.472  36.754  35.221  1.00  0.00     0.001 A 
ATOM     65  C   UNL A   1      41.033  35.675  36.834  1.00  0.00     0.001 A 
ATOM     66  C   UNL A   1      41.825  36.759  36.456  1.00  0.00     0.000 A 
ENDBRANCH  47  61
BRANCH  48  67
ATOM     67  C   UNL A   1      40.227  27.038  28.283  1.00  0.00    -0.014 A 
ATOM     68  C   UNL A   1      40.799  27.105  27.003  1.00  0.00     0.009 A 
ATOM     69  C   UNL A   1      39.481  25.902  28.633  1.00  0.00     0.009 A 
ATOM     70  C   UNL A   1      40.603  26.072  26.084  1.00  0.00     0.001 A 
ATOM     71  C   UNL A   1      39.312  24.857  27.723  1.00  0.00     0.001 A 
ATOM     72  C   UNL A   1      39.863  24.947  26.446  1.00  0.00     0.000 A 
ENDBRANCH  48  67
BRANCH  60  73
ATOM     73  C   UNL A   1      44.929  28.358  33.238  1.00  0.00    -0.014 A 
ATOM     74  C   UNL A   1      46.212  28.573  32.714  1.00  0.00     0.009 A 
ATOM     75  C   UNL A   1      44.762  27.418  34.268  1.00  0.00     0.009 A 
ATOM     76  C   UNL A   1      47.299  27.834  33.183  1.00  0.00     0.001 A 
ATOM     77  C   UNL A   1      45.856  26.703  34.757  1.00  0.00     0.001 A 
ATOM     78  C   UNL A   1      47.120  26.904  34.207  1.00  0.00     0.000 A 
ENDBRANCH  60  73
ENDBRANCH  34  35
ENDBRANCH  26  29
ENDBRANCH  24  25
ENDBRANCH  23  24
ENDBRANCH   1  23
TORSDOF 14
ENDMDL
MODEL 3
REMARK VINA RESULT:     -10.3      2.846      7.603
REMARK SMILES C[C@H](NC(=O)NCCc1ccccc1F)C(=O)NCCCNC(=O)c1ccc(-c2c3nc(c(-c4ccccc4)c4ccc([nH]4)c(-c4ccccc4)c4nc(c(-c5ccccc5)c5ccc2[nH]5)C=C4)C=C3)cc1
REMARK SMILES IDX 19 1 18 2 16 3 17 4 2 6 1 7 3 8 4 9 5 11 6 12 7 14 8 15 9 16
REMARK SMILES IDX 10 17 14 18 11 19 13 20 15 21 12 22 20 23 21 24 22 25 23 26
REMARK SMILES IDX 24 28 25 29 26 30 72 31 27 32 71 33 28 34 29 35 30 36 65 37
REMARK SMILES IDX 31 38 70 39 64 40 66 41 32 42 69 43 63 44 62 45 33 47 55 48
REMARK SMILES IDX 40 49 54 50 41 51 44 52 53 53 67 54 42 55 43 56 52 58 68 59
REMARK SMILES IDX 45 60 34 61 35 62 39 63 36 64 38 65 37 66 56 67 57 68 61 69
REMARK SMILES IDX 58 70 60 71 59 72 46 73 47 74 51 75 48 76 50 77 49 78
REMARK H PARENT 18 5 3 10 6 13 22 27 66 46 44 57
REMARK Flexibility Score: inf
ROOT
ATOM      1  C   UNL A   1      36.416  21.566  24.948  1.00  0.00     0.117 C 
ENDROOT
BRANCH   1   2
ATOM      2  N   UNL A   1      35.878  21.821  26.273  1.00  0.00    -0.354 N 
ATOM      3  C   UNL A   1      34.820  22.593  26.645  1.00  0.00     0.242 C 
ATOM      4  O   UNL A   1      34.455  22.550  27.821  1.00  0.00    -0.273 OA
ATOM      5  H   UNL A   1      36.348  21.371  27.012  1.00  0.00     0.163 HD
BRANCH   3   6
ATOM      6  C   UNL A   1      34.068  23.419  25.600  1.00  0.00     0.170 C 
ATOM      7  C   UNL A   1      34.745  24.786  25.435  1.00  0.00     0.041 C 
BRANCH   6   8
ATOM      8  N   UNL A   1      32.651  23.512  25.946  1.00  0.00    -0.327 N 
ATOM      9  C   UNL A   1      31.602  22.717  25.716  1.00  0.00     0.315 C 
ATOM     10  H   UNL A   1      32.424  24.327  26.451  1.00  0.00     0.166 HD
ATOM     11  O   UNL A   1      30.502  23.075  26.140  1.00  0.00    -0.249 OA
ATOM     12  N   UNL A   1      31.683  21.559  25.049  1.00  0.00    -0.338 N 
ATOM     13  H   UNL A   1      30.816  21.099  24.971  1.00  0.00     0.165 HD
BRANCH  12  14
ATOM     14  C   UNL A   1      32.770  20.830  24.414  1.00  0.00     0.122 C 
BRANCH  14  15
ATOM     15  C   UNL A   1      32.282  19.660  23.566  1.00  0.00     0.060 C 
BRANCH  15  16
ATOM     16  C   UNL A   1      32.776  18.360  24.127  1.00  0.00    -0.010 A 
ATOM     17  C   UNL A   1      32.583  18.032  25.470  1.00  0.00     0.007 A 
ATOM     18  C   UNL A   1      33.383  17.428  23.277  1.00  0.00     0.126 A 
ATOM     19  C   UNL A   1      32.979  16.780  25.941  1.00  0.00     0.000 A 
ATOM     20  C   UNL A   1      33.770  16.178  23.737  1.00  0.00     0.039 A 
ATOM     21  F   UNL A   1      33.563  17.729  21.981  1.00  0.00    -0.207 F 
ATOM     22  C   UNL A   1      33.563  15.852  25.075  1.00  0.00     0.003 A 
ENDBRANCH  15  16
ENDBRANCH  14  15
ENDBRANCH  12  14
ENDBRANCH   6   8
ENDBRANCH   3   6
ENDBRANCH   1   2
BRANCH   1  23
ATOM     23  C   UNL A   1      37.416  20.430  24.963  1.00  0.00     0.042 C 
BRANCH  23  24
ATOM     24  C   UNL A   1      38.706  20.787  25.679  1.00  0.00     0.118 C 
BRANCH  24  25
ATOM     25  N   UNL A   1      39.673  19.697  25.687  1.00  0.00    -0.352 N 
ATOM     26  C   UNL A   1      41.015  19.735  25.994  1.00  0.00     0.251 C 
ATOM     27  H   UNL A   1      39.319  18.812  25.439  1.00  0.00     0.163 HD
ATOM     28  O   UNL A   1      41.736  18.772  25.779  1.00  0.00    -0.269 OA
BRANCH  26  29
ATOM     29  C   UNL A   1      41.566  20.978  26.563  1.00  0.00     0.039 A 
ATOM     30  C   UNL A   1      42.093  21.943  25.706  1.00  0.00     0.014 A 
ATOM     31  C   UNL A   1      41.475  21.211  27.937  1.00  0.00     0.014 A 
ATOM     32  C   UNL A   1      42.458  23.184  26.227  1.00  0.00     0.010 A 
ATOM     33  C   UNL A   1      41.725  22.482  28.430  1.00  0.00     0.010 A 
ATOM     34  C   UNL A   1      42.231  23.477  27.583  1.00  0.00    -0.014 A 
BRANCH  34  35
ATOM     35  C   UNL A   1      42.528  24.817  28.141  1.00  0.00     0.031 A 
ATOM     36  C   UNL A   1      43.926  25.153  28.581  1.00  0.00     0.074 A 
ATOM     37  C   UNL A   1      41.528  25.704  28.312  1.00  0.00     0.049 A 
ATOM     38  N   UNL A   1      44.377  26.253  29.126  1.00  0.00    -0.248 NA
ATOM     39  C   UNL A   1      44.946  24.102  28.422  1.00  0.00     0.031 C 
ATOM     40  C   UNL A   1      40.117  25.472  27.986  1.00  0.00     0.029 A 
ATOM     41  N   UNL A   1      41.546  26.985  28.803  1.00  0.00    -0.354 N 
ATOM     42  C   UNL A   1      45.720  26.018  29.391  1.00  0.00     0.074 A 
ATOM     43  C   UNL A   1      45.996  24.651  29.013  1.00  0.00     0.031 C 
ATOM     44  C   UNL A   1      39.417  26.588  28.243  1.00  0.00     0.029 A 
ATOM     45  C   UNL A   1      40.318  27.598  28.787  1.00  0.00     0.049 A 
ATOM     46  H   UNL A   1      42.363  27.422  29.136  1.00  0.00     0.167 HD
ATOM     47  C   UNL A   1      46.650  26.870  29.880  1.00  0.00     0.031 A 
ATOM     48  C   UNL A   1      39.959  28.838  29.164  1.00  0.00     0.031 A 
ATOM     49  C   UNL A   1      46.378  28.235  30.236  1.00  0.00     0.049 A 
ATOM     50  C   UNL A   1      41.013  29.773  29.690  1.00  0.00     0.074 A 
ATOM     51  C   UNL A   1      47.261  29.204  30.677  1.00  0.00     0.029 A 
ATOM     52  N   UNL A   1      45.124  28.824  30.187  1.00  0.00    -0.354 N 
ATOM     53  N   UNL A   1      42.295  29.560  29.860  1.00  0.00    -0.248 NA
ATOM     54  C   UNL A   1      40.570  31.123  30.061  1.00  0.00     0.031 C 
ATOM     55  C   UNL A   1      46.531  30.368  30.943  1.00  0.00     0.029 A 
ATOM     56  C   UNL A   1      45.205  30.139  30.611  1.00  0.00     0.049 A 
ATOM     57  H   UNL A   1      44.298  28.375  29.894  1.00  0.00     0.167 HD
ATOM     58  C   UNL A   1      42.818  30.757  30.330  1.00  0.00     0.074 A 
ATOM     59  C   UNL A   1      41.716  31.695  30.400  1.00  0.00     0.031 C 
ATOM     60  C   UNL A   1      44.095  31.054  30.675  1.00  0.00     0.031 A 
BRANCH  47  61
ATOM     61  C   UNL A   1      48.047  26.342  30.051  1.00  0.00    -0.014 A 
ATOM     62  C   UNL A   1      48.472  25.788  31.270  1.00  0.00     0.009 A 
ATOM     63  C   UNL A   1      48.946  26.380  28.974  1.00  0.00     0.009 A 
ATOM     64  C   UNL A   1      49.780  25.321  31.419  1.00  0.00     0.001 A 
ATOM     65  C   UNL A   1      50.243  25.884  29.116  1.00  0.00     0.001 A 
ATOM     66  C   UNL A   1      50.661  25.364  30.340  1.00  0.00     0.000 A 
ENDBRANCH  47  61
BRANCH  48  67
ATOM     67  C   UNL A   1      38.547  29.282  29.028  1.00  0.00    -0.014 A 
ATOM     68  C   UNL A   1      37.679  29.241  30.131  1.00  0.00     0.009 A 
ATOM     69  C   UNL A   1      38.057  29.745  27.797  1.00  0.00     0.009 A 
ATOM     70  C   UNL A   1      36.343  29.625  29.996  1.00  0.00     0.001 A 
ATOM     71  C   UNL A   1      36.728  30.158  27.673  1.00  0.00     0.001 A 
ATOM     72  C   UNL A   1      35.870  30.088  28.769  1.00  0.00     0.000 A 
ENDBRANCH  48  67
BRANCH  60  73
ATOM     73  C   UNL A   1      44.370  32.461  31.124  1.00  0.00    -0.014 A 
ATOM     74  C   UNL A   1      44.310  32.820  32.479  1.00  0.00     0.009 A 
ATOM     75  C   UNL A   1      44.723  33.434  30.175  1.00  0.00     0.009 A 
ATOM     76  C   UNL A   1      44.560  34.136  32.871  1.00  0.00     0.001 A 
ATOM     77  C   UNL A   1      45.004  34.741  30.574  1.00  0.00     0.001 A 
ATOM     78  C   UNL A   1      44.911  35.093  31.919  1.00  0.00     0.000 A 
ENDBRANCH  60  73
ENDBRANCH  34  35
ENDBRANCH  26  29
ENDBRANCH  24  25
ENDBRANCH  23  24
ENDBRANCH   1  23
TORSDOF 14
ENDMDL
