MODEL 1
REMARK VINA RESULT:     -12.2      0.000      0.000
REMARK SMILES Cc1cc(OCC(=O)N/C(=C/c2ccccc2Cl)C(=O)NCCCNC(=O)c2ccc(-c3c4nc(c(-c5ccccc5)c5ccc([nH]5)c(-c5ccccc5)c5nc(c(-c6ccccc6)c6ccc3[nH]6)C=C5)C=C4)cc2)cc(C)c1Cl
REMARK SMILES IDX 22 1 21 2 19 3 20 4 10 6 11 7 9 8 7 9 8 10 6 12 5 13 4 14
REMARK SMILES IDX 1 15 2 16 3 17 79 18 77 19 80 20 76 21 78 22 12 23 13 24
REMARK SMILES IDX 17 25 14 26 16 27 18 28 15 29 23 30 24 31 25 32 26 33 27 35
REMARK SMILES IDX 28 36 29 37 75 38 30 39 74 40 31 41 32 42 33 43 68 44 34 45
REMARK SMILES IDX 73 46 67 47 69 48 35 49 72 50 66 51 65 52 36 54 58 55 43 56
REMARK SMILES IDX 57 57 44 58 47 59 56 60 70 61 45 62 46 63 55 65 71 66 48 67
REMARK SMILES IDX 37 68 38 69 42 70 39 71 41 72 40 73 59 74 60 75 64 76 61 77
REMARK SMILES IDX 63 78 62 79 49 80 50 81 54 82 51 83 53 84 52 85
REMARK H PARENT 21 5 9 11 25 34 69 53 47 64
REMARK Flexibility Score: inf
ROOT
ATOM      1  C   UNL A   1      31.607  28.376  25.742  1.00  0.00     0.118 C 
ENDROOT
BRANCH   1   2
ATOM      2  N   UNL A   1      32.273  29.052  24.661  1.00  0.00    -0.351 N 
ATOM      3  C   UNL A   1      32.927  28.364  23.685  1.00  0.00     0.267 C 
ATOM      4  O   UNL A   1      34.153  28.490  23.650  1.00  0.00    -0.268 OA
ATOM      5  H   UNL A   1      32.257  30.036  24.626  1.00  0.00     0.163 HD
BRANCH   3   6
ATOM      6  C   UNL A   1      32.207  27.504  22.647  1.00  0.00     0.107 C 
ATOM      7  C   UNL A   1      30.929  27.583  22.192  1.00  0.00     0.041 C 
BRANCH   6   8
ATOM      8  N   UNL A   1      32.912  26.397  22.177  1.00  0.00    -0.318 N 
ATOM      9  C   UNL A   1      32.830  25.052  22.426  1.00  0.00     0.262 C 
ATOM     10  O   UNL A   1      33.465  24.301  21.671  1.00  0.00    -0.271 OA
ATOM     11  H   UNL A   1      33.615  26.629  21.530  1.00  0.00     0.170 HD
BRANCH   9  12
ATOM     12  C   UNL A   1      32.104  24.468  23.647  1.00  0.00     0.329 C 
BRANCH  12  13
ATOM     13  O   UNL A   1      32.868  24.435  24.844  1.00  0.00    -0.484 OA
BRANCH  13  14
ATOM     14  C   UNL A   1      33.867  23.504  24.935  1.00  0.00     0.120 A 
ATOM     15  C   UNL A   1      34.618  19.786  24.709  1.00  0.00     0.046 C 
ATOM     16  C   UNL A   1      34.831  21.265  24.889  1.00  0.00    -0.029 A 
ATOM     17  C   UNL A   1      33.725  22.126  24.774  1.00  0.00     0.051 A 
ATOM     18  C   UNL A   1      36.097  21.811  25.170  1.00  0.00     0.047 A 
ATOM     19  C   UNL A   1      36.256  23.199  25.336  1.00  0.00    -0.029 A 
ATOM     20  Cl  UNL A   1      37.472  20.763  25.312  1.00  0.00    -0.084 Cl
ATOM     21  C   UNL A   1      35.129  24.030  25.220  1.00  0.00     0.051 A 
ATOM     22  C   UNL A   1      37.592  23.820  25.635  1.00  0.00     0.046 C 
ENDBRANCH  13  14
ENDBRANCH  12  13
ENDBRANCH   9  12
ENDBRANCH   6   8
BRANCH   7  23
ATOM     23  C   UNL A   1      29.831  28.536  22.437  1.00  0.00    -0.005 A 
ATOM     24  C   UNL A   1      29.936  29.836  21.907  1.00  0.00     0.010 A 
ATOM     25  C   UNL A   1      28.653  28.179  23.119  1.00  0.00     0.048 A 
ATOM     26  C   UNL A   1      28.837  30.704  21.928  1.00  0.00     0.001 A 
ATOM     27  C   UNL A   1      27.564  29.060  23.157  1.00  0.00     0.021 A 
ATOM     28  Cl  UNL A   1      28.463  26.626  23.853  1.00  0.00    -0.084 Cl
ATOM     29  C   UNL A   1      27.645  30.306  22.531  1.00  0.00     0.002 A 
ENDBRANCH   7  23
ENDBRANCH   3   6
ENDBRANCH   1   2
BRANCH   1  30
ATOM     30  C   UNL A   1      31.951  28.860  27.132  1.00  0.00     0.042 C 
BRANCH  30  31
ATOM     31  C   UNL A   1      33.410  29.241  27.273  1.00  0.00     0.118 C 
BRANCH  31  32
ATOM     32  N   UNL A   1      33.606  30.536  27.928  1.00  0.00    -0.352 N 
ATOM     33  C   UNL A   1      34.651  31.060  28.651  1.00  0.00     0.251 C 
ATOM     34  H   UNL A   1      32.842  31.150  27.832  1.00  0.00     0.163 HD
ATOM     35  O   UNL A   1      34.485  32.096  29.293  1.00  0.00    -0.269 OA
BRANCH  33  36
ATOM     36  C   UNL A   1      35.959  30.372  28.701  1.00  0.00     0.039 A 
ATOM     37  C   UNL A   1      36.813  30.404  27.595  1.00  0.00     0.014 A 
ATOM     38  C   UNL A   1      36.354  29.696  29.849  1.00  0.00     0.014 A 
ATOM     39  C   UNL A   1      38.095  29.851  27.692  1.00  0.00     0.010 A 
ATOM     40  C   UNL A   1      37.676  29.320  30.007  1.00  0.00     0.010 A 
ATOM     41  C   UNL A   1      38.558  29.362  28.923  1.00  0.00    -0.014 A 
BRANCH  41  42
ATOM     42  C   UNL A   1      39.937  28.848  29.120  1.00  0.00     0.031 A 
ATOM     43  C   UNL A   1      41.003  29.762  29.673  1.00  0.00     0.074 A 
ATOM     44  C   UNL A   1      40.259  27.609  28.701  1.00  0.00     0.049 A 
ATOM     45  N   UNL A   1      42.291  29.561  29.785  1.00  0.00    -0.248 NA
ATOM     46  C   UNL A   1      40.572  31.106  30.101  1.00  0.00     0.031 C 
ATOM     47  C   UNL A   1      39.337  26.646  28.092  1.00  0.00     0.029 A 
ATOM     48  N   UNL A   1      41.462  26.948  28.715  1.00  0.00    -0.354 N 
ATOM     49  C   UNL A   1      42.820  30.763  30.243  1.00  0.00     0.074 A 
ATOM     50  C   UNL A   1      41.731  31.708  30.314  1.00  0.00     0.031 C 
ATOM     51  C   UNL A   1      39.994  25.503  27.844  1.00  0.00     0.029 A 
ATOM     52  C   UNL A   1      41.392  25.669  28.219  1.00  0.00     0.049 A 
ATOM     53  H   UNL A   1      42.295  27.353  29.049  1.00  0.00     0.167 HD
ATOM     54  C   UNL A   1      44.093  31.049  30.605  1.00  0.00     0.031 A 
ATOM     55  C   UNL A   1      42.352  24.736  28.083  1.00  0.00     0.031 A 
ATOM     56  C   UNL A   1      45.163  30.091  30.577  1.00  0.00     0.049 A 
ATOM     57  C   UNL A   1      43.755  25.065  28.510  1.00  0.00     0.074 A 
ATOM     58  C   UNL A   1      46.468  30.242  31.006  1.00  0.00     0.029 A 
ATOM     59  N   UNL A   1      45.043  28.797  30.093  1.00  0.00    -0.354 N 
ATOM     60  N   UNL A   1      44.224  26.181  29.016  1.00  0.00    -0.248 NA
ATOM     61  C   UNL A   1      44.757  24.003  28.354  1.00  0.00     0.031 C 
ATOM     62  C   UNL A   1      47.155  29.056  30.729  1.00  0.00     0.029 A 
ATOM     63  C   UNL A   1      46.261  28.146  30.187  1.00  0.00     0.049 A 
ATOM     64  H   UNL A   1      44.216  28.401  29.735  1.00  0.00     0.167 HD
ATOM     65  C   UNL A   1      45.569  25.944  29.269  1.00  0.00     0.074 A 
ATOM     66  C   UNL A   1      45.834  24.576  28.873  1.00  0.00     0.031 C 
ATOM     67  C   UNL A   1      46.501  26.784  29.784  1.00  0.00     0.031 A 
BRANCH  54  68
ATOM     68  C   UNL A   1      44.383  32.456  31.056  1.00  0.00    -0.014 A 
ATOM     69  C   UNL A   1      44.781  33.452  30.148  1.00  0.00     0.009 A 
ATOM     70  C   UNL A   1      44.259  32.792  32.413  1.00  0.00     0.009 A 
ATOM     71  C   UNL A   1      45.106  34.734  30.598  1.00  0.00     0.001 A 
ATOM     72  C   UNL A   1      44.545  34.085  32.854  1.00  0.00     0.001 A 
ATOM     73  C   UNL A   1      44.983  35.051  31.950  1.00  0.00     0.000 A 
ENDBRANCH  54  68
BRANCH  55  74
ATOM     74  C   UNL A   1      42.007  23.386  27.562  1.00  0.00    -0.014 A 
ATOM     75  C   UNL A   1      41.530  22.395  28.433  1.00  0.00     0.009 A 
ATOM     76  C   UNL A   1      42.132  23.085  26.197  1.00  0.00     0.009 A 
ATOM     77  C   UNL A   1      41.208  21.123  27.954  1.00  0.00     0.001 A 
ATOM     78  C   UNL A   1      41.782  21.821  25.716  1.00  0.00     0.001 A 
ATOM     79  C   UNL A   1      41.328  20.839  26.595  1.00  0.00     0.000 A 
ENDBRANCH  55  74
BRANCH  67  80
ATOM     80  C   UNL A   1      47.884  26.232  29.984  1.00  0.00    -0.014 A 
ATOM     81  C   UNL A   1      48.818  26.201  28.937  1.00  0.00     0.009 A 
ATOM     82  C   UNL A   1      48.270  25.780  31.256  1.00  0.00     0.009 A 
ATOM     83  C   UNL A   1      50.101  25.696  29.153  1.00  0.00     0.001 A 
ATOM     84  C   UNL A   1      49.564  25.307  31.476  1.00  0.00     0.001 A 
ATOM     85  C   UNL A   1      50.474  25.255  30.423  1.00  0.00     0.000 A 
ENDBRANCH  67  80
ENDBRANCH  41  42
ENDBRANCH  33  36
ENDBRANCH  31  32
ENDBRANCH  30  31
ENDBRANCH   1  30
TORSDOF 15
ENDMDL
MODEL 2
REMARK VINA RESULT:     -12.2      2.836      7.008
REMARK SMILES Cc1cc(OCC(=O)N/C(=C/c2ccccc2Cl)C(=O)NCCCNC(=O)c2ccc(-c3c4nc(c(-c5ccccc5)c5ccc([nH]5)c(-c5ccccc5)c5nc(c(-c6ccccc6)c6ccc3[nH]6)C=C5)C=C4)cc2)cc(C)c1Cl
REMARK SMILES IDX 22 1 21 2 19 3 20 4 10 6 11 7 9 8 7 9 8 10 6 12 5 13 4 14
REMARK SMILES IDX 1 15 2 16 3 17 79 18 77 19 80 20 76 21 78 22 12 23 13 24
REMARK SMILES IDX 17 25 14 26 16 27 18 28 15 29 23 30 24 31 25 32 26 33 27 35
REMARK SMILES IDX 28 36 29 37 75 38 30 39 74 40 31 41 32 42 33 43 68 44 34 45
REMARK SMILES IDX 73 46 67 47 69 48 35 49 72 50 66 51 65 52 36 54 58 55 43 56
REMARK SMILES IDX 57 57 44 58 47 59 56 60 70 61 45 62 46 63 55 65 71 66 48 67
REMARK SMILES IDX 37 68 38 69 42 70 39 71 41 72 40 73 59 74 60 75 64 76 61 77
REMARK SMILES IDX 63 78 62 79 49 80 50 81 54 82 51 83 53 84 52 85
REMARK H PARENT 21 5 9 11 25 34 69 53 47 64
REMARK Flexibility Score: inf
ROOT
ATOM      1  C   UNL A   1      34.355  24.576  25.271  1.00  0.00     0.118 C 
ENDROOT
BRANCH   1   2
ATOM      2  N   UNL A   1      34.158  25.494  24.180  1.00  0.00    -0.351 N 
ATOM      3  C   UNL A   1      33.425  25.152  23.086  1.00  0.00     0.267 C 
ATOM      4  O   UNL A   1      34.041  25.046  22.023  1.00  0.00    -0.268 OA
ATOM      5  H   UNL A   1      34.563  26.390  24.226  1.00  0.00     0.163 HD
BRANCH   3   6
ATOM      6  C   UNL A   1      31.912  24.945  23.128  1.00  0.00     0.107 C 
ATOM      7  C   UNL A   1      31.198  23.819  23.393  1.00  0.00     0.041 C 
BRANCH   6   8
ATOM      8  N   UNL A   1      31.135  26.028  22.717  1.00  0.00    -0.318 N 
ATOM      9  C   UNL A   1      30.768  27.205  23.316  1.00  0.00     0.262 C 
ATOM     10  O   UNL A   1      30.246  28.064  22.592  1.00  0.00    -0.271 OA
ATOM     11  H   UNL A   1      30.777  25.927  21.807  1.00  0.00     0.170 HD
BRANCH   9  12
ATOM     12  C   UNL A   1      30.862  27.440  24.830  1.00  0.00     0.329 C 
BRANCH  12  13
ATOM     13  O   UNL A   1      32.161  27.288  25.386  1.00  0.00    -0.484 OA
BRANCH  13  14
ATOM     14  C   UNL A   1      32.700  28.361  26.042  1.00  0.00     0.120 A 
ATOM     15  C   UNL A   1      35.722  29.536  28.022  1.00  0.00     0.046 C 
ATOM     16  C   UNL A   1      34.384  29.561  27.334  1.00  0.00    -0.029 A 
ATOM     17  C   UNL A   1      33.933  28.394  26.692  1.00  0.00     0.051 A 
ATOM     18  C   UNL A   1      33.573  30.710  27.313  1.00  0.00     0.047 A 
ATOM     19  C   UNL A   1      32.326  30.693  26.663  1.00  0.00    -0.029 A 
ATOM     20  Cl  UNL A   1      34.116  32.159  28.098  1.00  0.00    -0.084 Cl
ATOM     21  C   UNL A   1      31.903  29.508  26.037  1.00  0.00     0.051 A 
ATOM     22  C   UNL A   1      31.431  31.901  26.619  1.00  0.00     0.046 C 
ENDBRANCH  13  14
ENDBRANCH  12  13
ENDBRANCH   9  12
ENDBRANCH   6   8
BRANCH   7  23
ATOM     23  C   UNL A   1      31.583  22.460  23.817  1.00  0.00    -0.005 A 
ATOM     24  C   UNL A   1      31.938  21.522  22.828  1.00  0.00     0.010 A 
ATOM     25  C   UNL A   1      31.677  22.083  25.168  1.00  0.00     0.048 A 
ATOM     26  C   UNL A   1      32.511  20.294  23.186  1.00  0.00     0.001 A 
ATOM     27  C   UNL A   1      32.230  20.845  25.520  1.00  0.00     0.021 A 
ATOM     28  Cl  UNL A   1      31.205  23.150  26.443  1.00  0.00    -0.084 Cl
ATOM     29  C   UNL A   1      32.679  19.968  24.530  1.00  0.00     0.002 A 
ENDBRANCH   7  23
ENDBRANCH   3   6
ENDBRANCH   1   2
BRANCH   1  30
ATOM     30  C   UNL A   1      35.099  23.304  24.933  1.00  0.00     0.042 C 
BRANCH  30  31
ATOM     31  C   UNL A   1      35.669  22.620  26.158  1.00  0.00     0.118 C 
BRANCH  31  32
ATOM     32  N   UNL A   1      36.678  21.609  25.834  1.00  0.00    -0.352 N 
ATOM     33  C   UNL A   1      38.052  21.644  25.815  1.00  0.00     0.251 C 
ATOM     34  H   UNL A   1      36.299  20.735  25.582  1.00  0.00     0.163 HD
ATOM     35  O   UNL A   1      38.675  20.723  25.288  1.00  0.00    -0.269 OA
BRANCH  33  36
ATOM     36  C   UNL A   1      38.789  22.794  26.380  1.00  0.00     0.039 A 
ATOM     37  C   UNL A   1      39.925  22.583  27.168  1.00  0.00     0.014 A 
ATOM     38  C   UNL A   1      38.367  24.094  26.127  1.00  0.00     0.014 A 
ATOM     39  C   UNL A   1      40.682  23.677  27.601  1.00  0.00     0.010 A 
ATOM     40  C   UNL A   1      39.210  25.157  26.391  1.00  0.00     0.010 A 
ATOM     41  C   UNL A   1      40.364  24.971  27.159  1.00  0.00    -0.014 A 
BRANCH  41  42
ATOM     42  C   UNL A   1      41.179  26.164  27.503  1.00  0.00     0.031 A 
ATOM     43  C   UNL A   1      40.595  27.236  28.390  1.00  0.00     0.074 A 
ATOM     44  C   UNL A   1      42.386  26.340  26.932  1.00  0.00     0.049 A 
ATOM     45  N   UNL A   1      41.077  28.415  28.692  1.00  0.00    -0.248 NA
ATOM     46  C   UNL A   1      39.265  26.971  28.969  1.00  0.00     0.031 C 
ATOM     47  C   UNL A   1      43.039  25.409  26.008  1.00  0.00     0.029 A 
ATOM     48  N   UNL A   1      43.280  27.375  27.042  1.00  0.00    -0.354 N 
ATOM     49  C   UNL A   1      40.089  29.042  29.444  1.00  0.00     0.074 A 
ATOM     50  C   UNL A   1      38.956  28.148  29.488  1.00  0.00     0.031 C 
ATOM     51  C   UNL A   1      44.248  25.889  25.680  1.00  0.00     0.029 A 
ATOM     52  C   UNL A   1      44.433  27.185  26.321  1.00  0.00     0.049 A 
ATOM     53  H   UNL A   1      43.110  28.179  27.585  1.00  0.00     0.167 HD
ATOM     54  C   UNL A   1      40.130  30.241  30.071  1.00  0.00     0.031 A 
ATOM     55  C   UNL A   1      45.519  27.969  26.192  1.00  0.00     0.031 A 
ATOM     56  C   UNL A   1      41.278  31.104  30.062  1.00  0.00     0.049 A 
ATOM     57  C   UNL A   1      45.555  29.287  26.913  1.00  0.00     0.074 A 
ATOM     58  C   UNL A   1      41.467  32.297  30.737  1.00  0.00     0.029 A 
ATOM     59  N   UNL A   1      42.437  30.860  29.341  1.00  0.00    -0.354 N 
ATOM     60  N   UNL A   1      44.645  29.832  27.686  1.00  0.00    -0.248 NA
ATOM     61  C   UNL A   1      46.771  30.094  26.751  1.00  0.00     0.031 C 
ATOM     62  C   UNL A   1      42.719  32.803  30.378  1.00  0.00     0.029 A 
ATOM     63  C   UNL A   1      43.336  31.895  29.532  1.00  0.00     0.049 A 
ATOM     64  H   UNL A   1      42.597  30.069  28.777  1.00  0.00     0.167 HD
ATOM     65  C   UNL A   1      45.192  31.029  28.127  1.00  0.00     0.074 A 
ATOM     66  C   UNL A   1      46.516  31.123  27.546  1.00  0.00     0.031 C 
ATOM     67  C   UNL A   1      44.648  31.968  28.942  1.00  0.00     0.031 A 
BRANCH  54  68
ATOM     68  C   UNL A   1      38.894  30.677  30.811  1.00  0.00    -0.014 A 
ATOM     69  C   UNL A   1      38.655  30.287  32.140  1.00  0.00     0.009 A 
ATOM     70  C   UNL A   1      37.948  31.491  30.168  1.00  0.00     0.009 A 
ATOM     71  C   UNL A   1      37.472  30.651  32.786  1.00  0.00     0.001 A 
ATOM     72  C   UNL A   1      36.785  31.888  30.830  1.00  0.00     0.001 A 
ATOM     73  C   UNL A   1      36.539  31.455  32.132  1.00  0.00     0.000 A 
ENDBRANCH  54  68
BRANCH  55  74
ATOM     74  C   UNL A   1      46.680  27.506  25.385  1.00  0.00    -0.014 A 
ATOM     75  C   UNL A   1      47.618  26.623  25.942  1.00  0.00     0.009 A 
ATOM     76  C   UNL A   1      46.848  27.923  24.056  1.00  0.00     0.009 A 
ATOM     77  C   UNL A   1      48.713  26.186  25.194  1.00  0.00     0.001 A 
ATOM     78  C   UNL A   1      47.929  27.461  23.300  1.00  0.00     0.001 A 
ATOM     79  C   UNL A   1      48.864  26.601  23.872  1.00  0.00     0.000 A 
ENDBRANCH  55  74
BRANCH  67  80
ATOM     80  C   UNL A   1      45.500  33.157  29.282  1.00  0.00    -0.014 A 
ATOM     81  C   UNL A   1      45.483  34.319  28.494  1.00  0.00     0.009 A 
ATOM     82  C   UNL A   1      46.297  33.128  30.437  1.00  0.00     0.009 A 
ATOM     83  C   UNL A   1      46.274  35.415  28.841  1.00  0.00     0.001 A 
ATOM     84  C   UNL A   1      47.061  34.237  30.798  1.00  0.00     0.001 A 
ATOM     85  C   UNL A   1      47.057  35.376  29.995  1.00  0.00     0.000 A 
ENDBRANCH  67  80
ENDBRANCH  41  42
ENDBRANCH  33  36
ENDBRANCH  31  32
ENDBRANCH  30  31
ENDBRANCH   1  30
TORSDOF 15
ENDMDL
MODEL 3
REMARK VINA RESULT:     -12.0      3.268      6.521
REMARK SMILES Cc1cc(OCC(=O)N/C(=C/c2ccccc2Cl)C(=O)NCCCNC(=O)c2ccc(-c3c4nc(c(-c5ccccc5)c5ccc([nH]5)c(-c5ccccc5)c5nc(c(-c6ccccc6)c6ccc3[nH]6)C=C5)C=C4)cc2)cc(C)c1Cl
REMARK SMILES IDX 22 1 21 2 19 3 20 4 10 6 11 7 9 8 7 9 8 10 6 12 5 13 4 14
REMARK SMILES IDX 1 15 2 16 3 17 79 18 77 19 80 20 76 21 78 22 12 23 13 24
REMARK SMILES IDX 17 25 14 26 16 27 18 28 15 29 23 30 24 31 25 32 26 33 27 35
REMARK SMILES IDX 28 36 29 37 75 38 30 39 74 40 31 41 32 42 33 43 68 44 34 45
REMARK SMILES IDX 73 46 67 47 69 48 35 49 72 50 66 51 65 52 36 54 58 55 43 56
REMARK SMILES IDX 57 57 44 58 47 59 56 60 70 61 45 62 46 63 55 65 71 66 48 67
REMARK SMILES IDX 37 68 38 69 42 70 39 71 41 72 40 73 59 74 60 75 64 76 61 77
REMARK SMILES IDX 63 78 62 79 49 80 50 81 54 82 51 83 53 84 52 85
REMARK H PARENT 21 5 9 11 25 34 69 53 47 64
REMARK Flexibility Score: inf
ROOT
ATOM      1  C   UNL A   1      33.050  29.438  24.917  1.00  0.00     0.118 C 
ENDROOT
BRANCH   1   2
ATOM      2  N   UNL A   1      33.236  28.030  25.152  1.00  0.00    -0.351 N 
ATOM      3  C   UNL A   1      32.327  27.112  24.724  1.00  0.00     0.267 C 
ATOM      4  O   UNL A   1      31.702  26.507  25.598  1.00  0.00    -0.268 OA
ATOM      5  H   UNL A   1      34.038  27.724  25.633  1.00  0.00     0.163 HD
BRANCH   3   6
ATOM      6  C   UNL A   1      32.098  26.791  23.247  1.00  0.00     0.107 C 
ATOM      7  C   UNL A   1      31.131  27.237  22.404  1.00  0.00     0.041 C 
BRANCH   6   8
ATOM      8  N   UNL A   1      32.920  25.805  22.702  1.00  0.00    -0.318 N 
ATOM      9  C   UNL A   1      32.789  24.451  22.542  1.00  0.00     0.262 C 
ATOM     10  O   UNL A   1      33.617  23.889  21.813  1.00  0.00    -0.271 OA
ATOM     11  H   UNL A   1      33.772  26.156  22.358  1.00  0.00     0.170 HD
BRANCH   9  12
ATOM     12  C   UNL A   1      31.759  23.612  23.313  1.00  0.00     0.329 C 
BRANCH  12  13
ATOM     13  O   UNL A   1      32.190  23.146  24.584  1.00  0.00    -0.484 OA
BRANCH  13  14
ATOM     14  C   UNL A   1      32.999  22.042  24.614  1.00  0.00     0.120 A 
ATOM     15  C   UNL A   1      36.572  20.880  25.177  1.00  0.00     0.046 C 
ATOM     16  C   UNL A   1      35.096  20.829  24.886  1.00  0.00    -0.029 A 
ATOM     17  C   UNL A   1      34.367  22.032  24.881  1.00  0.00     0.051 A 
ATOM     18  C   UNL A   1      34.426  19.622  24.619  1.00  0.00     0.047 A 
ATOM     19  C   UNL A   1      33.046  19.616  24.347  1.00  0.00    -0.029 A 
ATOM     20  Cl  UNL A   1      35.310  18.129  24.624  1.00  0.00    -0.084 Cl
ATOM     21  C   UNL A   1      32.349  20.836  24.344  1.00  0.00     0.051 A 
ATOM     22  C   UNL A   1      32.294  18.346  24.058  1.00  0.00     0.046 C 
ENDBRANCH  13  14
ENDBRANCH  12  13
ENDBRANCH   9  12
ENDBRANCH   6   8
BRANCH   7  23
ATOM     23  C   UNL A   1      30.044  28.224  22.550  1.00  0.00    -0.005 A 
ATOM     24  C   UNL A   1      30.222  29.508  22.000  1.00  0.00     0.010 A 
ATOM     25  C   UNL A   1      28.813  27.914  23.155  1.00  0.00     0.048 A 
ATOM     26  C   UNL A   1      29.149  30.405  21.926  1.00  0.00     0.001 A 
ATOM     27  C   UNL A   1      27.748  28.824  23.096  1.00  0.00     0.021 A 
ATOM     28  Cl  UNL A   1      28.529  26.384  23.906  1.00  0.00    -0.084 Cl
ATOM     29  C   UNL A   1      27.907  30.052  22.452  1.00  0.00     0.002 A 
ENDBRANCH   7  23
ENDBRANCH   3   6
ENDBRANCH   1   2
BRANCH   1  30
ATOM     30  C   UNL A   1      31.770  30.032  25.458  1.00  0.00     0.042 C 
BRANCH  30  31
ATOM     31  C   UNL A   1      31.924  30.567  26.866  1.00  0.00     0.118 C 
BRANCH  31  32
ATOM     32  N   UNL A   1      31.953  32.029  26.926  1.00  0.00    -0.352 N 
ATOM     33  C   UNL A   1      32.830  32.916  27.505  1.00  0.00     0.251 C 
ATOM     34  H   UNL A   1      31.199  32.462  26.463  1.00  0.00     0.163 HD
ATOM     35  O   UNL A   1      32.515  34.100  27.610  1.00  0.00    -0.269 OA
BRANCH  33  36
ATOM     36  C   UNL A   1      34.130  32.457  28.040  1.00  0.00     0.039 A 
ATOM     37  C   UNL A   1      35.157  33.375  28.276  1.00  0.00     0.014 A 
ATOM     38  C   UNL A   1      34.338  31.112  28.323  1.00  0.00     0.014 A 
ATOM     39  C   UNL A   1      36.340  32.950  28.891  1.00  0.00     0.010 A 
ATOM     40  C   UNL A   1      35.420  30.729  29.095  1.00  0.00     0.010 A 
ATOM     41  C   UNL A   1      36.453  31.633  29.364  1.00  0.00    -0.014 A 
BRANCH  41  42
ATOM     42  C   UNL A   1      37.640  31.142  30.108  1.00  0.00     0.031 A 
ATOM     43  C   UNL A   1      38.613  30.210  29.429  1.00  0.00     0.074 A 
ATOM     44  C   UNL A   1      37.783  31.435  31.415  1.00  0.00     0.049 A 
ATOM     45  N   UNL A   1      39.625  29.554  29.937  1.00  0.00    -0.248 NA
ATOM     46  C   UNL A   1      38.382  29.932  27.999  1.00  0.00     0.031 C 
ATOM     47  C   UNL A   1      36.879  32.273  32.207  1.00  0.00     0.029 A 
ATOM     48  N   UNL A   1      38.745  31.048  32.314  1.00  0.00    -0.354 N 
ATOM     49  C   UNL A   1      40.109  28.755  28.908  1.00  0.00     0.074 A 
ATOM     50  C   UNL A   1      39.238  28.948  27.773  1.00  0.00     0.031 C 
ATOM     51  C   UNL A   1      37.359  32.382  33.455  1.00  0.00     0.029 A 
ATOM     52  C   UNL A   1      38.568  31.577  33.569  1.00  0.00     0.049 A 
ATOM     53  H   UNL A   1      39.490  30.448  32.082  1.00  0.00     0.167 HD
ATOM     54  C   UNL A   1      41.201  27.955  28.893  1.00  0.00     0.031 A 
ATOM     55  C   UNL A   1      39.302  31.428  34.688  1.00  0.00     0.031 A 
ATOM     56  C   UNL A   1      42.091  27.803  30.011  1.00  0.00     0.049 A 
ATOM     57  C   UNL A   1      40.522  30.552  34.647  1.00  0.00     0.074 A 
ATOM     58  C   UNL A   1      43.276  27.094  30.081  1.00  0.00     0.029 A 
ATOM     59  N   UNL A   1      41.891  28.379  31.256  1.00  0.00    -0.354 N 
ATOM     60  N   UNL A   1      41.013  29.865  33.643  1.00  0.00    -0.248 NA
ATOM     61  C   UNL A   1      41.294  30.440  35.891  1.00  0.00     0.031 C 
ATOM     62  C   UNL A   1      43.764  27.194  31.387  1.00  0.00     0.029 A 
ATOM     63  C   UNL A   1      42.917  28.018  32.111  1.00  0.00     0.049 A 
ATOM     64  H   UNL A   1      41.131  28.958  31.496  1.00  0.00     0.167 HD
ATOM     65  C   UNL A   1      42.168  29.264  34.125  1.00  0.00     0.074 A 
ATOM     66  C   UNL A   1      42.309  29.680  35.506  1.00  0.00     0.031 C 
ATOM     67  C   UNL A   1      43.036  28.443  33.483  1.00  0.00     0.031 A 
BRANCH  54  68
ATOM     68  C   UNL A   1      41.480  27.188  27.628  1.00  0.00    -0.014 A 
ATOM     69  C   UNL A   1      40.962  25.897  27.421  1.00  0.00     0.009 A 
ATOM     70  C   UNL A   1      42.275  27.763  26.625  1.00  0.00     0.009 A 
ATOM     71  C   UNL A   1      41.284  25.180  26.267  1.00  0.00     0.001 A 
ATOM     72  C   UNL A   1      42.563  27.060  25.454  1.00  0.00     0.001 A 
ATOM     73  C   UNL A   1      42.081  25.763  25.282  1.00  0.00     0.000 A 
ENDBRANCH  54  68
BRANCH  55  74
ATOM     74  C   UNL A   1      38.927  32.162  35.926  1.00  0.00    -0.014 A 
ATOM     75  C   UNL A   1      39.437  33.447  36.165  1.00  0.00     0.009 A 
ATOM     76  C   UNL A   1      38.049  31.597  36.863  1.00  0.00     0.009 A 
ATOM     77  C   UNL A   1      39.095  34.143  37.327  1.00  0.00     0.001 A 
ATOM     78  C   UNL A   1      37.685  32.306  38.011  1.00  0.00     0.001 A 
ATOM     79  C   UNL A   1      38.214  33.574  38.245  1.00  0.00     0.000 A 
ENDBRANCH  55  74
BRANCH  67  80
ATOM     80  C   UNL A   1      44.234  27.971  34.257  1.00  0.00    -0.014 A 
ATOM     81  C   UNL A   1      44.215  26.764  34.971  1.00  0.00     0.009 A 
ATOM     82  C   UNL A   1      45.415  28.729  34.229  1.00  0.00     0.009 A 
ATOM     83  C   UNL A   1      45.347  26.342  35.670  1.00  0.00     0.001 A 
ATOM     84  C   UNL A   1      46.555  28.288  34.902  1.00  0.00     0.001 A 
ATOM     85  C   UNL A   1      46.517  27.101  35.631  1.00  0.00     0.000 A 
ENDBRANCH  67  80
ENDBRANCH  41  42
ENDBRANCH  33  36
ENDBRANCH  31  32
ENDBRANCH  30  31
ENDBRANCH   1  30
TORSDOF 15
ENDMDL
