MODEL 1
REMARK VINA RESULT:     -10.8      0.000      0.000
REMARK SMILES Cc1cc(C)c2c(=O)n(CCCC(=O)NCCCNC(=O)c3ccc(-c4c5nc(c(-c6ccccc6)c6ccc([nH]6)c(-c6ccccc6)c6nc(c(-c7ccccc7)c7ccc4[nH]7)C=C6)C=C5)cc3)sc2n1
REMARK SMILES IDX 16 1 15 2 13 3 14 4 12 6 11 7 10 8 9 9 1 10 2 11 3 12 72 13
REMARK SMILES IDX 4 14 71 15 5 16 6 17 70 18 7 19 8 20 17 21 18 22 19 23 20 24
REMARK SMILES IDX 21 26 22 27 23 28 69 29 24 30 68 31 25 32 26 33 27 34 62 35
REMARK SMILES IDX 28 36 67 37 61 38 63 39 29 40 66 41 60 42 59 43 30 45 52 46
REMARK SMILES IDX 37 47 51 48 38 49 41 50 50 51 64 52 39 53 40 54 49 56 65 57
REMARK SMILES IDX 42 58 31 59 32 60 36 61 33 62 35 63 34 64 53 65 54 66 58 67
REMARK SMILES IDX 55 68 57 69 56 70 43 71 44 72 48 73 45 74 47 75 46 76
REMARK H PARENT 15 5 19 25 63 44 41 55
REMARK Flexibility Score: inf
ROOT
ATOM      1  C   UNL A   1      33.602  34.017  28.385  1.00  0.00     0.117 C 
ENDROOT
BRANCH   1   2
ATOM      2  N   UNL A   1      33.649  35.471  28.359  1.00  0.00    -0.356 N 
ATOM      3  C   UNL A   1      33.215  36.386  29.269  1.00  0.00     0.220 C 
ATOM      4  O   UNL A   1      33.282  37.579  28.966  1.00  0.00    -0.275 OA
ATOM      5  H   UNL A   1      34.063  35.855  27.553  1.00  0.00     0.163 HD
BRANCH   3   6
ATOM      6  C   UNL A   1      32.740  35.958  30.642  1.00  0.00     0.102 C 
BRANCH   6   7
ATOM      7  C   UNL A   1      33.788  35.801  31.749  1.00  0.00     0.033 C 
BRANCH   7   8
ATOM      8  C   UNL A   1      33.574  34.807  32.898  1.00  0.00     0.139 C 
BRANCH   8   9
ATOM      9  N   UNL A   1      34.631  33.910  33.334  1.00  0.00    -0.262 N 
ATOM     10  C   UNL A   1      40.125  31.571  34.617  1.00  0.00     0.067 C 
ATOM     11  C   UNL A   1      38.719  31.734  34.121  1.00  0.00     0.039 A 
ATOM     12  C   UNL A   1      38.189  30.834  33.185  1.00  0.00     0.027 A 
ATOM     13  N   UNL A   1      38.015  32.783  34.608  1.00  0.00    -0.241 NA
ATOM     14  C   UNL A   1      36.897  31.033  32.672  1.00  0.00    -0.033 A 
ATOM     15  C   UNL A   1      36.786  32.949  34.094  1.00  0.00     0.146 A 
ATOM     16  C   UNL A   1      36.283  30.041  31.734  1.00  0.00     0.045 C 
ATOM     17  C   UNL A   1      36.223  32.169  33.102  1.00  0.00     0.081 A 
ATOM     18  S   UNL A   1      35.667  34.203  34.659  1.00  0.00    -0.035 S 
ATOM     19  C   UNL A   1      34.959  32.762  32.607  1.00  0.00     0.270 A 
ATOM     20  O   UNL A   1      34.365  32.337  31.628  1.00  0.00    -0.268 OA
ENDBRANCH   8   9
ENDBRANCH   7   8
ENDBRANCH   6   7
ENDBRANCH   3   6
ENDBRANCH   1   2
BRANCH   1  21
ATOM     21  C   UNL A   1      34.954  33.404  28.007  1.00  0.00     0.042 C 
BRANCH  21  22
ATOM     22  C   UNL A   1      35.940  33.385  29.154  1.00  0.00     0.118 C 
BRANCH  22  23
ATOM     23  N   UNL A   1      37.074  34.297  28.984  1.00  0.00    -0.352 N 
ATOM     24  C   UNL A   1      38.382  34.087  29.414  1.00  0.00     0.251 C 
ATOM     25  H   UNL A   1      36.893  35.144  28.519  1.00  0.00     0.163 HD
ATOM     26  O   UNL A   1      39.169  34.997  29.552  1.00  0.00    -0.269 OA
BRANCH  24  27
ATOM     27  C   UNL A   1      38.769  32.690  29.703  1.00  0.00     0.039 A 
ATOM     28  C   UNL A   1      38.177  31.599  29.065  1.00  0.00     0.014 A 
ATOM     29  C   UNL A   1      39.873  32.525  30.522  1.00  0.00     0.014 A 
ATOM     30  C   UNL A   1      38.791  30.349  29.180  1.00  0.00     0.010 A 
ATOM     31  C   UNL A   1      40.602  31.374  30.407  1.00  0.00     0.010 A 
ATOM     32  C   UNL A   1      40.033  30.248  29.829  1.00  0.00    -0.014 A 
BRANCH  32  33
ATOM     33  C   UNL A   1      40.776  28.993  29.902  1.00  0.00     0.031 A 
ATOM     34  C   UNL A   1      41.245  28.563  31.249  1.00  0.00     0.074 A 
ATOM     35  C   UNL A   1      40.908  28.156  28.847  1.00  0.00     0.049 A 
ATOM     36  N   UNL A   1      42.466  28.486  31.660  1.00  0.00    -0.248 NA
ATOM     37  C   UNL A   1      40.246  28.247  32.281  1.00  0.00     0.031 C 
ATOM     38  C   UNL A   1      40.304  28.234  27.507  1.00  0.00     0.029 A 
ATOM     39  N   UNL A   1      41.560  26.966  28.799  1.00  0.00    -0.354 N 
ATOM     40  C   UNL A   1      42.419  27.973  32.952  1.00  0.00     0.074 A 
ATOM     41  C   UNL A   1      41.025  27.952  33.327  1.00  0.00     0.031 C 
ATOM     42  C   UNL A   1      40.400  27.037  26.889  1.00  0.00     0.029 A 
ATOM     43  C   UNL A   1      41.268  26.197  27.683  1.00  0.00     0.049 A 
ATOM     44  H   UNL A   1      42.188  26.674  29.499  1.00  0.00     0.167 HD
ATOM     45  C   UNL A   1      43.517  27.436  33.555  1.00  0.00     0.031 A 
ATOM     46  C   UNL A   1      41.727  24.954  27.414  1.00  0.00     0.031 A 
ATOM     47  C   UNL A   1      44.728  27.741  32.841  1.00  0.00     0.049 A 
ATOM     48  C   UNL A   1      42.964  24.772  28.203  1.00  0.00     0.074 A 
ATOM     49  C   UNL A   1      45.409  28.901  32.529  1.00  0.00     0.029 A 
ATOM     50  N   UNL A   1      45.211  26.784  31.981  1.00  0.00    -0.354 N 
ATOM     51  N   UNL A   1      44.055  25.448  27.986  1.00  0.00    -0.248 NA
ATOM     52  C   UNL A   1      42.862  24.152  29.512  1.00  0.00     0.031 C 
ATOM     53  C   UNL A   1      45.878  28.702  31.196  1.00  0.00     0.029 A 
ATOM     54  C   UNL A   1      45.512  27.413  30.799  1.00  0.00     0.049 A 
ATOM     55  H   UNL A   1      45.319  25.825  32.176  1.00  0.00     0.167 HD
ATOM     56  C   UNL A   1      44.566  25.708  29.248  1.00  0.00     0.074 A 
ATOM     57  C   UNL A   1      43.857  24.789  30.136  1.00  0.00     0.031 C 
ATOM     58  C   UNL A   1      45.311  26.828  29.491  1.00  0.00     0.031 A 
BRANCH  45  59
ATOM     59  C   UNL A   1      43.469  26.359  34.605  1.00  0.00    -0.014 A 
ATOM     60  C   UNL A   1      43.432  25.010  34.205  1.00  0.00     0.009 A 
ATOM     61  C   UNL A   1      43.197  26.628  35.958  1.00  0.00     0.009 A 
ATOM     62  C   UNL A   1      43.100  23.991  35.108  1.00  0.00     0.001 A 
ATOM     63  C   UNL A   1      42.902  25.610  36.870  1.00  0.00     0.001 A 
ATOM     64  C   UNL A   1      42.831  24.293  36.439  1.00  0.00     0.000 A 
ENDBRANCH  45  59
BRANCH  46  65
ATOM     65  C   UNL A   1      41.035  23.837  26.751  1.00  0.00    -0.014 A 
ATOM     66  C   UNL A   1      41.749  22.694  26.362  1.00  0.00     0.009 A 
ATOM     67  C   UNL A   1      39.630  23.762  26.780  1.00  0.00     0.009 A 
ATOM     68  C   UNL A   1      41.083  21.497  26.080  1.00  0.00     0.001 A 
ATOM     69  C   UNL A   1      38.966  22.566  26.496  1.00  0.00     0.001 A 
ATOM     70  C   UNL A   1      39.694  21.427  26.168  1.00  0.00     0.000 A 
ENDBRANCH  46  65
BRANCH  58  71
ATOM     71  C   UNL A   1      45.730  27.665  28.302  1.00  0.00    -0.014 A 
ATOM     72  C   UNL A   1      44.889  28.624  27.705  1.00  0.00     0.009 A 
ATOM     73  C   UNL A   1      47.058  27.589  27.860  1.00  0.00     0.009 A 
ATOM     74  C   UNL A   1      45.355  29.455  26.680  1.00  0.00     0.001 A 
ATOM     75  C   UNL A   1      47.530  28.432  26.850  1.00  0.00     0.001 A 
ATOM     76  C   UNL A   1      46.678  29.360  26.256  1.00  0.00     0.000 A 
ENDBRANCH  58  71
ENDBRANCH  32  33
ENDBRANCH  24  27
ENDBRANCH  22  23
ENDBRANCH  21  22
ENDBRANCH   1  21
TORSDOF 13
ENDMDL
MODEL 2
REMARK VINA RESULT:     -10.5      4.608      6.890
REMARK SMILES Cc1cc(C)c2c(=O)n(CCCC(=O)NCCCNC(=O)c3ccc(-c4c5nc(c(-c6ccccc6)c6ccc([nH]6)c(-c6ccccc6)c6nc(c(-c7ccccc7)c7ccc4[nH]7)C=C6)C=C5)cc3)sc2n1
REMARK SMILES IDX 16 1 15 2 13 3 14 4 12 6 11 7 10 8 9 9 1 10 2 11 3 12 72 13
REMARK SMILES IDX 4 14 71 15 5 16 6 17 70 18 7 19 8 20 17 21 18 22 19 23 20 24
REMARK SMILES IDX 21 26 22 27 23 28 69 29 24 30 68 31 25 32 26 33 27 34 62 35
REMARK SMILES IDX 28 36 67 37 61 38 63 39 29 40 66 41 60 42 59 43 30 45 52 46
REMARK SMILES IDX 37 47 51 48 38 49 41 50 50 51 64 52 39 53 40 54 49 56 65 57
REMARK SMILES IDX 42 58 31 59 32 60 36 61 33 62 35 63 34 64 53 65 54 66 58 67
REMARK SMILES IDX 55 68 57 69 56 70 43 71 44 72 48 73 45 74 47 75 46 76
REMARK H PARENT 15 5 19 25 63 44 41 55
REMARK Flexibility Score: inf
ROOT
ATOM      1  C   UNL A   1      32.588  29.877  25.392  1.00  0.00     0.117 C 
ENDROOT
BRANCH   1   2
ATOM      2  N   UNL A   1      31.350  29.919  24.629  1.00  0.00    -0.356 N 
ATOM      3  C   UNL A   1      30.717  28.945  23.917  1.00  0.00     0.220 C 
ATOM      4  O   UNL A   1      29.718  29.261  23.269  1.00  0.00    -0.275 OA
ATOM      5  H   UNL A   1      30.896  30.792  24.627  1.00  0.00     0.163 HD
BRANCH   3   6
ATOM      6  C   UNL A   1      31.177  27.504  23.984  1.00  0.00     0.102 C 
BRANCH   6   7
ATOM      7  C   UNL A   1      30.837  26.698  25.242  1.00  0.00     0.033 C 
BRANCH   7   8
ATOM      8  C   UNL A   1      31.889  25.802  25.911  1.00  0.00     0.139 C 
BRANCH   8   9
ATOM      9  N   UNL A   1      32.138  24.447  25.449  1.00  0.00    -0.262 N 
ATOM     10  C   UNL A   1      32.763  18.374  25.279  1.00  0.00     0.067 C 
ATOM     11  C   UNL A   1      33.004  19.844  25.100  1.00  0.00     0.039 A 
ATOM     12  C   UNL A   1      34.279  20.314  24.753  1.00  0.00     0.027 A 
ATOM     13  N   UNL A   1      31.949  20.667  25.303  1.00  0.00    -0.241 NA
ATOM     14  C   UNL A   1      34.515  21.695  24.656  1.00  0.00    -0.033 A 
ATOM     15  C   UNL A   1      32.209  21.981  25.208  1.00  0.00     0.146 A 
ATOM     16  C   UNL A   1      35.845  22.216  24.209  1.00  0.00     0.045 C 
ATOM     17  C   UNL A   1      33.452  22.534  24.965  1.00  0.00     0.081 A 
ATOM     18  S   UNL A   1      30.952  23.224  25.346  1.00  0.00    -0.035 S 
ATOM     19  C   UNL A   1      33.431  24.003  25.156  1.00  0.00     0.270 A 
ATOM     20  O   UNL A   1      34.442  24.687  25.150  1.00  0.00    -0.268 OA
ENDBRANCH   8   9
ENDBRANCH   7   8
ENDBRANCH   6   7
ENDBRANCH   3   6
ENDBRANCH   1   2
BRANCH   1  21
ATOM     21  C   UNL A   1      32.322  29.962  26.899  1.00  0.00     0.042 C 
BRANCH  21  22
ATOM     22  C   UNL A   1      33.546  30.346  27.698  1.00  0.00     0.118 C 
BRANCH  22  23
ATOM     23  N   UNL A   1      34.152  31.617  27.294  1.00  0.00    -0.352 N 
ATOM     24  C   UNL A   1      35.400  32.104  27.676  1.00  0.00     0.251 C 
ATOM     25  H   UNL A   1      33.622  32.185  26.690  1.00  0.00     0.163 HD
ATOM     26  O   UNL A   1      35.687  33.277  27.594  1.00  0.00    -0.269 OA
BRANCH  24  27
ATOM     27  C   UNL A   1      36.366  31.113  28.197  1.00  0.00     0.039 A 
ATOM     28  C   UNL A   1      36.540  29.856  27.617  1.00  0.00     0.014 A 
ATOM     29  C   UNL A   1      37.214  31.563  29.195  1.00  0.00     0.014 A 
ATOM     30  C   UNL A   1      37.660  29.105  27.986  1.00  0.00     0.010 A 
ATOM     31  C   UNL A   1      38.426  30.949  29.344  1.00  0.00     0.010 A 
ATOM     32  C   UNL A   1      38.625  29.676  28.830  1.00  0.00    -0.014 A 
BRANCH  32  33
ATOM     33  C   UNL A   1      39.865  28.985  29.179  1.00  0.00     0.031 A 
ATOM     34  C   UNL A   1      40.130  28.764  30.628  1.00  0.00     0.074 A 
ATOM     35  C   UNL A   1      40.672  28.416  28.254  1.00  0.00     0.049 A 
ATOM     36  N   UNL A   1      41.065  29.301  31.339  1.00  0.00    -0.248 NA
ATOM     37  C   UNL A   1      39.216  27.904  31.395  1.00  0.00     0.031 C 
ATOM     38  C   UNL A   1      40.476  28.265  26.804  1.00  0.00     0.029 A 
ATOM     39  N   UNL A   1      41.833  27.742  28.459  1.00  0.00    -0.354 N 
ATOM     40  C   UNL A   1      40.965  28.747  32.611  1.00  0.00     0.074 A 
ATOM     41  C   UNL A   1      39.742  27.981  32.622  1.00  0.00     0.031 C 
ATOM     42  C   UNL A   1      41.330  27.339  26.317  1.00  0.00     0.029 A 
ATOM     43  C   UNL A   1      42.274  27.015  27.363  1.00  0.00     0.049 A 
ATOM     44  H   UNL A   1      42.321  27.767  29.313  1.00  0.00     0.167 HD
ATOM     45  C   UNL A   1      41.989  28.814  33.508  1.00  0.00     0.031 A 
ATOM     46  C   UNL A   1      43.361  26.212  27.310  1.00  0.00     0.031 A 
ATOM     47  C   UNL A   1      43.001  29.752  33.102  1.00  0.00     0.049 A 
ATOM     48  C   UNL A   1      44.266  26.641  28.396  1.00  0.00     0.074 A 
ATOM     49  C   UNL A   1      43.036  31.116  32.890  1.00  0.00     0.029 A 
ATOM     50  N   UNL A   1      44.108  29.248  32.463  1.00  0.00    -0.354 N 
ATOM     51  N   UNL A   1      44.864  27.797  28.413  1.00  0.00    -0.248 NA
ATOM     52  C   UNL A   1      44.173  25.965  29.678  1.00  0.00     0.031 C 
ATOM     53  C   UNL A   1      43.860  31.285  31.736  1.00  0.00     0.029 A 
ATOM     54  C   UNL A   1      44.327  30.025  31.354  1.00  0.00     0.049 A 
ATOM     55  H   UNL A   1      44.644  28.472  32.748  1.00  0.00     0.167 HD
ATOM     56  C   UNL A   1      44.829  28.193  29.741  1.00  0.00     0.074 A 
ATOM     57  C   UNL A   1      44.500  26.978  30.485  1.00  0.00     0.031 C 
ATOM     58  C   UNL A   1      44.796  29.515  30.084  1.00  0.00     0.031 A 
BRANCH  45  59
ATOM     59  C   UNL A   1      42.242  27.795  34.586  1.00  0.00    -0.014 A 
ATOM     60  C   UNL A   1      42.785  26.545  34.238  1.00  0.00     0.009 A 
ATOM     61  C   UNL A   1      41.726  27.923  35.889  1.00  0.00     0.009 A 
ATOM     62  C   UNL A   1      42.774  25.469  35.136  1.00  0.00     0.001 A 
ATOM     63  C   UNL A   1      41.748  26.863  36.800  1.00  0.00     0.001 A 
ATOM     64  C   UNL A   1      42.252  25.629  36.415  1.00  0.00     0.000 A 
ENDBRANCH  45  59
BRANCH  46  65
ATOM     65  C   UNL A   1      43.540  24.949  26.575  1.00  0.00    -0.014 A 
ATOM     66  C   UNL A   1      42.611  23.909  26.720  1.00  0.00     0.009 A 
ATOM     67  C   UNL A   1      44.447  24.882  25.501  1.00  0.00     0.009 A 
ATOM     68  C   UNL A   1      42.545  22.873  25.783  1.00  0.00     0.001 A 
ATOM     69  C   UNL A   1      44.382  23.845  24.566  1.00  0.00     0.001 A 
ATOM     70  C   UNL A   1      43.415  22.853  24.694  1.00  0.00     0.000 A 
ENDBRANCH  46  65
BRANCH  58  71
ATOM     71  C   UNL A   1      45.005  30.532  28.981  1.00  0.00    -0.014 A 
ATOM     72  C   UNL A   1      46.268  31.065  28.659  1.00  0.00     0.009 A 
ATOM     73  C   UNL A   1      43.924  30.854  28.150  1.00  0.00     0.009 A 
ATOM     74  C   UNL A   1      46.434  31.916  27.560  1.00  0.00     0.001 A 
ATOM     75  C   UNL A   1      44.092  31.688  27.040  1.00  0.00     0.001 A 
ATOM     76  C   UNL A   1      45.345  32.223  26.750  1.00  0.00     0.000 A 
ENDBRANCH  58  71
ENDBRANCH  32  33
ENDBRANCH  24  27
ENDBRANCH  22  23
ENDBRANCH  21  22
ENDBRANCH   1  21
TORSDOF 13
ENDMDL
MODEL 3
REMARK VINA RESULT:     -10.5      3.829      6.085
REMARK SMILES Cc1cc(C)c2c(=O)n(CCCC(=O)NCCCNC(=O)c3ccc(-c4c5nc(c(-c6ccccc6)c6ccc([nH]6)c(-c6ccccc6)c6nc(c(-c7ccccc7)c7ccc4[nH]7)C=C6)C=C5)cc3)sc2n1
REMARK SMILES IDX 16 1 15 2 13 3 14 4 12 6 11 7 10 8 9 9 1 10 2 11 3 12 72 13
REMARK SMILES IDX 4 14 71 15 5 16 6 17 70 18 7 19 8 20 17 21 18 22 19 23 20 24
REMARK SMILES IDX 21 26 22 27 23 28 69 29 24 30 68 31 25 32 26 33 27 34 62 35
REMARK SMILES IDX 28 36 67 37 61 38 63 39 29 40 66 41 60 42 59 43 30 45 52 46
REMARK SMILES IDX 37 47 51 48 38 49 41 50 50 51 64 52 39 53 40 54 49 56 65 57
REMARK SMILES IDX 42 58 31 59 32 60 36 61 33 62 35 63 34 64 53 65 54 66 58 67
REMARK SMILES IDX 55 68 57 69 56 70 43 71 44 72 48 73 45 74 47 75 46 76
REMARK H PARENT 15 5 19 25 63 44 41 55
REMARK Flexibility Score: inf
ROOT
ATOM      1  C   UNL A   1      34.003  30.034  27.306  1.00  0.00     0.117 C 
ENDROOT
BRANCH   1   2
ATOM      2  N   UNL A   1      33.057  29.027  27.762  1.00  0.00    -0.356 N 
ATOM      3  C   UNL A   1      31.890  28.596  27.208  1.00  0.00     0.220 C 
ATOM      4  O   UNL A   1      31.211  27.790  27.847  1.00  0.00    -0.275 OA
ATOM      5  H   UNL A   1      33.300  28.585  28.606  1.00  0.00     0.163 HD
BRANCH   3   6
ATOM      6  C   UNL A   1      31.478  29.029  25.816  1.00  0.00     0.102 C 
BRANCH   6   7
ATOM      7  C   UNL A   1      31.943  28.177  24.630  1.00  0.00     0.033 C 
BRANCH   7   8
ATOM      8  C   UNL A   1      31.546  26.698  24.522  1.00  0.00     0.139 C 
BRANCH   8   9
ATOM      9  N   UNL A   1      32.485  25.634  24.832  1.00  0.00    -0.262 N 
ATOM     10  C   UNL A   1      37.471  22.108  24.922  1.00  0.00     0.067 C 
ATOM     11  C   UNL A   1      36.045  22.570  24.864  1.00  0.00     0.039 A 
ATOM     12  C   UNL A   1      35.037  21.702  24.421  1.00  0.00     0.027 A 
ATOM     13  N   UNL A   1      35.799  23.846  25.243  1.00  0.00    -0.241 NA
ATOM     14  C   UNL A   1      33.715  22.162  24.303  1.00  0.00    -0.033 A 
ATOM     15  C   UNL A   1      34.527  24.257  25.113  1.00  0.00     0.146 A 
ATOM     16  C   UNL A   1      32.612  21.230  23.909  1.00  0.00     0.045 C 
ATOM     17  C   UNL A   1      33.492  23.501  24.596  1.00  0.00     0.081 A 
ATOM     18  S   UNL A   1      33.974  25.858  25.636  1.00  0.00    -0.035 S 
ATOM     19  C   UNL A   1      32.282  24.327  24.379  1.00  0.00     0.270 A 
ATOM     20  O   UNL A   1      31.295  23.916  23.788  1.00  0.00    -0.268 OA
ENDBRANCH   8   9
ENDBRANCH   7   8
ENDBRANCH   6   7
ENDBRANCH   3   6
ENDBRANCH   1   2
BRANCH   1  21
ATOM     21  C   UNL A   1      33.532  31.449  27.661  1.00  0.00     0.042 C 
BRANCH  21  22
ATOM     22  C   UNL A   1      34.661  32.367  28.072  1.00  0.00     0.118 C 
BRANCH  22  23
ATOM     23  N   UNL A   1      34.632  32.757  29.483  1.00  0.00    -0.352 N 
ATOM     24  C   UNL A   1      35.359  32.178  30.522  1.00  0.00     0.251 C 
ATOM     25  H   UNL A   1      34.039  33.504  29.723  1.00  0.00     0.163 HD
ATOM     26  O   UNL A   1      35.040  32.308  31.682  1.00  0.00    -0.269 OA
BRANCH  24  27
ATOM     27  C   UNL A   1      36.546  31.386  30.138  1.00  0.00     0.039 A 
ATOM     28  C   UNL A   1      37.793  31.966  29.902  1.00  0.00     0.014 A 
ATOM     29  C   UNL A   1      36.397  30.010  30.189  1.00  0.00     0.014 A 
ATOM     30  C   UNL A   1      38.911  31.130  29.830  1.00  0.00     0.010 A 
ATOM     31  C   UNL A   1      37.510  29.241  30.384  1.00  0.00     0.010 A 
ATOM     32  C   UNL A   1      38.767  29.761  30.108  1.00  0.00    -0.014 A 
BRANCH  32  33
ATOM     33  C   UNL A   1      39.907  28.847  30.145  1.00  0.00     0.031 A 
ATOM     34  C   UNL A   1      40.507  28.569  31.479  1.00  0.00     0.074 A 
ATOM     35  C   UNL A   1      40.318  28.144  29.064  1.00  0.00     0.049 A 
ATOM     36  N   UNL A   1      41.680  28.916  31.893  1.00  0.00    -0.248 NA
ATOM     37  C   UNL A   1      39.692  27.890  32.498  1.00  0.00     0.031 C 
ATOM     38  C   UNL A   1      39.714  28.044  27.726  1.00  0.00     0.029 A 
ATOM     39  N   UNL A   1      41.347  27.262  28.982  1.00  0.00    -0.354 N 
ATOM     40  C   UNL A   1      41.827  28.379  33.168  1.00  0.00     0.074 A 
ATOM     41  C   UNL A   1      40.533  27.857  33.536  1.00  0.00     0.031 C 
ATOM     42  C   UNL A   1      40.222  26.978  27.070  1.00  0.00     0.029 A 
ATOM     43  C   UNL A   1      41.337  26.474  27.841  1.00  0.00     0.049 A 
ATOM     44  H   UNL A   1      42.043  27.189  29.674  1.00  0.00     0.167 HD
ATOM     45  C   UNL A   1      43.048  28.247  33.758  1.00  0.00     0.031 A 
ATOM     46  C   UNL A   1      42.203  25.482  27.535  1.00  0.00     0.031 A 
ATOM     47  C   UNL A   1      44.068  28.981  33.058  1.00  0.00     0.049 A 
ATOM     48  C   UNL A   1      43.430  25.725  28.323  1.00  0.00     0.074 A 
ATOM     49  C   UNL A   1      44.294  30.316  32.785  1.00  0.00     0.029 A 
ATOM     50  N   UNL A   1      44.851  28.283  32.170  1.00  0.00    -0.354 N 
ATOM     51  N   UNL A   1      44.211  26.748  28.130  1.00  0.00    -0.248 NA
ATOM     52  C   UNL A   1      43.563  25.069  29.611  1.00  0.00     0.031 C 
ATOM     53  C   UNL A   1      44.793  30.336  31.448  1.00  0.00     0.029 A 
ATOM     54  C   UNL A   1      44.902  29.014  31.010  1.00  0.00     0.049 A 
ATOM     55  H   UNL A   1      45.292  27.419  32.335  1.00  0.00     0.167 HD
ATOM     56  C   UNL A   1      44.607  27.133  29.402  1.00  0.00     0.074 A 
ATOM     57  C   UNL A   1      44.274  25.996  30.258  1.00  0.00     0.031 C 
ATOM     58  C   UNL A   1      44.910  28.435  29.684  1.00  0.00     0.031 A 
BRANCH  45  59
ATOM     59  C   UNL A   1      43.391  27.189  34.773  1.00  0.00    -0.014 A 
ATOM     60  C   UNL A   1      43.531  25.853  34.354  1.00  0.00     0.009 A 
ATOM     61  C   UNL A   1      43.326  27.418  36.159  1.00  0.00     0.009 A 
ATOM     62  C   UNL A   1      43.562  24.800  35.278  1.00  0.00     0.001 A 
ATOM     63  C   UNL A   1      43.395  26.372  37.085  1.00  0.00     0.001 A 
ATOM     64  C   UNL A   1      43.490  25.061  36.642  1.00  0.00     0.000 A 
ENDBRANCH  45  59
BRANCH  46  65
ATOM     65  C   UNL A   1      41.945  24.214  26.834  1.00  0.00    -0.014 A 
ATOM     66  C   UNL A   1      42.884  23.704  25.926  1.00  0.00     0.009 A 
ATOM     67  C   UNL A   1      40.927  23.354  27.287  1.00  0.00     0.009 A 
ATOM     68  C   UNL A   1      42.847  22.361  25.537  1.00  0.00     0.001 A 
ATOM     69  C   UNL A   1      40.890  22.013  26.897  1.00  0.00     0.001 A 
ATOM     70  C   UNL A   1      41.864  21.511  26.040  1.00  0.00     0.000 A 
ENDBRANCH  46  65
BRANCH  58  71
ATOM     71  C   UNL A   1      44.998  29.403  28.523  1.00  0.00    -0.014 A 
ATOM     72  C   UNL A   1      43.876  30.068  27.992  1.00  0.00     0.009 A 
ATOM     73  C   UNL A   1      46.264  29.765  28.043  1.00  0.00     0.009 A 
ATOM     74  C   UNL A   1      44.016  31.039  26.994  1.00  0.00     0.001 A 
ATOM     75  C   UNL A   1      46.407  30.749  27.061  1.00  0.00     0.001 A 
ATOM     76  C   UNL A   1      45.284  31.381  26.532  1.00  0.00     0.000 A 
ENDBRANCH  58  71
ENDBRANCH  32  33
ENDBRANCH  24  27
ENDBRANCH  22  23
ENDBRANCH  21  22
ENDBRANCH   1  21
TORSDOF 13
ENDMDL
