MODEL 1
REMARK VINA RESULT:     -12.3      0.000      0.000
REMARK SMILES COc1cccc(N2/C(=[NH+]/C(=O)CCC(=O)NCCCNC(=O)c3ccc(-c4c5nc(c(-c6ccccc6)c6ccc([nH]6)c(-c6ccccc6)c6nc(c(-c7ccccc7)c7ccc4[nH]7)C=C6)C=C5)cc3)S[C@@H]3CS(=O)(=O)C[C@H]32)c1
REMARK SMILES IDX 18 1 17 2 15 3 16 4 14 6 13 7 11 8 8 9 9 10 79 11 10 12
REMARK SMILES IDX 72 13 73 14 78 15 74 17 75 18 12 19 76 20 77 21 7 22 3 23
REMARK SMILES IDX 4 24 80 25 5 26 6 27 2 28 1 29 19 30 20 31 21 32 22 33 23 35
REMARK SMILES IDX 24 36 25 37 71 38 26 39 70 40 27 41 28 42 29 43 64 44 30 45
REMARK SMILES IDX 69 46 63 47 65 48 31 49 68 50 62 51 61 52 32 54 54 55 39 56
REMARK SMILES IDX 53 57 40 58 43 59 52 60 66 61 41 62 42 63 51 65 67 66 44 67
REMARK SMILES IDX 33 68 34 69 38 70 35 71 37 72 36 73 55 74 56 75 60 76 57 77
REMARK SMILES IDX 59 78 58 79 45 80 46 81 50 82 47 83 49 84 48 85
REMARK H PARENT 17 5 10 16 21 34 65 53 43 64
REMARK Flexibility Score: inf
ROOT
ATOM      1  C   UNL A   1      32.123  27.999  24.789  1.00  0.00     0.117 C 
ENDROOT
BRANCH   1   2
ATOM      2  N   UNL A   1      31.020  27.214  25.346  1.00  0.00    -0.356 N 
ATOM      3  C   UNL A   1      30.938  26.009  25.983  1.00  0.00     0.220 C 
ATOM      4  O   UNL A   1      29.857  25.716  26.502  1.00  0.00    -0.275 OA
ATOM      5  H   UNL A   1      30.143  27.650  25.237  1.00  0.00     0.163 HD
BRANCH   3   6
ATOM      6  C   UNL A   1      32.098  25.044  26.064  1.00  0.00     0.112 C 
BRANCH   6   7
ATOM      7  C   UNL A   1      31.732  23.858  26.956  1.00  0.00     0.138 C 
BRANCH   7   8
ATOM      8  C   UNL A   1      31.861  22.638  26.103  1.00  0.00     0.308 C 
ATOM      9  N   UNL A   1      34.648  20.784  24.722  1.00  0.00    -0.216 N 
ATOM     10  C   UNL A   1      33.407  21.437  24.872  1.00  0.00     0.319 C 
ATOM     11  C   UNL A   1      34.282  19.328  24.781  1.00  0.00     0.212 C 
ATOM     12  N   UNL A   1      33.153  22.362  25.735  1.00  0.00    -0.204 N 
ATOM     13  S   UNL A   1      32.164  20.613  23.885  1.00  0.00    -0.029 SA
ATOM     14  C   UNL A   1      33.154  19.145  23.740  1.00  0.00     0.120 C 
ATOM     15  C   UNL A   1      35.106  18.137  24.428  1.00  0.00     0.188 C 
ATOM     16  H   UNL A   1      33.893  22.873  26.135  1.00  0.00     0.316 HD
ATOM     17  C   UNL A   1      32.510  17.807  24.060  1.00  0.00     0.156 C 
ATOM     18  S   UNL A   1      33.949  16.777  24.222  1.00  0.00     0.155 S 
ATOM     19  O   UNL A   1      30.893  21.882  26.013  1.00  0.00    -0.247 OA
ATOM     20  O   UNL A   1      34.206  16.126  22.950  1.00  0.00    -0.229 OA
ATOM     21  O   UNL A   1      33.868  16.036  25.457  1.00  0.00    -0.229 OA
BRANCH   9  22
ATOM     22  C   UNL A   1      35.813  21.530  24.992  1.00  0.00     0.132 A 
ATOM     23  C   UNL A   1      38.186  21.863  25.770  1.00  0.00     0.123 A 
ATOM     24  C   UNL A   1      38.002  23.220  25.889  1.00  0.00     0.047 A 
ATOM     25  C   UNL A   1      37.126  21.077  25.270  1.00  0.00     0.098 A 
ATOM     26  C   UNL A   1      36.755  23.749  25.569  1.00  0.00     0.008 A 
ATOM     27  C   UNL A   1      35.682  22.918  25.164  1.00  0.00     0.052 A 
BRANCH  23  28
ATOM     28  O   UNL A   1      39.459  21.389  25.964  1.00  0.00    -0.497 OA
ATOM     29  C   UNL A   1      40.299  22.153  26.833  1.00  0.00     0.278 C 
ENDBRANCH  23  28
ENDBRANCH   9  22
ENDBRANCH   7   8
ENDBRANCH   6   7
ENDBRANCH   3   6
ENDBRANCH   1   2
BRANCH   1  30
ATOM     30  C   UNL A   1      31.838  29.501  24.463  1.00  0.00     0.042 C 
BRANCH  30  31
ATOM     31  C   UNL A   1      31.379  30.358  25.670  1.00  0.00     0.118 C 
BRANCH  31  32
ATOM     32  N   UNL A   1      32.188  30.468  26.953  1.00  0.00    -0.352 N 
ATOM     33  C   UNL A   1      33.190  31.474  27.225  1.00  0.00     0.251 C 
ATOM     34  H   UNL A   1      32.015  29.801  27.655  1.00  0.00     0.163 HD
ATOM     35  O   UNL A   1      32.858  32.652  27.318  1.00  0.00    -0.269 OA
BRANCH  33  36
ATOM     36  C   UNL A   1      34.657  31.080  27.608  1.00  0.00     0.039 A 
ATOM     37  C   UNL A   1      35.655  32.017  27.944  1.00  0.00     0.014 A 
ATOM     38  C   UNL A   1      35.055  29.748  27.742  1.00  0.00     0.014 A 
ATOM     39  C   UNL A   1      36.892  31.624  28.582  1.00  0.00     0.010 A 
ATOM     40  C   UNL A   1      36.239  29.354  28.441  1.00  0.00     0.010 A 
ATOM     41  C   UNL A   1      37.186  30.283  28.908  1.00  0.00    -0.014 A 
BRANCH  41  42
ATOM     42  C   UNL A   1      38.486  29.828  29.581  1.00  0.00     0.031 A 
ATOM     43  C   UNL A   1      38.754  30.252  31.015  1.00  0.00     0.074 A 
ATOM     44  C   UNL A   1      39.482  29.106  28.997  1.00  0.00     0.049 A 
ATOM     45  N   UNL A   1      39.723  29.897  31.829  1.00  0.00    -0.248 NA
ATOM     46  C   UNL A   1      37.818  31.223  31.595  1.00  0.00     0.031 C 
ATOM     47  C   UNL A   1      39.521  28.662  27.610  1.00  0.00     0.029 A 
ATOM     48  N   UNL A   1      40.682  28.617  29.506  1.00  0.00    -0.354 N 
ATOM     49  C   UNL A   1      39.490  30.576  33.019  1.00  0.00     0.074 A 
ATOM     50  C   UNL A   1      38.349  31.435  32.787  1.00  0.00     0.031 C 
ATOM     51  C   UNL A   1      40.643  27.952  27.381  1.00  0.00     0.029 A 
ATOM     52  C   UNL A   1      41.434  27.877  28.607  1.00  0.00     0.049 A 
ATOM     53  H   UNL A   1      40.974  28.783  30.430  1.00  0.00     0.167 HD
ATOM     54  C   UNL A   1      40.119  30.483  34.218  1.00  0.00     0.031 A 
ATOM     55  C   UNL A   1      42.599  27.194  28.736  1.00  0.00     0.031 A 
ATOM     56  C   UNL A   1      41.283  29.688  34.496  1.00  0.00     0.049 A 
ATOM     57  C   UNL A   1      43.315  27.131  30.070  1.00  0.00     0.074 A 
ATOM     58  C   UNL A   1      41.938  29.516  35.706  1.00  0.00     0.029 A 
ATOM     59  N   UNL A   1      41.987  28.957  33.557  1.00  0.00    -0.354 N 
ATOM     60  N   UNL A   1      42.974  27.656  31.220  1.00  0.00    -0.248 NA
ATOM     61  C   UNL A   1      44.566  26.349  30.127  1.00  0.00     0.031 C 
ATOM     62  C   UNL A   1      43.076  28.732  35.485  1.00  0.00     0.029 A 
ATOM     63  C   UNL A   1      43.086  28.356  34.153  1.00  0.00     0.049 A 
ATOM     64  H   UNL A   1      41.745  28.875  32.606  1.00  0.00     0.167 HD
ATOM     65  C   UNL A   1      43.935  27.231  32.136  1.00  0.00     0.074 A 
ATOM     66  C   UNL A   1      44.866  26.394  31.417  1.00  0.00     0.031 C 
ATOM     67  C   UNL A   1      44.025  27.511  33.459  1.00  0.00     0.031 A 
BRANCH  54  68
ATOM     68  C   UNL A   1      39.522  31.283  35.346  1.00  0.00    -0.014 A 
ATOM     69  C   UNL A   1      38.486  30.748  36.131  1.00  0.00     0.009 A 
ATOM     70  C   UNL A   1      39.993  32.573  35.627  1.00  0.00     0.009 A 
ATOM     71  C   UNL A   1      37.891  31.514  37.135  1.00  0.00     0.001 A 
ATOM     72  C   UNL A   1      39.420  33.323  36.656  1.00  0.00     0.001 A 
ATOM     73  C   UNL A   1      38.361  32.800  37.397  1.00  0.00     0.000 A 
ENDBRANCH  54  68
BRANCH  55  74
ATOM     74  C   UNL A   1      43.200  26.445  27.582  1.00  0.00    -0.014 A 
ATOM     75  C   UNL A   1      44.112  27.075  26.713  1.00  0.00     0.009 A 
ATOM     76  C   UNL A   1      42.783  25.141  27.271  1.00  0.00     0.009 A 
ATOM     77  C   UNL A   1      44.557  26.437  25.549  1.00  0.00     0.001 A 
ATOM     78  C   UNL A   1      43.255  24.492  26.123  1.00  0.00     0.001 A 
ATOM     79  C   UNL A   1      44.131  25.144  25.256  1.00  0.00     0.000 A 
ENDBRANCH  55  74
BRANCH  67  80
ATOM     80  C   UNL A   1      45.135  26.868  34.251  1.00  0.00    -0.014 A 
ATOM     81  C   UNL A   1      44.977  25.623  34.883  1.00  0.00     0.009 A 
ATOM     82  C   UNL A   1      46.384  27.507  34.335  1.00  0.00     0.009 A 
ATOM     83  C   UNL A   1      46.027  25.058  35.613  1.00  0.00     0.001 A 
ATOM     84  C   UNL A   1      47.442  26.924  35.037  1.00  0.00     0.001 A 
ATOM     85  C   UNL A   1      47.259  25.705  35.686  1.00  0.00     0.000 A 
ENDBRANCH  67  80
ENDBRANCH  41  42
ENDBRANCH  33  36
ENDBRANCH  31  32
ENDBRANCH  30  31
ENDBRANCH   1  30
TORSDOF 14
ENDMDL
MODEL 2
REMARK VINA RESULT:     -11.7      5.770     12.220
REMARK SMILES COc1cccc(N2/C(=[NH+]/C(=O)CCC(=O)NCCCNC(=O)c3ccc(-c4c5nc(c(-c6ccccc6)c6ccc([nH]6)c(-c6ccccc6)c6nc(c(-c7ccccc7)c7ccc4[nH]7)C=C6)C=C5)cc3)S[C@@H]3CS(=O)(=O)C[C@H]32)c1
REMARK SMILES IDX 18 1 17 2 15 3 16 4 14 6 13 7 11 8 8 9 9 10 79 11 10 12
REMARK SMILES IDX 72 13 73 14 78 15 74 17 75 18 12 19 76 20 77 21 7 22 3 23
REMARK SMILES IDX 4 24 80 25 5 26 6 27 2 28 1 29 19 30 20 31 21 32 22 33 23 35
REMARK SMILES IDX 24 36 25 37 71 38 26 39 70 40 27 41 28 42 29 43 64 44 30 45
REMARK SMILES IDX 69 46 63 47 65 48 31 49 68 50 62 51 61 52 32 54 54 55 39 56
REMARK SMILES IDX 53 57 40 58 43 59 52 60 66 61 41 62 42 63 51 65 67 66 44 67
REMARK SMILES IDX 33 68 34 69 38 70 35 71 37 72 36 73 55 74 56 75 60 76 57 77
REMARK SMILES IDX 59 78 58 79 45 80 46 81 50 82 47 83 49 84 48 85
REMARK H PARENT 17 5 10 16 21 34 65 53 43 64
REMARK Flexibility Score: inf
ROOT
ATOM      1  C   UNL A   1      46.094  22.228  34.837  1.00  0.00     0.117 C 
ENDROOT
BRANCH   1   2
ATOM      2  N   UNL A   1      44.674  22.585  34.828  1.00  0.00    -0.356 N 
ATOM      3  C   UNL A   1      43.809  23.015  33.864  1.00  0.00     0.220 C 
ATOM      4  O   UNL A   1      42.609  23.045  34.153  1.00  0.00    -0.275 OA
ATOM      5  H   UNL A   1      44.249  22.495  35.712  1.00  0.00     0.163 HD
BRANCH   3   6
ATOM      6  C   UNL A   1      44.263  23.452  32.491  1.00  0.00     0.112 C 
BRANCH   6   7
ATOM      7  C   UNL A   1      44.516  24.960  32.477  1.00  0.00     0.138 C 
BRANCH   7   8
ATOM      8  C   UNL A   1      45.236  25.252  31.200  1.00  0.00     0.308 C 
ATOM      9  N   UNL A   1      44.755  24.311  27.737  1.00  0.00    -0.216 N 
ATOM     10  C   UNL A   1      45.346  24.596  28.985  1.00  0.00     0.319 C 
ATOM     11  C   UNL A   1      45.122  25.505  26.901  1.00  0.00     0.212 C 
ATOM     12  N   UNL A   1      44.733  24.572  30.121  1.00  0.00    -0.204 N 
ATOM     13  S   UNL A   1      46.989  25.260  28.742  1.00  0.00    -0.029 SA
ATOM     14  C   UNL A   1      46.654  25.652  27.042  1.00  0.00     0.120 C 
ATOM     15  C   UNL A   1      45.017  25.687  25.425  1.00  0.00     0.188 C 
ATOM     16  H   UNL A   1      43.896  24.062  30.213  1.00  0.00     0.316 HD
ATOM     17  C   UNL A   1      46.982  27.050  26.548  1.00  0.00     0.156 C 
ATOM     18  S   UNL A   1      46.074  27.082  25.020  1.00  0.00     0.155 S 
ATOM     19  O   UNL A   1      46.011  26.209  31.172  1.00  0.00    -0.247 OA
ATOM     20  O   UNL A   1      46.964  26.703  23.937  1.00  0.00    -0.229 OA
ATOM     21  O   UNL A   1      45.273  28.281  24.967  1.00  0.00    -0.229 OA
BRANCH   9  22
ATOM     22  C   UNL A   1      43.719  23.356  27.709  1.00  0.00     0.132 A 
ATOM     23  C   UNL A   1      42.434  21.403  26.770  1.00  0.00     0.123 A 
ATOM     24  C   UNL A   1      41.330  21.710  27.530  1.00  0.00     0.047 A 
ATOM     25  C   UNL A   1      43.601  22.181  26.927  1.00  0.00     0.098 A 
ATOM     26  C   UNL A   1      41.394  22.814  28.375  1.00  0.00     0.008 A 
ATOM     27  C   UNL A   1      42.549  23.633  28.434  1.00  0.00     0.052 A 
BRANCH  23  28
ATOM     28  O   UNL A   1      42.389  20.237  26.050  1.00  0.00    -0.497 OA
ATOM     29  C   UNL A   1      43.609  19.823  25.428  1.00  0.00     0.278 C 
ENDBRANCH  23  28
ENDBRANCH   9  22
ENDBRANCH   7   8
ENDBRANCH   6   7
ENDBRANCH   3   6
ENDBRANCH   1   2
BRANCH   1  30
ATOM     30  C   UNL A   1      46.842  22.306  36.207  1.00  0.00     0.042 C 
BRANCH  30  31
ATOM     31  C   UNL A   1      47.880  23.451  36.323  1.00  0.00     0.118 C 
BRANCH  31  32
ATOM     32  N   UNL A   1      47.518  24.911  36.107  1.00  0.00    -0.352 N 
ATOM     33  C   UNL A   1      46.385  25.589  36.696  1.00  0.00     0.251 C 
ATOM     34  H   UNL A   1      48.103  25.440  35.517  1.00  0.00     0.163 HD
ATOM     35  O   UNL A   1      46.337  25.743  37.913  1.00  0.00    -0.269 OA
BRANCH  33  36
ATOM     36  C   UNL A   1      45.315  26.310  35.809  1.00  0.00     0.039 A 
ATOM     37  C   UNL A   1      43.931  26.061  35.898  1.00  0.00     0.014 A 
ATOM     38  C   UNL A   1      45.655  27.339  34.928  1.00  0.00     0.014 A 
ATOM     39  C   UNL A   1      42.953  26.943  35.300  1.00  0.00     0.010 A 
ATOM     40  C   UNL A   1      44.698  28.261  34.398  1.00  0.00     0.010 A 
ATOM     41  C   UNL A   1      43.314  28.106  34.589  1.00  0.00    -0.014 A 
BRANCH  41  42
ATOM     42  C   UNL A   1      42.308  29.064  33.940  1.00  0.00     0.031 A 
ATOM     43  C   UNL A   1      41.833  28.778  32.525  1.00  0.00     0.074 A 
ATOM     44  C   UNL A   1      41.819  30.209  34.492  1.00  0.00     0.049 A 
ATOM     45  N   UNL A   1      40.904  29.376  31.814  1.00  0.00    -0.248 NA
ATOM     46  C   UNL A   1      42.517  27.689  31.815  1.00  0.00     0.031 C 
ATOM     47  C   UNL A   1      42.186  30.762  35.788  1.00  0.00     0.029 A 
ATOM     48  N   UNL A   1      40.894  31.135  34.018  1.00  0.00    -0.354 N 
ATOM     49  C   UNL A   1      40.875  28.714  30.592  1.00  0.00     0.074 A 
ATOM     50  C   UNL A   1      41.943  27.738  30.625  1.00  0.00     0.031 C 
ATOM     51  C   UNL A   1      41.490  31.892  36.025  1.00  0.00     0.029 A 
ATOM     52  C   UNL A   1      40.608  32.170  34.894  1.00  0.00     0.049 A 
ATOM     53  H   UNL A   1      40.475  31.061  33.131  1.00  0.00     0.167 HD
ATOM     54  C   UNL A   1      40.027  28.852  29.542  1.00  0.00     0.031 A 
ATOM     55  C   UNL A   1      39.735  33.206  34.831  1.00  0.00     0.031 A 
ATOM     56  C   UNL A   1      38.982  29.831  29.429  1.00  0.00     0.049 A 
ATOM     57  C   UNL A   1      38.820  33.374  33.634  1.00  0.00     0.074 A 
ATOM     58  C   UNL A   1      38.058  29.990  28.408  1.00  0.00     0.029 A 
ATOM     59  N   UNL A   1      38.736  30.838  30.346  1.00  0.00    -0.354 N 
ATOM     60  N   UNL A   1      38.709  32.628  32.564  1.00  0.00    -0.248 NA
ATOM     61  C   UNL A   1      37.886  34.517  33.656  1.00  0.00     0.031 C 
ATOM     62  C   UNL A   1      37.294  31.131  28.676  1.00  0.00     0.029 A 
ATOM     63  C   UNL A   1      37.694  31.637  29.901  1.00  0.00     0.049 A 
ATOM     64  H   UNL A   1      39.227  30.967  31.189  1.00  0.00     0.167 HD
ATOM     65  C   UNL A   1      37.670  33.180  31.818  1.00  0.00     0.074 A 
ATOM     66  C   UNL A   1      37.171  34.315  32.558  1.00  0.00     0.031 C 
ATOM     67  C   UNL A   1      37.174  32.770  30.624  1.00  0.00     0.031 A 
BRANCH  54  68
ATOM     68  C   UNL A   1      40.206  27.875  28.409  1.00  0.00    -0.014 A 
ATOM     69  C   UNL A   1      39.504  26.657  28.397  1.00  0.00     0.009 A 
ATOM     70  C   UNL A   1      41.077  28.169  27.351  1.00  0.00     0.009 A 
ATOM     71  C   UNL A   1      39.718  25.726  27.381  1.00  0.00     0.001 A 
ATOM     72  C   UNL A   1      41.262  27.250  26.316  1.00  0.00     0.001 A 
ATOM     73  C   UNL A   1      40.596  26.026  26.339  1.00  0.00     0.000 A 
ENDBRANCH  54  68
BRANCH  55  74
ATOM     74  C   UNL A   1      39.610  34.196  35.952  1.00  0.00    -0.014 A 
ATOM     75  C   UNL A   1      40.335  35.403  35.929  1.00  0.00     0.009 A 
ATOM     76  C   UNL A   1      38.862  33.895  37.102  1.00  0.00     0.009 A 
ATOM     77  C   UNL A   1      40.346  36.258  37.038  1.00  0.00     0.001 A 
ATOM     78  C   UNL A   1      38.849  34.768  38.197  1.00  0.00     0.001 A 
ATOM     79  C   UNL A   1      39.601  35.942  38.170  1.00  0.00     0.000 A 
ENDBRANCH  55  74
BRANCH  67  80
ATOM     80  C   UNL A   1      35.991  33.508  30.051  1.00  0.00    -0.014 A 
ATOM     81  C   UNL A   1      34.778  33.630  30.748  1.00  0.00     0.009 A 
ATOM     82  C   UNL A   1      36.106  34.130  28.795  1.00  0.00     0.009 A 
ATOM     83  C   UNL A   1      33.699  34.318  30.185  1.00  0.00     0.001 A 
ATOM     84  C   UNL A   1      35.038  34.846  28.249  1.00  0.00     0.001 A 
ATOM     85  C   UNL A   1      33.830  34.929  28.939  1.00  0.00     0.000 A 
ENDBRANCH  67  80
ENDBRANCH  41  42
ENDBRANCH  33  36
ENDBRANCH  31  32
ENDBRANCH  30  31
ENDBRANCH   1  30
TORSDOF 14
ENDMDL
MODEL 3
REMARK VINA RESULT:     -11.5      3.167      8.596
REMARK SMILES COc1cccc(N2/C(=[NH+]/C(=O)CCC(=O)NCCCNC(=O)c3ccc(-c4c5nc(c(-c6ccccc6)c6ccc([nH]6)c(-c6ccccc6)c6nc(c(-c7ccccc7)c7ccc4[nH]7)C=C6)C=C5)cc3)S[C@@H]3CS(=O)(=O)C[C@H]32)c1
REMARK SMILES IDX 18 1 17 2 15 3 16 4 14 6 13 7 11 8 8 9 9 10 79 11 10 12
REMARK SMILES IDX 72 13 73 14 78 15 74 17 75 18 12 19 76 20 77 21 7 22 3 23
REMARK SMILES IDX 4 24 80 25 5 26 6 27 2 28 1 29 19 30 20 31 21 32 22 33 23 35
REMARK SMILES IDX 24 36 25 37 71 38 26 39 70 40 27 41 28 42 29 43 64 44 30 45
REMARK SMILES IDX 69 46 63 47 65 48 31 49 68 50 62 51 61 52 32 54 54 55 39 56
REMARK SMILES IDX 53 57 40 58 43 59 52 60 66 61 41 62 42 63 51 65 67 66 44 67
REMARK SMILES IDX 33 68 34 69 38 70 35 71 37 72 36 73 55 74 56 75 60 76 57 77
REMARK SMILES IDX 59 78 58 79 45 80 46 81 50 82 47 83 49 84 48 85
REMARK H PARENT 17 5 10 16 21 34 65 53 43 64
REMARK Flexibility Score: inf
ROOT
ATOM      1  C   UNL A   1      36.256  23.394  24.171  1.00  0.00     0.117 C 
ENDROOT
BRANCH   1   2
ATOM      2  N   UNL A   1      34.827  23.384  24.491  1.00  0.00    -0.356 N 
ATOM      3  C   UNL A   1      33.774  24.188  24.162  1.00  0.00     0.220 C 
ATOM      4  O   UNL A   1      32.643  23.784  24.448  1.00  0.00    -0.275 OA
ATOM      5  H   UNL A   1      34.568  22.631  25.071  1.00  0.00     0.163 HD
BRANCH   3   6
ATOM      6  C   UNL A   1      33.946  25.526  23.482  1.00  0.00     0.112 C 
BRANCH   6   7
ATOM      7  C   UNL A   1      33.290  25.500  22.101  1.00  0.00     0.138 C 
BRANCH   7   8
ATOM      8  C   UNL A   1      32.034  26.302  22.219  1.00  0.00     0.308 C 
ATOM      9  N   UNL A   1      30.870  28.886  24.473  1.00  0.00    -0.216 N 
ATOM     10  C   UNL A   1      30.926  27.742  23.649  1.00  0.00     0.319 C 
ATOM     11  C   UNL A   1      30.080  29.865  23.651  1.00  0.00     0.212 C 
ATOM     12  N   UNL A   1      32.004  27.112  23.325  1.00  0.00    -0.204 N 
ATOM     13  S   UNL A   1      29.328  27.456  22.899  1.00  0.00    -0.029 SA
ATOM     14  C   UNL A   1      28.793  29.114  23.241  1.00  0.00     0.120 C 
ATOM     15  C   UNL A   1      29.461  31.157  24.065  1.00  0.00     0.188 C 
ATOM     16  H   UNL A   1      32.813  27.214  23.877  1.00  0.00     0.316 HD
ATOM     17  C   UNL A   1      28.187  29.924  22.107  1.00  0.00     0.156 C 
ATOM     18  S   UNL A   1      28.258  31.562  22.794  1.00  0.00     0.155 S 
ATOM     19  O   UNL A   1      31.283  26.359  21.245  1.00  0.00    -0.247 OA
ATOM     20  O   UNL A   1      26.985  31.861  23.426  1.00  0.00    -0.229 OA
ATOM     21  O   UNL A   1      28.864  32.454  21.837  1.00  0.00    -0.229 OA
BRANCH   9  22
ATOM     22  C   UNL A   1      31.823  28.993  25.505  1.00  0.00     0.132 A 
ATOM     23  C   UNL A   1      33.503  30.191  26.951  1.00  0.00     0.123 A 
ATOM     24  C   UNL A   1      34.054  29.002  27.369  1.00  0.00     0.047 A 
ATOM     25  C   UNL A   1      32.380  30.153  26.098  1.00  0.00     0.098 A 
ATOM     26  C   UNL A   1      33.516  27.815  26.880  1.00  0.00     0.008 A 
ATOM     27  C   UNL A   1      32.451  27.816  25.946  1.00  0.00     0.052 A 
BRANCH  23  28
ATOM     28  O   UNL A   1      33.965  31.335  27.550  1.00  0.00    -0.497 OA
ATOM     29  C   UNL A   1      35.386  31.484  27.631  1.00  0.00     0.278 C 
ENDBRANCH  23  28
ENDBRANCH   9  22
ENDBRANCH   7   8
ENDBRANCH   6   7
ENDBRANCH   3   6
ENDBRANCH   1   2
BRANCH   1  30
ATOM     30  C   UNL A   1      37.113  22.192  24.684  1.00  0.00     0.042 C 
BRANCH  30  31
ATOM     31  C   UNL A   1      38.217  22.564  25.706  1.00  0.00     0.118 C 
BRANCH  31  32
ATOM     32  N   UNL A   1      38.879  23.932  25.737  1.00  0.00    -0.352 N 
ATOM     33  C   UNL A   1      39.969  24.315  26.606  1.00  0.00     0.251 C 
ATOM     34  H   UNL A   1      38.539  24.613  25.113  1.00  0.00     0.163 HD
ATOM     35  O   UNL A   1      41.063  23.774  26.481  1.00  0.00    -0.269 OA
BRANCH  33  36
ATOM     36  C   UNL A   1      39.850  25.545  27.569  1.00  0.00     0.039 A 
ATOM     37  C   UNL A   1      38.955  25.601  28.657  1.00  0.00     0.014 A 
ATOM     38  C   UNL A   1      40.705  26.646  27.474  1.00  0.00     0.014 A 
ATOM     39  C   UNL A   1      39.076  26.599  29.697  1.00  0.00     0.010 A 
ATOM     40  C   UNL A   1      40.883  27.588  28.535  1.00  0.00     0.010 A 
ATOM     41  C   UNL A   1      40.089  27.579  29.695  1.00  0.00    -0.014 A 
BRANCH  41  42
ATOM     42  C   UNL A   1      40.248  28.653  30.778  1.00  0.00     0.031 A 
ATOM     43  C   UNL A   1      39.339  29.870  30.741  1.00  0.00     0.074 A 
ATOM     44  C   UNL A   1      41.181  28.660  31.770  1.00  0.00     0.049 A 
ATOM     45  N   UNL A   1      39.209  30.848  31.609  1.00  0.00    -0.248 NA
ATOM     46  C   UNL A   1      38.486  30.011  29.554  1.00  0.00     0.031 C 
ATOM     47  C   UNL A   1      42.229  27.669  31.971  1.00  0.00     0.029 A 
ATOM     48  N   UNL A   1      41.406  29.554  32.814  1.00  0.00    -0.354 N 
ATOM     49  C   UNL A   1      38.239  31.695  31.085  1.00  0.00     0.074 A 
ATOM     50  C   UNL A   1      37.890  31.169  29.784  1.00  0.00     0.031 C 
ATOM     51  C   UNL A   1      42.957  27.977  33.062  1.00  0.00     0.029 A 
ATOM     52  C   UNL A   1      42.440  29.202  33.666  1.00  0.00     0.049 A 
ATOM     53  H   UNL A   1      40.872  30.372  32.937  1.00  0.00     0.167 HD
ATOM     54  C   UNL A   1      37.645  32.788  31.629  1.00  0.00     0.031 A 
ATOM     55  C   UNL A   1      42.914  29.762  34.807  1.00  0.00     0.031 A 
ATOM     56  C   UNL A   1      37.981  33.386  32.891  1.00  0.00     0.049 A 
ATOM     57  C   UNL A   1      42.268  31.006  35.384  1.00  0.00     0.074 A 
ATOM     58  C   UNL A   1      37.382  34.468  33.518  1.00  0.00     0.029 A 
ATOM     59  N   UNL A   1      39.022  32.982  33.708  1.00  0.00    -0.354 N 
ATOM     60  N   UNL A   1      41.243  31.689  34.943  1.00  0.00    -0.248 NA
ATOM     61  C   UNL A   1      42.834  31.538  36.640  1.00  0.00     0.031 C 
ATOM     62  C   UNL A   1      38.100  34.758  34.683  1.00  0.00     0.029 A 
ATOM     63  C   UNL A   1      39.099  33.810  34.818  1.00  0.00     0.049 A 
ATOM     64  H   UNL A   1      39.619  32.220  33.528  1.00  0.00     0.167 HD
ATOM     65  C   UNL A   1      41.015  32.691  35.884  1.00  0.00     0.074 A 
ATOM     66  C   UNL A   1      41.997  32.524  36.930  1.00  0.00     0.031 C 
ATOM     67  C   UNL A   1      40.065  33.659  35.877  1.00  0.00     0.031 A 
BRANCH  54  68
ATOM     68  C   UNL A   1      36.530  33.407  30.827  1.00  0.00    -0.014 A 
ATOM     69  C   UNL A   1      35.188  33.217  31.204  1.00  0.00     0.009 A 
ATOM     70  C   UNL A   1      36.816  34.180  29.694  1.00  0.00     0.009 A 
ATOM     71  C   UNL A   1      34.155  33.738  30.426  1.00  0.00     0.001 A 
ATOM     72  C   UNL A   1      35.780  34.731  28.937  1.00  0.00     0.001 A 
ATOM     73  C   UNL A   1      34.452  34.496  29.294  1.00  0.00     0.000 A 
ENDBRANCH  54  68
BRANCH  55  74
ATOM     74  C   UNL A   1      44.060  29.153  35.562  1.00  0.00    -0.014 A 
ATOM     75  C   UNL A   1      43.836  28.152  36.525  1.00  0.00     0.009 A 
ATOM     76  C   UNL A   1      45.367  29.645  35.410  1.00  0.00     0.009 A 
ATOM     77  C   UNL A   1      44.876  27.691  37.342  1.00  0.00     0.001 A 
ATOM     78  C   UNL A   1      46.412  29.159  36.206  1.00  0.00     0.001 A 
ATOM     79  C   UNL A   1      46.165  28.192  37.180  1.00  0.00     0.000 A 
ENDBRANCH  55  74
BRANCH  67  80
ATOM     80  C   UNL A   1      39.988  34.591  37.059  1.00  0.00    -0.014 A 
ATOM     81  C   UNL A   1      40.605  35.853  37.057  1.00  0.00     0.009 A 
ATOM     82  C   UNL A   1      39.245  34.212  38.191  1.00  0.00     0.009 A 
ATOM     83  C   UNL A   1      40.517  36.691  38.173  1.00  0.00     0.001 A 
ATOM     84  C   UNL A   1      39.130  35.065  39.292  1.00  0.00     0.001 A 
ATOM     85  C   UNL A   1      39.776  36.299  39.287  1.00  0.00     0.000 A 
ENDBRANCH  67  80
ENDBRANCH  41  42
ENDBRANCH  33  36
ENDBRANCH  31  32
ENDBRANCH  30  31
ENDBRANCH   1  30
TORSDOF 14
ENDMDL
