MODEL 1
REMARK VINA RESULT:     -10.8      0.000      0.000
REMARK SMILES C[C@@H](Cc1cccs1)N(C)c1ncc(Br)cc1C(=O)NCCCNC(=O)c1ccc(-c2c3nc(c(-c4ccccc4)c4ccc([nH]4)c(-c4ccccc4)c4nc(c(-c5ccccc5)c5ccc2[nH]5)C=C4)C=C3)cc1
REMARK SMILES IDX 21 1 20 2 18 3 19 4 17 6 11 7 12 8 13 9 16 10 14 11 15 12
REMARK SMILES IDX 9 13 10 14 2 15 1 16 3 17 4 18 5 19 8 20 6 21 7 22 22 23
REMARK SMILES IDX 23 24 24 25 25 26 26 28 27 29 28 30 74 31 29 32 73 33 30 34
REMARK SMILES IDX 31 35 32 36 67 37 33 38 72 39 66 40 68 41 34 42 71 43 65 44
REMARK SMILES IDX 64 45 35 47 57 48 42 49 56 50 43 51 46 52 55 53 69 54 44 55
REMARK SMILES IDX 45 56 54 58 70 59 47 60 36 61 37 62 41 63 38 64 40 65 39 66
REMARK SMILES IDX 58 67 59 68 63 69 60 70 62 71 61 72 48 73 49 74 53 75 50 76
REMARK SMILES IDX 52 77 51 78
REMARK H PARENT 20 5 24 27 68 46 46 57
REMARK Flexibility Score: inf
ROOT
ATOM      1  C   UNL A   1      34.524  24.221  25.110  1.00  0.00     0.118 C 
ENDROOT
BRANCH   1   2
ATOM      2  N   UNL A   1      33.366  24.374  25.981  1.00  0.00    -0.352 N 
ATOM      3  C   UNL A   1      32.501  25.418  26.249  1.00  0.00     0.255 C 
ATOM      4  O   UNL A   1      31.483  25.139  26.883  1.00  0.00    -0.269 OA
ATOM      5  H   UNL A   1      33.154  23.558  26.490  1.00  0.00     0.163 HD
BRANCH   3   6
ATOM      6  C   UNL A   1      32.745  26.809  25.788  1.00  0.00     0.083 A 
ATOM      7  C   UNL A   1      32.505  27.217  24.458  1.00  0.00     0.141 A 
ATOM      8  N   UNL A   1      32.766  28.495  24.059  1.00  0.00    -0.237 NA
ATOM      9  C   UNL A   1      33.261  29.372  24.959  1.00  0.00     0.129 A 
ATOM     10  C   UNL A   1      33.354  27.721  26.662  1.00  0.00     0.035 A 
ATOM     11  C   UNL A   1      33.578  29.028  26.255  1.00  0.00     0.037 A 
ATOM     12  Br  UNL A   1      34.307  30.293  27.445  1.00  0.00    -0.049 Br
BRANCH   7  13
ATOM     13  N   UNL A   1      32.122  26.358  23.443  1.00  0.00    -0.356 N 
ATOM     14  C   UNL A   1      33.054  26.355  22.320  1.00  0.00     0.145 C 
BRANCH  13  15
ATOM     15  C   UNL A   1      30.714  26.032  23.154  1.00  0.00     0.085 C 
ATOM     16  C   UNL A   1      30.456  24.533  23.280  1.00  0.00     0.031 C 
BRANCH  15  17
ATOM     17  C   UNL A   1      29.635  26.958  23.755  1.00  0.00     0.071 C 
BRANCH  17  18
ATOM     18  C   UNL A   1      29.202  28.214  23.046  1.00  0.00     0.007 A 
ATOM     19  C   UNL A   1      29.997  29.014  22.242  1.00  0.00     0.015 A 
ATOM     20  S   UNL A   1      27.588  28.766  23.028  1.00  0.00    -0.149 S 
ATOM     21  C   UNL A   1      29.302  30.146  21.728  1.00  0.00     0.012 A 
ATOM     22  C   UNL A   1      27.990  30.165  22.136  1.00  0.00     0.065 A 
ENDBRANCH  17  18
ENDBRANCH  15  17
ENDBRANCH  13  15
ENDBRANCH   7  13
ENDBRANCH   3   6
ENDBRANCH   1   2
BRANCH   1  23
ATOM     23  C   UNL A   1      35.804  23.741  25.790  1.00  0.00     0.042 C 
BRANCH  23  24
ATOM     24  C   UNL A   1      37.051  23.689  24.922  1.00  0.00     0.118 C 
BRANCH  24  25
ATOM     25  N   UNL A   1      38.040  22.738  25.404  1.00  0.00    -0.352 N 
ATOM     26  C   UNL A   1      39.176  22.906  26.153  1.00  0.00     0.251 C 
ATOM     27  H   UNL A   1      37.861  21.805  25.147  1.00  0.00     0.163 HD
ATOM     28  O   UNL A   1      39.954  21.956  26.270  1.00  0.00    -0.269 OA
BRANCH  26  29
ATOM     29  C   UNL A   1      39.514  24.194  26.807  1.00  0.00     0.039 A 
ATOM     30  C   UNL A   1      39.034  24.431  28.102  1.00  0.00     0.014 A 
ATOM     31  C   UNL A   1      40.224  25.201  26.150  1.00  0.00     0.014 A 
ATOM     32  C   UNL A   1      39.313  25.639  28.751  1.00  0.00     0.010 A 
ATOM     33  C   UNL A   1      40.574  26.371  26.826  1.00  0.00     0.010 A 
ATOM     34  C   UNL A   1      40.116  26.608  28.131  1.00  0.00    -0.014 A 
BRANCH  34  35
ATOM     35  C   UNL A   1      40.481  27.874  28.825  1.00  0.00     0.031 A 
ATOM     36  C   UNL A   1      41.823  28.021  29.494  1.00  0.00     0.074 A 
ATOM     37  C   UNL A   1      39.579  28.871  28.917  1.00  0.00     0.049 A 
ATOM     38  N   UNL A   1      42.283  29.014  30.215  1.00  0.00    -0.248 NA
ATOM     39  C   UNL A   1      42.759  26.894  29.359  1.00  0.00     0.031 C 
ATOM     40  C   UNL A   1      38.229  28.849  28.351  1.00  0.00     0.029 A 
ATOM     41  N   UNL A   1      39.659  30.095  29.534  1.00  0.00    -0.354 N 
ATOM     42  C   UNL A   1      43.545  28.619  30.642  1.00  0.00     0.074 A 
ATOM     43  C   UNL A   1      43.762  27.281  30.133  1.00  0.00     0.031 C 
ATOM     44  C   UNL A   1      37.615  30.011  28.630  1.00  0.00     0.029 A 
ATOM     45  C   UNL A   1      38.511  30.843  29.426  1.00  0.00     0.049 A 
ATOM     46  H   UNL A   1      40.463  30.408  30.008  1.00  0.00     0.167 HD
ATOM     47  C   UNL A   1      44.449  29.309  31.379  1.00  0.00     0.031 A 
ATOM     48  C   UNL A   1      38.206  32.057  29.921  1.00  0.00     0.031 A 
ATOM     49  C   UNL A   1      44.249  30.647  31.866  1.00  0.00     0.049 A 
ATOM     50  C   UNL A   1      39.228  32.808  30.727  1.00  0.00     0.074 A 
ATOM     51  C   UNL A   1      45.136  31.454  32.558  1.00  0.00     0.029 A 
ATOM     52  N   UNL A   1      43.080  31.376  31.714  1.00  0.00    -0.354 N 
ATOM     53  N   UNL A   1      40.442  32.445  31.063  1.00  0.00    -0.248 NA
ATOM     54  C   UNL A   1      38.840  34.140  31.213  1.00  0.00     0.031 C 
ATOM     55  C   UNL A   1      44.487  32.654  32.866  1.00  0.00     0.029 A 
ATOM     56  C   UNL A   1      43.215  32.614  32.320  1.00  0.00     0.049 A 
ATOM     57  H   UNL A   1      42.275  31.060  31.246  1.00  0.00     0.167 HD
ATOM     58  C   UNL A   1      40.970  33.512  31.778  1.00  0.00     0.074 A 
ATOM     59  C   UNL A   1      39.952  34.541  31.814  1.00  0.00     0.031 C 
ATOM     60  C   UNL A   1      42.193  33.628  32.352  1.00  0.00     0.031 A 
BRANCH  47  61
ATOM     61  C   UNL A   1      45.743  28.617  31.713  1.00  0.00    -0.014 A 
ATOM     62  C   UNL A   1      46.863  28.718  30.874  1.00  0.00     0.009 A 
ATOM     63  C   UNL A   1      45.851  27.879  32.903  1.00  0.00     0.009 A 
ATOM     64  C   UNL A   1      48.052  28.061  31.199  1.00  0.00     0.001 A 
ATOM     65  C   UNL A   1      47.050  27.248  33.239  1.00  0.00     0.001 A 
ATOM     66  C   UNL A   1      48.146  27.331  32.382  1.00  0.00     0.000 A 
ENDBRANCH  47  61
BRANCH  48  67
ATOM     67  C   UNL A   1      36.869  32.649  29.655  1.00  0.00    -0.014 A 
ATOM     68  C   UNL A   1      35.846  32.551  30.609  1.00  0.00     0.009 A 
ATOM     69  C   UNL A   1      36.610  33.318  28.448  1.00  0.00     0.009 A 
ATOM     70  C   UNL A   1      34.584  33.093  30.353  1.00  0.00     0.001 A 
ATOM     71  C   UNL A   1      35.356  33.882  28.205  1.00  0.00     0.001 A 
ATOM     72  C   UNL A   1      34.342  33.762  29.153  1.00  0.00     0.000 A 
ENDBRANCH  48  67
BRANCH  60  73
ATOM     73  C   UNL A   1      42.507  34.924  33.043  1.00  0.00    -0.014 A 
ATOM     74  C   UNL A   1      43.210  35.947  32.389  1.00  0.00     0.009 A 
ATOM     75  C   UNL A   1      42.056  35.138  34.355  1.00  0.00     0.009 A 
ATOM     76  C   UNL A   1      43.482  37.148  33.048  1.00  0.00     0.001 A 
ATOM     77  C   UNL A   1      42.306  36.349  35.002  1.00  0.00     0.001 A 
ATOM     78  C   UNL A   1      43.027  37.349  34.350  1.00  0.00     0.000 A 
ENDBRANCH  60  73
ENDBRANCH  34  35
ENDBRANCH  26  29
ENDBRANCH  24  25
ENDBRANCH  23  24
ENDBRANCH   1  23
TORSDOF 14
ENDMDL
MODEL 2
REMARK VINA RESULT:     -10.8      2.987      7.875
REMARK SMILES C[C@@H](Cc1cccs1)N(C)c1ncc(Br)cc1C(=O)NCCCNC(=O)c1ccc(-c2c3nc(c(-c4ccccc4)c4ccc([nH]4)c(-c4ccccc4)c4nc(c(-c5ccccc5)c5ccc2[nH]5)C=C4)C=C3)cc1
REMARK SMILES IDX 21 1 20 2 18 3 19 4 17 6 11 7 12 8 13 9 16 10 14 11 15 12
REMARK SMILES IDX 9 13 10 14 2 15 1 16 3 17 4 18 5 19 8 20 6 21 7 22 22 23
REMARK SMILES IDX 23 24 24 25 25 26 26 28 27 29 28 30 74 31 29 32 73 33 30 34
REMARK SMILES IDX 31 35 32 36 67 37 33 38 72 39 66 40 68 41 34 42 71 43 65 44
REMARK SMILES IDX 64 45 35 47 57 48 42 49 56 50 43 51 46 52 55 53 69 54 44 55
REMARK SMILES IDX 45 56 54 58 70 59 47 60 36 61 37 62 41 63 38 64 40 65 39 66
REMARK SMILES IDX 58 67 59 68 63 69 60 70 62 71 61 72 48 73 49 74 53 75 50 76
REMARK SMILES IDX 52 77 51 78
REMARK H PARENT 20 5 24 27 68 46 46 57
REMARK Flexibility Score: inf
ROOT
ATOM      1  C   UNL A   1      33.443  27.341  25.041  1.00  0.00     0.118 C 
ENDROOT
BRANCH   1   2
ATOM      2  N   UNL A   1      32.841  26.150  25.627  1.00  0.00    -0.352 N 
ATOM      3  C   UNL A   1      33.238  24.831  25.735  1.00  0.00     0.255 C 
ATOM      4  O   UNL A   1      32.579  24.119  26.493  1.00  0.00    -0.269 OA
ATOM      5  H   UNL A   1      31.960  26.321  26.032  1.00  0.00     0.163 HD
BRANCH   3   6
ATOM      6  C   UNL A   1      34.410  24.277  25.008  1.00  0.00     0.083 A 
ATOM      7  C   UNL A   1      34.337  23.868  23.659  1.00  0.00     0.141 A 
ATOM      8  N   UNL A   1      35.423  23.337  23.028  1.00  0.00    -0.237 NA
ATOM      9  C   UNL A   1      36.578  23.206  23.715  1.00  0.00     0.129 A 
ATOM     10  C   UNL A   1      35.596  24.029  25.713  1.00  0.00     0.035 A 
ATOM     11  C   UNL A   1      36.705  23.525  25.050  1.00  0.00     0.037 A 
ATOM     12  Br  UNL A   1      38.336  23.275  25.958  1.00  0.00    -0.049 Br
BRANCH   7  13
ATOM     13  N   UNL A   1      33.168  23.847  22.919  1.00  0.00    -0.356 N 
ATOM     14  C   UNL A   1      32.888  25.120  22.263  1.00  0.00     0.145 C 
BRANCH  13  15
ATOM     15  C   UNL A   1      32.015  22.995  23.260  1.00  0.00     0.085 C 
ATOM     16  C   UNL A   1      30.704  23.769  23.154  1.00  0.00     0.031 C 
BRANCH  15  17
ATOM     17  C   UNL A   1      32.003  21.560  22.691  1.00  0.00     0.071 C 
BRANCH  17  18
ATOM     18  C   UNL A   1      32.319  20.373  23.562  1.00  0.00     0.007 A 
ATOM     19  C   UNL A   1      32.246  19.041  23.187  1.00  0.00     0.015 A 
ATOM     20  S   UNL A   1      32.960  20.514  25.136  1.00  0.00    -0.149 S 
ATOM     21  C   UNL A   1      32.590  18.149  24.243  1.00  0.00     0.012 A 
ATOM     22  C   UNL A   1      32.938  18.826  25.387  1.00  0.00     0.065 A 
ENDBRANCH  17  18
ENDBRANCH  15  17
ENDBRANCH  13  15
ENDBRANCH   7  13
ENDBRANCH   3   6
ENDBRANCH   1   2
BRANCH   1  23
ATOM     23  C   UNL A   1      34.206  28.241  26.008  1.00  0.00     0.042 C 
BRANCH  23  24
ATOM     24  C   UNL A   1      33.509  28.570  27.318  1.00  0.00     0.118 C 
BRANCH  24  25
ATOM     25  N   UNL A   1      33.557  29.985  27.649  1.00  0.00    -0.352 N 
ATOM     26  C   UNL A   1      34.528  30.748  28.248  1.00  0.00     0.251 C 
ATOM     27  H   UNL A   1      32.749  30.486  27.397  1.00  0.00     0.163 HD
ATOM     28  O   UNL A   1      34.248  31.899  28.591  1.00  0.00    -0.269 OA
BRANCH  26  29
ATOM     29  C   UNL A   1      35.891  30.230  28.519  1.00  0.00     0.039 A 
ATOM     30  C   UNL A   1      36.839  30.275  27.489  1.00  0.00     0.014 A 
ATOM     31  C   UNL A   1      36.235  29.633  29.734  1.00  0.00     0.014 A 
ATOM     32  C   UNL A   1      38.133  29.783  27.695  1.00  0.00     0.010 A 
ATOM     33  C   UNL A   1      37.547  29.218  29.968  1.00  0.00     0.010 A 
ATOM     34  C   UNL A   1      38.510  29.280  28.949  1.00  0.00    -0.014 A 
BRANCH  34  35
ATOM     35  C   UNL A   1      39.897  28.809  29.213  1.00  0.00     0.031 A 
ATOM     36  C   UNL A   1      40.908  29.724  29.853  1.00  0.00     0.074 A 
ATOM     37  C   UNL A   1      40.274  27.578  28.812  1.00  0.00     0.049 A 
ATOM     38  N   UNL A   1      42.181  29.518  30.083  1.00  0.00    -0.248 NA
ATOM     39  C   UNL A   1      40.432  31.055  30.262  1.00  0.00     0.031 C 
ATOM     40  C   UNL A   1      39.411  26.602  28.144  1.00  0.00     0.029 A 
ATOM     41  N   UNL A   1      41.488  26.943  28.898  1.00  0.00    -0.354 N 
ATOM     42  C   UNL A   1      42.662  30.699  30.635  1.00  0.00     0.074 A 
ATOM     43  C   UNL A   1      41.555  31.630  30.667  1.00  0.00     0.031 C 
ATOM     44  C   UNL A   1      40.117  25.486  27.898  1.00  0.00     0.029 A 
ATOM     45  C   UNL A   1      41.490  25.681  28.354  1.00  0.00     0.049 A 
ATOM     46  H   UNL A   1      42.282  27.353  29.310  1.00  0.00     0.167 HD
ATOM     47  C   UNL A   1      43.908  30.983  31.086  1.00  0.00     0.031 A 
ATOM     48  C   UNL A   1      42.484  24.783  28.224  1.00  0.00     0.031 A 
ATOM     49  C   UNL A   1      45.007  30.054  31.078  1.00  0.00     0.049 A 
ATOM     50  C   UNL A   1      43.855  25.115  28.741  1.00  0.00     0.074 A 
ATOM     51  C   UNL A   1      46.285  30.226  31.580  1.00  0.00     0.029 A 
ATOM     52  N   UNL A   1      44.957  28.778  30.539  1.00  0.00    -0.354 N 
ATOM     53  N   UNL A   1      44.274  26.214  29.321  1.00  0.00    -0.248 NA
ATOM     54  C   UNL A   1      44.888  24.079  28.593  1.00  0.00     0.031 C 
ATOM     55  C   UNL A   1      47.024  29.071  31.304  1.00  0.00     0.029 A 
ATOM     56  C   UNL A   1      46.190  28.161  30.676  1.00  0.00     0.049 A 
ATOM     57  H   UNL A   1      44.164  28.372  30.121  1.00  0.00     0.167 HD
ATOM     58  C   UNL A   1      45.610  25.992  29.629  1.00  0.00     0.074 A 
ATOM     59  C   UNL A   1      45.927  24.650  29.186  1.00  0.00     0.031 C 
ATOM     60  C   UNL A   1      46.493  26.827  30.228  1.00  0.00     0.031 A 
BRANCH  47  61
ATOM     61  C   UNL A   1      44.153  32.368  31.620  1.00  0.00    -0.014 A 
ATOM     62  C   UNL A   1      44.573  33.411  30.781  1.00  0.00     0.009 A 
ATOM     63  C   UNL A   1      43.927  32.639  32.979  1.00  0.00     0.009 A 
ATOM     64  C   UNL A   1      44.801  34.688  31.299  1.00  0.00     0.001 A 
ATOM     65  C   UNL A   1      44.128  33.924  33.488  1.00  0.00     0.001 A 
ATOM     66  C   UNL A   1      44.575  34.944  32.651  1.00  0.00     0.000 A 
ENDBRANCH  47  61
BRANCH  48  67
ATOM     67  C   UNL A   1      42.215  23.469  27.585  1.00  0.00    -0.014 A 
ATOM     68  C   UNL A   1      42.560  23.246  26.244  1.00  0.00     0.009 A 
ATOM     69  C   UNL A   1      41.615  22.429  28.313  1.00  0.00     0.009 A 
ATOM     70  C   UNL A   1      42.292  22.017  25.638  1.00  0.00     0.001 A 
ATOM     71  C   UNL A   1      41.372  21.192  27.713  1.00  0.00     0.001 A 
ATOM     72  C   UNL A   1      41.702  20.989  26.374  1.00  0.00     0.000 A 
ENDBRANCH  48  67
BRANCH  60  73
ATOM     73  C   UNL A   1      47.882  26.302  30.465  1.00  0.00    -0.014 A 
ATOM     74  C   UNL A   1      48.863  26.359  29.464  1.00  0.00     0.009 A 
ATOM     75  C   UNL A   1      48.220  25.780  31.723  1.00  0.00     0.009 A 
ATOM     76  C   UNL A   1      50.150  25.875  29.710  1.00  0.00     0.001 A 
ATOM     77  C   UNL A   1      49.515  25.321  31.974  1.00  0.00     0.001 A 
ATOM     78  C   UNL A   1      50.475  25.361  30.964  1.00  0.00     0.000 A 
ENDBRANCH  60  73
ENDBRANCH  34  35
ENDBRANCH  26  29
ENDBRANCH  24  25
ENDBRANCH  23  24
ENDBRANCH   1  23
TORSDOF 14
ENDMDL
MODEL 3
REMARK VINA RESULT:     -10.6      3.240      4.889
REMARK SMILES C[C@@H](Cc1cccs1)N(C)c1ncc(Br)cc1C(=O)NCCCNC(=O)c1ccc(-c2c3nc(c(-c4ccccc4)c4ccc([nH]4)c(-c4ccccc4)c4nc(c(-c5ccccc5)c5ccc2[nH]5)C=C4)C=C3)cc1
REMARK SMILES IDX 21 1 20 2 18 3 19 4 17 6 11 7 12 8 13 9 16 10 14 11 15 12
REMARK SMILES IDX 9 13 10 14 2 15 1 16 3 17 4 18 5 19 8 20 6 21 7 22 22 23
REMARK SMILES IDX 23 24 24 25 25 26 26 28 27 29 28 30 74 31 29 32 73 33 30 34
REMARK SMILES IDX 31 35 32 36 67 37 33 38 72 39 66 40 68 41 34 42 71 43 65 44
REMARK SMILES IDX 64 45 35 47 57 48 42 49 56 50 43 51 46 52 55 53 69 54 44 55
REMARK SMILES IDX 45 56 54 58 70 59 47 60 36 61 37 62 41 63 38 64 40 65 39 66
REMARK SMILES IDX 58 67 59 68 63 69 60 70 62 71 61 72 48 73 49 74 53 75 50 76
REMARK SMILES IDX 52 77 51 78
REMARK H PARENT 20 5 24 27 68 46 46 57
REMARK Flexibility Score: inf
ROOT
ATOM      1  C   UNL A   1      37.205  21.386  24.471  1.00  0.00     0.118 C 
ENDROOT
BRANCH   1   2
ATOM      2  N   UNL A   1      36.315  21.674  25.589  1.00  0.00    -0.352 N 
ATOM      3  C   UNL A   1      35.034  21.276  25.920  1.00  0.00     0.255 C 
ATOM      4  O   UNL A   1      34.656  21.538  27.062  1.00  0.00    -0.269 OA
ATOM      5  H   UNL A   1      36.712  22.286  26.250  1.00  0.00     0.163 HD
BRANCH   3   6
ATOM      6  C   UNL A   1      34.145  20.547  24.979  1.00  0.00     0.083 A 
ATOM      7  C   UNL A   1      33.069  21.175  24.317  1.00  0.00     0.141 A 
ATOM      8  N   UNL A   1      32.254  20.471  23.480  1.00  0.00    -0.237 NA
ATOM      9  C   UNL A   1      32.491  19.155  23.292  1.00  0.00     0.129 A 
ATOM     10  C   UNL A   1      34.294  19.160  24.835  1.00  0.00     0.035 A 
ATOM     11  C   UNL A   1      33.483  18.463  23.952  1.00  0.00     0.037 A 
ATOM     12  Br  UNL A   1      33.730  16.617  23.674  1.00  0.00    -0.049 Br
BRANCH   7  13
ATOM     13  N   UNL A   1      32.676  22.481  24.546  1.00  0.00    -0.356 N 
ATOM     14  C   UNL A   1      31.619  22.589  25.548  1.00  0.00     0.145 C 
BRANCH  13  15
ATOM     15  C   UNL A   1      32.740  23.534  23.518  1.00  0.00     0.085 C 
ATOM     16  C   UNL A   1      31.365  24.147  23.265  1.00  0.00     0.031 C 
BRANCH  15  17
ATOM     17  C   UNL A   1      33.920  24.527  23.594  1.00  0.00     0.071 C 
BRANCH  17  18
ATOM     18  C   UNL A   1      33.788  25.840  24.320  1.00  0.00     0.007 A 
ATOM     19  C   UNL A   1      33.917  26.035  25.685  1.00  0.00     0.015 A 
ATOM     20  S   UNL A   1      33.587  27.333  23.521  1.00  0.00    -0.149 S 
ATOM     21  C   UNL A   1      33.717  27.391  26.072  1.00  0.00     0.012 A 
ATOM     22  C   UNL A   1      33.463  28.197  24.988  1.00  0.00     0.065 A 
ENDBRANCH  17  18
ENDBRANCH  15  17
ENDBRANCH  13  15
ENDBRANCH   7  13
ENDBRANCH   3   6
ENDBRANCH   1   2
BRANCH   1  23
ATOM     23  C   UNL A   1      38.040  20.115  24.600  1.00  0.00     0.042 C 
BRANCH  23  24
ATOM     24  C   UNL A   1      38.708  19.878  25.944  1.00  0.00     0.118 C 
BRANCH  24  25
ATOM     25  N   UNL A   1      39.971  19.166  25.834  1.00  0.00    -0.352 N 
ATOM     26  C   UNL A   1      41.268  19.580  26.003  1.00  0.00     0.251 C 
ATOM     27  H   UNL A   1      39.878  18.215  25.597  1.00  0.00     0.163 HD
ATOM     28  O   UNL A   1      42.179  18.821  25.663  1.00  0.00    -0.269 OA
BRANCH  26  29
ATOM     29  C   UNL A   1      41.612  20.913  26.554  1.00  0.00     0.039 A 
ATOM     30  C   UNL A   1      42.062  21.904  25.673  1.00  0.00     0.014 A 
ATOM     31  C   UNL A   1      41.577  21.186  27.923  1.00  0.00     0.014 A 
ATOM     32  C   UNL A   1      42.414  23.171  26.151  1.00  0.00     0.010 A 
ATOM     33  C   UNL A   1      41.848  22.473  28.392  1.00  0.00     0.010 A 
ATOM     34  C   UNL A   1      42.278  23.479  27.513  1.00  0.00    -0.014 A 
BRANCH  34  35
ATOM     35  C   UNL A   1      42.584  24.837  28.037  1.00  0.00     0.031 A 
ATOM     36  C   UNL A   1      43.980  25.188  28.485  1.00  0.00     0.074 A 
ATOM     37  C   UNL A   1      41.593  25.740  28.179  1.00  0.00     0.049 A 
ATOM     38  N   UNL A   1      44.416  26.291  29.044  1.00  0.00    -0.248 NA
ATOM     39  C   UNL A   1      45.013  24.157  28.306  1.00  0.00     0.031 C 
ATOM     40  C   UNL A   1      40.190  25.521  27.825  1.00  0.00     0.029 A 
ATOM     41  N   UNL A   1      41.615  27.021  28.674  1.00  0.00    -0.354 N 
ATOM     42  C   UNL A   1      45.763  26.072  29.310  1.00  0.00     0.074 A 
ATOM     43  C   UNL A   1      46.062  24.721  28.887  1.00  0.00     0.031 C 
ATOM     44  C   UNL A   1      39.489  26.635  28.095  1.00  0.00     0.029 A 
ATOM     45  C   UNL A   1      40.383  27.631  28.678  1.00  0.00     0.049 A 
ATOM     46  H   UNL A   1      42.434  27.460  28.996  1.00  0.00     0.167 HD
ATOM     47  C   UNL A   1      46.673  26.922  29.845  1.00  0.00     0.031 A 
ATOM     48  C   UNL A   1      40.009  28.849  29.110  1.00  0.00     0.031 A 
ATOM     49  C   UNL A   1      46.387  28.274  30.244  1.00  0.00     0.049 A 
ATOM     50  C   UNL A   1      41.039  29.778  29.691  1.00  0.00     0.074 A 
ATOM     51  C   UNL A   1      47.261  29.233  30.727  1.00  0.00     0.029 A 
ATOM     52  N   UNL A   1      45.131  28.858  30.208  1.00  0.00    -0.354 N 
ATOM     53  N   UNL A   1      42.321  29.578  29.871  1.00  0.00    -0.248 NA
ATOM     54  C   UNL A   1      40.568  31.104  30.117  1.00  0.00     0.031 C 
ATOM     55  C   UNL A   1      46.525  30.384  31.028  1.00  0.00     0.029 A 
ATOM     56  C   UNL A   1      45.203  30.158  30.683  1.00  0.00     0.049 A 
ATOM     57  H   UNL A   1      44.311  28.416  29.892  1.00  0.00     0.167 HD
ATOM     58  C   UNL A   1      42.815  30.759  30.408  1.00  0.00     0.074 A 
ATOM     59  C   UNL A   1      41.698  31.676  30.510  1.00  0.00     0.031 C 
ATOM     60  C   UNL A   1      44.083  31.058  30.782  1.00  0.00     0.031 A 
BRANCH  47  61
ATOM     61  C   UNL A   1      48.072  26.404  30.038  1.00  0.00    -0.014 A 
ATOM     62  C   UNL A   1      49.043  26.530  29.033  1.00  0.00     0.009 A 
ATOM     63  C   UNL A   1      48.432  25.812  31.259  1.00  0.00     0.009 A 
ATOM     64  C   UNL A   1      50.335  26.036  29.231  1.00  0.00     0.001 A 
ATOM     65  C   UNL A   1      49.733  25.345  31.464  1.00  0.00     0.001 A 
ATOM     66  C   UNL A   1      50.679  25.448  30.446  1.00  0.00     0.000 A 
ENDBRANCH  47  61
BRANCH  48  67
ATOM     67  C   UNL A   1      38.589  29.270  28.998  1.00  0.00    -0.014 A 
ATOM     68  C   UNL A   1      37.731  29.180  30.104  1.00  0.00     0.009 A 
ATOM     69  C   UNL A   1      38.083  29.768  27.787  1.00  0.00     0.009 A 
ATOM     70  C   UNL A   1      36.391  29.559  29.995  1.00  0.00     0.001 A 
ATOM     71  C   UNL A   1      36.750  30.172  27.687  1.00  0.00     0.001 A 
ATOM     72  C   UNL A   1      35.904  30.059  28.788  1.00  0.00     0.000 A 
ENDBRANCH  48  67
BRANCH  60  73
ATOM     73  C   UNL A   1      44.336  32.442  31.310  1.00  0.00    -0.014 A 
ATOM     74  C   UNL A   1      44.678  33.497  30.452  1.00  0.00     0.009 A 
ATOM     75  C   UNL A   1      44.190  32.699  32.682  1.00  0.00     0.009 A 
ATOM     76  C   UNL A   1      44.899  34.779  30.962  1.00  0.00     0.001 A 
ATOM     77  C   UNL A   1      44.385  33.986  33.186  1.00  0.00     0.001 A 
ATOM     78  C   UNL A   1      44.749  35.022  32.327  1.00  0.00     0.000 A 
ENDBRANCH  60  73
ENDBRANCH  34  35
ENDBRANCH  26  29
ENDBRANCH  24  25
ENDBRANCH  23  24
ENDBRANCH   1  23
TORSDOF 14
ENDMDL
