MODEL 1
REMARK VINA RESULT:      -9.8      0.000      0.000
REMARK SMILES O=C(COc1cc2ccccc2cc1O)NCCCNC(=O)c1ccc(-c2c3nc(c(-c4ccccc4)c4ccc([nH]4)c(-c4ccccc4)c4nc(c(-c5ccccc5)c5ccc2[nH]5)C=C4)C=C3)cc1
REMARK SMILES IDX 17 1 16 2 1 3 2 4 3 6 4 7 5 8 6 9 14 10 7 11 13 12 8 13
REMARK SMILES IDX 12 14 9 15 11 16 10 17 15 18 18 20 19 21 20 22 21 23 22 25
REMARK SMILES IDX 23 26 24 27 70 28 25 29 69 30 26 31 27 32 28 33 63 34 29 35
REMARK SMILES IDX 68 36 62 37 64 38 30 39 67 40 61 41 60 42 31 44 53 45 38 46
REMARK SMILES IDX 52 47 39 48 42 49 51 50 65 51 40 52 41 53 50 55 66 56 43 57
REMARK SMILES IDX 32 58 33 59 37 60 34 61 36 62 35 63 54 64 55 65 59 66 56 67
REMARK SMILES IDX 58 68 57 69 44 70 45 71 49 72 46 73 48 74 47 75
REMARK H PARENT 16 5 15 19 20 24 64 43 42 54
REMARK Flexibility Score: inf
ROOT
ATOM      1  C   UNL A   1      44.434  19.313  24.606  1.00  0.00     0.117 C 
ENDROOT
BRANCH   1   2
ATOM      2  N   UNL A   1      44.595  20.655  25.123  1.00  0.00    -0.353 N 
ATOM      3  O   UNL A   1      46.787  20.909  24.481  1.00  0.00    -0.271 OA
ATOM      4  C   UNL A   1      45.781  21.361  25.017  1.00  0.00     0.257 C 
ATOM      5  H   UNL A   1      43.829  21.084  25.569  1.00  0.00     0.163 HD
BRANCH   4   6
ATOM      6  C   UNL A   1      45.748  22.700  25.756  1.00  0.00     0.329 C 
BRANCH   6   7
ATOM      7  O   UNL A   1      45.609  23.814  24.888  1.00  0.00    -0.480 OA
BRANCH   7   8
ATOM      8  C   UNL A   1      45.359  25.068  25.366  1.00  0.00     0.162 A 
ATOM      9  C   UNL A   1      44.042  25.490  25.127  1.00  0.00     0.059 A 
ATOM     10  C   UNL A   1      46.202  25.934  26.059  1.00  0.00     0.158 A 
ATOM     11  C   UNL A   1      43.566  26.742  25.559  1.00  0.00    -0.014 A 
ATOM     12  C   UNL A   1      45.755  27.190  26.490  1.00  0.00     0.059 A 
ATOM     13  C   UNL A   1      42.242  27.151  25.320  1.00  0.00     0.009 A 
ATOM     14  C   UNL A   1      44.439  27.608  26.249  1.00  0.00    -0.014 A 
ATOM     15  C   UNL A   1      41.789  28.398  25.755  1.00  0.00     0.001 A 
ATOM     16  C   UNL A   1      43.969  28.863  26.677  1.00  0.00     0.009 A 
ATOM     17  C   UNL A   1      42.652  29.254  26.432  1.00  0.00     0.001 A 
BRANCH  10  18
ATOM     18  O   UNL A   1      47.491  25.609  26.360  1.00  0.00    -0.504 OA
ATOM     19  H   UNL A   1      47.884  25.934  27.147  1.00  0.00     0.293 HD
ENDBRANCH  10  18
ENDBRANCH   7   8
ENDBRANCH   6   7
ENDBRANCH   4   6
ENDBRANCH   1   2
BRANCH   1  20
ATOM     20  C   UNL A   1      44.401  18.253  25.707  1.00  0.00     0.042 C 
BRANCH  20  21
ATOM     21  C   UNL A   1      43.286  18.430  26.737  1.00  0.00     0.118 C 
BRANCH  21  22
ATOM     22  N   UNL A   1      41.963  18.528  26.142  1.00  0.00    -0.352 N 
ATOM     23  C   UNL A   1      41.054  19.557  26.126  1.00  0.00     0.251 C 
ATOM     24  H   UNL A   1      41.667  17.717  25.669  1.00  0.00     0.163 HD
ATOM     25  O   UNL A   1      39.936  19.357  25.660  1.00  0.00    -0.269 OA
BRANCH  23  26
ATOM     26  C   UNL A   1      41.383  20.896  26.671  1.00  0.00     0.039 A 
ATOM     27  C   UNL A   1      41.271  21.095  28.052  1.00  0.00     0.014 A 
ATOM     28  C   UNL A   1      41.727  21.970  25.847  1.00  0.00     0.014 A 
ATOM     29  C   UNL A   1      41.540  22.349  28.607  1.00  0.00     0.010 A 
ATOM     30  C   UNL A   1      42.064  23.204  26.408  1.00  0.00     0.010 A 
ATOM     31  C   UNL A   1      41.958  23.411  27.792  1.00  0.00    -0.014 A 
BRANCH  31  32
ATOM     32  C   UNL A   1      42.258  24.748  28.372  1.00  0.00     0.031 A 
ATOM     33  C   UNL A   1      43.633  25.058  28.898  1.00  0.00     0.074 A 
ATOM     34  C   UNL A   1      41.285  25.676  28.459  1.00  0.00     0.049 A 
ATOM     35  N   UNL A   1      44.076  26.155  29.463  1.00  0.00    -0.248 NA
ATOM     36  C   UNL A   1      44.641  23.989  28.796  1.00  0.00     0.031 C 
ATOM     37  C   UNL A   1      39.900  25.498  28.017  1.00  0.00     0.029 A 
ATOM     38  N   UNL A   1      41.313  26.957  28.953  1.00  0.00    -0.354 N 
ATOM     39  C   UNL A   1      45.400  25.901  29.798  1.00  0.00     0.074 A 
ATOM     40  C   UNL A   1      45.675  24.532  29.419  1.00  0.00     0.031 C 
ATOM     41  C   UNL A   1      39.220  26.636  28.233  1.00  0.00     0.029 A 
ATOM     42  C   UNL A   1      40.109  27.610  28.859  1.00  0.00     0.049 A 
ATOM     43  H   UNL A   1      42.121  27.368  29.337  1.00  0.00     0.167 HD
ATOM     44  C   UNL A   1      46.313  26.734  30.352  1.00  0.00     0.031 A 
ATOM     45  C   UNL A   1      39.756  28.854  29.235  1.00  0.00     0.031 A 
ATOM     46  C   UNL A   1      46.049  28.100  30.718  1.00  0.00     0.049 A 
ATOM     47  C   UNL A   1      40.787  29.760  29.854  1.00  0.00     0.074 A 
ATOM     48  C   UNL A   1      46.924  29.038  31.240  1.00  0.00     0.029 A 
ATOM     49  N   UNL A   1      44.818  28.725  30.598  1.00  0.00    -0.354 N 
ATOM     50  N   UNL A   1      42.050  29.522  30.107  1.00  0.00    -0.248 NA
ATOM     51  C   UNL A   1      40.342  31.112  30.222  1.00  0.00     0.031 C 
ATOM     52  C   UNL A   1      46.210  30.217  31.479  1.00  0.00     0.029 A 
ATOM     53  C   UNL A   1      44.905  30.031  31.052  1.00  0.00     0.049 A 
ATOM     54  H   UNL A   1      44.003  28.303  30.242  1.00  0.00     0.167 HD
ATOM     55  C   UNL A   1      42.559  30.703  30.632  1.00  0.00     0.074 A 
ATOM     56  C   UNL A   1      41.470  31.659  30.649  1.00  0.00     0.031 C 
ATOM     57  C   UNL A   1      43.817  30.973  31.059  1.00  0.00     0.031 A 
BRANCH  44  58
ATOM     58  C   UNL A   1      47.689  26.182  30.605  1.00  0.00    -0.014 A 
ATOM     59  C   UNL A   1      48.650  26.126  29.581  1.00  0.00     0.009 A 
ATOM     60  C   UNL A   1      48.040  25.737  31.889  1.00  0.00     0.009 A 
ATOM     61  C   UNL A   1      49.919  25.600  29.830  1.00  0.00     0.001 A 
ATOM     62  C   UNL A   1      49.320  25.239  32.142  1.00  0.00     0.001 A 
ATOM     63  C   UNL A   1      50.254  25.161  31.110  1.00  0.00     0.000 A 
ENDBRANCH  44  58
BRANCH  45  64
ATOM     64  C   UNL A   1      38.368  29.334  29.015  1.00  0.00    -0.014 A 
ATOM     65  C   UNL A   1      37.435  29.319  30.064  1.00  0.00     0.009 A 
ATOM     66  C   UNL A   1      37.962  29.798  27.754  1.00  0.00     0.009 A 
ATOM     67  C   UNL A   1      36.118  29.731  29.848  1.00  0.00     0.001 A 
ATOM     68  C   UNL A   1      36.652  30.237  27.548  1.00  0.00     0.001 A 
ATOM     69  C   UNL A   1      35.729  30.194  28.592  1.00  0.00     0.000 A 
ENDBRANCH  45  64
BRANCH  57  70
ATOM     70  C   UNL A   1      44.097  32.370  31.537  1.00  0.00    -0.014 A 
ATOM     71  C   UNL A   1      44.016  32.711  32.895  1.00  0.00     0.009 A 
ATOM     72  C   UNL A   1      44.483  33.352  30.611  1.00  0.00     0.009 A 
ATOM     73  C   UNL A   1      44.281  34.017  33.312  1.00  0.00     0.001 A 
ATOM     74  C   UNL A   1      44.775  34.650  31.034  1.00  0.00     0.001 A 
ATOM     75  C   UNL A   1      44.665  34.983  32.383  1.00  0.00     0.000 A 
ENDBRANCH  57  70
ENDBRANCH  31  32
ENDBRANCH  23  26
ENDBRANCH  21  22
ENDBRANCH  20  21
ENDBRANCH   1  20
TORSDOF 13
ENDMDL
MODEL 2
REMARK VINA RESULT:      -9.3      0.399      6.167
REMARK SMILES O=C(COc1cc2ccccc2cc1O)NCCCNC(=O)c1ccc(-c2c3nc(c(-c4ccccc4)c4ccc([nH]4)c(-c4ccccc4)c4nc(c(-c5ccccc5)c5ccc2[nH]5)C=C4)C=C3)cc1
REMARK SMILES IDX 17 1 16 2 1 3 2 4 3 6 4 7 5 8 6 9 14 10 7 11 13 12 8 13
REMARK SMILES IDX 12 14 9 15 11 16 10 17 15 18 18 20 19 21 20 22 21 23 22 25
REMARK SMILES IDX 23 26 24 27 70 28 25 29 69 30 26 31 27 32 28 33 63 34 29 35
REMARK SMILES IDX 68 36 62 37 64 38 30 39 67 40 61 41 60 42 31 44 53 45 38 46
REMARK SMILES IDX 52 47 39 48 42 49 51 50 65 51 40 52 41 53 50 55 66 56 43 57
REMARK SMILES IDX 32 58 33 59 37 60 34 61 36 62 35 63 54 64 55 65 59 66 56 67
REMARK SMILES IDX 58 68 57 69 44 70 45 71 49 72 46 73 48 74 47 75
REMARK H PARENT 16 5 15 19 20 24 64 43 42 54
REMARK Flexibility Score: inf
ROOT
ATOM      1  C   UNL A   1      44.325  19.732  24.116  1.00  0.00     0.117 C 
ENDROOT
BRANCH   1   2
ATOM      2  N   UNL A   1      44.545  20.995  24.789  1.00  0.00    -0.353 N 
ATOM      3  O   UNL A   1      46.788  21.146  24.315  1.00  0.00    -0.271 OA
ATOM      4  C   UNL A   1      45.782  21.614  24.836  1.00  0.00     0.257 C 
ATOM      5  H   UNL A   1      43.782  21.432  25.233  1.00  0.00     0.163 HD
BRANCH   4   6
ATOM      6  C   UNL A   1      45.792  22.865  25.717  1.00  0.00     0.329 C 
BRANCH   6   7
ATOM      7  O   UNL A   1      46.142  24.044  25.009  1.00  0.00    -0.480 OA
BRANCH   7   8
ATOM      8  C   UNL A   1      45.725  25.278  25.421  1.00  0.00     0.162 A 
ATOM      9  C   UNL A   1      44.362  25.504  25.170  1.00  0.00     0.059 A 
ATOM     10  C   UNL A   1      46.443  26.285  26.060  1.00  0.00     0.158 A 
ATOM     11  C   UNL A   1      43.722  26.703  25.538  1.00  0.00    -0.014 A 
ATOM     12  C   UNL A   1      45.831  27.492  26.427  1.00  0.00     0.059 A 
ATOM     13  C   UNL A   1      42.355  26.916  25.288  1.00  0.00     0.009 A 
ATOM     14  C   UNL A   1      44.470  27.714  26.173  1.00  0.00    -0.014 A 
ATOM     15  C   UNL A   1      41.738  28.112  25.658  1.00  0.00     0.001 A 
ATOM     16  C   UNL A   1      43.836  28.915  26.537  1.00  0.00     0.009 A 
ATOM     17  C   UNL A   1      42.477  29.112  26.281  1.00  0.00     0.001 A 
BRANCH  10  18
ATOM     18  O   UNL A   1      47.764  26.154  26.368  1.00  0.00    -0.504 OA
ATOM     19  H   UNL A   1      48.255  26.900  26.654  1.00  0.00     0.293 HD
ENDBRANCH  10  18
ENDBRANCH   7   8
ENDBRANCH   6   7
ENDBRANCH   4   6
ENDBRANCH   1   2
BRANCH   1  20
ATOM     20  C   UNL A   1      44.352  18.539  25.070  1.00  0.00     0.042 C 
BRANCH  20  21
ATOM     21  C   UNL A   1      43.391  18.640  26.254  1.00  0.00     0.118 C 
BRANCH  21  22
ATOM     22  N   UNL A   1      41.994  18.716  25.857  1.00  0.00    -0.352 N 
ATOM     23  C   UNL A   1      41.044  19.682  26.076  1.00  0.00     0.251 C 
ATOM     24  H   UNL A   1      41.674  17.941  25.340  1.00  0.00     0.163 HD
ATOM     25  O   UNL A   1      39.883  19.462  25.745  1.00  0.00    -0.269 OA
BRANCH  23  26
ATOM     26  C   UNL A   1      41.382  20.976  26.717  1.00  0.00     0.039 A 
ATOM     27  C   UNL A   1      41.662  22.070  25.889  1.00  0.00     0.014 A 
ATOM     28  C   UNL A   1      41.499  21.113  28.101  1.00  0.00     0.014 A 
ATOM     29  C   UNL A   1      42.017  23.302  26.447  1.00  0.00     0.010 A 
ATOM     30  C   UNL A   1      41.785  22.361  28.661  1.00  0.00     0.010 A 
ATOM     31  C   UNL A   1      42.062  23.464  27.840  1.00  0.00    -0.014 A 
BRANCH  31  32
ATOM     32  C   UNL A   1      42.427  24.772  28.446  1.00  0.00     0.031 A 
ATOM     33  C   UNL A   1      41.396  25.859  28.590  1.00  0.00     0.074 A 
ATOM     34  C   UNL A   1      43.696  25.001  28.837  1.00  0.00     0.049 A 
ATOM     35  N   UNL A   1      41.532  27.072  29.068  1.00  0.00    -0.248 NA
ATOM     36  C   UNL A   1      40.036  25.551  28.117  1.00  0.00     0.031 C 
ATOM     37  C   UNL A   1      44.803  24.048  28.727  1.00  0.00     0.029 A 
ATOM     38  N   UNL A   1      44.270  26.111  29.407  1.00  0.00    -0.354 N 
ATOM     39  C   UNL A   1      40.286  27.674  28.934  1.00  0.00     0.074 A 
ATOM     40  C   UNL A   1      39.421  26.712  28.288  1.00  0.00     0.031 C 
ATOM     41  C   UNL A   1      45.913  24.604  29.238  1.00  0.00     0.029 A 
ATOM     42  C   UNL A   1      45.608  25.961  29.680  1.00  0.00     0.049 A 
ATOM     43  H   UNL A   1      43.769  26.936  29.601  1.00  0.00     0.167 HD
ATOM     44  C   UNL A   1      39.890  28.907  29.331  1.00  0.00     0.031 A 
ATOM     45  C   UNL A   1      46.491  26.819  30.225  1.00  0.00     0.031 A 
ATOM     46  C   UNL A   1      40.742  29.862  29.987  1.00  0.00     0.049 A 
ATOM     47  C   UNL A   1      46.028  28.185  30.653  1.00  0.00     0.074 A 
ATOM     48  C   UNL A   1      40.418  31.118  30.471  1.00  0.00     0.029 A 
ATOM     49  N   UNL A   1      42.088  29.666  30.253  1.00  0.00    -0.354 N 
ATOM     50  N   UNL A   1      44.832  28.714  30.575  1.00  0.00    -0.248 NA
ATOM     51  C   UNL A   1      47.038  29.064  31.260  1.00  0.00     0.031 C 
ATOM     52  C   UNL A   1      41.579  31.700  30.989  1.00  0.00     0.029 A 
ATOM     53  C   UNL A   1      42.613  30.785  30.879  1.00  0.00     0.049 A 
ATOM     54  H   UNL A   1      42.595  28.852  30.031  1.00  0.00     0.167 HD
ATOM     55  C   UNL A   1      44.937  29.973  31.152  1.00  0.00     0.074 A 
ATOM     56  C   UNL A   1      46.311  30.123  31.587  1.00  0.00     0.031 C 
ATOM     57  C   UNL A   1      43.979  30.920  31.312  1.00  0.00     0.031 A 
BRANCH  44  58
ATOM     58  C   UNL A   1      38.463  29.295  29.056  1.00  0.00    -0.014 A 
ATOM     59  C   UNL A   1      37.492  29.263  30.070  1.00  0.00     0.009 A 
ATOM     60  C   UNL A   1      38.090  29.726  27.773  1.00  0.00     0.009 A 
ATOM     61  C   UNL A   1      36.169  29.617  29.795  1.00  0.00     0.001 A 
ATOM     62  C   UNL A   1      36.773  30.107  27.508  1.00  0.00     0.001 A 
ATOM     63  C   UNL A   1      35.812  30.042  28.516  1.00  0.00     0.000 A 
ENDBRANCH  44  58
BRANCH  45  64
ATOM     64  C   UNL A   1      47.904  26.406  30.425  1.00  0.00    -0.014 A 
ATOM     65  C   UNL A   1      48.871  26.686  29.447  1.00  0.00     0.009 A 
ATOM     66  C   UNL A   1      48.293  25.721  31.586  1.00  0.00     0.009 A 
ATOM     67  C   UNL A   1      50.192  26.262  29.615  1.00  0.00     0.001 A 
ATOM     68  C   UNL A   1      49.620  25.324  31.765  1.00  0.00     0.001 A 
ATOM     69  C   UNL A   1      50.566  25.586  30.775  1.00  0.00     0.000 A 
ENDBRANCH  45  64
BRANCH  57  70
ATOM     70  C   UNL A   1      44.372  32.182  32.025  1.00  0.00    -0.014 A 
ATOM     71  C   UNL A   1      44.280  32.295  33.421  1.00  0.00     0.009 A 
ATOM     72  C   UNL A   1      44.875  33.265  31.287  1.00  0.00     0.009 A 
ATOM     73  C   UNL A   1      44.651  33.480  34.059  1.00  0.00     0.001 A 
ATOM     74  C   UNL A   1      45.272  34.438  31.931  1.00  0.00     0.001 A 
ATOM     75  C   UNL A   1      45.151  34.548  33.315  1.00  0.00     0.000 A 
ENDBRANCH  57  70
ENDBRANCH  31  32
ENDBRANCH  23  26
ENDBRANCH  21  22
ENDBRANCH  20  21
ENDBRANCH   1  20
TORSDOF 13
ENDMDL
MODEL 3
REMARK VINA RESULT:      -9.2      5.340     11.048
REMARK SMILES O=C(COc1cc2ccccc2cc1O)NCCCNC(=O)c1ccc(-c2c3nc(c(-c4ccccc4)c4ccc([nH]4)c(-c4ccccc4)c4nc(c(-c5ccccc5)c5ccc2[nH]5)C=C4)C=C3)cc1
REMARK SMILES IDX 17 1 16 2 1 3 2 4 3 6 4 7 5 8 6 9 14 10 7 11 13 12 8 13
REMARK SMILES IDX 12 14 9 15 11 16 10 17 15 18 18 20 19 21 20 22 21 23 22 25
REMARK SMILES IDX 23 26 24 27 70 28 25 29 69 30 26 31 27 32 28 33 63 34 29 35
REMARK SMILES IDX 68 36 62 37 64 38 30 39 67 40 61 41 60 42 31 44 53 45 38 46
REMARK SMILES IDX 52 47 39 48 42 49 51 50 65 51 40 52 41 53 50 55 66 56 43 57
REMARK SMILES IDX 32 58 33 59 37 60 34 61 36 62 35 63 54 64 55 65 59 66 56 67
REMARK SMILES IDX 58 68 57 69 44 70 45 71 49 72 46 73 48 74 47 75
REMARK H PARENT 16 5 15 19 20 24 64 43 42 54
REMARK Flexibility Score: inf
ROOT
ATOM      1  C   UNL A   1      32.906  35.551  31.542  1.00  0.00     0.117 C 
ENDROOT
BRANCH   1   2
ATOM      2  N   UNL A   1      33.458  34.546  32.424  1.00  0.00    -0.353 N 
ATOM      3  O   UNL A   1      34.892  35.952  33.541  1.00  0.00    -0.271 OA
ATOM      4  C   UNL A   1      34.425  34.831  33.372  1.00  0.00     0.257 C 
ATOM      5  H   UNL A   1      33.131  33.620  32.346  1.00  0.00     0.163 HD
BRANCH   4   6
ATOM      6  C   UNL A   1      34.946  33.583  34.088  1.00  0.00     0.329 C 
BRANCH   6   7
ATOM      7  O   UNL A   1      35.401  32.576  33.198  1.00  0.00    -0.480 OA
BRANCH   7   8
ATOM      8  C   UNL A   1      36.576  31.912  33.406  1.00  0.00     0.162 A 
ATOM      9  C   UNL A   1      36.630  30.679  32.738  1.00  0.00     0.059 A 
ATOM     10  C   UNL A   1      37.692  32.302  34.141  1.00  0.00     0.158 A 
ATOM     11  C   UNL A   1      37.763  29.844  32.797  1.00  0.00    -0.014 A 
ATOM     12  C   UNL A   1      38.827  31.484  34.226  1.00  0.00     0.059 A 
ATOM     13  C   UNL A   1      37.809  28.615  32.118  1.00  0.00     0.009 A 
ATOM     14  C   UNL A   1      38.878  30.253  33.557  1.00  0.00    -0.014 A 
ATOM     15  C   UNL A   1      38.940  27.799  32.191  1.00  0.00     0.001 A 
ATOM     16  C   UNL A   1      40.008  29.419  33.624  1.00  0.00     0.009 A 
ATOM     17  C   UNL A   1      40.039  28.200  32.944  1.00  0.00     0.001 A 
BRANCH  10  18
ATOM     18  O   UNL A   1      37.747  33.490  34.807  1.00  0.00    -0.504 OA
ATOM     19  H   UNL A   1      37.193  34.199  34.545  1.00  0.00     0.293 HD
ENDBRANCH  10  18
ENDBRANCH   7   8
ENDBRANCH   6   7
ENDBRANCH   4   6
ENDBRANCH   1   2
BRANCH   1  20
ATOM     20  C   UNL A   1      33.856  35.931  30.407  1.00  0.00     0.042 C 
BRANCH  20  21
ATOM     21  C   UNL A   1      33.171  36.376  29.115  1.00  0.00     0.118 C 
BRANCH  21  22
ATOM     22  N   UNL A   1      32.510  35.288  28.411  1.00  0.00    -0.352 N 
ATOM     23  C   UNL A   1      32.967  34.052  28.027  1.00  0.00     0.251 C 
ATOM     24  H   UNL A   1      31.573  35.469  28.168  1.00  0.00     0.163 HD
ATOM     25  O   UNL A   1      32.251  33.344  27.324  1.00  0.00    -0.269 OA
BRANCH  23  26
ATOM     26  C   UNL A   1      34.306  33.557  28.427  1.00  0.00     0.039 A 
ATOM     27  C   UNL A   1      34.384  32.630  29.473  1.00  0.00     0.014 A 
ATOM     28  C   UNL A   1      35.481  34.038  27.845  1.00  0.00     0.014 A 
ATOM     29  C   UNL A   1      35.627  32.159  29.905  1.00  0.00     0.010 A 
ATOM     30  C   UNL A   1      36.718  33.516  28.230  1.00  0.00     0.010 A 
ATOM     31  C   UNL A   1      36.805  32.583  29.274  1.00  0.00    -0.014 A 
BRANCH  31  32
ATOM     32  C   UNL A   1      38.134  32.082  29.718  1.00  0.00     0.031 A 
ATOM     33  C   UNL A   1      38.632  30.738  29.258  1.00  0.00     0.074 A 
ATOM     34  C   UNL A   1      38.882  32.817  30.564  1.00  0.00     0.049 A 
ATOM     35  N   UNL A   1      39.749  30.121  29.559  1.00  0.00    -0.248 NA
ATOM     36  C   UNL A   1      37.752  29.975  28.357  1.00  0.00     0.031 C 
ATOM     37  C   UNL A   1      38.507  34.122  31.113  1.00  0.00     0.029 A 
ATOM     38  N   UNL A   1      40.116  32.568  31.112  1.00  0.00    -0.354 N 
ATOM     39  C   UNL A   1      39.695  28.897  28.903  1.00  0.00     0.074 A 
ATOM     40  C   UNL A   1      38.418  28.838  28.227  1.00  0.00     0.031 C 
ATOM     41  C   UNL A   1      39.501  34.571  31.896  1.00  0.00     0.029 A 
ATOM     42  C   UNL A   1      40.566  33.574  31.932  1.00  0.00     0.049 A 
ATOM     43  H   UNL A   1      40.629  31.748  30.933  1.00  0.00     0.167 HD
ATOM     44  C   UNL A   1      40.630  27.919  28.848  1.00  0.00     0.031 A 
ATOM     45  C   UNL A   1      41.709  33.683  32.636  1.00  0.00     0.031 A 
ATOM     46  C   UNL A   1      41.909  27.980  29.506  1.00  0.00     0.049 A 
ATOM     47  C   UNL A   1      42.731  32.580  32.563  1.00  0.00     0.074 A 
ATOM     48  C   UNL A   1      42.942  27.059  29.469  1.00  0.00     0.029 A 
ATOM     49  N   UNL A   1      42.328  29.020  30.320  1.00  0.00    -0.354 N 
ATOM     50  N   UNL A   1      42.689  31.458  31.889  1.00  0.00    -0.248 NA
ATOM     51  C   UNL A   1      43.965  32.772  33.340  1.00  0.00     0.031 C 
ATOM     52  C   UNL A   1      43.970  27.522  30.297  1.00  0.00     0.029 A 
ATOM     53  C   UNL A   1      43.599  28.757  30.804  1.00  0.00     0.049 A 
ATOM     54  H   UNL A   1      41.802  29.827  30.522  1.00  0.00     0.167 HD
ATOM     55  C   UNL A   1      43.901  30.826  32.131  1.00  0.00     0.074 A 
ATOM     56  C   UNL A   1      44.662  31.696  33.005  1.00  0.00     0.031 C 
ATOM     57  C   UNL A   1      44.347  29.632  31.668  1.00  0.00     0.031 A 
BRANCH  44  58
ATOM     58  C   UNL A   1      40.297  26.689  28.049  1.00  0.00    -0.014 A 
ATOM     59  C   UNL A   1      39.510  25.660  28.592  1.00  0.00     0.009 A 
ATOM     60  C   UNL A   1      40.753  26.569  26.727  1.00  0.00     0.009 A 
ATOM     61  C   UNL A   1      39.220  24.519  27.841  1.00  0.00     0.001 A 
ATOM     62  C   UNL A   1      40.436  25.441  25.968  1.00  0.00     0.001 A 
ATOM     63  C   UNL A   1      39.679  24.413  26.529  1.00  0.00     0.000 A 
ENDBRANCH  44  58
BRANCH  45  64
ATOM     64  C   UNL A   1      41.967  34.895  33.456  1.00  0.00    -0.014 A 
ATOM     65  C   UNL A   1      42.776  35.930  32.961  1.00  0.00     0.009 A 
ATOM     66  C   UNL A   1      41.416  35.021  34.740  1.00  0.00     0.009 A 
ATOM     67  C   UNL A   1      43.052  37.051  33.747  1.00  0.00     0.001 A 
ATOM     68  C   UNL A   1      41.669  36.157  35.512  1.00  0.00     0.001 A 
ATOM     69  C   UNL A   1      42.495  37.166  35.019  1.00  0.00     0.000 A 
ENDBRANCH  45  64
BRANCH  57  70
ATOM     70  C   UNL A   1      45.738  29.218  32.058  1.00  0.00    -0.014 A 
ATOM     71  C   UNL A   1      46.840  29.478  31.230  1.00  0.00     0.009 A 
ATOM     72  C   UNL A   1      45.949  28.587  33.294  1.00  0.00     0.009 A 
ATOM     73  C   UNL A   1      48.122  29.083  31.617  1.00  0.00     0.001 A 
ATOM     74  C   UNL A   1      47.236  28.218  33.691  1.00  0.00     0.001 A 
ATOM     75  C   UNL A   1      48.320  28.458  32.848  1.00  0.00     0.000 A 
ENDBRANCH  57  70
ENDBRANCH  31  32
ENDBRANCH  23  26
ENDBRANCH  21  22
ENDBRANCH  20  21
ENDBRANCH   1  20
TORSDOF 13
ENDMDL
