MODEL 1
REMARK VINA RESULT:     -10.6      0.000      0.000
REMARK SMILES CC[C@](O)(C(=O)NCCCNC(=O)c1ccc(-c2c3nc(c(-c4ccccc4)c4ccc([nH]4)c(-c4ccccc4)c4nc(c(-c5ccccc5)c5ccc2[nH]5)C=C4)C=C3)cc1)[C@H](C)c1ccc(F)cc1F
REMARK SMILES IDX 9 1 8 2 7 3 5 4 6 5 3 7 2 8 1 9 4 10 62 12 63 13 64 14 65 15
REMARK SMILES IDX 70 16 66 17 69 18 71 19 67 20 68 21 10 22 11 23 12 24 13 26
REMARK SMILES IDX 14 27 15 28 61 29 16 30 60 31 17 32 18 33 19 34 54 35 20 36
REMARK SMILES IDX 59 37 53 38 55 39 21 40 58 41 52 42 51 43 22 45 44 46 29 47
REMARK SMILES IDX 43 48 30 49 33 50 42 51 56 52 31 53 32 54 41 56 57 57 34 58
REMARK SMILES IDX 23 59 24 60 28 61 25 62 27 63 26 64 45 65 46 66 50 67 47 68
REMARK SMILES IDX 49 69 48 70 35 71 36 72 40 73 37 74 39 75 38 76
REMARK H PARENT 7 6 4 11 11 25 55 44 33 55
REMARK Flexibility Score: inf
ROOT
ATOM      1  C   UNL A   1      37.779  19.979  24.911  1.00  0.00     0.042 C 
ENDROOT
BRANCH   1   2
ATOM      2  C   UNL A   1      36.530  20.798  25.153  1.00  0.00     0.117 C 
BRANCH   2   3
ATOM      3  N   UNL A   1      35.329  19.995  25.268  1.00  0.00    -0.354 N 
ATOM      4  C   UNL A   1      34.019  20.379  25.179  1.00  0.00     0.252 C 
ATOM      5  O   UNL A   1      33.188  19.492  25.397  1.00  0.00    -0.272 OA
ATOM      6  H   UNL A   1      35.478  19.036  25.433  1.00  0.00     0.163 HD
BRANCH   4   7
ATOM      7  C   UNL A   1      33.615  21.866  24.851  1.00  0.00     0.149 C 
BRANCH   7   8
ATOM      8  C   UNL A   1      32.169  21.921  24.289  1.00  0.00     0.043 C 
ATOM      9  C   UNL A   1      32.053  22.532  22.887  1.00  0.00     0.007 C 
ENDBRANCH   7   8
BRANCH   7  10
ATOM     10  O   UNL A   1      34.535  22.280  23.812  1.00  0.00    -0.379 OA
ATOM     11  H   UNL A   1      34.666  21.550  23.187  1.00  0.00     0.212 HD
ENDBRANCH   7  10
BRANCH   7  12
ATOM     12  C   UNL A   1      33.855  22.764  26.144  1.00  0.00     0.060 C 
ATOM     13  C   UNL A   1      33.413  22.125  27.472  1.00  0.00     0.016 C 
BRANCH  12  14
ATOM     14  C   UNL A   1      33.364  24.220  26.113  1.00  0.00    -0.006 A 
ATOM     15  C   UNL A   1      32.063  24.501  26.580  1.00  0.00     0.010 A 
ATOM     16  C   UNL A   1      34.076  25.287  25.546  1.00  0.00     0.129 A 
ATOM     17  C   UNL A   1      31.541  25.798  26.528  1.00  0.00     0.040 A 
ATOM     18  C   UNL A   1      33.589  26.591  25.544  1.00  0.00     0.078 A 
ATOM     19  F   UNL A   1      35.240  25.093  24.922  1.00  0.00    -0.207 F 
ATOM     20  C   UNL A   1      32.321  26.835  26.034  1.00  0.00     0.126 A 
ATOM     21  F   UNL A   1      31.829  28.080  25.999  1.00  0.00    -0.207 F 
ENDBRANCH  12  14
ENDBRANCH   7  12
ENDBRANCH   4   7
ENDBRANCH   2   3
ENDBRANCH   1   2
BRANCH   1  22
ATOM     22  C   UNL A   1      38.966  20.412  25.750  1.00  0.00     0.118 C 
BRANCH  22  23
ATOM     23  N   UNL A   1      40.031  19.417  25.802  1.00  0.00    -0.352 N 
ATOM     24  C   UNL A   1      41.366  19.559  26.112  1.00  0.00     0.251 C 
ATOM     25  H   UNL A   1      39.752  18.499  25.581  1.00  0.00     0.163 HD
ATOM     26  O   UNL A   1      42.139  18.629  25.946  1.00  0.00    -0.269 OA
BRANCH  24  27
ATOM     27  C   UNL A   1      41.863  20.859  26.615  1.00  0.00     0.039 A 
ATOM     28  C   UNL A   1      42.315  21.814  25.702  1.00  0.00     0.014 A 
ATOM     29  C   UNL A   1      41.851  21.145  27.980  1.00  0.00     0.014 A 
ATOM     30  C   UNL A   1      42.665  23.088  26.156  1.00  0.00     0.010 A 
ATOM     31  C   UNL A   1      42.075  22.444  28.413  1.00  0.00     0.010 A 
ATOM     32  C   UNL A   1      42.497  23.428  27.509  1.00  0.00    -0.014 A 
BRANCH  32  33
ATOM     33  C   UNL A   1      42.768  24.799  28.008  1.00  0.00     0.031 A 
ATOM     34  C   UNL A   1      44.166  25.187  28.412  1.00  0.00     0.074 A 
ATOM     35  C   UNL A   1      41.750  25.667  28.170  1.00  0.00     0.049 A 
ATOM     36  N   UNL A   1      44.592  26.306  28.940  1.00  0.00    -0.248 NA
ATOM     37  C   UNL A   1      45.218  24.173  28.229  1.00  0.00     0.031 C 
ATOM     38  C   UNL A   1      40.342  25.395  27.866  1.00  0.00     0.029 A 
ATOM     39  N   UNL A   1      41.743  26.956  28.640  1.00  0.00    -0.354 N 
ATOM     40  C   UNL A   1      45.949  26.118  29.171  1.00  0.00     0.074 A 
ATOM     41  C   UNL A   1      46.264  24.762  28.787  1.00  0.00     0.031 C 
ATOM     42  C   UNL A   1      39.618  26.496  28.120  1.00  0.00     0.029 A 
ATOM     43  C   UNL A   1      40.496  27.533  28.650  1.00  0.00     0.049 A 
ATOM     44  H   UNL A   1      42.556  27.424  28.941  1.00  0.00     0.167 HD
ATOM     45  C   UNL A   1      46.860  27.005  29.636  1.00  0.00     0.031 A 
ATOM     46  C   UNL A   1      40.104  28.757  29.048  1.00  0.00     0.031 A 
ATOM     47  C   UNL A   1      46.550  28.360  30.001  1.00  0.00     0.049 A 
ATOM     48  C   UNL A   1      41.134  29.721  29.572  1.00  0.00     0.074 A 
ATOM     49  C   UNL A   1      47.410  29.356  30.426  1.00  0.00     0.029 A 
ATOM     50  N   UNL A   1      45.276  28.908  29.986  1.00  0.00    -0.354 N 
ATOM     51  N   UNL A   1      42.426  29.553  29.713  1.00  0.00    -0.248 NA
ATOM     52  C   UNL A   1      40.650  31.047  29.979  1.00  0.00     0.031 C 
ATOM     53  C   UNL A   1      46.649  30.492  30.720  1.00  0.00     0.029 A 
ATOM     54  C   UNL A   1      45.324  30.222  30.417  1.00  0.00     0.049 A 
ATOM     55  H   UNL A   1      44.459  28.433  29.708  1.00  0.00     0.167 HD
ATOM     56  C   UNL A   1      42.914  30.760  30.196  1.00  0.00     0.074 A 
ATOM     57  C   UNL A   1      41.781  31.655  30.305  1.00  0.00     0.031 C 
ATOM     58  C   UNL A   1      44.186  31.098  30.518  1.00  0.00     0.031 A 
BRANCH  45  59
ATOM     59  C   UNL A   1      48.280  26.530  29.776  1.00  0.00    -0.014 A 
ATOM     60  C   UNL A   1      48.727  25.902  30.950  1.00  0.00     0.009 A 
ATOM     61  C   UNL A   1      49.177  26.683  28.707  1.00  0.00     0.009 A 
ATOM     62  C   UNL A   1      50.051  25.475  31.065  1.00  0.00     0.001 A 
ATOM     63  C   UNL A   1      50.491  26.224  28.813  1.00  0.00     0.001 A 
ATOM     64  C   UNL A   1      50.929  25.631  29.994  1.00  0.00     0.000 A 
ENDBRANCH  45  59
BRANCH  46  65
ATOM     65  C   UNL A   1      38.673  29.154  28.952  1.00  0.00    -0.014 A 
ATOM     66  C   UNL A   1      37.817  29.005  30.055  1.00  0.00     0.009 A 
ATOM     67  C   UNL A   1      38.152  29.672  27.757  1.00  0.00     0.009 A 
ATOM     68  C   UNL A   1      36.464  29.334  29.951  1.00  0.00     0.001 A 
ATOM     69  C   UNL A   1      36.805  30.031  27.666  1.00  0.00     0.001 A 
ATOM     70  C   UNL A   1      35.960  29.851  28.760  1.00  0.00     0.000 A 
ENDBRANCH  46  65
BRANCH  58  71
ATOM     71  C   UNL A   1      44.428  32.507  30.979  1.00  0.00    -0.014 A 
ATOM     72  C   UNL A   1      44.390  32.849  32.340  1.00  0.00     0.009 A 
ATOM     73  C   UNL A   1      44.743  33.499  30.037  1.00  0.00     0.009 A 
ATOM     74  C   UNL A   1      44.628  34.164  32.744  1.00  0.00     0.001 A 
ATOM     75  C   UNL A   1      45.012  34.806  30.447  1.00  0.00     0.001 A 
ATOM     76  C   UNL A   1      44.945  35.139  31.797  1.00  0.00     0.000 A 
ENDBRANCH  58  71
ENDBRANCH  32  33
ENDBRANCH  24  27
ENDBRANCH  22  23
ENDBRANCH   1  22
TORSDOF 14
ENDMDL
MODEL 2
REMARK VINA RESULT:     -10.6      3.493      8.082
REMARK SMILES CC[C@](O)(C(=O)NCCCNC(=O)c1ccc(-c2c3nc(c(-c4ccccc4)c4ccc([nH]4)c(-c4ccccc4)c4nc(c(-c5ccccc5)c5ccc2[nH]5)C=C4)C=C3)cc1)[C@H](C)c1ccc(F)cc1F
REMARK SMILES IDX 9 1 8 2 7 3 5 4 6 5 3 7 2 8 1 9 4 10 62 12 63 13 64 14 65 15
REMARK SMILES IDX 70 16 66 17 69 18 71 19 67 20 68 21 10 22 11 23 12 24 13 26
REMARK SMILES IDX 14 27 15 28 61 29 16 30 60 31 17 32 18 33 19 34 54 35 20 36
REMARK SMILES IDX 59 37 53 38 55 39 21 40 58 41 52 42 51 43 22 45 44 46 29 47
REMARK SMILES IDX 43 48 30 49 33 50 42 51 56 52 31 53 32 54 41 56 57 57 34 58
REMARK SMILES IDX 23 59 24 60 28 61 25 62 27 63 26 64 45 65 46 66 50 67 47 68
REMARK SMILES IDX 49 69 48 70 35 71 36 72 40 73 37 74 39 75 38 76
REMARK H PARENT 7 6 4 11 11 25 55 44 33 55
REMARK Flexibility Score: inf
ROOT
ATOM      1  C   UNL A   1      33.560  28.616  26.096  1.00  0.00     0.042 C 
ENDROOT
BRANCH   1   2
ATOM      2  C   UNL A   1      32.328  29.155  25.402  1.00  0.00     0.117 C 
BRANCH   2   3
ATOM      3  N   UNL A   1      32.562  29.523  24.020  1.00  0.00    -0.354 N 
ATOM      4  C   UNL A   1      32.036  28.980  22.879  1.00  0.00     0.252 C 
ATOM      5  O   UNL A   1      32.473  29.439  21.820  1.00  0.00    -0.272 OA
ATOM      6  H   UNL A   1      33.188  30.269  23.882  1.00  0.00     0.163 HD
BRANCH   4   7
ATOM      7  C   UNL A   1      30.968  27.822  22.931  1.00  0.00     0.149 C 
BRANCH   7   8
ATOM      8  C   UNL A   1      31.532  26.603  23.711  1.00  0.00     0.043 C 
ATOM      9  C   UNL A   1      32.761  25.949  23.069  1.00  0.00     0.007 C 
ENDBRANCH   7   8
BRANCH   7  10
ATOM     10  O   UNL A   1      30.768  27.438  21.549  1.00  0.00    -0.379 OA
ATOM     11  H   UNL A   1      31.542  26.947  21.235  1.00  0.00     0.212 HD
ENDBRANCH   7  10
BRANCH   7  12
ATOM     12  C   UNL A   1      29.604  28.403  23.511  1.00  0.00     0.060 C 
ATOM     13  C   UNL A   1      28.438  27.400  23.560  1.00  0.00     0.016 C 
BRANCH  12  14
ATOM     14  C   UNL A   1      29.084  29.732  22.940  1.00  0.00    -0.006 A 
ATOM     15  C   UNL A   1      28.522  29.733  21.647  1.00  0.00     0.010 A 
ATOM     16  C   UNL A   1      29.231  30.978  23.568  1.00  0.00     0.129 A 
ATOM     17  C   UNL A   1      28.080  30.921  21.053  1.00  0.00     0.040 A 
ATOM     18  C   UNL A   1      28.742  32.155  23.010  1.00  0.00     0.078 A 
ATOM     19  F   UNL A   1      29.905  31.105  24.713  1.00  0.00    -0.207 F 
ATOM     20  C   UNL A   1      28.171  32.117  21.753  1.00  0.00     0.126 A 
ATOM     21  F   UNL A   1      27.734  33.251  21.192  1.00  0.00    -0.207 F 
ENDBRANCH  12  14
ENDBRANCH   7  12
ENDBRANCH   4   7
ENDBRANCH   2   3
ENDBRANCH   1   2
BRANCH   1  22
ATOM     22  C   UNL A   1      33.551  28.816  27.600  1.00  0.00     0.118 C 
BRANCH  22  23
ATOM     23  N   UNL A   1      33.672  30.214  27.997  1.00  0.00    -0.352 N 
ATOM     24  C   UNL A   1      34.742  30.895  28.537  1.00  0.00     0.251 C 
ATOM     25  H   UNL A   1      32.863  30.757  27.856  1.00  0.00     0.163 HD
ATOM     26  O   UNL A   1      34.600  32.034  28.952  1.00  0.00    -0.269 OA
BRANCH  24  27
ATOM     27  C   UNL A   1      36.056  30.223  28.641  1.00  0.00     0.039 A 
ATOM     28  C   UNL A   1      36.918  30.241  27.544  1.00  0.00     0.014 A 
ATOM     29  C   UNL A   1      36.447  29.606  29.830  1.00  0.00     0.014 A 
ATOM     30  C   UNL A   1      38.209  29.723  27.674  1.00  0.00     0.010 A 
ATOM     31  C   UNL A   1      37.765  29.208  29.997  1.00  0.00     0.010 A 
ATOM     32  C   UNL A   1      38.659  29.250  28.918  1.00  0.00    -0.014 A 
BRANCH  32  33
ATOM     33  C   UNL A   1      40.053  28.780  29.117  1.00  0.00     0.031 A 
ATOM     34  C   UNL A   1      41.083  29.714  29.695  1.00  0.00     0.074 A 
ATOM     35  C   UNL A   1      40.409  27.547  28.709  1.00  0.00     0.049 A 
ATOM     36  N   UNL A   1      42.364  29.520  29.876  1.00  0.00    -0.248 NA
ATOM     37  C   UNL A   1      40.620  31.055  30.091  1.00  0.00     0.031 C 
ATOM     38  C   UNL A   1      39.518  26.564  28.086  1.00  0.00     0.029 A 
ATOM     39  N   UNL A   1      41.623  26.908  28.753  1.00  0.00    -0.354 N 
ATOM     40  C   UNL A   1      42.858  30.716  30.382  1.00  0.00     0.074 A 
ATOM     41  C   UNL A   1      41.756  31.650  30.420  1.00  0.00     0.031 C 
ATOM     42  C   UNL A   1      40.206  25.438  27.843  1.00  0.00     0.029 A 
ATOM     43  C   UNL A   1      41.594  25.632  28.244  1.00  0.00     0.049 A 
ATOM     44  H   UNL A   1      42.439  27.326  29.114  1.00  0.00     0.167 HD
ATOM     45  C   UNL A   1      44.111  31.005  30.804  1.00  0.00     0.031 A 
ATOM     46  C   UNL A   1      42.578  24.723  28.112  1.00  0.00     0.031 A 
ATOM     47  C   UNL A   1      45.202  30.070  30.783  1.00  0.00     0.049 A 
ATOM     48  C   UNL A   1      43.965  25.073  28.578  1.00  0.00     0.074 A 
ATOM     49  C   UNL A   1      46.495  30.244  31.243  1.00  0.00     0.029 A 
ATOM     50  N   UNL A   1      45.128  28.784  30.271  1.00  0.00    -0.354 N 
ATOM     51  N   UNL A   1      44.397  26.183  29.124  1.00  0.00    -0.248 NA
ATOM     52  C   UNL A   1      44.994  24.037  28.420  1.00  0.00     0.031 C 
ATOM     53  C   UNL A   1      47.218  29.082  30.960  1.00  0.00     0.029 A 
ATOM     54  C   UNL A   1      46.359  28.162  30.381  1.00  0.00     0.049 A 
ATOM     55  H   UNL A   1      44.319  28.374  29.886  1.00  0.00     0.167 HD
ATOM     56  C   UNL A   1      45.741  25.969  29.402  1.00  0.00     0.074 A 
ATOM     57  C   UNL A   1      46.046  24.617  28.981  1.00  0.00     0.031 C 
ATOM     58  C   UNL A   1      46.642  26.815  29.959  1.00  0.00     0.031 A 
BRANCH  45  59
ATOM     59  C   UNL A   1      44.363  32.393  31.324  1.00  0.00    -0.014 A 
ATOM     60  C   UNL A   1      44.739  33.437  30.462  1.00  0.00     0.009 A 
ATOM     61  C   UNL A   1      44.193  32.671  32.689  1.00  0.00     0.009 A 
ATOM     62  C   UNL A   1      44.977  34.719  30.963  1.00  0.00     0.001 A 
ATOM     63  C   UNL A   1      44.399  33.960  33.182  1.00  0.00     0.001 A 
ATOM     64  C   UNL A   1      44.801  34.980  32.321  1.00  0.00     0.000 A 
ENDBRANCH  45  59
BRANCH  46  65
ATOM     65  C   UNL A   1      42.288  23.386  27.527  1.00  0.00    -0.014 A 
ATOM     66  C   UNL A   1      42.513  23.141  26.163  1.00  0.00     0.009 A 
ATOM     67  C   UNL A   1      41.775  22.352  28.324  1.00  0.00     0.009 A 
ATOM     68  C   UNL A   1      42.199  21.900  25.605  1.00  0.00     0.001 A 
ATOM     69  C   UNL A   1      41.492  21.102  27.770  1.00  0.00     0.001 A 
ATOM     70  C   UNL A   1      41.693  20.880  26.409  1.00  0.00     0.000 A 
ENDBRANCH  46  65
BRANCH  58  71
ATOM     71  C   UNL A   1      48.032  26.290  30.183  1.00  0.00    -0.014 A 
ATOM     72  C   UNL A   1      49.011  26.358  29.179  1.00  0.00     0.009 A 
ATOM     73  C   UNL A   1      48.377  25.759  31.436  1.00  0.00     0.009 A 
ATOM     74  C   UNL A   1      50.298  25.871  29.416  1.00  0.00     0.001 A 
ATOM     75  C   UNL A   1      49.673  25.304  31.680  1.00  0.00     0.001 A 
ATOM     76  C   UNL A   1      50.629  25.351  30.668  1.00  0.00     0.000 A 
ENDBRANCH  58  71
ENDBRANCH  32  33
ENDBRANCH  24  27
ENDBRANCH  22  23
ENDBRANCH   1  22
TORSDOF 14
ENDMDL
MODEL 3
REMARK VINA RESULT:     -10.5      4.710      9.228
REMARK SMILES CC[C@](O)(C(=O)NCCCNC(=O)c1ccc(-c2c3nc(c(-c4ccccc4)c4ccc([nH]4)c(-c4ccccc4)c4nc(c(-c5ccccc5)c5ccc2[nH]5)C=C4)C=C3)cc1)[C@H](C)c1ccc(F)cc1F
REMARK SMILES IDX 9 1 8 2 7 3 5 4 6 5 3 7 2 8 1 9 4 10 62 12 63 13 64 14 65 15
REMARK SMILES IDX 70 16 66 17 69 18 71 19 67 20 68 21 10 22 11 23 12 24 13 26
REMARK SMILES IDX 14 27 15 28 61 29 16 30 60 31 17 32 18 33 19 34 54 35 20 36
REMARK SMILES IDX 59 37 53 38 55 39 21 40 58 41 52 42 51 43 22 45 44 46 29 47
REMARK SMILES IDX 43 48 30 49 33 50 42 51 56 52 31 53 32 54 41 56 57 57 34 58
REMARK SMILES IDX 23 59 24 60 28 61 25 62 27 63 26 64 45 65 46 66 50 67 47 68
REMARK SMILES IDX 49 69 48 70 35 71 36 72 40 73 37 74 39 75 38 76
REMARK H PARENT 7 6 4 11 11 25 55 44 33 55
REMARK Flexibility Score: inf
ROOT
ATOM      1  C   UNL A   1      31.756  31.010  26.503  1.00  0.00     0.042 C 
ENDROOT
BRANCH   1   2
ATOM      2  C   UNL A   1      32.254  30.078  25.420  1.00  0.00     0.117 C 
BRANCH   2   3
ATOM      3  N   UNL A   1      31.877  28.695  25.634  1.00  0.00    -0.354 N 
ATOM      4  C   UNL A   1      31.126  27.870  24.841  1.00  0.00     0.252 C 
ATOM      5  O   UNL A   1      30.890  26.752  25.308  1.00  0.00    -0.272 OA
ATOM      6  H   UNL A   1      32.207  28.292  26.469  1.00  0.00     0.163 HD
BRANCH   4   7
ATOM      7  C   UNL A   1      30.581  28.343  23.440  1.00  0.00     0.149 C 
BRANCH   7   8
ATOM      8  C   UNL A   1      30.712  27.201  22.397  1.00  0.00     0.043 C 
ATOM      9  C   UNL A   1      32.153  26.765  22.106  1.00  0.00     0.007 C 
ENDBRANCH   7   8
BRANCH   7  10
ATOM     10  O   UNL A   1      31.453  29.432  23.052  1.00  0.00    -0.379 OA
ATOM     11  H   UNL A   1      31.188  30.240  23.517  1.00  0.00     0.212 HD
ENDBRANCH   7  10
BRANCH   7  12
ATOM     12  C   UNL A   1      29.102  28.903  23.624  1.00  0.00     0.060 C 
ATOM     13  C   UNL A   1      27.986  27.854  23.476  1.00  0.00     0.016 C 
BRANCH  12  14
ATOM     14  C   UNL A   1      28.702  30.159  22.834  1.00  0.00    -0.006 A 
ATOM     15  C   UNL A   1      28.332  30.013  21.481  1.00  0.00     0.010 A 
ATOM     16  C   UNL A   1      28.785  31.469  23.328  1.00  0.00     0.129 A 
ATOM     17  C   UNL A   1      28.009  31.125  20.696  1.00  0.00     0.040 A 
ATOM     18  C   UNL A   1      28.410  32.576  22.574  1.00  0.00     0.078 A 
ATOM     19  F   UNL A   1      29.290  31.726  24.537  1.00  0.00    -0.207 F 
ATOM     20  C   UNL A   1      28.026  32.394  21.259  1.00  0.00     0.126 A 
ATOM     21  F   UNL A   1      27.702  33.458  20.514  1.00  0.00    -0.207 F 
ENDBRANCH  12  14
ENDBRANCH   7  12
ENDBRANCH   4   7
ENDBRANCH   2   3
ENDBRANCH   1   2
BRANCH   1  22
ATOM     22  C   UNL A   1      32.862  31.757  27.223  1.00  0.00     0.118 C 
BRANCH  22  23
ATOM     23  N   UNL A   1      32.512  33.136  27.547  1.00  0.00    -0.352 N 
ATOM     24  C   UNL A   1      33.124  34.032  28.397  1.00  0.00     0.251 C 
ATOM     25  H   UNL A   1      31.715  33.481  27.085  1.00  0.00     0.163 HD
ATOM     26  O   UNL A   1      32.589  35.097  28.658  1.00  0.00    -0.269 OA
BRANCH  24  27
ATOM     27  C   UNL A   1      34.419  33.678  29.019  1.00  0.00     0.039 A 
ATOM     28  C   UNL A   1      34.426  32.918  30.190  1.00  0.00     0.014 A 
ATOM     29  C   UNL A   1      35.622  34.068  28.430  1.00  0.00     0.014 A 
ATOM     30  C   UNL A   1      35.642  32.472  30.713  1.00  0.00     0.010 A 
ATOM     31  C   UNL A   1      36.815  33.520  28.875  1.00  0.00     0.010 A 
ATOM     32  C   UNL A   1      36.843  32.725  30.029  1.00  0.00    -0.014 A 
BRANCH  32  33
ATOM     33  C   UNL A   1      38.140  32.186  30.504  1.00  0.00     0.031 A 
ATOM     34  C   UNL A   1      38.687  30.915  29.910  1.00  0.00     0.074 A 
ATOM     35  C   UNL A   1      38.788  32.793  31.518  1.00  0.00     0.049 A 
ATOM     36  N   UNL A   1      39.761  30.245  30.239  1.00  0.00    -0.248 NA
ATOM     37  C   UNL A   1      37.906  30.298  28.824  1.00  0.00     0.031 C 
ATOM     38  C   UNL A   1      38.338  34.000  32.216  1.00  0.00     0.029 A 
ATOM     39  N   UNL A   1      39.965  32.470  32.146  1.00  0.00    -0.354 N 
ATOM     40  C   UNL A   1      39.769  29.122  29.420  1.00  0.00     0.074 A 
ATOM     41  C   UNL A   1      38.564  29.167  28.624  1.00  0.00     0.031 C 
ATOM     42  C   UNL A   1      39.246  34.336  33.145  1.00  0.00     0.029 A 
ATOM     43  C   UNL A   1      40.316  33.345  33.146  1.00  0.00     0.049 A 
ATOM     44  H   UNL A   1      40.508  31.685  31.902  1.00  0.00     0.167 HD
ATOM     45  C   UNL A   1      40.709  28.154  29.318  1.00  0.00     0.031 A 
ATOM     46  C   UNL A   1      41.377  33.345  33.973  1.00  0.00     0.031 A 
ATOM     47  C   UNL A   1      41.916  28.119  30.098  1.00  0.00     0.049 A 
ATOM     48  C   UNL A   1      42.402  32.251  33.848  1.00  0.00     0.074 A 
ATOM     49  C   UNL A   1      42.961  27.216  30.029  1.00  0.00     0.029 A 
ATOM     50  N   UNL A   1      42.238  29.031  31.091  1.00  0.00    -0.354 N 
ATOM     51  N   UNL A   1      42.432  31.239  33.016  1.00  0.00    -0.248 NA
ATOM     52  C   UNL A   1      43.545  32.309  34.768  1.00  0.00     0.031 C 
ATOM     53  C   UNL A   1      43.890  27.548  31.019  1.00  0.00     0.029 A 
ATOM     54  C   UNL A   1      43.454  28.697  31.660  1.00  0.00     0.049 A 
ATOM     55  H   UNL A   1      41.684  29.803  31.352  1.00  0.00     0.167 HD
ATOM     56  C   UNL A   1      43.610  30.557  33.292  1.00  0.00     0.074 A 
ATOM     57  C   UNL A   1      44.274  31.282  34.355  1.00  0.00     0.031 C 
ATOM     58  C   UNL A   1      44.100  29.432  32.716  1.00  0.00     0.031 A 
BRANCH  45  59
ATOM     59  C   UNL A   1      40.462  27.051  28.326  1.00  0.00    -0.014 A 
ATOM     60  C   UNL A   1      41.022  27.090  27.038  1.00  0.00     0.009 A 
ATOM     61  C   UNL A   1      39.686  25.941  28.693  1.00  0.00     0.009 A 
ATOM     62  C   UNL A   1      40.776  26.061  26.127  1.00  0.00     0.001 A 
ATOM     63  C   UNL A   1      39.470  24.897  27.792  1.00  0.00     0.001 A 
ATOM     64  C   UNL A   1      40.005  24.963  26.507  1.00  0.00     0.000 A 
ENDBRANCH  45  59
BRANCH  46  65
ATOM     65  C   UNL A   1      41.539  34.424  34.985  1.00  0.00    -0.014 A 
ATOM     66  C   UNL A   1      41.104  34.233  36.306  1.00  0.00     0.009 A 
ATOM     67  C   UNL A   1      42.116  35.654  34.634  1.00  0.00     0.009 A 
ATOM     68  C   UNL A   1      41.214  35.262  37.244  1.00  0.00     0.001 A 
ATOM     69  C   UNL A   1      42.254  36.670  35.582  1.00  0.00     0.001 A 
ATOM     70  C   UNL A   1      41.793  36.477  36.884  1.00  0.00     0.000 A 
ENDBRANCH  46  65
BRANCH  58  71
ATOM     71  C   UNL A   1      45.437  28.940  33.194  1.00  0.00    -0.014 A 
ATOM     72  C   UNL A   1      46.633  29.396  32.618  1.00  0.00     0.009 A 
ATOM     73  C   UNL A   1      45.498  28.040  34.269  1.00  0.00     0.009 A 
ATOM     74  C   UNL A   1      47.863  28.931  33.088  1.00  0.00     0.001 A 
ATOM     75  C   UNL A   1      46.730  27.602  34.758  1.00  0.00     0.001 A 
ATOM     76  C   UNL A   1      47.910  28.040  34.161  1.00  0.00     0.000 A 
ENDBRANCH  58  71
ENDBRANCH  32  33
ENDBRANCH  24  27
ENDBRANCH  22  23
ENDBRANCH   1  22
TORSDOF 14
ENDMDL
