MODEL 1
REMARK VINA RESULT:     -10.5      0.000      0.000
REMARK SMILES CC[C@](C)([NH3+])C(=O)N1CC[NH+]([C@H](C)C(=O)NCCCNC(=O)c2ccc(-c3c4nc(c(-c5ccccc5)c5ccc([nH]5)c(-c5ccccc5)c5nc(c(-c6ccccc6)c6ccc3[nH]6)C=C5)C=C4)cc2)CC1
REMARK SMILES IDX 17 1 16 2 14 3 15 4 12 6 13 7 11 8 6 9 7 10 8 11 9 12 72 13
REMARK SMILES IDX 10 14 71 15 3 17 4 18 2 19 1 20 5 21 18 25 19 26 20 27 21 28
REMARK SMILES IDX 22 30 23 31 24 32 70 33 25 34 69 35 26 36 27 37 28 38 63 39
REMARK SMILES IDX 29 40 68 41 62 42 64 43 30 44 67 45 61 46 60 47 31 49 53 50
REMARK SMILES IDX 38 51 52 52 39 53 42 54 51 55 65 56 40 57 41 58 50 60 66 61
REMARK SMILES IDX 43 62 32 63 33 64 37 65 34 66 36 67 35 68 54 69 55 70 59 71
REMARK SMILES IDX 56 72 58 73 57 74 44 75 45 76 49 77 46 78 48 79 47 80
REMARK H PARENT 16 5 11 16 5 22 5 23 5 24 20 29 64 48 42 59
REMARK Flexibility Score: inf
ROOT
ATOM      1  C   UNL A   1      36.572  20.191  24.985  1.00  0.00     0.118 C 
ENDROOT
BRANCH   1   2
ATOM      2  N   UNL A   1      36.639  21.586  25.372  1.00  0.00    -0.351 N 
ATOM      3  C   UNL A   1      35.693  22.387  25.946  1.00  0.00     0.278 C 
ATOM      4  O   UNL A   1      36.081  23.483  26.365  1.00  0.00    -0.268 OA
ATOM      5  H   UNL A   1      37.501  22.026  25.192  1.00  0.00     0.163 HD
BRANCH   3   6
ATOM      6  C   UNL A   1      34.206  21.976  26.046  1.00  0.00     0.271 C 
ATOM      7  C   UNL A   1      33.695  21.962  27.493  1.00  0.00     0.086 C 
BRANCH   6   8
ATOM      8  N   UNL A   1      33.335  22.587  24.998  1.00  0.00    -0.322 N 
ATOM      9  C   UNL A   1      33.149  25.949  22.763  1.00  0.00     0.283 C 
ATOM     10  O   UNL A   1      33.806  25.913  21.707  1.00  0.00    -0.268 OA
ATOM     11  N   UNL A   1      32.593  24.773  23.238  1.00  0.00    -0.326 N 
ATOM     12  C   UNL A   1      33.052  23.514  22.655  1.00  0.00     0.181 C 
ATOM     13  C   UNL A   1      31.788  24.519  24.431  1.00  0.00     0.181 C 
ATOM     14  C   UNL A   1      33.966  22.824  23.685  1.00  0.00     0.284 C 
ATOM     15  C   UNL A   1      32.633  23.793  25.498  1.00  0.00     0.284 C 
ATOM     16  H   UNL A   1      32.644  21.862  24.806  1.00  0.00     0.348 HD
BRANCH   9  17
ATOM     17  C   UNL A   1      33.170  27.295  23.576  1.00  0.00     0.171 C 
ATOM     18  C   UNL A   1      33.770  28.379  22.652  1.00  0.00     0.090 C 
BRANCH  17  19
ATOM     19  C   UNL A   1      34.072  27.070  24.818  1.00  0.00     0.075 C 
ATOM     20  C   UNL A   1      33.527  27.612  26.136  1.00  0.00     0.011 C 
ENDBRANCH  17  19
BRANCH  17  21
ATOM     21  N   UNL A   1      31.831  27.776  23.978  1.00  0.00    -0.345 N 
ATOM     22  H   UNL A   1      31.864  28.103  24.943  1.00  0.00     0.345 HD
ATOM     23  H   UNL A   1      31.159  27.013  23.899  1.00  0.00     0.345 HD
ATOM     24  H   UNL A   1      31.549  28.543  23.368  1.00  0.00     0.345 HD
ENDBRANCH  17  21
ENDBRANCH   9  17
ENDBRANCH   6   8
ENDBRANCH   3   6
ENDBRANCH   1   2
BRANCH   1  25
ATOM     25  C   UNL A   1      37.923  19.545  24.784  1.00  0.00     0.042 C 
BRANCH  25  26
ATOM     26  C   UNL A   1      38.979  20.050  25.747  1.00  0.00     0.118 C 
BRANCH  26  27
ATOM     27  N   UNL A   1      40.177  19.216  25.785  1.00  0.00    -0.352 N 
ATOM     28  C   UNL A   1      41.485  19.523  26.075  1.00  0.00     0.251 C 
ATOM     29  H   UNL A   1      40.020  18.268  25.564  1.00  0.00     0.163 HD
ATOM     30  O   UNL A   1      42.363  18.691  25.895  1.00  0.00    -0.269 OA
BRANCH  28  31
ATOM     31  C   UNL A   1      41.839  20.868  26.580  1.00  0.00     0.039 A 
ATOM     32  C   UNL A   1      42.239  21.859  25.679  1.00  0.00     0.014 A 
ATOM     33  C   UNL A   1      41.781  21.153  27.942  1.00  0.00     0.014 A 
ATOM     34  C   UNL A   1      42.504  23.150  26.144  1.00  0.00     0.010 A 
ATOM     35  C   UNL A   1      41.895  22.463  28.379  1.00  0.00     0.010 A 
ATOM     36  C   UNL A   1      42.295  23.471  27.494  1.00  0.00    -0.014 A 
BRANCH  36  37
ATOM     37  C   UNL A   1      42.561  24.826  28.037  1.00  0.00     0.031 A 
ATOM     38  C   UNL A   1      43.957  25.185  28.480  1.00  0.00     0.074 A 
ATOM     39  C   UNL A   1      41.549  25.699  28.211  1.00  0.00     0.049 A 
ATOM     40  N   UNL A   1      44.382  26.261  29.092  1.00  0.00    -0.248 NA
ATOM     41  C   UNL A   1      45.007  24.177  28.250  1.00  0.00     0.031 C 
ATOM     42  C   UNL A   1      40.144  25.456  27.877  1.00  0.00     0.029 A 
ATOM     43  N   UNL A   1      41.553  26.972  28.719  1.00  0.00    -0.354 N 
ATOM     44  C   UNL A   1      45.728  26.035  29.356  1.00  0.00     0.074 A 
ATOM     45  C   UNL A   1      46.033  24.697  28.903  1.00  0.00     0.031 C 
ATOM     46  C   UNL A   1      39.430  26.562  28.148  1.00  0.00     0.029 A 
ATOM     47  C   UNL A   1      40.319  27.572  28.713  1.00  0.00     0.049 A 
ATOM     48  H   UNL A   1      42.365  27.414  29.058  1.00  0.00     0.167 HD
ATOM     49  C   UNL A   1      46.643  26.875  29.893  1.00  0.00     0.031 A 
ATOM     50  C   UNL A   1      39.948  28.803  29.112  1.00  0.00     0.031 A 
ATOM     51  C   UNL A   1      46.354  28.224  30.290  1.00  0.00     0.049 A 
ATOM     52  C   UNL A   1      40.991  29.736  29.661  1.00  0.00     0.074 A 
ATOM     53  C   UNL A   1      47.219  29.184  30.782  1.00  0.00     0.029 A 
ATOM     54  N   UNL A   1      45.100  28.808  30.220  1.00  0.00    -0.354 N 
ATOM     55  N   UNL A   1      42.270  29.527  29.854  1.00  0.00    -0.248 NA
ATOM     56  C   UNL A   1      40.538  31.085  30.027  1.00  0.00     0.031 C 
ATOM     57  C   UNL A   1      46.478  30.344  31.040  1.00  0.00     0.029 A 
ATOM     58  C   UNL A   1      45.164  30.117  30.661  1.00  0.00     0.049 A 
ATOM     59  H   UNL A   1      44.282  28.358  29.901  1.00  0.00     0.167 HD
ATOM     60  C   UNL A   1      42.782  30.726  30.332  1.00  0.00     0.074 A 
ATOM     61  C   UNL A   1      41.677  31.661  30.384  1.00  0.00     0.031 C 
ATOM     62  C   UNL A   1      44.053  31.030  30.696  1.00  0.00     0.031 A 
BRANCH  49  63
ATOM     63  C   UNL A   1      48.043  26.351  30.062  1.00  0.00    -0.014 A 
ATOM     64  C   UNL A   1      48.455  25.748  31.263  1.00  0.00     0.009 A 
ATOM     65  C   UNL A   1      48.964  26.461  29.010  1.00  0.00     0.009 A 
ATOM     66  C   UNL A   1      49.772  25.310  31.422  1.00  0.00     0.001 A 
ATOM     67  C   UNL A   1      50.271  25.991  29.159  1.00  0.00     0.001 A 
ATOM     68  C   UNL A   1      50.677  25.429  30.368  1.00  0.00     0.000 A 
ENDBRANCH  49  63
BRANCH  50  69
ATOM     69  C   UNL A   1      38.537  29.245  28.963  1.00  0.00    -0.014 A 
ATOM     70  C   UNL A   1      37.660  29.188  30.058  1.00  0.00     0.009 A 
ATOM     71  C   UNL A   1      38.055  29.712  27.731  1.00  0.00     0.009 A 
ATOM     72  C   UNL A   1      36.321  29.557  29.914  1.00  0.00     0.001 A 
ATOM     73  C   UNL A   1      36.722  30.108  27.597  1.00  0.00     0.001 A 
ATOM     74  C   UNL A   1      35.853  30.019  28.684  1.00  0.00     0.000 A 
ENDBRANCH  50  69
BRANCH  62  75
ATOM     75  C   UNL A   1      44.317  32.442  31.130  1.00  0.00    -0.014 A 
ATOM     76  C   UNL A   1      44.240  32.818  32.479  1.00  0.00     0.009 A 
ATOM     77  C   UNL A   1      44.676  33.403  30.172  1.00  0.00     0.009 A 
ATOM     78  C   UNL A   1      44.477  34.142  32.855  1.00  0.00     0.001 A 
ATOM     79  C   UNL A   1      44.941  34.718  30.554  1.00  0.00     0.001 A 
ATOM     80  C   UNL A   1      44.829  35.089  31.893  1.00  0.00     0.000 A 
ENDBRANCH  62  75
ENDBRANCH  36  37
ENDBRANCH  28  31
ENDBRANCH  26  27
ENDBRANCH  25  26
ENDBRANCH   1  25
TORSDOF 14
ENDMDL
MODEL 2
REMARK VINA RESULT:     -10.4      3.147      8.801
REMARK SMILES CC[C@](C)([NH3+])C(=O)N1CC[NH+]([C@H](C)C(=O)NCCCNC(=O)c2ccc(-c3c4nc(c(-c5ccccc5)c5ccc([nH]5)c(-c5ccccc5)c5nc(c(-c6ccccc6)c6ccc3[nH]6)C=C5)C=C4)cc2)CC1
REMARK SMILES IDX 17 1 16 2 14 3 15 4 12 6 13 7 11 8 6 9 7 10 8 11 9 12 72 13
REMARK SMILES IDX 10 14 71 15 3 17 4 18 2 19 1 20 5 21 18 25 19 26 20 27 21 28
REMARK SMILES IDX 22 30 23 31 24 32 70 33 25 34 69 35 26 36 27 37 28 38 63 39
REMARK SMILES IDX 29 40 68 41 62 42 64 43 30 44 67 45 61 46 60 47 31 49 53 50
REMARK SMILES IDX 38 51 52 52 39 53 42 54 51 55 65 56 40 57 41 58 50 60 66 61
REMARK SMILES IDX 43 62 32 63 33 64 37 65 34 66 36 67 35 68 54 69 55 70 59 71
REMARK SMILES IDX 56 72 58 73 57 74 44 75 45 76 49 77 46 78 48 79 47 80
REMARK H PARENT 16 5 11 16 5 22 5 23 5 24 20 29 64 48 42 59
REMARK Flexibility Score: inf
ROOT
ATOM      1  C   UNL A   1      31.397  30.840  25.721  1.00  0.00     0.118 C 
ENDROOT
BRANCH   1   2
ATOM      2  N   UNL A   1      32.522  30.011  26.104  1.00  0.00    -0.351 N 
ATOM      3  C   UNL A   1      33.221  29.087  25.381  1.00  0.00     0.278 C 
ATOM      4  O   UNL A   1      34.272  28.675  25.885  1.00  0.00    -0.268 OA
ATOM      5  H   UNL A   1      32.832  30.133  27.030  1.00  0.00     0.163 HD
BRANCH   3   6
ATOM      6  C   UNL A   1      32.725  28.548  24.020  1.00  0.00     0.271 C 
ATOM      7  C   UNL A   1      33.764  28.721  22.903  1.00  0.00     0.086 C 
BRANCH   6   8
ATOM      8  N   UNL A   1      31.999  27.246  24.109  1.00  0.00    -0.322 N 
ATOM      9  C   UNL A   1      32.089  23.845  26.290  1.00  0.00     0.283 C 
ATOM     10  O   UNL A   1      31.441  23.886  27.351  1.00  0.00    -0.268 OA
ATOM     11  N   UNL A   1      31.637  24.585  25.209  1.00  0.00    -0.326 N 
ATOM     12  C   UNL A   1      30.615  25.601  25.453  1.00  0.00     0.181 C 
ATOM     13  C   UNL A   1      32.186  24.727  23.862  1.00  0.00     0.181 C 
ATOM     14  C   UNL A   1      31.296  26.980  25.380  1.00  0.00     0.284 C 
ATOM     15  C   UNL A   1      32.855  26.107  23.704  1.00  0.00     0.284 C 
ATOM     16  H   UNL A   1      31.242  27.345  23.432  1.00  0.00     0.348 HD
BRANCH   9  17
ATOM     17  C   UNL A   1      33.478  23.109  26.325  1.00  0.00     0.171 C 
ATOM     18  C   UNL A   1      33.573  22.373  27.680  1.00  0.00     0.090 C 
BRANCH  17  19
ATOM     19  C   UNL A   1      34.579  24.197  26.210  1.00  0.00     0.075 C 
ATOM     20  C   UNL A   1      35.671  23.923  25.181  1.00  0.00     0.011 C 
ENDBRANCH  17  19
BRANCH  17  21
ATOM     21  N   UNL A   1      33.641  22.082  25.274  1.00  0.00    -0.345 N 
ATOM     22  H   UNL A   1      34.140  21.280  25.657  1.00  0.00     0.345 HD
ATOM     23  H   UNL A   1      34.172  22.475  24.496  1.00  0.00     0.345 HD
ATOM     24  H   UNL A   1      32.722  21.786  24.943  1.00  0.00     0.345 HD
ENDBRANCH  17  21
ENDBRANCH   9  17
ENDBRANCH   6   8
ENDBRANCH   3   6
ENDBRANCH   1   2
BRANCH   1  25
ATOM     25  C   UNL A   1      31.235  32.082  26.566  1.00  0.00     0.042 C 
BRANCH  25  26
ATOM     26  C   UNL A   1      32.549  32.631  27.085  1.00  0.00     0.118 C 
BRANCH  26  27
ATOM     27  N   UNL A   1      32.423  33.945  27.708  1.00  0.00    -0.352 N 
ATOM     28  C   UNL A   1      33.196  34.575  28.656  1.00  0.00     0.251 C 
ATOM     29  H   UNL A   1      31.652  34.472  27.395  1.00  0.00     0.163 HD
ATOM     30  O   UNL A   1      32.816  35.626  29.154  1.00  0.00    -0.269 OA
BRANCH  28  31
ATOM     31  C   UNL A   1      34.472  33.971  29.097  1.00  0.00     0.039 A 
ATOM     32  C   UNL A   1      34.488  33.129  30.212  1.00  0.00     0.014 A 
ATOM     33  C   UNL A   1      35.656  34.237  28.413  1.00  0.00     0.014 A 
ATOM     34  C   UNL A   1      35.678  32.500  30.588  1.00  0.00     0.010 A 
ATOM     35  C   UNL A   1      36.796  33.499  28.691  1.00  0.00     0.010 A 
ATOM     36  C   UNL A   1      36.833  32.651  29.804  1.00  0.00    -0.014 A 
BRANCH  36  37
ATOM     37  C   UNL A   1      38.121  32.004  30.159  1.00  0.00     0.031 A 
ATOM     38  C   UNL A   1      39.074  32.714  31.087  1.00  0.00     0.074 A 
ATOM     39  C   UNL A   1      38.472  30.833  29.592  1.00  0.00     0.049 A 
ATOM     40  N   UNL A   1      40.295  32.389  31.430  1.00  0.00    -0.248 NA
ATOM     41  C   UNL A   1      38.611  33.986  31.670  1.00  0.00     0.031 C 
ATOM     42  C   UNL A   1      37.667  30.071  28.635  1.00  0.00     0.029 A 
ATOM     43  N   UNL A   1      39.609  30.082  29.740  1.00  0.00    -0.354 N 
ATOM     44  C   UNL A   1      40.752  33.435  32.223  1.00  0.00     0.074 A 
ATOM     45  C   UNL A   1      39.710  34.434  32.255  1.00  0.00     0.031 C 
ATOM     46  C   UNL A   1      38.317  28.939  28.316  1.00  0.00     0.029 A 
ATOM     47  C   UNL A   1      39.598  28.917  29.013  1.00  0.00     0.049 A 
ATOM     48  H   UNL A   1      40.362  30.352  30.314  1.00  0.00     0.167 HD
ATOM     49  C   UNL A   1      41.921  33.543  32.898  1.00  0.00     0.031 A 
ATOM     50  C   UNL A   1      40.518  27.938  28.926  1.00  0.00     0.031 A 
ATOM     51  C   UNL A   1      42.933  32.525  32.912  1.00  0.00     0.049 A 
ATOM     52  C   UNL A   1      41.788  28.058  29.721  1.00  0.00     0.074 A 
ATOM     53  C   UNL A   1      44.124  32.501  33.615  1.00  0.00     0.029 A 
ATOM     54  N   UNL A   1      42.859  31.339  32.201  1.00  0.00    -0.354 N 
ATOM     55  N   UNL A   1      42.183  29.028  30.510  1.00  0.00    -0.248 NA
ATOM     56  C   UNL A   1      42.729  26.934  29.630  1.00  0.00     0.031 C 
ATOM     57  C   UNL A   1      44.787  31.308  33.303  1.00  0.00     0.029 A 
ATOM     58  C   UNL A   1      43.985  30.572  32.445  1.00  0.00     0.049 A 
ATOM     59  H   UNL A   1      42.115  31.078  31.610  1.00  0.00     0.167 HD
ATOM     60  C   UNL A   1      43.402  28.617  31.034  1.00  0.00     0.074 A 
ATOM     61  C   UNL A   1      43.671  27.303  30.486  1.00  0.00     0.031 C 
ATOM     62  C   UNL A   1      44.226  29.266  31.893  1.00  0.00     0.031 A 
BRANCH  49  63
ATOM     63  C   UNL A   1      42.147  34.805  33.684  1.00  0.00    -0.014 A 
ATOM     64  C   UNL A   1      42.808  35.908  33.116  1.00  0.00     0.009 A 
ATOM     65  C   UNL A   1      41.695  34.896  35.009  1.00  0.00     0.009 A 
ATOM     66  C   UNL A   1      43.053  37.056  33.875  1.00  0.00     0.001 A 
ATOM     67  C   UNL A   1      41.911  36.057  35.754  1.00  0.00     0.001 A 
ATOM     68  C   UNL A   1      42.601  37.130  35.191  1.00  0.00     0.000 A 
ENDBRANCH  49  63
BRANCH  50  69
ATOM     69  C   UNL A   1      40.256  26.736  28.091  1.00  0.00    -0.014 A 
ATOM     70  C   UNL A   1      39.493  25.675  28.603  1.00  0.00     0.009 A 
ATOM     71  C   UNL A   1      40.773  26.636  26.791  1.00  0.00     0.009 A 
ATOM     72  C   UNL A   1      39.282  24.523  27.842  1.00  0.00     0.001 A 
ATOM     73  C   UNL A   1      40.536  25.495  26.022  1.00  0.00     0.001 A 
ATOM     74  C   UNL A   1      39.801  24.435  26.552  1.00  0.00     0.000 A 
ENDBRANCH  50  69
BRANCH  62  75
ATOM     75  C   UNL A   1      45.466  28.539  32.327  1.00  0.00    -0.014 A 
ATOM     76  C   UNL A   1      45.465  27.698  33.450  1.00  0.00     0.009 A 
ATOM     77  C   UNL A   1      46.646  28.681  31.580  1.00  0.00     0.009 A 
ATOM     78  C   UNL A   1      46.636  27.045  33.840  1.00  0.00     0.001 A 
ATOM     79  C   UNL A   1      47.806  28.004  31.956  1.00  0.00     0.001 A 
ATOM     80  C   UNL A   1      47.803  27.196  33.092  1.00  0.00     0.000 A 
ENDBRANCH  62  75
ENDBRANCH  36  37
ENDBRANCH  28  31
ENDBRANCH  26  27
ENDBRANCH  25  26
ENDBRANCH   1  25
TORSDOF 14
ENDMDL
MODEL 3
REMARK VINA RESULT:     -10.4      1.476      6.264
REMARK SMILES CC[C@](C)([NH3+])C(=O)N1CC[NH+]([C@H](C)C(=O)NCCCNC(=O)c2ccc(-c3c4nc(c(-c5ccccc5)c5ccc([nH]5)c(-c5ccccc5)c5nc(c(-c6ccccc6)c6ccc3[nH]6)C=C5)C=C4)cc2)CC1
REMARK SMILES IDX 17 1 16 2 14 3 15 4 12 6 13 7 11 8 6 9 7 10 8 11 9 12 72 13
REMARK SMILES IDX 10 14 71 15 3 17 4 18 2 19 1 20 5 21 18 25 19 26 20 27 21 28
REMARK SMILES IDX 22 30 23 31 24 32 70 33 25 34 69 35 26 36 27 37 28 38 63 39
REMARK SMILES IDX 29 40 68 41 62 42 64 43 30 44 67 45 61 46 60 47 31 49 53 50
REMARK SMILES IDX 38 51 52 52 39 53 42 54 51 55 65 56 40 57 41 58 50 60 66 61
REMARK SMILES IDX 43 62 32 63 33 64 37 65 34 66 36 67 35 68 54 69 55 70 59 71
REMARK SMILES IDX 56 72 58 73 57 74 44 75 45 76 49 77 46 78 48 79 47 80
REMARK H PARENT 16 5 11 16 5 22 5 23 5 24 20 29 64 48 42 59
REMARK Flexibility Score: inf
ROOT
ATOM      1  C   UNL A   1      36.191  20.340  24.998  1.00  0.00     0.118 C 
ENDROOT
BRANCH   1   2
ATOM      2  N   UNL A   1      35.001  19.513  24.999  1.00  0.00    -0.351 N 
ATOM      3  C   UNL A   1      33.747  19.775  24.528  1.00  0.00     0.278 C 
ATOM      4  O   UNL A   1      32.971  18.814  24.465  1.00  0.00    -0.268 OA
ATOM      5  H   UNL A   1      35.115  18.623  25.404  1.00  0.00     0.163 HD
BRANCH   3   6
ATOM      6  C   UNL A   1      33.292  21.195  24.121  1.00  0.00     0.271 C 
ATOM      7  C   UNL A   1      32.154  21.177  23.089  1.00  0.00     0.086 C 
BRANCH   6   8
ATOM      8  N   UNL A   1      33.189  22.151  25.264  1.00  0.00    -0.322 N 
ATOM      9  C   UNL A   1      31.624  25.789  26.069  1.00  0.00     0.283 C 
ATOM     10  O   UNL A   1      30.430  25.780  26.418  1.00  0.00    -0.268 OA
ATOM     11  N   UNL A   1      32.420  24.707  26.405  1.00  0.00    -0.326 N 
ATOM     12  C   UNL A   1      31.761  23.490  26.875  1.00  0.00     0.181 C 
ATOM     13  C   UNL A   1      33.833  24.448  26.132  1.00  0.00     0.181 C 
ATOM     14  C   UNL A   1      31.825  22.452  25.739  1.00  0.00     0.284 C 
ATOM     15  C   UNL A   1      33.974  23.385  25.023  1.00  0.00     0.284 C 
ATOM     16  H   UNL A   1      33.609  21.642  26.042  1.00  0.00     0.348 HD
BRANCH   9  17
ATOM     17  C   UNL A   1      32.081  26.943  25.104  1.00  0.00     0.171 C 
ATOM     18  C   UNL A   1      32.308  26.313  23.711  1.00  0.00     0.090 C 
BRANCH  17  19
ATOM     19  C   UNL A   1      33.407  27.519  25.670  1.00  0.00     0.075 C 
ATOM     20  C   UNL A   1      33.299  28.210  27.026  1.00  0.00     0.011 C 
ENDBRANCH  17  19
BRANCH  17  21
ATOM     21  N   UNL A   1      31.076  28.013  24.926  1.00  0.00    -0.345 N 
ATOM     22  H   UNL A   1      30.516  27.817  24.097  1.00  0.00     0.345 HD
ATOM     23  H   UNL A   1      31.551  28.909  24.813  1.00  0.00     0.345 HD
ATOM     24  H   UNL A   1      30.471  28.050  25.746  1.00  0.00     0.345 HD
ENDBRANCH  17  21
ENDBRANCH   9  17
ENDBRANCH   6   8
ENDBRANCH   3   6
ENDBRANCH   1   2
BRANCH   1  25
ATOM     25  C   UNL A   1      37.480  19.560  24.881  1.00  0.00     0.042 C 
BRANCH  25  26
ATOM     26  C   UNL A   1      38.629  20.180  25.652  1.00  0.00     0.118 C 
BRANCH  26  27
ATOM     27  N   UNL A   1      39.797  19.309  25.751  1.00  0.00    -0.352 N 
ATOM     28  C   UNL A   1      41.097  19.577  26.110  1.00  0.00     0.251 C 
ATOM     29  H   UNL A   1      39.622  18.367  25.523  1.00  0.00     0.163 HD
ATOM     30  O   UNL A   1      41.957  18.717  25.976  1.00  0.00    -0.269 OA
BRANCH  28  31
ATOM     31  C   UNL A   1      41.465  20.911  26.632  1.00  0.00     0.039 A 
ATOM     32  C   UNL A   1      41.533  21.117  28.012  1.00  0.00     0.014 A 
ATOM     33  C   UNL A   1      41.739  21.963  25.761  1.00  0.00     0.014 A 
ATOM     34  C   UNL A   1      41.949  22.356  28.508  1.00  0.00     0.010 A 
ATOM     35  C   UNL A   1      42.295  23.136  26.246  1.00  0.00     0.010 A 
ATOM     36  C   UNL A   1      42.371  23.363  27.626  1.00  0.00    -0.014 A 
BRANCH  36  37
ATOM     37  C   UNL A   1      42.823  24.693  28.100  1.00  0.00     0.031 A 
ATOM     38  C   UNL A   1      41.801  25.769  28.372  1.00  0.00     0.074 A 
ATOM     39  C   UNL A   1      44.138  24.966  28.208  1.00  0.00     0.049 A 
ATOM     40  N   UNL A   1      41.983  27.029  28.673  1.00  0.00    -0.248 NA
ATOM     41  C   UNL A   1      40.383  25.387  28.237  1.00  0.00     0.031 C 
ATOM     42  C   UNL A   1      45.231  24.034  27.922  1.00  0.00     0.029 A 
ATOM     43  N   UNL A   1      44.777  26.119  28.587  1.00  0.00    -0.354 N 
ATOM     44  C   UNL A   1      40.712  27.591  28.716  1.00  0.00     0.074 A 
ATOM     45  C   UNL A   1      39.775  26.557  28.343  1.00  0.00     0.031 C 
ATOM     46  C   UNL A   1      46.404  24.638  28.177  1.00  0.00     0.029 A 
ATOM     47  C   UNL A   1      46.146  26.010  28.604  1.00  0.00     0.049 A 
ATOM     48  H   UNL A   1      44.300  26.947  28.823  1.00  0.00     0.167 HD
ATOM     49  C   UNL A   1      40.347  28.846  29.070  1.00  0.00     0.031 A 
ATOM     50  C   UNL A   1      47.086  26.914  28.936  1.00  0.00     0.031 A 
ATOM     51  C   UNL A   1      41.273  29.857  29.495  1.00  0.00     0.049 A 
ATOM     52  C   UNL A   1      46.656  28.287  29.371  1.00  0.00     0.074 A 
ATOM     53  C   UNL A   1      41.008  31.139  29.940  1.00  0.00     0.029 A 
ATOM     54  N   UNL A   1      42.647  29.688  29.546  1.00  0.00    -0.354 N 
ATOM     55  N   UNL A   1      45.447  28.787  29.459  1.00  0.00    -0.248 NA
ATOM     56  C   UNL A   1      47.722  29.214  29.774  1.00  0.00     0.031 C 
ATOM     57  C   UNL A   1      42.229  31.759  30.231  1.00  0.00     0.029 A 
ATOM     58  C   UNL A   1      43.247  30.844  30.014  1.00  0.00     0.049 A 
ATOM     59  H   UNL A   1      43.127  28.867  29.288  1.00  0.00     0.167 HD
ATOM     60  C   UNL A   1      45.605  30.073  29.958  1.00  0.00     0.074 A 
ATOM     61  C   UNL A   1      47.025  30.269  30.168  1.00  0.00     0.031 C 
ATOM     62  C   UNL A   1      44.661  31.011  30.221  1.00  0.00     0.031 A 
BRANCH  49  63
ATOM     63  C   UNL A   1      38.881  29.176  29.021  1.00  0.00    -0.014 A 
ATOM     64  C   UNL A   1      38.070  29.061  30.163  1.00  0.00     0.009 A 
ATOM     65  C   UNL A   1      38.300  29.608  27.820  1.00  0.00     0.009 A 
ATOM     66  C   UNL A   1      36.700  29.325  30.090  1.00  0.00     0.001 A 
ATOM     67  C   UNL A   1      36.937  29.905  27.758  1.00  0.00     0.001 A 
ATOM     68  C   UNL A   1      36.136  29.751  28.889  1.00  0.00     0.000 A 
ENDBRANCH  49  63
BRANCH  50  69
ATOM     69  C   UNL A   1      48.525  26.541  28.916  1.00  0.00    -0.014 A 
ATOM     70  C   UNL A   1      49.118  25.959  30.047  1.00  0.00     0.009 A 
ATOM     71  C   UNL A   1      49.313  26.773  27.780  1.00  0.00     0.009 A 
ATOM     72  C   UNL A   1      50.480  25.648  30.053  1.00  0.00     0.001 A 
ATOM     73  C   UNL A   1      50.669  26.435  27.778  1.00  0.00     0.001 A 
ATOM     74  C   UNL A   1      51.253  25.884  28.918  1.00  0.00     0.000 A 
ENDBRANCH  50  69
BRANCH  62  75
ATOM     75  C   UNL A   1      45.135  32.307  30.811  1.00  0.00    -0.014 A 
ATOM     76  C   UNL A   1      45.251  32.480  32.198  1.00  0.00     0.009 A 
ATOM     77  C   UNL A   1      45.496  33.362  29.958  1.00  0.00     0.009 A 
ATOM     78  C   UNL A   1      45.681  33.701  32.722  1.00  0.00     0.001 A 
ATOM     79  C   UNL A   1      45.953  34.570  30.484  1.00  0.00     0.001 A 
ATOM     80  C   UNL A   1      46.034  34.743  31.865  1.00  0.00     0.000 A 
ENDBRANCH  62  75
ENDBRANCH  36  37
ENDBRANCH  28  31
ENDBRANCH  26  27
ENDBRANCH  25  26
ENDBRANCH   1  25
TORSDOF 14
ENDMDL
