MODEL 1
REMARK VINA RESULT:     -10.6      0.000      0.000
REMARK SMILES C[NH2+][C@@]1(C(=O)NCCCNC(=O)c2ccc(-c3c4nc(c(-c5ccccc5)c5ccc([nH]5)c(-c5ccccc5)c5nc(c(-c6ccccc6)c6ccc3[nH]6)C=C5)C=C4)cc2)CCC[C@H]1CCSc1nccc(=O)[nH]1
REMARK SMILES IDX 7 1 6 2 4 3 5 4 3 6 61 7 64 8 62 9 63 10 2 11 1 12 65 15
REMARK SMILES IDX 66 16 67 17 68 18 69 19 74 20 70 21 72 22 71 24 73 25 8 26
REMARK SMILES IDX 9 27 10 28 11 29 12 31 13 32 14 33 60 34 15 35 59 36 16 37
REMARK SMILES IDX 17 38 18 39 53 40 19 41 58 42 52 43 54 44 20 45 57 46 51 47
REMARK SMILES IDX 50 48 21 50 43 51 28 52 42 53 29 54 32 55 41 56 55 57 30 58
REMARK SMILES IDX 31 59 40 61 56 62 33 63 22 64 23 65 27 66 24 67 26 68 25 69
REMARK SMILES IDX 44 70 45 71 49 72 46 73 48 74 47 75 34 76 35 77 39 78 36 79
REMARK SMILES IDX 38 80 37 81
REMARK H PARENT 6 5 2 13 2 14 74 23 10 30 54 49 32 60
REMARK Flexibility Score: inf
ROOT
ATOM      1  C   UNL A   1      32.968  27.897  24.854  1.00  0.00     0.118 C 
ENDROOT
BRANCH   1   2
ATOM      2  N   UNL A   1      33.488  27.288  23.660  1.00  0.00    -0.351 N 
ATOM      3  C   UNL A   1      33.630  26.003  23.252  1.00  0.00     0.281 C 
ATOM      4  O   UNL A   1      33.908  25.925  22.042  1.00  0.00    -0.268 OA
ATOM      5  H   UNL A   1      33.812  27.942  23.000  1.00  0.00     0.163 HD
BRANCH   3   6
ATOM      6  C   UNL A   1      33.470  24.676  24.156  1.00  0.00     0.178 C 
ATOM      7  C   UNL A   1      34.216  24.853  25.492  1.00  0.00     0.079 C 
ATOM      8  C   UNL A   1      34.074  23.396  23.484  1.00  0.00     0.061 C 
ATOM      9  C   UNL A   1      35.506  24.053  25.429  1.00  0.00     0.008 C 
ATOM     10  C   UNL A   1      35.418  23.136  24.219  1.00  0.00     0.011 C 
BRANCH   6  11
ATOM     11  N   UNL A   1      32.015  24.611  24.345  1.00  0.00    -0.336 N 
ATOM     12  C   UNL A   1      31.360  24.678  25.618  1.00  0.00     0.331 C 
ATOM     13  H   UNL A   1      31.631  25.381  23.798  1.00  0.00     0.346 HD
ATOM     14  H   UNL A   1      31.832  23.641  24.087  1.00  0.00     0.346 HD
ENDBRANCH   6  11
BRANCH   8  15
ATOM     15  C   UNL A   1      33.299  22.048  23.537  1.00  0.00     0.022 C 
BRANCH  15  16
ATOM     16  C   UNL A   1      33.396  21.143  24.769  1.00  0.00     0.079 C 
BRANCH  16  17
ATOM     17  S   UNL A   1      34.768  19.953  24.707  1.00  0.00    -0.088 SA
BRANCH  17  18
ATOM     18  C   UNL A   1      33.945  18.464  25.009  1.00  0.00     0.168 A 
ATOM     19  N   UNL A   1      32.666  18.370  25.145  1.00  0.00    -0.233 NA
ATOM     20  N   UNL A   1      34.805  17.416  25.067  1.00  0.00    -0.301 N 
ATOM     21  C   UNL A   1      32.175  17.106  25.359  1.00  0.00     0.120 A 
ATOM     22  C   UNL A   1      34.365  16.138  25.211  1.00  0.00     0.251 A 
ATOM     23  H   UNL A   1      35.773  17.586  25.004  1.00  0.00     0.172 HD
ATOM     24  C   UNL A   1      32.914  15.994  25.390  1.00  0.00     0.091 A 
ATOM     25  O   UNL A   1      35.103  15.160  25.164  1.00  0.00    -0.269 OA
ENDBRANCH  17  18
ENDBRANCH  16  17
ENDBRANCH  15  16
ENDBRANCH   8  15
ENDBRANCH   3   6
ENDBRANCH   1   2
BRANCH   1  26
ATOM     26  C   UNL A   1      34.038  28.532  25.725  1.00  0.00     0.042 C 
BRANCH  26  27
ATOM     27  C   UNL A   1      33.618  28.682  27.182  1.00  0.00     0.118 C 
BRANCH  27  28
ATOM     28  N   UNL A   1      33.647  30.072  27.628  1.00  0.00    -0.352 N 
ATOM     29  C   UNL A   1      34.577  30.771  28.355  1.00  0.00     0.251 C 
ATOM     30  H   UNL A   1      32.861  30.600  27.360  1.00  0.00     0.163 HD
ATOM     31  O   UNL A   1      34.270  31.855  28.844  1.00  0.00    -0.269 OA
BRANCH  29  32
ATOM     32  C   UNL A   1      35.939  30.235  28.554  1.00  0.00     0.039 A 
ATOM     33  C   UNL A   1      36.852  30.280  27.494  1.00  0.00     0.014 A 
ATOM     34  C   UNL A   1      36.305  29.644  29.762  1.00  0.00     0.014 A 
ATOM     35  C   UNL A   1      38.146  29.787  27.674  1.00  0.00     0.010 A 
ATOM     36  C   UNL A   1      37.623  29.259  29.976  1.00  0.00     0.010 A 
ATOM     37  C   UNL A   1      38.551  29.305  28.928  1.00  0.00    -0.014 A 
BRANCH  37  38
ATOM     38  C   UNL A   1      39.931  28.815  29.166  1.00  0.00     0.031 A 
ATOM     39  C   UNL A   1      40.957  29.732  29.779  1.00  0.00     0.074 A 
ATOM     40  C   UNL A   1      40.279  27.579  28.764  1.00  0.00     0.049 A 
ATOM     41  N   UNL A   1      42.230  29.519  29.995  1.00  0.00    -0.248 NA
ATOM     42  C   UNL A   1      40.499  31.075  30.174  1.00  0.00     0.031 C 
ATOM     43  C   UNL A   1      39.388  26.612  28.119  1.00  0.00     0.029 A 
ATOM     44  N   UNL A   1      41.484  26.925  28.832  1.00  0.00    -0.354 N 
ATOM     45  C   UNL A   1      42.726  30.706  30.522  1.00  0.00     0.074 A 
ATOM     46  C   UNL A   1      41.633  31.652  30.540  1.00  0.00     0.031 C 
ATOM     47  C   UNL A   1      40.067  25.478  27.884  1.00  0.00     0.029 A 
ATOM     48  C   UNL A   1      41.448  25.653  28.314  1.00  0.00     0.049 A 
ATOM     49  H   UNL A   1      42.294  27.328  29.217  1.00  0.00     0.167 HD
ATOM     50  C   UNL A   1      43.972  30.980  30.973  1.00  0.00     0.031 A 
ATOM     51  C   UNL A   1      42.425  24.734  28.191  1.00  0.00     0.031 A 
ATOM     52  C   UNL A   1      45.053  30.032  30.965  1.00  0.00     0.049 A 
ATOM     53  C   UNL A   1      43.806  25.067  28.685  1.00  0.00     0.074 A 
ATOM     54  C   UNL A   1      46.339  30.187  31.454  1.00  0.00     0.029 A 
ATOM     55  N   UNL A   1      44.974  28.751  30.439  1.00  0.00    -0.354 N 
ATOM     56  N   UNL A   1      44.241  26.168  29.249  1.00  0.00    -0.248 NA
ATOM     57  C   UNL A   1      44.828  24.022  28.537  1.00  0.00     0.031 C 
ATOM     58  C   UNL A   1      47.056  29.020  31.169  1.00  0.00     0.029 A 
ATOM     59  C   UNL A   1      46.197  28.114  30.566  1.00  0.00     0.049 A 
ATOM     60  H   UNL A   1      44.170  28.355  30.035  1.00  0.00     0.167 HD
ATOM     61  C   UNL A   1      45.576  25.937  29.553  1.00  0.00     0.074 A 
ATOM     62  C   UNL A   1      45.873  24.586  29.125  1.00  0.00     0.031 C 
ATOM     63  C   UNL A   1      46.474  26.767  30.136  1.00  0.00     0.031 A 
BRANCH  50  64
ATOM     64  C   UNL A   1      44.233  32.365  31.500  1.00  0.00    -0.014 A 
ATOM     65  C   UNL A   1      44.036  32.680  32.856  1.00  0.00     0.009 A 
ATOM     66  C   UNL A   1      44.707  33.363  30.636  1.00  0.00     0.009 A 
ATOM     67  C   UNL A   1      44.267  33.976  33.322  1.00  0.00     0.001 A 
ATOM     68  C   UNL A   1      44.970  34.648  31.112  1.00  0.00     0.001 A 
ATOM     69  C   UNL A   1      44.739  34.957  32.452  1.00  0.00     0.000 A 
ENDBRANCH  50  64
BRANCH  51  70
ATOM     70  C   UNL A   1      42.130  23.406  27.592  1.00  0.00    -0.014 A 
ATOM     71  C   UNL A   1      42.429  23.151  26.244  1.00  0.00     0.009 A 
ATOM     72  C   UNL A   1      41.541  22.389  28.358  1.00  0.00     0.009 A 
ATOM     73  C   UNL A   1      42.115  21.918  25.669  1.00  0.00     0.001 A 
ATOM     74  C   UNL A   1      41.258  21.146  27.789  1.00  0.00     0.001 A 
ATOM     75  C   UNL A   1      41.534  20.915  26.442  1.00  0.00     0.000 A 
ENDBRANCH  51  70
BRANCH  63  76
ATOM     76  C   UNL A   1      47.852  26.221  30.389  1.00  0.00    -0.014 A 
ATOM     77  C   UNL A   1      48.828  26.196  29.382  1.00  0.00     0.009 A 
ATOM     78  C   UNL A   1      48.187  25.764  31.674  1.00  0.00     0.009 A 
ATOM     79  C   UNL A   1      50.102  25.688  29.648  1.00  0.00     0.001 A 
ATOM     80  C   UNL A   1      49.471  25.290  31.945  1.00  0.00     0.001 A 
ATOM     81  C   UNL A   1      50.423  25.242  30.929  1.00  0.00     0.000 A 
ENDBRANCH  63  76
ENDBRANCH  37  38
ENDBRANCH  29  32
ENDBRANCH  27  28
ENDBRANCH  26  27
ENDBRANCH   1  26
TORSDOF 15
ENDMDL
MODEL 2
REMARK VINA RESULT:     -10.6      1.343      2.073
REMARK SMILES C[NH2+][C@@]1(C(=O)NCCCNC(=O)c2ccc(-c3c4nc(c(-c5ccccc5)c5ccc([nH]5)c(-c5ccccc5)c5nc(c(-c6ccccc6)c6ccc3[nH]6)C=C5)C=C4)cc2)CCC[C@H]1CCSc1nccc(=O)[nH]1
REMARK SMILES IDX 7 1 6 2 4 3 5 4 3 6 61 7 64 8 62 9 63 10 2 11 1 12 65 15
REMARK SMILES IDX 66 16 67 17 68 18 69 19 74 20 70 21 72 22 71 24 73 25 8 26
REMARK SMILES IDX 9 27 10 28 11 29 12 31 13 32 14 33 60 34 15 35 59 36 16 37
REMARK SMILES IDX 17 38 18 39 53 40 19 41 58 42 52 43 54 44 20 45 57 46 51 47
REMARK SMILES IDX 50 48 21 50 43 51 28 52 42 53 29 54 32 55 41 56 55 57 30 58
REMARK SMILES IDX 31 59 40 61 56 62 33 63 22 64 23 65 27 66 24 67 26 68 25 69
REMARK SMILES IDX 44 70 45 71 49 72 46 73 48 74 47 75 34 76 35 77 39 78 36 79
REMARK SMILES IDX 38 80 37 81
REMARK H PARENT 6 5 2 13 2 14 74 23 10 30 54 49 32 60
REMARK Flexibility Score: inf
ROOT
ATOM      1  C   UNL A   1      32.629  27.787  24.252  1.00  0.00     0.118 C 
ENDROOT
BRANCH   1   2
ATOM      2  N   UNL A   1      33.309  27.033  23.234  1.00  0.00    -0.351 N 
ATOM      3  C   UNL A   1      33.545  25.711  23.052  1.00  0.00     0.281 C 
ATOM      4  O   UNL A   1      33.966  25.465  21.908  1.00  0.00    -0.268 OA
ATOM      5  H   UNL A   1      33.683  27.596  22.519  1.00  0.00     0.163 HD
BRANCH   3   6
ATOM      6  C   UNL A   1      33.330  24.531  24.131  1.00  0.00     0.178 C 
ATOM      7  C   UNL A   1      33.354  23.161  23.429  1.00  0.00     0.079 C 
ATOM      8  C   UNL A   1      31.953  24.618  24.873  1.00  0.00     0.061 C 
ATOM      9  C   UNL A   1      31.927  22.651  23.326  1.00  0.00     0.008 C 
ATOM     10  C   UNL A   1      31.064  23.518  24.230  1.00  0.00     0.011 C 
BRANCH   6  11
ATOM     11  N   UNL A   1      34.488  24.715  25.016  1.00  0.00    -0.336 N 
ATOM     12  C   UNL A   1      35.782  24.145  24.784  1.00  0.00     0.331 C 
ATOM     13  H   UNL A   1      34.637  25.722  25.069  1.00  0.00     0.346 HD
ATOM     14  H   UNL A   1      34.189  24.183  25.834  1.00  0.00     0.346 HD
ENDBRANCH   6  11
BRANCH   8  15
ATOM     15  C   UNL A   1      31.877  24.375  26.408  1.00  0.00     0.022 C 
BRANCH  15  16
ATOM     16  C   UNL A   1      31.762  22.952  26.965  1.00  0.00     0.079 C 
BRANCH  16  17
ATOM     17  S   UNL A   1      33.313  22.297  27.649  1.00  0.00    -0.088 SA
BRANCH  17  18
ATOM     18  C   UNL A   1      33.770  21.158  26.433  1.00  0.00     0.168 A 
ATOM     19  N   UNL A   1      34.950  21.098  25.918  1.00  0.00    -0.233 NA
ATOM     20  N   UNL A   1      32.743  20.331  26.107  1.00  0.00    -0.301 N 
ATOM     21  C   UNL A   1      35.148  20.117  24.979  1.00  0.00     0.120 A 
ATOM     22  C   UNL A   1      32.905  19.303  25.233  1.00  0.00     0.251 A 
ATOM     23  H   UNL A   1      31.860  20.481  26.513  1.00  0.00     0.172 HD
ATOM     24  C   UNL A   1      34.233  19.217  24.609  1.00  0.00     0.091 A 
ATOM     25  O   UNL A   1      32.032  18.477  24.993  1.00  0.00    -0.269 OA
ENDBRANCH  17  18
ENDBRANCH  16  17
ENDBRANCH  15  16
ENDBRANCH   8  15
ENDBRANCH   3   6
ENDBRANCH   1   2
BRANCH   1  26
ATOM     26  C   UNL A   1      33.343  29.075  24.629  1.00  0.00     0.042 C 
BRANCH  26  27
ATOM     27  C   UNL A   1      33.997  29.020  26.004  1.00  0.00     0.118 C 
BRANCH  27  28
ATOM     28  N   UNL A   1      33.854  30.274  26.738  1.00  0.00    -0.352 N 
ATOM     29  C   UNL A   1      34.567  30.797  27.786  1.00  0.00     0.251 C 
ATOM     30  H   UNL A   1      33.115  30.844  26.425  1.00  0.00     0.163 HD
ATOM     31  O   UNL A   1      34.103  31.741  28.420  1.00  0.00    -0.269 OA
BRANCH  29  32
ATOM     32  C   UNL A   1      35.884  30.239  28.158  1.00  0.00     0.039 A 
ATOM     33  C   UNL A   1      36.946  30.334  27.253  1.00  0.00     0.014 A 
ATOM     34  C   UNL A   1      36.062  29.578  29.373  1.00  0.00     0.014 A 
ATOM     35  C   UNL A   1      38.198  29.820  27.598  1.00  0.00     0.010 A 
ATOM     36  C   UNL A   1      37.331  29.169  29.761  1.00  0.00     0.010 A 
ATOM     37  C   UNL A   1      38.408  29.265  28.871  1.00  0.00    -0.014 A 
BRANCH  37  38
ATOM     38  C   UNL A   1      39.735  28.750  29.287  1.00  0.00     0.031 A 
ATOM     39  C   UNL A   1      40.645  29.610  30.123  1.00  0.00     0.074 A 
ATOM     40  C   UNL A   1      40.150  27.545  28.851  1.00  0.00     0.049 A 
ATOM     41  N   UNL A   1      41.869  29.374  30.522  1.00  0.00    -0.248 NA
ATOM     42  C   UNL A   1      40.122  30.922  30.541  1.00  0.00     0.031 C 
ATOM     43  C   UNL A   1      39.379  26.636  28.000  1.00  0.00     0.029 A 
ATOM     44  N   UNL A   1      41.333  26.881  29.060  1.00  0.00    -0.354 N 
ATOM     45  C   UNL A   1      42.267  30.515  31.210  1.00  0.00     0.074 A 
ATOM     46  C   UNL A   1      41.179  31.463  31.126  1.00  0.00     0.031 C 
ATOM     47  C   UNL A   1      40.093  25.519  27.790  1.00  0.00     0.029 A 
ATOM     48  C   UNL A   1      41.388  25.653  28.446  1.00  0.00     0.049 A 
ATOM     49  H   UNL A   1      42.069  27.248  29.599  1.00  0.00     0.167 HD
ATOM     50  C   UNL A   1      43.425  30.745  31.873  1.00  0.00     0.031 A 
ATOM     51  C   UNL A   1      42.377  24.740  28.411  1.00  0.00     0.031 A 
ATOM     52  C   UNL A   1      44.499  29.794  31.964  1.00  0.00     0.049 A 
ATOM     53  C   UNL A   1      43.660  25.025  29.142  1.00  0.00     0.074 A 
ATOM     54  C   UNL A   1      45.690  29.903  32.661  1.00  0.00     0.029 A 
ATOM     55  N   UNL A   1      44.513  28.558  31.335  1.00  0.00    -0.354 N 
ATOM     56  N   UNL A   1      43.993  26.078  29.850  1.00  0.00    -0.248 NA
ATOM     57  C   UNL A   1      44.699  23.989  29.078  1.00  0.00     0.031 C 
ATOM     58  C   UNL A   1      46.450  28.757  32.406  1.00  0.00     0.029 A 
ATOM     59  C   UNL A   1      45.703  27.905  31.606  1.00  0.00     0.049 A 
ATOM     60  H   UNL A   1      43.785  28.199  30.780  1.00  0.00     0.167 HD
ATOM     61  C   UNL A   1      45.264  25.816  30.344  1.00  0.00     0.074 A 
ATOM     62  C   UNL A   1      45.634  24.500  29.867  1.00  0.00     0.031 C 
ATOM     63  C   UNL A   1      46.054  26.594  31.124  1.00  0.00     0.031 A 
BRANCH  50  64
ATOM     64  C   UNL A   1      43.589  32.084  32.539  1.00  0.00    -0.014 A 
ATOM     65  C   UNL A   1      44.148  33.177  31.855  1.00  0.00     0.009 A 
ATOM     66  C   UNL A   1      43.156  32.264  33.862  1.00  0.00     0.009 A 
ATOM     67  C   UNL A   1      44.308  34.408  32.496  1.00  0.00     0.001 A 
ATOM     68  C   UNL A   1      43.285  33.504  34.488  1.00  0.00     0.001 A 
ATOM     69  C   UNL A   1      43.872  34.572  33.810  1.00  0.00     0.000 A 
ENDBRANCH  50  64
BRANCH  51  70
ATOM     70  C   UNL A   1      42.189  23.464  27.672  1.00  0.00    -0.014 A 
ATOM     71  C   UNL A   1      41.601  22.356  28.303  1.00  0.00     0.009 A 
ATOM     72  C   UNL A   1      42.604  23.341  26.337  1.00  0.00     0.009 A 
ATOM     73  C   UNL A   1      41.462  21.145  27.623  1.00  0.00     0.001 A 
ATOM     74  C   UNL A   1      42.433  22.137  25.649  1.00  0.00     0.001 A 
ATOM     75  C   UNL A   1      41.873  21.037  26.296  1.00  0.00     0.000 A 
ENDBRANCH  51  70
BRANCH  63  76
ATOM     76  C   UNL A   1      47.376  26.022  31.550  1.00  0.00    -0.014 A 
ATOM     77  C   UNL A   1      48.508  26.091  30.723  1.00  0.00     0.009 A 
ATOM     78  C   UNL A   1      47.499  25.441  32.824  1.00  0.00     0.009 A 
ATOM     79  C   UNL A   1      49.725  25.555  31.148  1.00  0.00     0.001 A 
ATOM     80  C   UNL A   1      48.726  24.939  33.259  1.00  0.00     0.001 A 
ATOM     81  C   UNL A   1      49.834  24.986  32.416  1.00  0.00     0.000 A 
ENDBRANCH  63  76
ENDBRANCH  37  38
ENDBRANCH  29  32
ENDBRANCH  27  28
ENDBRANCH  26  27
ENDBRANCH   1  26
TORSDOF 15
ENDMDL
MODEL 3
REMARK VINA RESULT:     -10.5      4.787      9.156
REMARK SMILES C[NH2+][C@@]1(C(=O)NCCCNC(=O)c2ccc(-c3c4nc(c(-c5ccccc5)c5ccc([nH]5)c(-c5ccccc5)c5nc(c(-c6ccccc6)c6ccc3[nH]6)C=C5)C=C4)cc2)CCC[C@H]1CCSc1nccc(=O)[nH]1
REMARK SMILES IDX 7 1 6 2 4 3 5 4 3 6 61 7 64 8 62 9 63 10 2 11 1 12 65 15
REMARK SMILES IDX 66 16 67 17 68 18 69 19 74 20 70 21 72 22 71 24 73 25 8 26
REMARK SMILES IDX 9 27 10 28 11 29 12 31 13 32 14 33 60 34 15 35 59 36 16 37
REMARK SMILES IDX 17 38 18 39 53 40 19 41 58 42 52 43 54 44 20 45 57 46 51 47
REMARK SMILES IDX 50 48 21 50 43 51 28 52 42 53 29 54 32 55 41 56 55 57 30 58
REMARK SMILES IDX 31 59 40 61 56 62 33 63 22 64 23 65 27 66 24 67 26 68 25 69
REMARK SMILES IDX 44 70 45 71 49 72 46 73 48 74 47 75 34 76 35 77 39 78 36 79
REMARK SMILES IDX 38 80 37 81
REMARK H PARENT 6 5 2 13 2 14 74 23 10 30 54 49 32 60
REMARK Flexibility Score: inf
ROOT
ATOM      1  C   UNL A   1      31.617  30.577  26.072  1.00  0.00     0.118 C 
ENDROOT
BRANCH   1   2
ATOM      2  N   UNL A   1      31.569  29.575  27.102  1.00  0.00    -0.351 N 
ATOM      3  C   UNL A   1      31.746  28.231  27.108  1.00  0.00     0.281 C 
ATOM      4  O   UNL A   1      31.854  27.779  28.262  1.00  0.00    -0.268 OA
ATOM      5  H   UNL A   1      31.363  29.943  27.992  1.00  0.00     0.163 HD
BRANCH   3   6
ATOM      6  C   UNL A   1      31.823  27.260  25.822  1.00  0.00     0.178 C 
ATOM      7  C   UNL A   1      32.650  26.004  26.157  1.00  0.00     0.079 C 
ATOM      8  C   UNL A   1      32.521  27.926  24.588  1.00  0.00     0.061 C 
ATOM      9  C   UNL A   1      34.018  26.146  25.512  1.00  0.00     0.008 C 
ATOM     10  C   UNL A   1      33.942  27.303  24.527  1.00  0.00     0.011 C 
BRANCH   6  11
ATOM     11  N   UNL A   1      30.407  26.941  25.597  1.00  0.00    -0.336 N 
ATOM     12  C   UNL A   1      29.871  25.613  25.571  1.00  0.00     0.331 C 
ATOM     13  H   UNL A   1      29.895  27.431  26.330  1.00  0.00     0.346 HD
ATOM     14  H   UNL A   1      30.306  27.206  24.617  1.00  0.00     0.346 HD
ENDBRANCH   6  11
BRANCH   8  15
ATOM     15  C   UNL A   1      31.923  27.747  23.163  1.00  0.00     0.022 C 
BRANCH  15  16
ATOM     16  C   UNL A   1      31.145  28.888  22.497  1.00  0.00     0.079 C 
BRANCH  16  17
ATOM     17  S   UNL A   1      29.371  28.902  22.890  1.00  0.00    -0.088 SA
BRANCH  17  18
ATOM     18  C   UNL A   1      28.855  30.345  22.092  1.00  0.00     0.168 A 
ATOM     19  N   UNL A   1      28.216  30.352  20.972  1.00  0.00    -0.233 NA
ATOM     20  N   UNL A   1      29.189  31.457  22.796  1.00  0.00    -0.301 N 
ATOM     21  C   UNL A   1      27.862  31.587  20.488  1.00  0.00     0.120 A 
ATOM     22  C   UNL A   1      28.806  32.697  22.395  1.00  0.00     0.251 A 
ATOM     23  H   UNL A   1      29.723  31.361  23.617  1.00  0.00     0.172 HD
ATOM     24  C   UNL A   1      28.093  32.747  21.111  1.00  0.00     0.091 A 
ATOM     25  O   UNL A   1      29.000  33.711  23.056  1.00  0.00    -0.269 OA
ENDBRANCH  17  18
ENDBRANCH  16  17
ENDBRANCH  15  16
ENDBRANCH   8  15
ENDBRANCH   3   6
ENDBRANCH   1   2
BRANCH   1  26
ATOM     26  C   UNL A   1      31.450  31.993  26.597  1.00  0.00     0.042 C 
BRANCH  26  27
ATOM     27  C   UNL A   1      32.740  32.587  27.147  1.00  0.00     0.118 C 
BRANCH  27  28
ATOM     28  N   UNL A   1      32.569  33.966  27.598  1.00  0.00    -0.352 N 
ATOM     29  C   UNL A   1      33.149  34.660  28.628  1.00  0.00     0.251 C 
ATOM     30  H   UNL A   1      31.924  34.488  27.069  1.00  0.00     0.163 HD
ATOM     31  O   UNL A   1      32.657  35.727  28.990  1.00  0.00    -0.269 OA
BRANCH  29  32
ATOM     32  C   UNL A   1      34.356  34.142  29.306  1.00  0.00     0.039 A 
ATOM     33  C   UNL A   1      34.211  33.382  30.471  1.00  0.00     0.014 A 
ATOM     34  C   UNL A   1      35.630  34.445  28.826  1.00  0.00     0.014 A 
ATOM     35  C   UNL A   1      35.344  32.879  31.114  1.00  0.00     0.010 A 
ATOM     36  C   UNL A   1      36.747  33.851  29.400  1.00  0.00     0.010 A 
ATOM     37  C   UNL A   1      36.619  33.080  30.562  1.00  0.00    -0.014 A 
BRANCH  37  38
ATOM     38  C   UNL A   1      37.839  32.522  31.194  1.00  0.00     0.031 A 
ATOM     39  C   UNL A   1      38.500  31.304  30.603  1.00  0.00     0.074 A 
ATOM     40  C   UNL A   1      38.305  33.060  32.337  1.00  0.00     0.049 A 
ATOM     41  N   UNL A   1      39.524  30.622  31.049  1.00  0.00    -0.248 NA
ATOM     42  C   UNL A   1      37.916  30.766  29.362  1.00  0.00     0.031 C 
ATOM     43  C   UNL A   1      37.727  34.213  33.031  1.00  0.00     0.029 A 
ATOM     44  N   UNL A   1      39.372  32.701  33.121  1.00  0.00    -0.354 N 
ATOM     45  C   UNL A   1      39.685  29.563  30.162  1.00  0.00     0.074 A 
ATOM     46  C   UNL A   1      38.622  29.660  29.187  1.00  0.00     0.031 C 
ATOM     47  C   UNL A   1      38.467  34.487  34.117  1.00  0.00     0.029 A 
ATOM     48  C   UNL A   1      39.538  33.504  34.224  1.00  0.00     0.049 A 
ATOM     49  H   UNL A   1      39.963  31.943  32.912  1.00  0.00     0.167 HD
ATOM     50  C   UNL A   1      40.645  28.609  30.145  1.00  0.00     0.031 A 
ATOM     51  C   UNL A   1      40.447  33.447  35.215  1.00  0.00     0.031 A 
ATOM     52  C   UNL A   1      41.708  28.524  31.110  1.00  0.00     0.049 A 
ATOM     53  C   UNL A   1      41.495  32.368  35.183  1.00  0.00     0.074 A 
ATOM     54  C   UNL A   1      42.766  27.633  31.150  1.00  0.00     0.029 A 
ATOM     55  N   UNL A   1      41.845  29.361  32.207  1.00  0.00    -0.354 N 
ATOM     56  N   UNL A   1      41.678  31.418  34.297  1.00  0.00    -0.248 NA
ATOM     57  C   UNL A   1      42.468  32.362  36.283  1.00  0.00     0.031 C 
ATOM     58  C   UNL A   1      43.510  27.894  32.306  1.00  0.00     0.029 A 
ATOM     59  C   UNL A   1      42.955  28.991  32.946  1.00  0.00     0.049 A 
ATOM     60  H   UNL A   1      41.242  30.107  32.428  1.00  0.00     0.167 HD
ATOM     61  C   UNL A   1      42.806  30.724  34.714  1.00  0.00     0.074 A 
ATOM     62  C   UNL A   1      43.272  31.372  35.922  1.00  0.00     0.031 C 
ATOM     63  C   UNL A   1      43.405  29.649  34.146  1.00  0.00     0.031 A 
BRANCH  50  64
ATOM     64  C   UNL A   1      40.578  27.575  29.055  1.00  0.00    -0.014 A 
ATOM     65  C   UNL A   1      39.723  26.463  29.153  1.00  0.00     0.009 A 
ATOM     66  C   UNL A   1      41.361  27.726  27.900  1.00  0.00     0.009 A 
ATOM     67  C   UNL A   1      39.687  25.505  28.137  1.00  0.00     0.001 A 
ATOM     68  C   UNL A   1      41.297  26.784  26.871  1.00  0.00     0.001 A 
ATOM     69  C   UNL A   1      40.469  25.669  26.996  1.00  0.00     0.000 A 
ENDBRANCH  50  64
BRANCH  51  70
ATOM     70  C   UNL A   1      40.421  34.450  36.311  1.00  0.00    -0.014 A 
ATOM     71  C   UNL A   1      39.667  34.217  37.472  1.00  0.00     0.009 A 
ATOM     72  C   UNL A   1      41.141  35.650  36.202  1.00  0.00     0.009 A 
ATOM     73  C   UNL A   1      39.610  35.177  38.485  1.00  0.00     0.001 A 
ATOM     74  C   UNL A   1      41.107  36.594  37.230  1.00  0.00     0.001 A 
ATOM     75  C   UNL A   1      40.333  36.362  38.365  1.00  0.00     0.000 A 
ENDBRANCH  51  70
BRANCH  63  76
ATOM     76  C   UNL A   1      44.657  29.134  34.799  1.00  0.00    -0.014 A 
ATOM     77  C   UNL A   1      45.922  29.636  34.459  1.00  0.00     0.009 A 
ATOM     78  C   UNL A   1      44.560  28.159  35.806  1.00  0.00     0.009 A 
ATOM     79  C   UNL A   1      47.068  29.142  35.086  1.00  0.00     0.001 A 
ATOM     80  C   UNL A   1      45.703  27.694  36.455  1.00  0.00     0.001 A 
ATOM     81  C   UNL A   1      46.957  28.178  36.087  1.00  0.00     0.000 A 
ENDBRANCH  63  76
ENDBRANCH  37  38
ENDBRANCH  29  32
ENDBRANCH  27  28
ENDBRANCH  26  27
ENDBRANCH   1  26
TORSDOF 15
ENDMDL
