MODEL 1
REMARK VINA RESULT:     -10.5      0.000      0.000
REMARK SMILES [NH3+][C@H]1COC[C@@H]1C(=O)NC1(CC(=O)NCCCNC(=O)c2ccc(-c3c4nc(c(-c5ccccc5)c5ccc([nH]5)c(-c5ccccc5)c5nc(c(-c6ccccc6)c6ccc3[nH]6)C=C5)C=C4)cc2)CCC1
REMARK SMILES IDX 15 1 14 2 12 3 13 4 11 6 10 7 69 8 71 9 70 10 9 11 7 12 8 13
REMARK SMILES IDX 6 15 2 16 3 17 4 18 5 19 1 20 16 24 17 25 18 26 19 27 20 29
REMARK SMILES IDX 21 30 22 31 68 32 23 33 67 34 24 35 25 36 26 37 61 38 27 39
REMARK SMILES IDX 66 40 60 41 62 42 28 43 65 44 59 45 58 46 29 48 51 49 36 50
REMARK SMILES IDX 50 51 37 52 40 53 49 54 63 55 38 56 39 57 48 59 64 60 41 61
REMARK SMILES IDX 30 62 31 63 35 64 32 65 34 66 33 67 52 68 53 69 57 70 54 71
REMARK SMILES IDX 56 72 55 73 42 74 43 75 47 76 44 77 46 78 45 79
REMARK H PARENT 14 5 9 14 1 21 1 22 1 23 18 28 62 47 40 58
REMARK Flexibility Score: inf
ROOT
ATOM      1  C   UNL A   1      36.642  20.560  24.641  1.00  0.00     0.117 C 
ENDROOT
BRANCH   1   2
ATOM      2  N   UNL A   1      35.881  20.765  25.858  1.00  0.00    -0.356 N 
ATOM      3  C   UNL A   1      34.776  21.525  26.073  1.00  0.00     0.222 C 
ATOM      4  O   UNL A   1      34.433  21.735  27.239  1.00  0.00    -0.275 OA
ATOM      5  H   UNL A   1      36.216  20.280  26.647  1.00  0.00     0.163 HD
BRANCH   3   6
ATOM      6  C   UNL A   1      33.987  22.130  24.931  1.00  0.00     0.128 C 
BRANCH   6   7
ATOM      7  C   UNL A   1      32.530  21.632  24.780  1.00  0.00     0.049 C 
ATOM      8  C   UNL A   1      32.469  20.106  24.498  1.00  0.00     0.029 C 
ATOM      9  C   UNL A   1      31.966  21.870  23.356  1.00  0.00     0.029 C 
ATOM     10  C   UNL A   1      32.243  20.401  23.011  1.00  0.00     0.005 C 
BRANCH   7  11
ATOM     11  N   UNL A   1      31.723  22.068  25.951  1.00  0.00    -0.350 N 
ATOM     12  C   UNL A   1      31.063  23.207  26.318  1.00  0.00     0.232 C 
ATOM     13  O   UNL A   1      30.520  23.193  27.427  1.00  0.00    -0.274 OA
ATOM     14  H   UNL A   1      31.645  21.361  26.630  1.00  0.00     0.164 HD
BRANCH  12  15
ATOM     15  C   UNL A   1      30.985  24.431  25.427  1.00  0.00     0.164 C 
ATOM     16  C   UNL A   1      32.278  25.237  25.500  1.00  0.00     0.221 C 
ATOM     17  C   UNL A   1      31.976  26.244  26.613  1.00  0.00     0.225 C 
ATOM     18  O   UNL A   1      30.569  26.506  26.578  1.00  0.00    -0.374 OA
ATOM     19  C   UNL A   1      29.927  25.404  25.925  1.00  0.00     0.180 C 
BRANCH  16  20
ATOM     20  N   UNL A   1      32.541  25.909  24.211  1.00  0.00    -0.352 N 
ATOM     21  H   UNL A   1      31.657  26.080  23.731  1.00  0.00     0.344 HD
ATOM     22  H   UNL A   1      33.133  25.314  23.632  1.00  0.00     0.344 HD
ATOM     23  H   UNL A   1      33.013  26.797  24.382  1.00  0.00     0.344 HD
ENDBRANCH  16  20
ENDBRANCH  12  15
ENDBRANCH   7  11
ENDBRANCH   6   7
ENDBRANCH   3   6
ENDBRANCH   1   2
BRANCH   1  24
ATOM     24  C   UNL A   1      37.824  19.623  24.884  1.00  0.00     0.042 C 
BRANCH  24  25
ATOM     25  C   UNL A   1      38.918  20.217  25.762  1.00  0.00     0.118 C 
BRANCH  25  26
ATOM     26  N   UNL A   1      40.062  19.327  25.877  1.00  0.00    -0.352 N 
ATOM     27  C   UNL A   1      41.387  19.596  26.110  1.00  0.00     0.251 C 
ATOM     28  H   UNL A   1      39.850  18.372  25.770  1.00  0.00     0.163 HD
ATOM     29  O   UNL A   1      42.210  18.704  25.921  1.00  0.00    -0.269 OA
BRANCH  27  30
ATOM     30  C   UNL A   1      41.849  20.927  26.575  1.00  0.00     0.039 A 
ATOM     31  C   UNL A   1      41.797  21.203  27.947  1.00  0.00     0.014 A 
ATOM     32  C   UNL A   1      42.236  21.935  25.689  1.00  0.00     0.014 A 
ATOM     33  C   UNL A   1      42.158  22.465  28.427  1.00  0.00     0.010 A 
ATOM     34  C   UNL A   1      42.670  23.171  26.174  1.00  0.00     0.010 A 
ATOM     35  C   UNL A   1      42.613  23.457  27.546  1.00  0.00    -0.014 A 
BRANCH  35  36
ATOM     36  C   UNL A   1      42.994  24.804  28.044  1.00  0.00     0.031 A 
ATOM     37  C   UNL A   1      41.938  25.847  28.306  1.00  0.00     0.074 A 
ATOM     38  C   UNL A   1      44.293  25.107  28.232  1.00  0.00     0.049 A 
ATOM     39  N   UNL A   1      42.082  27.080  28.726  1.00  0.00    -0.248 NA
ATOM     40  C   UNL A   1      40.543  25.464  28.041  1.00  0.00     0.031 C 
ATOM     41  C   UNL A   1      45.419  24.206  27.978  1.00  0.00     0.029 A 
ATOM     42  N   UNL A   1      44.884  26.262  28.679  1.00  0.00    -0.354 N 
ATOM     43  C   UNL A   1      40.803  27.623  28.748  1.00  0.00     0.074 A 
ATOM     44  C   UNL A   1      39.901  26.600  28.264  1.00  0.00     0.031 C 
ATOM     45  C   UNL A   1      46.562  24.832  28.302  1.00  0.00     0.029 A 
ATOM     46  C   UNL A   1      46.253  26.184  28.757  1.00  0.00     0.049 A 
ATOM     47  H   UNL A   1      44.376  27.069  28.921  1.00  0.00     0.167 HD
ATOM     48  C   UNL A   1      40.408  28.855  29.152  1.00  0.00     0.031 A 
ATOM     49  C   UNL A   1      47.160  27.096  29.156  1.00  0.00     0.031 A 
ATOM     50  C   UNL A   1      41.294  29.866  29.662  1.00  0.00     0.049 A 
ATOM     51  C   UNL A   1      46.696  28.445  29.624  1.00  0.00     0.074 A 
ATOM     52  C   UNL A   1      40.979  31.119  30.157  1.00  0.00     0.029 A 
ATOM     53  N   UNL A   1      42.671  29.738  29.744  1.00  0.00    -0.354 N 
ATOM     54  N   UNL A   1      45.475  28.916  29.702  1.00  0.00    -0.248 NA
ATOM     55  C   UNL A   1      47.735  29.382  30.073  1.00  0.00     0.031 C 
ATOM     56  C   UNL A   1      42.170  31.764  30.506  1.00  0.00     0.029 A 
ATOM     57  C   UNL A   1      43.223  30.896  30.267  1.00  0.00     0.049 A 
ATOM     58  H   UNL A   1      43.182  28.941  29.471  1.00  0.00     0.167 HD
ATOM     59  C   UNL A   1      45.598  30.194  30.231  1.00  0.00     0.074 A 
ATOM     60  C   UNL A   1      47.008  30.418  30.470  1.00  0.00     0.031 C 
ATOM     61  C   UNL A   1      44.627  31.103  30.495  1.00  0.00     0.031 A 
BRANCH  48  62
ATOM     62  C   UNL A   1      38.942  29.177  29.055  1.00  0.00    -0.014 A 
ATOM     63  C   UNL A   1      38.086  29.005  30.153  1.00  0.00     0.009 A 
ATOM     64  C   UNL A   1      38.419  29.688  27.857  1.00  0.00     0.009 A 
ATOM     65  C   UNL A   1      36.726  29.305  30.043  1.00  0.00     0.001 A 
ATOM     66  C   UNL A   1      37.065  30.012  27.758  1.00  0.00     0.001 A 
ATOM     67  C   UNL A   1      36.218  29.812  28.847  1.00  0.00     0.000 A 
ENDBRANCH  48  62
BRANCH  49  68
ATOM     68  C   UNL A   1      48.605  26.753  29.156  1.00  0.00    -0.014 A 
ATOM     69  C   UNL A   1      49.392  27.002  28.022  1.00  0.00     0.009 A 
ATOM     70  C   UNL A   1      49.201  26.174  30.286  1.00  0.00     0.009 A 
ATOM     71  C   UNL A   1      50.745  26.655  28.012  1.00  0.00     0.001 A 
ATOM     72  C   UNL A   1      50.560  25.851  30.281  1.00  0.00     0.001 A 
ATOM     73  C   UNL A   1      51.329  26.084  29.142  1.00  0.00     0.000 A 
ENDBRANCH  49  68
BRANCH  61  74
ATOM     74  C   UNL A   1      45.060  32.408  31.097  1.00  0.00    -0.014 A 
ATOM     75  C   UNL A   1      45.199  32.557  32.485  1.00  0.00     0.009 A 
ATOM     76  C   UNL A   1      45.357  33.495  30.260  1.00  0.00     0.009 A 
ATOM     77  C   UNL A   1      45.595  33.783  33.026  1.00  0.00     0.001 A 
ATOM     78  C   UNL A   1      45.777  34.711  30.802  1.00  0.00     0.001 A 
ATOM     79  C   UNL A   1      45.886  34.856  32.184  1.00  0.00     0.000 A 
ENDBRANCH  61  74
ENDBRANCH  35  36
ENDBRANCH  27  30
ENDBRANCH  25  26
ENDBRANCH  24  25
ENDBRANCH   1  24
TORSDOF 14
ENDMDL
MODEL 2
REMARK VINA RESULT:     -10.4      1.458      6.339
REMARK SMILES [NH3+][C@H]1COC[C@@H]1C(=O)NC1(CC(=O)NCCCNC(=O)c2ccc(-c3c4nc(c(-c5ccccc5)c5ccc([nH]5)c(-c5ccccc5)c5nc(c(-c6ccccc6)c6ccc3[nH]6)C=C5)C=C4)cc2)CCC1
REMARK SMILES IDX 15 1 14 2 12 3 13 4 11 6 10 7 69 8 71 9 70 10 9 11 7 12 8 13
REMARK SMILES IDX 6 15 2 16 3 17 4 18 5 19 1 20 16 24 17 25 18 26 19 27 20 29
REMARK SMILES IDX 21 30 22 31 68 32 23 33 67 34 24 35 25 36 26 37 61 38 27 39
REMARK SMILES IDX 66 40 60 41 62 42 28 43 65 44 59 45 58 46 29 48 51 49 36 50
REMARK SMILES IDX 50 51 37 52 40 53 49 54 63 55 38 56 39 57 48 59 64 60 41 61
REMARK SMILES IDX 30 62 31 63 35 64 32 65 34 66 33 67 52 68 53 69 57 70 54 71
REMARK SMILES IDX 56 72 55 73 42 74 43 75 47 76 44 77 46 78 45 79
REMARK H PARENT 14 5 9 14 1 21 1 22 1 23 18 28 62 47 40 58
REMARK Flexibility Score: inf
ROOT
ATOM      1  C   UNL A   1      36.132  20.329  24.992  1.00  0.00     0.117 C 
ENDROOT
BRANCH   1   2
ATOM      2  N   UNL A   1      36.186  21.582  24.264  1.00  0.00    -0.356 N 
ATOM      3  C   UNL A   1      35.200  22.479  24.005  1.00  0.00     0.222 C 
ATOM      4  O   UNL A   1      35.420  23.359  23.170  1.00  0.00    -0.275 OA
ATOM      5  H   UNL A   1      37.072  21.818  23.904  1.00  0.00     0.163 HD
BRANCH   3   6
ATOM      6  C   UNL A   1      33.852  22.404  24.689  1.00  0.00     0.128 C 
BRANCH   6   7
ATOM      7  C   UNL A   1      33.634  23.392  25.860  1.00  0.00     0.049 C 
ATOM      8  C   UNL A   1      34.438  22.978  27.122  1.00  0.00     0.029 C 
ATOM      9  C   UNL A   1      32.333  23.098  26.651  1.00  0.00     0.029 C 
ATOM     10  C   UNL A   1      33.161  22.388  27.730  1.00  0.00     0.005 C 
BRANCH   7  11
ATOM     11  N   UNL A   1      33.893  24.783  25.402  1.00  0.00    -0.350 N 
ATOM     12  C   UNL A   1      33.175  25.757  24.767  1.00  0.00     0.232 C 
ATOM     13  O   UNL A   1      33.775  26.807  24.517  1.00  0.00    -0.274 OA
ATOM     14  H   UNL A   1      34.811  25.074  25.606  1.00  0.00     0.164 HD
BRANCH  12  15
ATOM     15  C   UNL A   1      31.718  25.582  24.386  1.00  0.00     0.164 C 
ATOM     16  C   UNL A   1      31.589  24.771  23.101  1.00  0.00     0.221 C 
ATOM     17  C   UNL A   1      31.558  25.860  22.025  1.00  0.00     0.225 C 
ATOM     18  O   UNL A   1      30.949  27.016  22.609  1.00  0.00    -0.374 OA
ATOM     19  C   UNL A   1      31.081  26.918  24.033  1.00  0.00     0.180 C 
BRANCH  16  20
ATOM     20  N   UNL A   1      30.342  23.980  23.113  1.00  0.00    -0.352 N 
ATOM     21  H   UNL A   1      29.542  24.608  23.178  1.00  0.00     0.344 HD
ATOM     22  H   UNL A   1      30.346  23.351  23.915  1.00  0.00     0.344 HD
ATOM     23  H   UNL A   1      30.278  23.434  22.253  1.00  0.00     0.344 HD
ENDBRANCH  16  20
ENDBRANCH  12  15
ENDBRANCH   7  11
ENDBRANCH   6   7
ENDBRANCH   3   6
ENDBRANCH   1   2
BRANCH   1  24
ATOM     24  C   UNL A   1      37.456  19.575  24.886  1.00  0.00     0.042 C 
BRANCH  24  25
ATOM     25  C   UNL A   1      38.633  20.290  25.537  1.00  0.00     0.118 C 
BRANCH  25  26
ATOM     26  N   UNL A   1      39.767  19.400  25.729  1.00  0.00    -0.352 N 
ATOM     27  C   UNL A   1      41.070  19.668  26.067  1.00  0.00     0.251 C 
ATOM     28  H   UNL A   1      39.567  18.446  25.592  1.00  0.00     0.163 HD
ATOM     29  O   UNL A   1      41.907  18.779  25.932  1.00  0.00    -0.269 OA
BRANCH  27  30
ATOM     30  C   UNL A   1      41.490  20.993  26.586  1.00  0.00     0.039 A 
ATOM     31  C   UNL A   1      41.329  21.249  27.953  1.00  0.00     0.014 A 
ATOM     32  C   UNL A   1      41.944  22.013  25.747  1.00  0.00     0.014 A 
ATOM     33  C   UNL A   1      41.648  22.506  28.477  1.00  0.00     0.010 A 
ATOM     34  C   UNL A   1      42.335  23.243  26.281  1.00  0.00     0.010 A 
ATOM     35  C   UNL A   1      42.169  23.510  27.647  1.00  0.00    -0.014 A 
BRANCH  35  36
ATOM     36  C   UNL A   1      42.506  24.851  28.193  1.00  0.00     0.031 A 
ATOM     37  C   UNL A   1      43.925  25.184  28.576  1.00  0.00     0.074 A 
ATOM     38  C   UNL A   1      41.533  25.763  28.377  1.00  0.00     0.049 A 
ATOM     39  N   UNL A   1      44.405  26.293  29.083  1.00  0.00    -0.248 NA
ATOM     40  C   UNL A   1      44.932  24.127  28.389  1.00  0.00     0.031 C 
ATOM     41  C   UNL A   1      40.112  25.558  28.088  1.00  0.00     0.029 A 
ATOM     42  N   UNL A   1      41.593  27.048  28.855  1.00  0.00    -0.354 N 
ATOM     43  C   UNL A   1      45.757  26.057  29.297  1.00  0.00     0.074 A 
ATOM     44  C   UNL A   1      46.015  24.689  28.902  1.00  0.00     0.031 C 
ATOM     45  C   UNL A   1      39.441  26.688  28.366  1.00  0.00     0.029 A 
ATOM     46  C   UNL A   1      40.376  27.684  28.880  1.00  0.00     0.049 A 
ATOM     47  H   UNL A   1      42.429  27.474  29.153  1.00  0.00     0.167 HD
ATOM     48  C   UNL A   1      46.706  26.905  29.762  1.00  0.00     0.031 A 
ATOM     49  C   UNL A   1      40.048  28.931  29.267  1.00  0.00     0.031 A 
ATOM     50  C   UNL A   1      46.464  28.275  30.129  1.00  0.00     0.049 A 
ATOM     51  C   UNL A   1      41.121  29.861  29.754  1.00  0.00     0.074 A 
ATOM     52  C   UNL A   1      47.374  29.230  30.547  1.00  0.00     0.029 A 
ATOM     53  N   UNL A   1      45.220  28.884  30.117  1.00  0.00    -0.354 N 
ATOM     54  N   UNL A   1      42.407  29.641  29.884  1.00  0.00    -0.248 NA
ATOM     55  C   UNL A   1      40.699  31.217  30.131  1.00  0.00     0.031 C 
ATOM     56  C   UNL A   1      46.674  30.409  30.824  1.00  0.00     0.029 A 
ATOM     57  C   UNL A   1      45.335  30.199  30.537  1.00  0.00     0.049 A 
ATOM     58  H   UNL A   1      44.378  28.448  29.850  1.00  0.00     0.167 HD
ATOM     59  C   UNL A   1      42.950  30.836  30.336  1.00  0.00     0.074 A 
ATOM     60  C   UNL A   1      41.858  31.782  30.441  1.00  0.00     0.031 C 
ATOM     61  C   UNL A   1      44.239  31.126  30.639  1.00  0.00     0.031 A 
BRANCH  48  62
ATOM     62  C   UNL A   1      48.103  26.368  29.903  1.00  0.00    -0.014 A 
ATOM     63  C   UNL A   1      48.528  25.747  31.088  1.00  0.00     0.009 A 
ATOM     64  C   UNL A   1      48.996  26.456  28.824  1.00  0.00     0.009 A 
ATOM     65  C   UNL A   1      49.832  25.258  31.202  1.00  0.00     0.001 A 
ATOM     66  C   UNL A   1      50.290  25.944  28.931  1.00  0.00     0.001 A 
ATOM     67  C   UNL A   1      50.710  25.354  30.123  1.00  0.00     0.000 A 
ENDBRANCH  48  62
BRANCH  49  68
ATOM     68  C   UNL A   1      38.636  29.385  29.183  1.00  0.00    -0.014 A 
ATOM     69  C   UNL A   1      37.783  29.253  30.288  1.00  0.00     0.009 A 
ATOM     70  C   UNL A   1      38.137  29.949  27.999  1.00  0.00     0.009 A 
ATOM     71  C   UNL A   1      36.448  29.655  30.201  1.00  0.00     0.001 A 
ATOM     72  C   UNL A   1      36.808  30.373  27.924  1.00  0.00     0.001 A 
ATOM     73  C   UNL A   1      35.963  30.218  29.022  1.00  0.00     0.000 A 
ENDBRANCH  49  68
BRANCH  61  74
ATOM     74  C   UNL A   1      44.538  32.527  31.084  1.00  0.00    -0.014 A 
ATOM     75  C   UNL A   1      44.850  33.533  30.157  1.00  0.00     0.009 A 
ATOM     76  C   UNL A   1      44.481  32.850  32.449  1.00  0.00     0.009 A 
ATOM     77  C   UNL A   1      45.133  34.830  30.593  1.00  0.00     0.001 A 
ATOM     78  C   UNL A   1      44.740  34.152  32.879  1.00  0.00     0.001 A 
ATOM     79  C   UNL A   1      45.075  35.137  31.952  1.00  0.00     0.000 A 
ENDBRANCH  61  74
ENDBRANCH  35  36
ENDBRANCH  27  30
ENDBRANCH  25  26
ENDBRANCH  24  25
ENDBRANCH   1  24
TORSDOF 14
ENDMDL
MODEL 3
REMARK VINA RESULT:     -10.3      3.597      8.965
REMARK SMILES [NH3+][C@H]1COC[C@@H]1C(=O)NC1(CC(=O)NCCCNC(=O)c2ccc(-c3c4nc(c(-c5ccccc5)c5ccc([nH]5)c(-c5ccccc5)c5nc(c(-c6ccccc6)c6ccc3[nH]6)C=C5)C=C4)cc2)CCC1
REMARK SMILES IDX 15 1 14 2 12 3 13 4 11 6 10 7 69 8 71 9 70 10 9 11 7 12 8 13
REMARK SMILES IDX 6 15 2 16 3 17 4 18 5 19 1 20 16 24 17 25 18 26 19 27 20 29
REMARK SMILES IDX 21 30 22 31 68 32 23 33 67 34 24 35 25 36 26 37 61 38 27 39
REMARK SMILES IDX 66 40 60 41 62 42 28 43 65 44 59 45 58 46 29 48 51 49 36 50
REMARK SMILES IDX 50 51 37 52 40 53 49 54 63 55 38 56 39 57 48 59 64 60 41 61
REMARK SMILES IDX 30 62 31 63 35 64 32 65 34 66 33 67 52 68 53 69 57 70 54 71
REMARK SMILES IDX 56 72 55 73 42 74 43 75 47 76 44 77 46 78 45 79
REMARK H PARENT 14 5 9 14 1 21 1 22 1 23 18 28 62 47 40 58
REMARK Flexibility Score: inf
ROOT
ATOM      1  C   UNL A   1      31.422  30.649  25.890  1.00  0.00     0.117 C 
ENDROOT
BRANCH   1   2
ATOM      2  N   UNL A   1      31.697  29.646  26.900  1.00  0.00    -0.356 N 
ATOM      3  C   UNL A   1      31.597  28.293  26.830  1.00  0.00     0.222 C 
ATOM      4  O   UNL A   1      31.659  27.650  27.880  1.00  0.00    -0.275 OA
ATOM      5  H   UNL A   1      32.002  29.999  27.768  1.00  0.00     0.163 HD
BRANCH   3   6
ATOM      6  C   UNL A   1      31.391  27.575  25.513  1.00  0.00     0.128 C 
BRANCH   6   7
ATOM      7  C   UNL A   1      32.143  26.233  25.352  1.00  0.00     0.049 C 
ATOM      8  C   UNL A   1      33.677  26.407  25.518  1.00  0.00     0.029 C 
ATOM      9  C   UNL A   1      32.393  25.867  23.866  1.00  0.00     0.029 C 
ATOM     10  C   UNL A   1      33.835  26.376  23.994  1.00  0.00     0.005 C 
BRANCH   7  11
ATOM     11  N   UNL A   1      31.546  25.208  26.249  1.00  0.00    -0.350 N 
ATOM     12  C   UNL A   1      31.955  24.024  26.795  1.00  0.00     0.232 C 
ATOM     13  O   UNL A   1      31.126  23.422  27.485  1.00  0.00    -0.274 OA
ATOM     14  H   UNL A   1      30.627  25.439  26.515  1.00  0.00     0.164 HD
BRANCH  12  15
ATOM     15  C   UNL A   1      33.348  23.464  26.584  1.00  0.00     0.164 C 
ATOM     16  C   UNL A   1      33.392  22.578  25.344  1.00  0.00     0.221 C 
ATOM     17  C   UNL A   1      33.111  21.188  25.921  1.00  0.00     0.225 C 
ATOM     18  O   UNL A   1      33.636  21.167  27.252  1.00  0.00    -0.374 OA
ATOM     19  C   UNL A   1      33.735  22.520  27.713  1.00  0.00     0.180 C 
BRANCH  16  20
ATOM     20  N   UNL A   1      34.724  22.646  24.708  1.00  0.00    -0.352 N 
ATOM     21  H   UNL A   1      35.254  21.806  24.939  1.00  0.00     0.344 HD
ATOM     22  H   UNL A   1      35.222  23.467  25.051  1.00  0.00     0.344 HD
ATOM     23  H   UNL A   1      34.614  22.713  23.696  1.00  0.00     0.344 HD
ENDBRANCH  16  20
ENDBRANCH  12  15
ENDBRANCH   7  11
ENDBRANCH   6   7
ENDBRANCH   3   6
ENDBRANCH   1   2
BRANCH   1  24
ATOM     24  C   UNL A   1      31.335  32.043  26.511  1.00  0.00     0.042 C 
BRANCH  24  25
ATOM     25  C   UNL A   1      32.619  32.504  27.188  1.00  0.00     0.118 C 
BRANCH  25  26
ATOM     26  N   UNL A   1      32.496  33.851  27.722  1.00  0.00    -0.352 N 
ATOM     27  C   UNL A   1      33.191  34.486  28.720  1.00  0.00     0.251 C 
ATOM     28  H   UNL A   1      31.796  34.397  27.297  1.00  0.00     0.163 HD
ATOM     29  O   UNL A   1      32.747  35.542  29.165  1.00  0.00    -0.269 OA
BRANCH  27  30
ATOM     30  C   UNL A   1      34.451  33.935  29.274  1.00  0.00     0.039 A 
ATOM     31  C   UNL A   1      35.651  34.238  28.617  1.00  0.00     0.014 A 
ATOM     32  C   UNL A   1      34.469  33.054  30.358  1.00  0.00     0.014 A 
ATOM     33  C   UNL A   1      36.857  33.688  29.061  1.00  0.00     0.010 A 
ATOM     34  C   UNL A   1      35.681  32.565  30.849  1.00  0.00     0.010 A 
ATOM     35  C   UNL A   1      36.885  32.858  30.192  1.00  0.00    -0.014 A 
BRANCH  35  36
ATOM     36  C   UNL A   1      38.161  32.263  30.669  1.00  0.00     0.031 A 
ATOM     37  C   UNL A   1      38.679  30.984  30.064  1.00  0.00     0.074 A 
ATOM     38  C   UNL A   1      38.841  32.851  31.672  1.00  0.00     0.049 A 
ATOM     39  N   UNL A   1      39.762  30.309  30.363  1.00  0.00    -0.248 NA
ATOM     40  C   UNL A   1      37.865  30.371  29.002  1.00  0.00     0.031 C 
ATOM     41  C   UNL A   1      38.431  34.069  32.375  1.00  0.00     0.029 A 
ATOM     42  N   UNL A   1      40.023  32.500  32.275  1.00  0.00    -0.354 N 
ATOM     43  C   UNL A   1      39.743  29.184  29.547  1.00  0.00     0.074 A 
ATOM     44  C   UNL A   1      38.525  29.247  28.769  1.00  0.00     0.031 C 
ATOM     45  C   UNL A   1      39.362  34.379  33.293  1.00  0.00     0.029 A 
ATOM     46  C   UNL A   1      40.416  33.370  33.262  1.00  0.00     0.049 A 
ATOM     47  H   UNL A   1      40.540  31.701  32.023  1.00  0.00     0.167 HD
ATOM     48  C   UNL A   1      40.663  28.195  29.438  1.00  0.00     0.031 A 
ATOM     49  C   UNL A   1      41.505  33.360  34.054  1.00  0.00     0.031 A 
ATOM     50  C   UNL A   1      41.891  28.142  30.187  1.00  0.00     0.049 A 
ATOM     51  C   UNL A   1      42.524  32.269  33.896  1.00  0.00     0.074 A 
ATOM     52  C   UNL A   1      42.915  27.216  30.097  1.00  0.00     0.029 A 
ATOM     53  N   UNL A   1      42.259  29.054  31.161  1.00  0.00    -0.354 N 
ATOM     54  N   UNL A   1      42.522  31.251  33.071  1.00  0.00    -0.248 NA
ATOM     55  C   UNL A   1      43.704  32.336  34.770  1.00  0.00     0.031 C 
ATOM     56  C   UNL A   1      43.889  27.549  31.045  1.00  0.00     0.029 A 
ATOM     57  C   UNL A   1      43.489  28.705  31.694  1.00  0.00     0.049 A 
ATOM     58  H   UNL A   1      41.726  29.836  31.435  1.00  0.00     0.167 HD
ATOM     59  C   UNL A   1      43.709  30.570  33.309  1.00  0.00     0.074 A 
ATOM     60  C   UNL A   1      44.412  31.299  34.344  1.00  0.00     0.031 C 
ATOM     61  C   UNL A   1      44.174  29.439  32.724  1.00  0.00     0.031 A 
BRANCH  48  62
ATOM     62  C   UNL A   1      40.372  27.084  28.469  1.00  0.00    -0.014 A 
ATOM     63  C   UNL A   1      39.572  25.991  28.835  1.00  0.00     0.009 A 
ATOM     64  C   UNL A   1      40.880  27.148  27.162  1.00  0.00     0.009 A 
ATOM     65  C   UNL A   1      39.316  24.965  27.921  1.00  0.00     0.001 A 
ATOM     66  C   UNL A   1      40.602  26.134  26.244  1.00  0.00     0.001 A 
ATOM     67  C   UNL A   1      39.828  25.040  26.626  1.00  0.00     0.000 A 
ENDBRANCH  48  62
BRANCH  49  68
ATOM     68  C   UNL A   1      41.704  34.441  35.053  1.00  0.00    -0.014 A 
ATOM     69  C   UNL A   1      42.375  35.621  34.696  1.00  0.00     0.009 A 
ATOM     70  C   UNL A   1      41.228  34.297  36.364  1.00  0.00     0.009 A 
ATOM     71  C   UNL A   1      42.586  36.626  35.642  1.00  0.00     0.001 A 
ATOM     72  C   UNL A   1      41.420  35.315  37.301  1.00  0.00     0.001 A 
ATOM     73  C   UNL A   1      42.105  36.475  36.942  1.00  0.00     0.000 A 
ENDBRANCH  49  68
BRANCH  61  74
ATOM     74  C   UNL A   1      45.518  28.942  33.171  1.00  0.00    -0.014 A 
ATOM     75  C   UNL A   1      46.697  29.379  32.551  1.00  0.00     0.009 A 
ATOM     76  C   UNL A   1      45.604  28.043  34.246  1.00  0.00     0.009 A 
ATOM     77  C   UNL A   1      47.938  28.898  32.977  1.00  0.00     0.001 A 
ATOM     78  C   UNL A   1      46.846  27.584  34.686  1.00  0.00     0.001 A 
ATOM     79  C   UNL A   1      48.010  28.004  34.045  1.00  0.00     0.000 A 
ENDBRANCH  61  74
ENDBRANCH  35  36
ENDBRANCH  27  30
ENDBRANCH  25  26
ENDBRANCH  24  25
ENDBRANCH   1  24
TORSDOF 14
ENDMDL
