MODEL 1
REMARK VINA RESULT:     -13.1      0.000      0.000
REMARK SMILES O=C(COc1ccccc1[C@@H]1C2=C(CCCC2=O)Nc2nc(SCc3ccccn3)nn21)NCCCNC(=O)c1ccc(-c2c3nc(c(-c4ccccc4)c4ccc([nH]4)c(-c4ccccc4)c4nc(c(-c5ccccc5)c5ccc2[nH]5)C=C4)C=C3)cc1
REMARK SMILES IDX 1 1 2 2 33 3 3 5 4 6 5 7 6 8 10 9 7 10 9 11 8 12 11 13 12 14
REMARK SMILES IDX 32 15 13 16 17 17 20 18 31 19 14 20 19 21 16 22 18 23 21 24
REMARK SMILES IDX 22 25 15 26 23 28 24 29 25 30 26 31 30 32 27 33 29 34 28 35
REMARK SMILES IDX 34 36 35 37 36 38 37 39 38 40 39 42 40 43 41 44 87 45 42 46
REMARK SMILES IDX 86 47 43 48 44 49 45 50 80 51 46 52 85 53 79 54 81 55 47 56
REMARK SMILES IDX 84 57 78 58 77 59 48 61 70 62 55 63 69 64 56 65 59 66 68 67
REMARK SMILES IDX 82 68 57 69 58 70 67 72 83 73 60 74 49 75 50 76 54 77 51 78
REMARK SMILES IDX 53 79 52 80 71 81 72 82 76 83 73 84 75 85 74 86 61 87 62 88
REMARK SMILES IDX 66 89 63 90 65 91 64 92
REMARK H PARENT 33 4 19 27 37 41 81 60 59 71
REMARK Flexibility Score: inf
ROOT
ATOM      1  O   UNL A   1      33.939  23.459  26.793  1.00  0.00    -0.271 OA
ATOM      2  C   UNL A   1      33.232  23.384  25.742  1.00  0.00     0.257 C 
ATOM      3  N   UNL A   1      33.991  22.344  25.003  1.00  0.00    -0.353 N 
ATOM      4  H   UNL A   1      33.555  21.939  24.219  1.00  0.00     0.163 HD
ENDROOT
BRANCH   2   5
ATOM      5  C   UNL A   1      31.485  24.599  25.189  1.00  0.00     0.329 C 
BRANCH   5   6
ATOM      6  O   UNL A   1      31.178  26.070  24.911  1.00  0.00    -0.483 OA
BRANCH   6   7
ATOM      7  C   UNL A   1      31.924  26.628  23.910  1.00  0.00     0.125 A 
ATOM      8  C   UNL A   1      32.887  25.886  23.244  1.00  0.00     0.047 A 
ATOM      9  C   UNL A   1      31.832  27.996  23.737  1.00  0.00     0.024 A 
ATOM     10  C   UNL A   1      33.768  26.546  22.386  1.00  0.00     0.004 A 
ATOM     11  C   UNL A   1      32.694  28.663  22.875  1.00  0.00     0.010 A 
ATOM     12  C   UNL A   1      33.670  27.930  22.200  1.00  0.00     0.001 A 
BRANCH   9  13
ATOM     13  C   UNL A   1      30.950  28.644  24.744  1.00  0.00     0.181 C 
ATOM     14  C   UNL A   1      29.723  29.812  23.730  1.00  0.00     0.044 C 
ATOM     15  N   UNL A   1      31.956  29.542  26.026  1.00  0.00    -0.218 N 
ATOM     16  C   UNL A   1      29.592  31.376  24.044  1.00  0.00     0.027 C 
ATOM     17  C   UNL A   1      28.905  29.174  22.689  1.00  0.00     0.163 C 
ATOM     18  C   UNL A   1      31.709  31.275  26.289  1.00  0.00     0.227 A 
ATOM     19  N   UNL A   1      33.177  29.289  26.518  1.00  0.00    -0.141 NA
ATOM     20  C   UNL A   1      28.710  32.238  23.205  1.00  0.00     0.055 C 
ATOM     21  N   UNL A   1      30.500  32.098  25.406  1.00  0.00    -0.328 N 
ATOM     22  C   UNL A   1      27.975  30.070  21.915  1.00  0.00     0.081 C 
ATOM     23  O   UNL A   1      28.879  27.954  22.589  1.00  0.00    -0.294 OA
ATOM     24  N   UNL A   1      32.708  31.597  27.070  1.00  0.00    -0.185 NA
ATOM     25  C   UNL A   1      33.512  30.432  27.155  1.00  0.00     0.210 A 
ATOM     26  C   UNL A   1      28.399  31.547  21.861  1.00  0.00     0.014 C 
ATOM     27  H   UNL A   1      30.290  33.025  25.661  1.00  0.00     0.169 HD
BRANCH  25  28
ATOM     28  S   UNL A   1      35.047  30.431  28.014  1.00  0.00    -0.078 SA
BRANCH  28  29
ATOM     29  C   UNL A   1      35.365  32.197  28.214  1.00  0.00     0.134 C 
BRANCH  29  30
ATOM     30  C   UNL A   1      36.710  32.612  28.781  1.00  0.00     0.051 A 
ATOM     31  C   UNL A   1      37.707  31.643  28.901  1.00  0.00     0.025 A 
ATOM     32  N   UNL A   1      36.897  33.879  29.228  1.00  0.00    -0.260 NA
ATOM     33  C   UNL A   1      38.909  31.976  29.520  1.00  0.00     0.003 A 
ATOM     34  C   UNL A   1      38.065  34.174  29.834  1.00  0.00     0.111 A 
ATOM     35  C   UNL A   1      39.089  33.264  30.008  1.00  0.00     0.020 A 
ENDBRANCH  29  30
ENDBRANCH  28  29
ENDBRANCH  25  28
ENDBRANCH   9  13
ENDBRANCH   6   7
ENDBRANCH   5   6
ENDBRANCH   2   5
BRANCH   3  36
ATOM     36  C   UNL A   1      35.344  21.870  25.345  1.00  0.00     0.117 C 
BRANCH  36  37
ATOM     37  C   UNL A   1      36.459  22.516  24.514  1.00  0.00     0.042 C 
BRANCH  37  38
ATOM     38  C   UNL A   1      37.637  23.092  25.296  1.00  0.00     0.118 C 
BRANCH  38  39
ATOM     39  N   UNL A   1      38.400  22.124  26.081  1.00  0.00    -0.352 N 
ATOM     40  C   UNL A   1      39.547  22.355  26.830  1.00  0.00     0.251 C 
ATOM     41  H   UNL A   1      38.062  21.201  26.079  1.00  0.00     0.163 HD
ATOM     42  O   UNL A   1      40.308  21.432  27.100  1.00  0.00    -0.269 OA
BRANCH  40  43
ATOM     43  C   UNL A   1      39.831  23.711  27.355  1.00  0.00     0.039 A 
ATOM     44  C   UNL A   1      38.903  24.752  27.311  1.00  0.00     0.014 A 
ATOM     45  C   UNL A   1      41.101  23.961  27.856  1.00  0.00     0.014 A 
ATOM     46  C   UNL A   1      39.257  26.006  27.830  1.00  0.00     0.010 A 
ATOM     47  C   UNL A   1      41.441  25.170  28.413  1.00  0.00     0.010 A 
ATOM     48  C   UNL A   1      40.534  26.208  28.383  1.00  0.00    -0.014 A 
BRANCH  48  49
ATOM     49  C   UNL A   1      40.849  27.375  29.201  1.00  0.00     0.031 A 
ATOM     50  C   UNL A   1      41.813  28.272  28.521  1.00  0.00     0.074 A 
ATOM     51  C   UNL A   1      40.165  27.804  30.287  1.00  0.00     0.049 A 
ATOM     52  N   UNL A   1      43.066  28.407  28.795  1.00  0.00    -0.248 NA
ATOM     53  C   UNL A   1      41.394  28.959  27.284  1.00  0.00     0.031 C 
ATOM     54  C   UNL A   1      38.925  27.250  30.845  1.00  0.00     0.029 A 
ATOM     55  N   UNL A   1      40.381  28.904  31.073  1.00  0.00    -0.354 N 
ATOM     56  C   UNL A   1      43.527  29.398  27.938  1.00  0.00     0.074 A 
ATOM     57  C   UNL A   1      42.539  29.528  26.899  1.00  0.00     0.031 C 
ATOM     58  C   UNL A   1      38.395  28.122  31.737  1.00  0.00     0.029 A 
ATOM     59  C   UNL A   1      39.336  29.210  31.942  1.00  0.00     0.049 A 
ATOM     60  H   UNL A   1      41.210  29.434  31.029  1.00  0.00     0.167 HD
ATOM     61  C   UNL A   1      44.490  30.261  28.360  1.00  0.00     0.031 A 
ATOM     62  C   UNL A   1      39.255  30.271  32.786  1.00  0.00     0.031 A 
ATOM     63  C   UNL A   1      45.070  29.814  29.602  1.00  0.00     0.049 A 
ATOM     64  C   UNL A   1      40.629  30.751  33.035  1.00  0.00     0.074 A 
ATOM     65  C   UNL A   1      45.941  28.835  30.023  1.00  0.00     0.029 A 
ATOM     66  N   UNL A   1      44.363  30.232  30.699  1.00  0.00    -0.354 N 
ATOM     67  N   UNL A   1      41.515  30.056  33.688  1.00  0.00    -0.248 NA
ATOM     68  C   UNL A   1      41.147  31.889  32.287  1.00  0.00     0.031 C 
ATOM     69  C   UNL A   1      45.619  28.577  31.391  1.00  0.00     0.029 A 
ATOM     70  C   UNL A   1      44.595  29.435  31.785  1.00  0.00     0.049 A 
ATOM     71  H   UNL A   1      43.762  31.012  30.704  1.00  0.00     0.167 HD
ATOM     72  C   UNL A   1      42.707  30.380  33.076  1.00  0.00     0.074 A 
ATOM     73  C   UNL A   1      42.455  31.632  32.372  1.00  0.00     0.031 C 
ATOM     74  C   UNL A   1      43.682  29.442  32.906  1.00  0.00     0.031 A 
BRANCH  61  75
ATOM     75  C   UNL A   1      44.511  31.736  28.010  1.00  0.00    -0.014 A 
ATOM     76  C   UNL A   1      43.800  32.620  28.844  1.00  0.00     0.009 A 
ATOM     77  C   UNL A   1      44.918  32.241  26.760  1.00  0.00     0.009 A 
ATOM     78  C   UNL A   1      43.458  33.910  28.421  1.00  0.00     0.001 A 
ATOM     79  C   UNL A   1      44.607  33.540  26.348  1.00  0.00     0.001 A 
ATOM     80  C   UNL A   1      43.855  34.367  27.170  1.00  0.00     0.000 A 
ENDBRANCH  61  75
BRANCH  62  81
ATOM     81  C   UNL A   1      38.094  31.012  33.323  1.00  0.00    -0.014 A 
ATOM     82  C   UNL A   1      38.196  31.747  34.517  1.00  0.00     0.009 A 
ATOM     83  C   UNL A   1      36.984  31.256  32.497  1.00  0.00     0.009 A 
ATOM     84  C   UNL A   1      37.251  32.729  34.845  1.00  0.00     0.001 A 
ATOM     85  C   UNL A   1      36.042  32.240  32.824  1.00  0.00     0.001 A 
ATOM     86  C   UNL A   1      36.185  32.989  33.988  1.00  0.00     0.000 A 
ENDBRANCH  62  81
BRANCH  74  87
ATOM     87  C   UNL A   1      43.691  28.271  33.843  1.00  0.00    -0.014 A 
ATOM     88  C   UNL A   1      43.075  27.038  33.572  1.00  0.00     0.009 A 
ATOM     89  C   UNL A   1      44.409  28.413  35.040  1.00  0.00     0.009 A 
ATOM     90  C   UNL A   1      43.161  25.985  34.491  1.00  0.00     0.001 A 
ATOM     91  C   UNL A   1      44.511  27.358  35.945  1.00  0.00     0.001 A 
ATOM     92  C   UNL A   1      43.881  26.146  35.673  1.00  0.00     0.000 A 
ENDBRANCH  74  87
ENDBRANCH  48  49
ENDBRANCH  40  43
ENDBRANCH  38  39
ENDBRANCH  37  38
ENDBRANCH  36  37
ENDBRANCH   3  36
TORSDOF 16
ENDMDL
MODEL 2
REMARK VINA RESULT:     -12.6      2.755      8.925
REMARK SMILES O=C(COc1ccccc1[C@@H]1C2=C(CCCC2=O)Nc2nc(SCc3ccccn3)nn21)NCCCNC(=O)c1ccc(-c2c3nc(c(-c4ccccc4)c4ccc([nH]4)c(-c4ccccc4)c4nc(c(-c5ccccc5)c5ccc2[nH]5)C=C4)C=C3)cc1
REMARK SMILES IDX 1 1 2 2 33 3 3 5 4 6 5 7 6 8 10 9 7 10 9 11 8 12 11 13 12 14
REMARK SMILES IDX 32 15 13 16 17 17 20 18 31 19 14 20 19 21 16 22 18 23 21 24
REMARK SMILES IDX 22 25 15 26 23 28 24 29 25 30 26 31 30 32 27 33 29 34 28 35
REMARK SMILES IDX 34 36 35 37 36 38 37 39 38 40 39 42 40 43 41 44 87 45 42 46
REMARK SMILES IDX 86 47 43 48 44 49 45 50 80 51 46 52 85 53 79 54 81 55 47 56
REMARK SMILES IDX 84 57 78 58 77 59 48 61 70 62 55 63 69 64 56 65 59 66 68 67
REMARK SMILES IDX 82 68 57 69 58 70 67 72 83 73 60 74 49 75 50 76 54 77 51 78
REMARK SMILES IDX 53 79 52 80 71 81 72 82 76 83 73 84 75 85 74 86 61 87 62 88
REMARK SMILES IDX 66 89 63 90 65 91 64 92
REMARK H PARENT 33 4 19 27 37 41 81 60 59 71
REMARK Flexibility Score: inf
ROOT
ATOM      1  O   UNL A   1      32.663  27.463  23.240  1.00  0.00    -0.271 OA
ATOM      2  C   UNL A   1      32.753  26.468  24.022  1.00  0.00     0.257 C 
ATOM      3  N   UNL A   1      32.490  27.144  25.317  1.00  0.00    -0.353 N 
ATOM      4  H   UNL A   1      32.304  26.570  26.096  1.00  0.00     0.163 HD
ENDROOT
BRANCH   2   5
ATOM      5  C   UNL A   1      33.300  24.396  23.531  1.00  0.00     0.329 C 
BRANCH   5   6
ATOM      6  O   UNL A   1      32.810  22.990  23.873  1.00  0.00    -0.483 OA
BRANCH   6   7
ATOM      7  C   UNL A   1      32.771  22.709  25.210  1.00  0.00     0.125 A 
ATOM      8  C   UNL A   1      32.089  23.536  26.089  1.00  0.00     0.047 A 
ATOM      9  C   UNL A   1      33.603  21.707  25.673  1.00  0.00     0.024 A 
ATOM     10  C   UNL A   1      32.253  23.338  27.461  1.00  0.00     0.004 A 
ATOM     11  C   UNL A   1      33.764  21.491  27.037  1.00  0.00     0.010 A 
ATOM     12  C   UNL A   1      33.086  22.317  27.933  1.00  0.00     0.001 A 
BRANCH   9  13
ATOM     13  C   UNL A   1      34.462  21.134  24.604  1.00  0.00     0.181 C 
ATOM     14  C   UNL A   1      34.048  19.204  24.540  1.00  0.00     0.044 C 
ATOM     15  N   UNL A   1      36.256  21.507  24.922  1.00  0.00    -0.218 N 
ATOM     16  C   UNL A   1      35.185  18.090  24.701  1.00  0.00     0.027 C 
ATOM     17  C   UNL A   1      32.645  18.832  24.306  1.00  0.00     0.163 C 
ATOM     18  C   UNL A   1      37.423  20.185  25.067  1.00  0.00     0.227 A 
ATOM     19  N   UNL A   1      36.840  22.551  25.529  1.00  0.00    -0.141 NA
ATOM     20  C   UNL A   1      34.819  16.644  24.722  1.00  0.00     0.055 C 
ATOM     21  N   UNL A   1      36.901  18.572  24.848  1.00  0.00    -0.328 N 
ATOM     22  C   UNL A   1      32.333  17.360  24.265  1.00  0.00     0.081 C 
ATOM     23  O   UNL A   1      31.825  19.688  24.001  1.00  0.00    -0.294 OA
ATOM     24  N   UNL A   1      38.499  20.790  25.499  1.00  0.00    -0.185 NA
ATOM     25  C   UNL A   1      38.104  22.128  25.753  1.00  0.00     0.210 A 
ATOM     26  C   UNL A   1      33.319  16.470  25.039  1.00  0.00     0.014 C 
ATOM     27  H   UNL A   1      37.585  17.866  24.801  1.00  0.00     0.169 HD
BRANCH  25  28
ATOM     28  S   UNL A   1      39.207  23.296  26.470  1.00  0.00    -0.078 SA
BRANCH  28  29
ATOM     29  C   UNL A   1      40.312  22.232  27.421  1.00  0.00     0.134 C 
BRANCH  29  30
ATOM     30  C   UNL A   1      41.610  22.835  27.928  1.00  0.00     0.051 A 
ATOM     31  C   UNL A   1      41.574  24.117  28.477  1.00  0.00     0.025 A 
ATOM     32  N   UNL A   1      42.778  22.164  27.770  1.00  0.00    -0.260 NA
ATOM     33  C   UNL A   1      42.768  24.732  28.845  1.00  0.00     0.003 A 
ATOM     34  C   UNL A   1      43.921  22.785  28.124  1.00  0.00     0.111 A 
ATOM     35  C   UNL A   1      43.968  24.059  28.654  1.00  0.00     0.020 A 
ENDBRANCH  29  30
ENDBRANCH  28  29
ENDBRANCH  25  28
ENDBRANCH   9  13
ENDBRANCH   6   7
ENDBRANCH   5   6
ENDBRANCH   2   5
BRANCH   3  36
ATOM     36  C   UNL A   1      32.487  28.601  25.534  1.00  0.00     0.117 C 
BRANCH  36  37
ATOM     37  C   UNL A   1      33.776  29.139  26.168  1.00  0.00     0.042 C 
BRANCH  37  38
ATOM     38  C   UNL A   1      33.607  29.980  27.432  1.00  0.00     0.118 C 
BRANCH  38  39
ATOM     39  N   UNL A   1      33.948  31.394  27.293  1.00  0.00    -0.352 N 
ATOM     40  C   UNL A   1      35.046  32.058  27.826  1.00  0.00     0.251 C 
ATOM     41  H   UNL A   1      33.327  31.940  26.761  1.00  0.00     0.163 HD
ATOM     42  O   UNL A   1      35.017  33.273  27.988  1.00  0.00    -0.269 OA
BRANCH  40  43
ATOM     43  C   UNL A   1      36.282  31.309  28.150  1.00  0.00     0.039 A 
ATOM     44  C   UNL A   1      36.598  30.079  27.573  1.00  0.00     0.014 A 
ATOM     45  C   UNL A   1      37.125  31.836  29.118  1.00  0.00     0.014 A 
ATOM     46  C   UNL A   1      37.789  29.437  27.939  1.00  0.00     0.010 A 
ATOM     47  C   UNL A   1      38.320  31.241  29.448  1.00  0.00     0.010 A 
ATOM     48  C   UNL A   1      38.650  30.028  28.882  1.00  0.00    -0.014 A 
BRANCH  48  49
ATOM     49  C   UNL A   1      40.024  29.571  29.071  1.00  0.00     0.031 A 
ATOM     50  C   UNL A   1      40.287  29.212  30.485  1.00  0.00     0.074 A 
ATOM     51  C   UNL A   1      40.889  29.202  28.099  1.00  0.00     0.049 A 
ATOM     52  N   UNL A   1      40.962  29.899  31.341  1.00  0.00    -0.248 NA
ATOM     53  C   UNL A   1      39.574  28.060  31.071  1.00  0.00     0.031 C 
ATOM     54  C   UNL A   1      40.634  29.105  26.657  1.00  0.00     0.029 A 
ATOM     55  N   UNL A   1      42.170  28.731  28.208  1.00  0.00    -0.354 N 
ATOM     56  C   UNL A   1      40.984  29.130  32.498  1.00  0.00     0.074 A 
ATOM     57  C   UNL A   1      39.942  28.147  32.351  1.00  0.00     0.031 C 
ATOM     58  C   UNL A   1      41.640  28.423  26.059  1.00  0.00     0.029 A 
ATOM     59  C   UNL A   1      42.688  28.184  27.036  1.00  0.00     0.049 A 
ATOM     60  H   UNL A   1      42.684  28.777  29.046  1.00  0.00     0.167 HD
ATOM     61  C   UNL A   1      42.084  29.144  33.298  1.00  0.00     0.031 A 
ATOM     62  C   UNL A   1      43.900  27.594  26.871  1.00  0.00     0.031 A 
ATOM     63  C   UNL A   1      42.984  30.204  32.914  1.00  0.00     0.049 A 
ATOM     64  C   UNL A   1      44.784  28.077  27.952  1.00  0.00     0.074 A 
ATOM     65  C   UNL A   1      43.043  31.575  33.021  1.00  0.00     0.029 A 
ATOM     66  N   UNL A   1      43.845  29.834  31.915  1.00  0.00    -0.354 N 
ATOM     67  N   UNL A   1      45.184  29.313  28.040  1.00  0.00    -0.248 NA
ATOM     68  C   UNL A   1      44.988  27.262  29.141  1.00  0.00     0.031 C 
ATOM     69  C   UNL A   1      43.864  32.024  31.941  1.00  0.00     0.029 A 
ATOM     70  C   UNL A   1      44.322  30.917  31.230  1.00  0.00     0.049 A 
ATOM     71  H   UNL A   1      44.090  28.902  31.714  1.00  0.00     0.167 HD
ATOM     72  C   UNL A   1      45.257  29.542  29.397  1.00  0.00     0.074 A 
ATOM     73  C   UNL A   1      45.319  28.221  30.011  1.00  0.00     0.031 C 
ATOM     74  C   UNL A   1      44.913  30.753  29.920  1.00  0.00     0.031 A 
BRANCH  61  75
ATOM     75  C   UNL A   1      42.629  27.918  34.003  1.00  0.00    -0.014 A 
ATOM     76  C   UNL A   1      43.538  27.104  33.300  1.00  0.00     0.009 A 
ATOM     77  C   UNL A   1      42.064  27.367  35.169  1.00  0.00     0.009 A 
ATOM     78  C   UNL A   1      43.812  25.792  33.706  1.00  0.00     0.001 A 
ATOM     79  C   UNL A   1      42.360  26.069  35.595  1.00  0.00     0.001 A 
ATOM     80  C   UNL A   1      43.215  25.272  34.849  1.00  0.00     0.000 A 
ENDBRANCH  61  75
BRANCH  62  81
ATOM     81  C   UNL A   1      44.364  26.545  25.938  1.00  0.00    -0.014 A 
ATOM     82  C   UNL A   1      45.732  26.249  25.806  1.00  0.00     0.009 A 
ATOM     83  C   UNL A   1      43.441  25.622  25.419  1.00  0.00     0.009 A 
ATOM     84  C   UNL A   1      46.159  25.047  25.226  1.00  0.00     0.001 A 
ATOM     85  C   UNL A   1      43.869  24.419  24.842  1.00  0.00     0.001 A 
ATOM     86  C   UNL A   1      45.226  24.123  24.761  1.00  0.00     0.000 A 
ENDBRANCH  62  81
BRANCH  74  87
ATOM     87  C   UNL A   1      45.000  31.950  29.021  1.00  0.00    -0.014 A 
ATOM     88  C   UNL A   1      43.952  32.400  28.202  1.00  0.00     0.009 A 
ATOM     89  C   UNL A   1      46.194  32.687  29.048  1.00  0.00     0.009 A 
ATOM     90  C   UNL A   1      44.109  33.547  27.416  1.00  0.00     0.001 A 
ATOM     91  C   UNL A   1      46.341  33.841  28.281  1.00  0.00     0.001 A 
ATOM     92  C   UNL A   1      45.301  34.268  27.460  1.00  0.00     0.000 A 
ENDBRANCH  74  87
ENDBRANCH  48  49
ENDBRANCH  40  43
ENDBRANCH  38  39
ENDBRANCH  37  38
ENDBRANCH  36  37
ENDBRANCH   3  36
TORSDOF 16
ENDMDL
MODEL 3
REMARK VINA RESULT:     -12.3      8.578     13.589
REMARK SMILES O=C(COc1ccccc1[C@@H]1C2=C(CCCC2=O)Nc2nc(SCc3ccccn3)nn21)NCCCNC(=O)c1ccc(-c2c3nc(c(-c4ccccc4)c4ccc([nH]4)c(-c4ccccc4)c4nc(c(-c5ccccc5)c5ccc2[nH]5)C=C4)C=C3)cc1
REMARK SMILES IDX 1 1 2 2 33 3 3 5 4 6 5 7 6 8 10 9 7 10 9 11 8 12 11 13 12 14
REMARK SMILES IDX 32 15 13 16 17 17 20 18 31 19 14 20 19 21 16 22 18 23 21 24
REMARK SMILES IDX 22 25 15 26 23 28 24 29 25 30 26 31 30 32 27 33 29 34 28 35
REMARK SMILES IDX 34 36 35 37 36 38 37 39 38 40 39 42 40 43 41 44 87 45 42 46
REMARK SMILES IDX 86 47 43 48 44 49 45 50 80 51 46 52 85 53 79 54 81 55 47 56
REMARK SMILES IDX 84 57 78 58 77 59 48 61 70 62 55 63 69 64 56 65 59 66 68 67
REMARK SMILES IDX 82 68 57 69 58 70 67 72 83 73 60 74 49 75 50 76 54 77 51 78
REMARK SMILES IDX 53 79 52 80 71 81 72 82 76 83 73 84 75 85 74 86 61 87 62 88
REMARK SMILES IDX 66 89 63 90 65 91 64 92
REMARK H PARENT 33 4 19 27 37 41 81 60 59 71
REMARK Flexibility Score: inf
ROOT
ATOM      1  O   UNL A   1      46.778  41.220  24.713  1.00  0.00    -0.271 OA
ATOM      2  C   UNL A   1      46.989  40.531  23.669  1.00  0.00     0.257 C 
ATOM      3  N   UNL A   1      46.949  39.168  24.257  1.00  0.00    -0.353 N 
ATOM      4  H   UNL A   1      46.890  38.409  23.633  1.00  0.00     0.163 HD
ENDROOT
BRANCH   2   5
ATOM      5  C   UNL A   1      47.432  41.241  21.636  1.00  0.00     0.329 C 
BRANCH   5   6
ATOM      6  O   UNL A   1      46.900  42.300  20.672  1.00  0.00    -0.483 OA
BRANCH   6   7
ATOM      7  C   UNL A   1      46.854  43.566  21.184  1.00  0.00     0.125 A 
ATOM      8  C   UNL A   1      47.780  43.984  22.127  1.00  0.00     0.047 A 
ATOM      9  C   UNL A   1      45.740  44.330  20.892  1.00  0.00     0.024 A 
ATOM     10  C   UNL A   1      47.571  45.200  22.780  1.00  0.00     0.004 A 
ATOM     11  C   UNL A   1      45.527  45.548  21.525  1.00  0.00     0.010 A 
ATOM     12  C   UNL A   1      46.449  45.980  22.478  1.00  0.00     0.001 A 
BRANCH   9  13
ATOM     13  C   UNL A   1      44.730  43.588  20.091  1.00  0.00     0.181 C 
ATOM     14  C   UNL A   1      44.044  44.866  18.751  1.00  0.00     0.044 C 
ATOM     15  N   UNL A   1      43.411  42.869  21.188  1.00  0.00    -0.218 N 
ATOM     16  C   UNL A   1      42.483  45.192  18.614  1.00  0.00     0.027 C 
ATOM     17  C   UNL A   1      45.032  45.487  17.856  1.00  0.00     0.163 C 
ATOM     18  C   UNL A   1      41.714  43.297  20.927  1.00  0.00     0.227 A 
ATOM     19  N   UNL A   1      43.466  42.432  22.454  1.00  0.00    -0.141 NA
ATOM     20  C   UNL A   1      42.014  46.220  17.640  1.00  0.00     0.055 C 
ATOM     21  N   UNL A   1      41.292  44.321  19.624  1.00  0.00    -0.328 N 
ATOM     22  C   UNL A   1      44.505  46.465  16.840  1.00  0.00     0.081 C 
ATOM     23  O   UNL A   1      46.190  45.089  17.849  1.00  0.00    -0.294 OA
ATOM     24  N   UNL A   1      41.122  42.805  21.985  1.00  0.00    -0.185 NA
ATOM     25  C   UNL A   1      42.169  42.337  22.819  1.00  0.00     0.210 A 
ATOM     26  C   UNL A   1      43.180  47.142  17.224  1.00  0.00     0.014 C 
ATOM     27  H   UNL A   1      40.337  44.438  19.418  1.00  0.00     0.169 HD
BRANCH  25  28
ATOM     28  S   UNL A   1      41.851  41.695  24.426  1.00  0.00    -0.078 SA
BRANCH  28  29
ATOM     29  C   UNL A   1      43.503  41.662  25.150  1.00  0.00     0.134 C 
BRANCH  29  30
ATOM     30  C   UNL A   1      43.675  40.961  26.486  1.00  0.00     0.051 A 
ATOM     31  C   UNL A   1      43.383  39.599  26.562  1.00  0.00     0.025 A 
ATOM     32  N   UNL A   1      44.028  41.673  27.586  1.00  0.00    -0.260 NA
ATOM     33  C   UNL A   1      43.427  38.962  27.800  1.00  0.00     0.003 A 
ATOM     34  C   UNL A   1      44.052  41.036  28.774  1.00  0.00     0.111 A 
ATOM     35  C   UNL A   1      43.755  39.697  28.932  1.00  0.00     0.020 A 
ENDBRANCH  29  30
ENDBRANCH  28  29
ENDBRANCH  25  28
ENDBRANCH   9  13
ENDBRANCH   6   7
ENDBRANCH   5   6
ENDBRANCH   2   5
BRANCH   3  36
ATOM     36  C   UNL A   1      46.992  38.858  25.697  1.00  0.00     0.117 C 
BRANCH  36  37
ATOM     37  C   UNL A   1      47.215  37.373  26.008  1.00  0.00     0.042 C 
BRANCH  37  38
ATOM     38  C   UNL A   1      46.001  36.601  26.519  1.00  0.00     0.118 C 
BRANCH  38  39
ATOM     39  N   UNL A   1      45.381  35.697  25.552  1.00  0.00    -0.352 N 
ATOM     40  C   UNL A   1      44.521  34.638  25.811  1.00  0.00     0.251 C 
ATOM     41  H   UNL A   1      45.599  35.858  24.607  1.00  0.00     0.163 HD
ATOM     42  O   UNL A   1      44.395  33.728  24.999  1.00  0.00    -0.269 OA
BRANCH  40  43
ATOM     43  C   UNL A   1      43.707  34.627  27.049  1.00  0.00     0.039 A 
ATOM     44  C   UNL A   1      42.702  35.560  27.305  1.00  0.00     0.014 A 
ATOM     45  C   UNL A   1      44.009  33.679  28.017  1.00  0.00     0.014 A 
ATOM     46  C   UNL A   1      41.981  35.477  28.505  1.00  0.00     0.010 A 
ATOM     47  C   UNL A   1      43.276  33.557  29.173  1.00  0.00     0.010 A 
ATOM     48  C   UNL A   1      42.275  34.467  29.439  1.00  0.00    -0.014 A 
BRANCH  48  49
ATOM     49  C   UNL A   1      41.375  34.145  30.542  1.00  0.00     0.031 A 
ATOM     50  C   UNL A   1      42.042  34.318  31.855  1.00  0.00     0.074 A 
ATOM     51  C   UNL A   1      40.031  34.011  30.470  1.00  0.00     0.049 A 
ATOM     52  N   UNL A   1      42.467  33.380  32.631  1.00  0.00    -0.248 NA
ATOM     53  C   UNL A   1      42.450  35.673  32.273  1.00  0.00     0.031 C 
ATOM     54  C   UNL A   1      39.167  34.224  29.302  1.00  0.00     0.029 A 
ATOM     55  N   UNL A   1      39.128  33.748  31.465  1.00  0.00    -0.354 N 
ATOM     56  C   UNL A   1      42.952  34.029  33.761  1.00  0.00     0.074 A 
ATOM     57  C   UNL A   1      43.128  35.409  33.392  1.00  0.00     0.031 C 
ATOM     58  C   UNL A   1      37.872  34.284  29.696  1.00  0.00     0.029 A 
ATOM     59  C   UNL A   1      37.797  33.946  31.107  1.00  0.00     0.049 A 
ATOM     60  H   UNL A   1      39.399  33.443  32.361  1.00  0.00     0.167 HD
ATOM     61  C   UNL A   1      42.819  33.446  34.983  1.00  0.00     0.031 A 
ATOM     62  C   UNL A   1      36.705  33.821  31.904  1.00  0.00     0.031 A 
ATOM     63  C   UNL A   1      42.397  32.073  34.853  1.00  0.00     0.049 A 
ATOM     64  C   UNL A   1      37.076  32.950  33.038  1.00  0.00     0.074 A 
ATOM     65  C   UNL A   1      42.954  30.870  34.481  1.00  0.00     0.029 A 
ATOM     66  N   UNL A   1      41.037  31.941  34.759  1.00  0.00    -0.354 N 
ATOM     67  N   UNL A   1      37.356  31.687  32.899  1.00  0.00    -0.248 NA
ATOM     68  C   UNL A   1      37.452  33.543  34.315  1.00  0.00     0.031 C 
ATOM     69  C   UNL A   1      41.874  30.059  34.013  1.00  0.00     0.029 A 
ATOM     70  C   UNL A   1      40.683  30.767  34.155  1.00  0.00     0.049 A 
ATOM     71  H   UNL A   1      40.394  32.611  35.086  1.00  0.00     0.167 HD
ATOM     72  C   UNL A   1      38.325  31.455  33.852  1.00  0.00     0.074 A 
ATOM     73  C   UNL A   1      38.204  32.553  34.803  1.00  0.00     0.031 C 
ATOM     74  C   UNL A   1      39.357  30.599  33.603  1.00  0.00     0.031 A 
BRANCH  61  75
ATOM     75  C   UNL A   1      42.497  34.213  36.250  1.00  0.00    -0.014 A 
ATOM     76  C   UNL A   1      41.306  34.965  36.279  1.00  0.00     0.009 A 
ATOM     77  C   UNL A   1      43.434  34.481  37.266  1.00  0.00     0.009 A 
ATOM     78  C   UNL A   1      41.099  35.971  37.231  1.00  0.00     0.001 A 
ATOM     79  C   UNL A   1      43.216  35.462  38.237  1.00  0.00     0.001 A 
ATOM     80  C   UNL A   1      42.058  36.225  38.204  1.00  0.00     0.000 A 
ENDBRANCH  61  75
BRANCH  62  81
ATOM     81  C   UNL A   1      35.380  34.476  31.866  1.00  0.00    -0.014 A 
ATOM     82  C   UNL A   1      35.049  35.491  32.782  1.00  0.00     0.009 A 
ATOM     83  C   UNL A   1      34.564  34.326  30.732  1.00  0.00     0.009 A 
ATOM     84  C   UNL A   1      33.975  36.358  32.543  1.00  0.00     0.001 A 
ATOM     85  C   UNL A   1      33.493  35.196  30.492  1.00  0.00     0.001 A 
ATOM     86  C   UNL A   1      33.209  36.223  31.388  1.00  0.00     0.000 A 
ENDBRANCH  62  81
BRANCH  74  87
ATOM     87  C   UNL A   1      39.141  29.529  32.574  1.00  0.00    -0.014 A 
ATOM     88  C   UNL A   1      38.481  28.315  32.825  1.00  0.00     0.009 A 
ATOM     89  C   UNL A   1      39.587  29.794  31.271  1.00  0.00     0.009 A 
ATOM     90  C   UNL A   1      38.295  27.384  31.796  1.00  0.00     0.001 A 
ATOM     91  C   UNL A   1      39.383  28.875  30.243  1.00  0.00     0.001 A 
ATOM     92  C   UNL A   1      38.743  27.667  30.506  1.00  0.00     0.000 A 
ENDBRANCH  74  87
ENDBRANCH  48  49
ENDBRANCH  40  43
ENDBRANCH  38  39
ENDBRANCH  37  38
ENDBRANCH  36  37
ENDBRANCH   3  36
TORSDOF 16
ENDMDL
