MODEL 1
REMARK VINA RESULT:     -11.3      0.000      0.000
REMARK SMILES O=C(Cc1cccn1-c1ccccc1F)NCCCNC(=O)c1ccc(-c2c3nc(c(-c4ccccc4)c4ccc([nH]4)c(-c4ccccc4)c4nc(c(-c5ccccc5)c5ccc2[nH]5)C=C4)C=C3)cc1
REMARK SMILES IDX 18 1 17 2 16 3 1 4 2 5 3 7 4 8 5 9 8 10 6 11 7 12 9 13 10 14
REMARK SMILES IDX 14 15 11 16 13 17 15 18 12 19 19 20 20 21 21 22 22 24 23 25
REMARK SMILES IDX 24 26 70 27 25 28 69 29 26 30 27 31 28 32 63 33 29 34 68 35
REMARK SMILES IDX 62 36 64 37 30 38 67 39 61 40 60 41 31 43 53 44 38 45 52 46
REMARK SMILES IDX 39 47 42 48 51 49 65 50 40 51 41 52 50 54 66 55 43 56 32 57
REMARK SMILES IDX 33 58 37 59 34 60 36 61 35 62 54 63 55 64 59 65 56 66 58 67
REMARK SMILES IDX 57 68 44 69 45 70 49 71 46 72 48 73 47 74
REMARK H PARENT 16 6 20 23 64 42 42 53
REMARK Flexibility Score: inf
ROOT
ATOM      1  C   UNL A   1      39.043  21.793  26.024  1.00  0.00     0.042 C 
ENDROOT
BRANCH   1   2
ATOM      2  C   UNL A   1      37.605  21.650  25.527  1.00  0.00     0.117 C 
BRANCH   2   3
ATOM      3  N   UNL A   1      36.711  22.631  26.111  1.00  0.00    -0.356 N 
ATOM      4  O   UNL A   1      35.114  22.488  24.471  1.00  0.00    -0.275 OA
ATOM      5  C   UNL A   1      35.483  22.931  25.555  1.00  0.00     0.225 C 
ATOM      6  H   UNL A   1      36.989  23.096  26.933  1.00  0.00     0.163 HD
BRANCH   5   7
ATOM      7  C   UNL A   1      34.643  23.913  26.359  1.00  0.00     0.154 C 
BRANCH   7   8
ATOM      8  C   UNL A   1      33.161  23.810  26.089  1.00  0.00     0.032 A 
ATOM      9  C   UNL A   1      32.243  22.838  26.466  1.00  0.00     0.024 A 
ATOM     10  N   UNL A   1      32.439  24.825  25.458  1.00  0.00    -0.318 N 
ATOM     11  C   UNL A   1      30.947  23.319  26.190  1.00  0.00     0.020 A 
ATOM     12  C   UNL A   1      31.093  24.560  25.621  1.00  0.00     0.091 A 
BRANCH  10  13
ATOM     13  C   UNL A   1      32.938  25.975  24.802  1.00  0.00     0.081 A 
ATOM     14  C   UNL A   1      33.210  25.926  23.428  1.00  0.00     0.030 A 
ATOM     15  C   UNL A   1      33.219  27.139  25.519  1.00  0.00     0.147 A 
ATOM     16  C   UNL A   1      33.702  27.061  22.779  1.00  0.00     0.002 A 
ATOM     17  C   UNL A   1      33.724  28.264  24.874  1.00  0.00     0.041 A 
ATOM     18  F   UNL A   1      33.097  27.178  26.853  1.00  0.00    -0.205 F 
ATOM     19  C   UNL A   1      33.955  28.229  23.499  1.00  0.00     0.003 A 
ENDBRANCH  10  13
ENDBRANCH   7   8
ENDBRANCH   5   7
ENDBRANCH   2   3
ENDBRANCH   1   2
BRANCH   1  20
ATOM     20  C   UNL A   1      39.353  23.183  26.582  1.00  0.00     0.118 C 
BRANCH  20  21
ATOM     21  N   UNL A   1      40.742  23.552  26.358  1.00  0.00    -0.352 N 
ATOM     22  C   UNL A   1      41.392  24.738  26.588  1.00  0.00     0.251 C 
ATOM     23  H   UNL A   1      41.304  22.837  25.982  1.00  0.00     0.163 HD
ATOM     24  O   UNL A   1      42.455  24.951  26.018  1.00  0.00    -0.269 OA
BRANCH  22  25
ATOM     25  C   UNL A   1      40.848  25.763  27.506  1.00  0.00     0.039 A 
ATOM     26  C   UNL A   1      41.460  27.026  27.513  1.00  0.00     0.014 A 
ATOM     27  C   UNL A   1      39.836  25.470  28.426  1.00  0.00     0.014 A 
ATOM     28  C   UNL A   1      41.025  28.007  28.398  1.00  0.00     0.010 A 
ATOM     29  C   UNL A   1      39.384  26.452  29.300  1.00  0.00     0.010 A 
ATOM     30  C   UNL A   1      39.969  27.725  29.271  1.00  0.00    -0.014 A 
BRANCH  30  31
ATOM     31  C   UNL A   1      39.316  28.834  30.000  1.00  0.00     0.031 A 
ATOM     32  C   UNL A   1      40.005  29.083  31.367  1.00  0.00     0.074 A 
ATOM     33  C   UNL A   1      38.270  29.455  29.370  1.00  0.00     0.049 A 
ATOM     34  N   UNL A   1      39.605  29.776  32.387  1.00  0.00    -0.248 NA
ATOM     35  C   UNL A   1      41.336  28.464  31.645  1.00  0.00     0.031 C 
ATOM     36  C   UNL A   1      37.771  29.108  28.015  1.00  0.00     0.029 A 
ATOM     37  N   UNL A   1      37.419  30.489  29.708  1.00  0.00    -0.354 N 
ATOM     38  C   UNL A   1      40.667  29.832  33.321  1.00  0.00     0.074 A 
ATOM     39  C   UNL A   1      41.680  28.946  32.841  1.00  0.00     0.031 C 
ATOM     40  C   UNL A   1      36.682  29.843  27.693  1.00  0.00     0.029 A 
ATOM     41  C   UNL A   1      36.372  30.751  28.780  1.00  0.00     0.049 A 
ATOM     42  H   UNL A   1      37.530  31.009  30.536  1.00  0.00     0.167 HD
ATOM     43  C   UNL A   1      40.695  30.705  34.372  1.00  0.00     0.031 A 
ATOM     44  C   UNL A   1      35.315  31.614  28.896  1.00  0.00     0.031 A 
ATOM     45  C   UNL A   1      39.450  31.381  34.476  1.00  0.00     0.049 A 
ATOM     46  C   UNL A   1      35.593  32.412  30.095  1.00  0.00     0.074 A 
ATOM     47  C   UNL A   1      38.197  30.954  34.832  1.00  0.00     0.029 A 
ATOM     48  N   UNL A   1      39.351  32.573  33.804  1.00  0.00    -0.354 N 
ATOM     49  N   UNL A   1      36.484  33.352  30.165  1.00  0.00    -0.248 NA
ATOM     50  C   UNL A   1      34.863  32.112  31.332  1.00  0.00     0.031 C 
ATOM     51  C   UNL A   1      37.370  31.612  33.898  1.00  0.00     0.029 A 
ATOM     52  C   UNL A   1      38.116  32.576  33.211  1.00  0.00     0.049 A 
ATOM     53  H   UNL A   1      40.031  33.283  33.757  1.00  0.00     0.167 HD
ATOM     54  C   UNL A   1      36.692  33.441  31.517  1.00  0.00     0.074 A 
ATOM     55  C   UNL A   1      35.487  32.953  32.154  1.00  0.00     0.031 C 
ATOM     56  C   UNL A   1      37.954  33.344  32.003  1.00  0.00     0.031 A 
BRANCH  43  57
ATOM     57  C   UNL A   1      41.829  31.227  35.214  1.00  0.00    -0.014 A 
ATOM     58  C   UNL A   1      41.560  31.471  36.584  1.00  0.00     0.009 A 
ATOM     59  C   UNL A   1      42.981  31.807  34.677  1.00  0.00     0.009 A 
ATOM     60  C   UNL A   1      42.325  32.357  37.344  1.00  0.00     0.001 A 
ATOM     61  C   UNL A   1      43.776  32.668  35.452  1.00  0.00     0.001 A 
ATOM     62  C   UNL A   1      43.426  32.973  36.768  1.00  0.00     0.000 A 
ENDBRANCH  43  57
BRANCH  44  63
ATOM     63  C   UNL A   1      34.001  31.928  28.216  1.00  0.00    -0.014 A 
ATOM     64  C   UNL A   1      33.430  33.190  28.048  1.00  0.00     0.009 A 
ATOM     65  C   UNL A   1      33.294  30.856  27.592  1.00  0.00     0.009 A 
ATOM     66  C   UNL A   1      32.290  33.370  27.229  1.00  0.00     0.001 A 
ATOM     67  C   UNL A   1      32.200  31.032  26.741  1.00  0.00     0.001 A 
ATOM     68  C   UNL A   1      31.703  32.303  26.546  1.00  0.00     0.000 A 
ENDBRANCH  44  63
BRANCH  56  69
ATOM     69  C   UNL A   1      39.070  33.674  31.019  1.00  0.00    -0.014 A 
ATOM     70  C   UNL A   1      40.147  32.790  30.855  1.00  0.00     0.009 A 
ATOM     71  C   UNL A   1      39.135  34.892  30.317  1.00  0.00     0.009 A 
ATOM     72  C   UNL A   1      41.244  33.114  30.044  1.00  0.00     0.001 A 
ATOM     73  C   UNL A   1      40.231  35.224  29.504  1.00  0.00     0.001 A 
ATOM     74  C   UNL A   1      41.288  34.331  29.369  1.00  0.00     0.000 A 
ENDBRANCH  56  69
ENDBRANCH  30  31
ENDBRANCH  22  25
ENDBRANCH  20  21
ENDBRANCH   1  20
TORSDOF 12
ENDMDL
MODEL 2
REMARK VINA RESULT:     -11.3      4.349      9.389
REMARK SMILES O=C(Cc1cccn1-c1ccccc1F)NCCCNC(=O)c1ccc(-c2c3nc(c(-c4ccccc4)c4ccc([nH]4)c(-c4ccccc4)c4nc(c(-c5ccccc5)c5ccc2[nH]5)C=C4)C=C3)cc1
REMARK SMILES IDX 18 1 17 2 16 3 1 4 2 5 3 7 4 8 5 9 8 10 6 11 7 12 9 13 10 14
REMARK SMILES IDX 14 15 11 16 13 17 15 18 12 19 19 20 20 21 21 22 22 24 23 25
REMARK SMILES IDX 24 26 70 27 25 28 69 29 26 30 27 31 28 32 63 33 29 34 68 35
REMARK SMILES IDX 62 36 64 37 30 38 67 39 61 40 60 41 31 43 53 44 38 45 52 46
REMARK SMILES IDX 39 47 42 48 51 49 65 50 40 51 41 52 50 54 66 55 43 56 32 57
REMARK SMILES IDX 33 58 37 59 34 60 36 61 35 62 54 63 55 64 59 65 56 66 58 67
REMARK SMILES IDX 57 68 44 69 45 70 49 71 46 72 48 73 47 74
REMARK H PARENT 16 6 20 23 64 42 42 53
REMARK Flexibility Score: inf
ROOT
ATOM      1  C   UNL A   1      35.070  31.507  27.688  1.00  0.00     0.042 C 
ENDROOT
BRANCH   1   2
ATOM      2  C   UNL A   1      33.545  31.403  27.657  1.00  0.00     0.117 C 
BRANCH   2   3
ATOM      3  N   UNL A   1      33.079  30.031  27.662  1.00  0.00    -0.356 N 
ATOM      4  O   UNL A   1      31.825  30.210  25.749  1.00  0.00    -0.275 OA
ATOM      5  C   UNL A   1      32.288  29.518  26.651  1.00  0.00     0.225 C 
ATOM      6  H   UNL A   1      33.335  29.444  28.409  1.00  0.00     0.163 HD
BRANCH   5   7
ATOM      7  C   UNL A   1      31.976  28.034  26.777  1.00  0.00     0.154 C 
BRANCH   7   8
ATOM      8  C   UNL A   1      32.657  27.178  25.736  1.00  0.00     0.032 A 
ATOM      9  C   UNL A   1      33.919  26.597  25.734  1.00  0.00     0.024 A 
ATOM     10  N   UNL A   1      32.006  26.734  24.584  1.00  0.00    -0.318 N 
ATOM     11  C   UNL A   1      33.990  25.692  24.656  1.00  0.00     0.020 A 
ATOM     12  C   UNL A   1      32.787  25.756  23.999  1.00  0.00     0.091 A 
BRANCH  10  13
ATOM     13  C   UNL A   1      30.743  27.134  24.084  1.00  0.00     0.081 A 
ATOM     14  C   UNL A   1      30.644  28.292  23.301  1.00  0.00     0.030 A 
ATOM     15  C   UNL A   1      29.589  26.422  24.411  1.00  0.00     0.147 A 
ATOM     16  C   UNL A   1      29.398  28.688  22.806  1.00  0.00     0.002 A 
ATOM     17  C   UNL A   1      28.347  26.825  23.930  1.00  0.00     0.041 A 
ATOM     18  F   UNL A   1      29.629  25.389  25.265  1.00  0.00    -0.205 F 
ATOM     19  C   UNL A   1      28.253  27.954  23.116  1.00  0.00     0.003 A 
ENDBRANCH  10  13
ENDBRANCH   7   8
ENDBRANCH   5   7
ENDBRANCH   2   3
ENDBRANCH   1   2
BRANCH   1  20
ATOM     20  C   UNL A   1      35.757  30.187  28.040  1.00  0.00     0.118 C 
BRANCH  20  21
ATOM     21  N   UNL A   1      35.953  30.052  29.475  1.00  0.00    -0.352 N 
ATOM     22  C   UNL A   1      36.928  29.390  30.178  1.00  0.00     0.251 C 
ATOM     23  H   UNL A   1      35.280  30.508  30.029  1.00  0.00     0.163 HD
ATOM     24  O   UNL A   1      36.723  29.106  31.352  1.00  0.00    -0.269 OA
BRANCH  22  25
ATOM     25  C   UNL A   1      38.218  29.011  29.559  1.00  0.00     0.039 A 
ATOM     26  C   UNL A   1      39.282  28.685  30.413  1.00  0.00     0.014 A 
ATOM     27  C   UNL A   1      38.425  29.084  28.178  1.00  0.00     0.014 A 
ATOM     28  C   UNL A   1      40.532  28.378  29.885  1.00  0.00     0.010 A 
ATOM     29  C   UNL A   1      39.667  28.761  27.643  1.00  0.00     0.010 A 
ATOM     30  C   UNL A   1      40.713  28.392  28.498  1.00  0.00    -0.014 A 
BRANCH  30  31
ATOM     31  C   UNL A   1      41.937  27.794  27.922  1.00  0.00     0.031 A 
ATOM     32  C   UNL A   1      43.003  28.881  27.630  1.00  0.00     0.074 A 
ATOM     33  C   UNL A   1      41.945  26.433  27.768  1.00  0.00     0.049 A 
ATOM     34  N   UNL A   1      44.087  28.817  26.921  1.00  0.00    -0.248 NA
ATOM     35  C   UNL A   1      42.839  30.249  28.209  1.00  0.00     0.031 C 
ATOM     36  C   UNL A   1      40.832  25.530  28.157  1.00  0.00     0.029 A 
ATOM     37  N   UNL A   1      42.861  25.525  27.274  1.00  0.00    -0.354 N 
ATOM     38  C   UNL A   1      44.804  30.023  27.107  1.00  0.00     0.074 A 
ATOM     39  C   UNL A   1      43.952  30.894  27.853  1.00  0.00     0.031 C 
ATOM     40  C   UNL A   1      41.100  24.249  27.814  1.00  0.00     0.029 A 
ATOM     41  C   UNL A   1      42.409  24.178  27.194  1.00  0.00     0.049 A 
ATOM     42  H   UNL A   1      43.766  25.793  26.994  1.00  0.00     0.167 HD
ATOM     43  C   UNL A   1      46.111  30.181  26.739  1.00  0.00     0.031 A 
ATOM     44  C   UNL A   1      43.032  23.091  26.638  1.00  0.00     0.031 A 
ATOM     45  C   UNL A   1      46.548  29.051  25.999  1.00  0.00     0.049 A 
ATOM     46  C   UNL A   1      44.395  23.538  26.332  1.00  0.00     0.074 A 
ATOM     47  C   UNL A   1      46.227  28.587  24.750  1.00  0.00     0.029 A 
ATOM     48  N   UNL A   1      47.129  28.041  26.724  1.00  0.00    -0.354 N 
ATOM     49  N   UNL A   1      45.324  23.733  27.216  1.00  0.00    -0.248 NA
ATOM     50  C   UNL A   1      44.744  23.847  24.940  1.00  0.00     0.031 C 
ATOM     51  C   UNL A   1      46.124  27.195  24.955  1.00  0.00     0.029 A 
ATOM     52  C   UNL A   1      46.628  26.871  26.219  1.00  0.00     0.049 A 
ATOM     53  H   UNL A   1      47.776  28.139  27.460  1.00  0.00     0.167 HD
ATOM     54  C   UNL A   1      46.185  24.559  26.542  1.00  0.00     0.074 A 
ATOM     55  C   UNL A   1      45.978  24.308  25.131  1.00  0.00     0.031 C 
ATOM     56  C   UNL A   1      46.553  25.737  27.104  1.00  0.00     0.031 A 
BRANCH  43  57
ATOM     57  C   UNL A   1      47.166  31.161  27.180  1.00  0.00    -0.014 A 
ATOM     58  C   UNL A   1      47.914  30.831  28.338  1.00  0.00     0.009 A 
ATOM     59  C   UNL A   1      47.209  32.490  26.750  1.00  0.00     0.009 A 
ATOM     60  C   UNL A   1      48.559  31.801  29.105  1.00  0.00     0.001 A 
ATOM     61  C   UNL A   1      47.892  33.462  27.500  1.00  0.00     0.001 A 
ATOM     62  C   UNL A   1      48.530  33.125  28.694  1.00  0.00     0.000 A 
ENDBRANCH  43  57
BRANCH  44  63
ATOM     63  C   UNL A   1      42.724  21.669  26.229  1.00  0.00    -0.014 A 
ATOM     64  C   UNL A   1      43.620  20.744  25.692  1.00  0.00     0.009 A 
ATOM     65  C   UNL A   1      41.416  21.161  26.492  1.00  0.00     0.009 A 
ATOM     66  C   UNL A   1      43.254  19.387  25.526  1.00  0.00     0.001 A 
ATOM     67  C   UNL A   1      41.063  19.814  26.381  1.00  0.00     0.001 A 
ATOM     68  C   UNL A   1      41.996  18.916  25.908  1.00  0.00     0.000 A 
ENDBRANCH  44  63
BRANCH  56  69
ATOM     69  C   UNL A   1      46.423  25.816  28.620  1.00  0.00    -0.014 A 
ATOM     70  C   UNL A   1      45.211  26.217  29.202  1.00  0.00     0.009 A 
ATOM     71  C   UNL A   1      47.505  25.600  29.493  1.00  0.00     0.009 A 
ATOM     72  C   UNL A   1      45.090  26.409  30.586  1.00  0.00     0.001 A 
ATOM     73  C   UNL A   1      47.392  25.792  30.880  1.00  0.00     0.001 A 
ATOM     74  C   UNL A   1      46.180  26.198  31.425  1.00  0.00     0.000 A 
ENDBRANCH  56  69
ENDBRANCH  30  31
ENDBRANCH  22  25
ENDBRANCH  20  21
ENDBRANCH   1  20
TORSDOF 12
ENDMDL
MODEL 3
REMARK VINA RESULT:     -11.2      4.106      9.400
REMARK SMILES O=C(Cc1cccn1-c1ccccc1F)NCCCNC(=O)c1ccc(-c2c3nc(c(-c4ccccc4)c4ccc([nH]4)c(-c4ccccc4)c4nc(c(-c5ccccc5)c5ccc2[nH]5)C=C4)C=C3)cc1
REMARK SMILES IDX 18 1 17 2 16 3 1 4 2 5 3 7 4 8 5 9 8 10 6 11 7 12 9 13 10 14
REMARK SMILES IDX 14 15 11 16 13 17 15 18 12 19 19 20 20 21 21 22 22 24 23 25
REMARK SMILES IDX 24 26 70 27 25 28 69 29 26 30 27 31 28 32 63 33 29 34 68 35
REMARK SMILES IDX 62 36 64 37 30 38 67 39 61 40 60 41 31 43 53 44 38 45 52 46
REMARK SMILES IDX 39 47 42 48 51 49 65 50 40 51 41 52 50 54 66 55 43 56 32 57
REMARK SMILES IDX 33 58 37 59 34 60 36 61 35 62 54 63 55 64 59 65 56 66 58 67
REMARK SMILES IDX 57 68 44 69 45 70 49 71 46 72 48 73 47 74
REMARK H PARENT 16 6 20 23 64 42 42 53
REMARK Flexibility Score: inf
ROOT
ATOM      1  C   UNL A   1      34.102  29.704  27.093  1.00  0.00     0.042 C 
ENDROOT
BRANCH   1   2
ATOM      2  C   UNL A   1      33.580  28.926  25.886  1.00  0.00     0.117 C 
BRANCH   2   3
ATOM      3  N   UNL A   1      33.246  27.552  26.209  1.00  0.00    -0.356 N 
ATOM      4  O   UNL A   1      34.027  26.661  24.244  1.00  0.00    -0.275 OA
ATOM      5  C   UNL A   1      33.560  26.501  25.369  1.00  0.00     0.225 C 
ATOM      6  H   UNL A   1      32.783  27.362  27.056  1.00  0.00     0.163 HD
BRANCH   5   7
ATOM      7  C   UNL A   1      33.219  25.123  25.917  1.00  0.00     0.154 C 
BRANCH   7   8
ATOM      8  C   UNL A   1      32.416  24.270  24.964  1.00  0.00     0.032 A 
ATOM      9  C   UNL A   1      31.075  24.339  24.607  1.00  0.00     0.024 A 
ATOM     10  N   UNL A   1      32.996  23.280  24.169  1.00  0.00    -0.318 N 
ATOM     11  C   UNL A   1      30.865  23.490  23.502  1.00  0.00     0.020 A 
ATOM     12  C   UNL A   1      32.069  22.894  23.220  1.00  0.00     0.091 A 
BRANCH  10  13
ATOM     13  C   UNL A   1      34.312  22.764  24.236  1.00  0.00     0.081 A 
ATOM     14  C   UNL A   1      35.331  23.363  23.483  1.00  0.00     0.030 A 
ATOM     15  C   UNL A   1      34.594  21.629  24.998  1.00  0.00     0.147 A 
ATOM     16  C   UNL A   1      36.631  22.854  23.549  1.00  0.00     0.002 A 
ATOM     17  C   UNL A   1      35.886  21.115  25.051  1.00  0.00     0.041 A 
ATOM     18  F   UNL A   1      33.620  20.954  25.624  1.00  0.00    -0.205 F 
ATOM     19  C   UNL A   1      36.909  21.735  24.335  1.00  0.00     0.003 A 
ENDBRANCH  10  13
ENDBRANCH   7   8
ENDBRANCH   5   7
ENDBRANCH   2   3
ENDBRANCH   1   2
BRANCH   1  20
ATOM     20  C   UNL A   1      35.425  29.162  27.634  1.00  0.00     0.118 C 
BRANCH  20  21
ATOM     21  N   UNL A   1      35.848  29.877  28.828  1.00  0.00    -0.352 N 
ATOM     22  C   UNL A   1      36.969  29.723  29.604  1.00  0.00     0.251 C 
ATOM     23  H   UNL A   1      35.232  30.585  29.126  1.00  0.00     0.163 HD
ATOM     24  O   UNL A   1      36.970  30.175  30.742  1.00  0.00    -0.269 OA
BRANCH  22  25
ATOM     25  C   UNL A   1      38.176  29.027  29.104  1.00  0.00     0.039 A 
ATOM     26  C   UNL A   1      38.595  29.304  27.794  1.00  0.00     0.014 A 
ATOM     27  C   UNL A   1      38.822  28.038  29.851  1.00  0.00     0.014 A 
ATOM     28  C   UNL A   1      39.690  28.635  27.254  1.00  0.00     0.010 A 
ATOM     29  C   UNL A   1      39.927  27.378  29.325  1.00  0.00     0.010 A 
ATOM     30  C   UNL A   1      40.369  27.692  28.033  1.00  0.00    -0.014 A 
BRANCH  30  31
ATOM     31  C   UNL A   1      41.687  27.195  27.582  1.00  0.00     0.031 A 
ATOM     32  C   UNL A   1      42.679  28.367  27.365  1.00  0.00     0.074 A 
ATOM     33  C   UNL A   1      41.825  25.838  27.459  1.00  0.00     0.049 A 
ATOM     34  N   UNL A   1      43.824  28.388  26.758  1.00  0.00    -0.248 NA
ATOM     35  C   UNL A   1      42.346  29.723  27.898  1.00  0.00     0.031 C 
ATOM     36  C   UNL A   1      40.763  24.847  27.765  1.00  0.00     0.029 A 
ATOM     37  N   UNL A   1      42.857  25.007  27.068  1.00  0.00    -0.354 N 
ATOM     38  C   UNL A   1      44.416  29.654  26.982  1.00  0.00     0.074 A 
ATOM     39  C   UNL A   1      43.428  30.458  27.629  1.00  0.00     0.031 C 
ATOM     40  C   UNL A   1      41.169  23.590  27.474  1.00  0.00     0.029 A 
ATOM     41  C   UNL A   1      42.530  23.625  26.976  1.00  0.00     0.049 A 
ATOM     42  H   UNL A   1      43.757  25.348  26.865  1.00  0.00     0.167 HD
ATOM     43  C   UNL A   1      45.732  29.921  26.729  1.00  0.00     0.031 A 
ATOM     44  C   UNL A   1      43.292  22.589  26.502  1.00  0.00     0.031 A 
ATOM     45  C   UNL A   1      46.331  28.822  26.056  1.00  0.00     0.049 A 
ATOM     46  C   UNL A   1      44.634  23.149  26.310  1.00  0.00     0.074 A 
ATOM     47  C   UNL A   1      46.166  28.316  24.793  1.00  0.00     0.029 A 
ATOM     48  N   UNL A   1      46.926  27.877  26.851  1.00  0.00    -0.354 N 
ATOM     49  N   UNL A   1      45.458  23.435  27.269  1.00  0.00    -0.248 NA
ATOM     50  C   UNL A   1      45.082  23.468  24.949  1.00  0.00     0.031 C 
ATOM     51  C   UNL A   1      46.164  26.923  25.017  1.00  0.00     0.029 A 
ATOM     52  C   UNL A   1      46.575  26.661  26.328  1.00  0.00     0.049 A 
ATOM     53  H   UNL A   1      47.492  28.040  27.640  1.00  0.00     0.167 HD
ATOM     54  C   UNL A   1      46.303  24.323  26.658  1.00  0.00     0.074 A 
ATOM     55  C   UNL A   1      46.249  24.037  25.240  1.00  0.00     0.031 C 
ATOM     56  C   UNL A   1      46.517  25.536  27.226  1.00  0.00     0.031 A 
BRANCH  43  57
ATOM     57  C   UNL A   1      46.655  30.993  27.243  1.00  0.00    -0.014 A 
ATOM     58  C   UNL A   1      46.878  31.043  28.642  1.00  0.00     0.009 A 
ATOM     59  C   UNL A   1      47.008  32.124  26.501  1.00  0.00     0.009 A 
ATOM     60  C   UNL A   1      47.301  32.207  29.284  1.00  0.00     0.001 A 
ATOM     61  C   UNL A   1      47.473  33.284  27.142  1.00  0.00     0.001 A 
ATOM     62  C   UNL A   1      47.580  33.338  28.532  1.00  0.00     0.000 A 
ENDBRANCH  43  57
BRANCH  44  63
ATOM     63  C   UNL A   1      43.145  21.140  26.097  1.00  0.00    -0.014 A 
ATOM     64  C   UNL A   1      44.067  20.378  25.377  1.00  0.00     0.009 A 
ATOM     65  C   UNL A   1      42.001  20.424  26.561  1.00  0.00     0.009 A 
ATOM     66  C   UNL A   1      43.896  18.982  25.224  1.00  0.00     0.001 A 
ATOM     67  C   UNL A   1      41.851  19.039  26.460  1.00  0.00     0.001 A 
ATOM     68  C   UNL A   1      42.816  18.309  25.798  1.00  0.00     0.000 A 
ENDBRANCH  44  63
BRANCH  56  69
ATOM     69  C   UNL A   1      46.242  25.624  28.723  1.00  0.00    -0.014 A 
ATOM     70  C   UNL A   1      44.978  26.019  29.183  1.00  0.00     0.009 A 
ATOM     71  C   UNL A   1      47.238  25.422  29.696  1.00  0.00     0.009 A 
ATOM     72  C   UNL A   1      44.724  26.219  30.548  1.00  0.00     0.001 A 
ATOM     73  C   UNL A   1      46.992  25.621  31.064  1.00  0.00     0.001 A 
ATOM     74  C   UNL A   1      45.731  26.021  31.489  1.00  0.00     0.000 A 
ENDBRANCH  56  69
ENDBRANCH  30  31
ENDBRANCH  22  25
ENDBRANCH  20  21
ENDBRANCH   1  20
TORSDOF 12
ENDMDL
