MODEL 1
REMARK VINA RESULT:     -11.9      0.000      0.000
REMARK SMILES O=C(NCCCNC(=O)[C@@H]1[C@H](C(=O)NCc2ccncc2)[C@H]2C=C[C@@H]1O2)c1ccc(-c2c3nc(c(-c4ccccc4)c4ccc([nH]4)c(-c4ccccc4)c4nc(c(-c5ccccc5)c5ccc2[nH]5)C=C4)C=C3)cc1
REMARK SMILES IDX 5 1 4 2 3 3 1 4 2 5 27 7 28 8 74 9 29 10 73 11 30 12 31 13
REMARK SMILES IDX 32 14 67 15 33 16 72 17 66 18 68 19 34 20 71 21 65 22 64 23
REMARK SMILES IDX 35 25 57 26 42 27 56 28 43 29 46 30 55 31 69 32 44 33 45 34
REMARK SMILES IDX 54 36 70 37 47 38 36 39 37 40 41 41 38 42 40 43 39 44 58 45
REMARK SMILES IDX 59 46 63 47 60 48 62 49 61 50 48 51 49 52 53 53 50 54 52 55
REMARK SMILES IDX 51 56 6 57 7 58 8 59 9 61 10 62 11 63 25 64 22 65 24 66
REMARK SMILES IDX 26 67 23 68 12 69 13 70 14 71 15 73 16 74 17 75 21 76 18 77
REMARK SMILES IDX 20 78 19 79
REMARK H PARENT 3 6 68 24 46 35 7 60 14 72
REMARK Flexibility Score: inf
ROOT
ATOM      1  C   UNL A   1      38.048  20.099  25.021  1.00  0.00     0.042 C 
ENDROOT
BRANCH   1   2
ATOM      2  C   UNL A   1      39.328  20.309  25.807  1.00  0.00     0.118 C 
BRANCH   2   3
ATOM      3  N   UNL A   1      40.242  19.175  25.754  1.00  0.00    -0.352 N 
ATOM      4  O   UNL A   1      42.170  18.042  26.049  1.00  0.00    -0.269 OA
ATOM      5  C   UNL A   1      41.565  19.104  26.117  1.00  0.00     0.251 C 
ATOM      6  H   UNL A   1      39.855  18.338  25.407  1.00  0.00     0.163 HD
BRANCH   5   7
ATOM      7  C   UNL A   1      42.260  20.347  26.498  1.00  0.00     0.039 A 
ATOM      8  C   UNL A   1      42.225  20.806  27.816  1.00  0.00     0.014 A 
ATOM      9  C   UNL A   1      42.833  21.118  25.485  1.00  0.00     0.014 A 
ATOM     10  C   UNL A   1      42.588  22.119  28.084  1.00  0.00     0.010 A 
ATOM     11  C   UNL A   1      43.275  22.406  25.774  1.00  0.00     0.010 A 
ATOM     12  C   UNL A   1      43.099  22.935  27.062  1.00  0.00    -0.014 A 
BRANCH  12  13
ATOM     13  C   UNL A   1      43.458  24.339  27.353  1.00  0.00     0.031 A 
ATOM     14  C   UNL A   1      44.878  24.814  27.225  1.00  0.00     0.074 A 
ATOM     15  C   UNL A   1      42.485  25.187  27.731  1.00  0.00     0.049 A 
ATOM     16  N   UNL A   1      45.378  25.992  27.496  1.00  0.00    -0.248 NA
ATOM     17  C   UNL A   1      45.869  23.838  26.741  1.00  0.00     0.031 C 
ATOM     18  C   UNL A   1      41.072  24.832  27.885  1.00  0.00     0.029 A 
ATOM     19  N   UNL A   1      42.535  26.516  28.050  1.00  0.00    -0.354 N 
ATOM     20  C   UNL A   1      46.742  25.892  27.252  1.00  0.00     0.074 A 
ATOM     21  C   UNL A   1      46.995  24.536  26.817  1.00  0.00     0.031 C 
ATOM     22  C   UNL A   1      40.385  25.924  28.244  1.00  0.00     0.029 A 
ATOM     23  C   UNL A   1      41.316  27.035  28.402  1.00  0.00     0.049 A 
ATOM     24  H   UNL A   1      43.364  27.048  28.027  1.00  0.00     0.167 HD
ATOM     25  C   UNL A   1      47.695  26.845  27.386  1.00  0.00     0.031 A 
ATOM     26  C   UNL A   1      40.984  28.263  28.835  1.00  0.00     0.031 A 
ATOM     27  C   UNL A   1      47.432  28.197  27.802  1.00  0.00     0.049 A 
ATOM     28  C   UNL A   1      42.054  29.298  28.975  1.00  0.00     0.074 A 
ATOM     29  C   UNL A   1      48.321  29.251  27.929  1.00  0.00     0.029 A 
ATOM     30  N   UNL A   1      46.183  28.681  28.160  1.00  0.00    -0.354 N 
ATOM     31  N   UNL A   1      43.338  29.191  28.730  1.00  0.00    -0.248 NA
ATOM     32  C   UNL A   1      41.635  30.621  29.454  1.00  0.00     0.031 C 
ATOM     33  C   UNL A   1      47.613  30.364  28.398  1.00  0.00     0.029 A 
ATOM     34  C   UNL A   1      46.279  30.012  28.529  1.00  0.00     0.049 A 
ATOM     35  H   UNL A   1      45.350  28.156  28.153  1.00  0.00     0.167 HD
ATOM     36  C   UNL A   1      43.883  30.431  29.025  1.00  0.00     0.074 A 
ATOM     37  C   UNL A   1      42.785  31.281  29.446  1.00  0.00     0.031 C 
ATOM     38  C   UNL A   1      45.176  30.829  28.961  1.00  0.00     0.031 A 
BRANCH  25  39
ATOM     39  C   UNL A   1      49.119  26.448  27.111  1.00  0.00    -0.014 A 
ATOM     40  C   UNL A   1      49.937  25.914  28.117  1.00  0.00     0.009 A 
ATOM     41  C   UNL A   1      49.635  26.580  25.813  1.00  0.00     0.009 A 
ATOM     42  C   UNL A   1      51.254  25.544  27.833  1.00  0.00     0.001 A 
ATOM     43  C   UNL A   1      50.945  26.191  25.527  1.00  0.00     0.001 A 
ATOM     44  C   UNL A   1      51.756  25.680  26.539  1.00  0.00     0.000 A 
ENDBRANCH  25  39
BRANCH  26  45
ATOM     45  C   UNL A   1      39.571  28.544  29.186  1.00  0.00    -0.014 A 
ATOM     46  C   UNL A   1      39.112  28.355  30.496  1.00  0.00     0.009 A 
ATOM     47  C   UNL A   1      38.701  29.081  28.224  1.00  0.00     0.009 A 
ATOM     48  C   UNL A   1      37.801  28.697  30.837  1.00  0.00     0.001 A 
ATOM     49  C   UNL A   1      37.399  29.443  28.573  1.00  0.00     0.001 A 
ATOM     50  C   UNL A   1      36.950  29.248  29.878  1.00  0.00     0.000 A 
ENDBRANCH  26  45
BRANCH  38  51
ATOM     51  C   UNL A   1      45.462  32.246  29.354  1.00  0.00    -0.014 A 
ATOM     52  C   UNL A   1      45.401  33.279  28.407  1.00  0.00     0.009 A 
ATOM     53  C   UNL A   1      45.777  32.552  30.686  1.00  0.00     0.009 A 
ATOM     54  C   UNL A   1      45.679  34.594  28.783  1.00  0.00     0.001 A 
ATOM     55  C   UNL A   1      46.036  33.870  31.062  1.00  0.00     0.001 A 
ATOM     56  C   UNL A   1      45.994  34.888  30.110  1.00  0.00     0.000 A 
ENDBRANCH  38  51
ENDBRANCH  12  13
ENDBRANCH   5   7
ENDBRANCH   2   3
ENDBRANCH   1   2
BRANCH   1  57
ATOM     57  C   UNL A   1      36.993  21.169  25.242  1.00  0.00     0.117 C 
BRANCH  57  58
ATOM     58  N   UNL A   1      36.596  21.863  24.023  1.00  0.00    -0.356 N 
ATOM     59  C   UNL A   1      35.731  22.877  23.756  1.00  0.00     0.227 C 
ATOM     60  H   UNL A   1      37.054  21.524  23.219  1.00  0.00     0.163 HD
ATOM     61  O   UNL A   1      35.810  23.363  22.619  1.00  0.00    -0.275 OA
BRANCH  59  62
ATOM     62  C   UNL A   1      34.686  23.442  24.700  1.00  0.00     0.127 C 
ATOM     63  C   UNL A   1      33.220  23.021  24.416  1.00  0.00     0.127 C 
ATOM     64  C   UNL A   1      34.534  24.955  24.805  1.00  0.00     0.155 C 
ATOM     65  C   UNL A   1      32.545  24.377  24.136  1.00  0.00     0.155 C 
ATOM     66  C   UNL A   1      33.582  25.383  25.888  1.00  0.00     0.004 C 
ATOM     67  O   UNL A   1      33.667  25.171  23.655  1.00  0.00    -0.365 OA
ATOM     68  C   UNL A   1      32.353  25.074  25.454  1.00  0.00     0.004 C 
BRANCH  63  69
ATOM     69  C   UNL A   1      32.778  21.903  23.492  1.00  0.00     0.227 C 
ATOM     70  O   UNL A   1      32.566  22.180  22.302  1.00  0.00    -0.275 OA
ATOM     71  N   UNL A   1      32.673  20.594  23.790  1.00  0.00    -0.352 N 
ATOM     72  H   UNL A   1      32.584  20.022  22.993  1.00  0.00     0.163 HD
BRANCH  71  73
ATOM     73  C   UNL A   1      32.665  19.853  25.025  1.00  0.00     0.151 C 
BRANCH  73  74
ATOM     74  C   UNL A   1      32.985  18.385  24.827  1.00  0.00    -0.026 A 
ATOM     75  C   UNL A   1      32.679  17.401  25.776  1.00  0.00     0.025 A 
ATOM     76  C   UNL A   1      33.632  17.970  23.657  1.00  0.00     0.025 A 
ATOM     77  C   UNL A   1      33.040  16.084  25.530  1.00  0.00     0.111 A 
ATOM     78  C   UNL A   1      33.969  16.631  23.506  1.00  0.00     0.111 A 
ATOM     79  N   UNL A   1      33.693  15.680  24.421  1.00  0.00    -0.265 NA
ENDBRANCH  73  74
ENDBRANCH  71  73
ENDBRANCH  63  69
ENDBRANCH  59  62
ENDBRANCH  57  58
ENDBRANCH   1  57
TORSDOF 13
ENDMDL
MODEL 2
REMARK VINA RESULT:     -11.9      1.526      1.954
REMARK SMILES O=C(NCCCNC(=O)[C@@H]1[C@H](C(=O)NCc2ccncc2)[C@H]2C=C[C@@H]1O2)c1ccc(-c2c3nc(c(-c4ccccc4)c4ccc([nH]4)c(-c4ccccc4)c4nc(c(-c5ccccc5)c5ccc2[nH]5)C=C4)C=C3)cc1
REMARK SMILES IDX 5 1 4 2 3 3 1 4 2 5 27 7 28 8 74 9 29 10 73 11 30 12 31 13
REMARK SMILES IDX 32 14 67 15 33 16 72 17 66 18 68 19 34 20 71 21 65 22 64 23
REMARK SMILES IDX 35 25 57 26 42 27 56 28 43 29 46 30 55 31 69 32 44 33 45 34
REMARK SMILES IDX 54 36 70 37 47 38 36 39 37 40 41 41 38 42 40 43 39 44 58 45
REMARK SMILES IDX 59 46 63 47 60 48 62 49 61 50 48 51 49 52 53 53 50 54 52 55
REMARK SMILES IDX 51 56 6 57 7 58 8 59 9 61 10 62 11 63 25 64 22 65 24 66
REMARK SMILES IDX 26 67 23 68 12 69 13 70 14 71 15 73 16 74 17 75 21 76 18 77
REMARK SMILES IDX 20 78 19 79
REMARK H PARENT 3 6 68 24 46 35 7 60 14 72
REMARK Flexibility Score: inf
ROOT
ATOM      1  C   UNL A   1      37.727  20.913  24.999  1.00  0.00     0.042 C 
ENDROOT
BRANCH   1   2
ATOM      2  C   UNL A   1      38.882  20.910  25.983  1.00  0.00     0.118 C 
BRANCH   2   3
ATOM      3  N   UNL A   1      39.837  19.832  25.762  1.00  0.00    -0.352 N 
ATOM      4  O   UNL A   1      41.817  18.756  25.856  1.00  0.00    -0.269 OA
ATOM      5  C   UNL A   1      41.174  19.774  26.073  1.00  0.00     0.251 C 
ATOM      6  H   UNL A   1      39.471  19.027  25.327  1.00  0.00     0.163 HD
BRANCH   5   7
ATOM      7  C   UNL A   1      41.833  20.990  26.584  1.00  0.00     0.039 A 
ATOM      8  C   UNL A   1      41.893  21.244  27.955  1.00  0.00     0.014 A 
ATOM      9  C   UNL A   1      42.268  21.940  25.659  1.00  0.00     0.014 A 
ATOM     10  C   UNL A   1      42.207  22.524  28.392  1.00  0.00     0.010 A 
ATOM     11  C   UNL A   1      42.665  23.198  26.106  1.00  0.00     0.010 A 
ATOM     12  C   UNL A   1      42.579  23.515  27.470  1.00  0.00    -0.014 A 
BRANCH  12  13
ATOM     13  C   UNL A   1      42.886  24.882  27.944  1.00  0.00     0.031 A 
ATOM     14  C   UNL A   1      44.303  25.300  28.222  1.00  0.00     0.074 A 
ATOM     15  C   UNL A   1      41.871  25.746  28.117  1.00  0.00     0.049 A 
ATOM     16  N   UNL A   1      44.745  26.436  28.697  1.00  0.00    -0.248 NA
ATOM     17  C   UNL A   1      45.359  24.313  27.943  1.00  0.00     0.031 C 
ATOM     18  C   UNL A   1      40.458  25.445  27.874  1.00  0.00     0.029 A 
ATOM     19  N   UNL A   1      41.872  27.049  28.533  1.00  0.00    -0.354 N 
ATOM     20  C   UNL A   1      46.123  26.290  28.809  1.00  0.00     0.074 A 
ATOM     21  C   UNL A   1      46.445  24.954  28.357  1.00  0.00     0.031 C 
ATOM     22  C   UNL A   1      39.730  26.543  28.121  1.00  0.00     0.029 A 
ATOM     23  C   UNL A   1      40.617  27.599  28.594  1.00  0.00     0.049 A 
ATOM     24  H   UNL A   1      42.691  27.544  28.764  1.00  0.00     0.167 HD
ATOM     25  C   UNL A   1      47.032  27.190  29.253  1.00  0.00     0.031 A 
ATOM     26  C   UNL A   1      40.216  28.811  29.013  1.00  0.00     0.031 A 
ATOM     27  C   UNL A   1      46.706  28.524  29.683  1.00  0.00     0.049 A 
ATOM     28  C   UNL A   1      41.240  29.787  29.499  1.00  0.00     0.074 A 
ATOM     29  C   UNL A   1      47.558  29.527  30.111  1.00  0.00     0.029 A 
ATOM     30  N   UNL A   1      45.420  29.039  29.739  1.00  0.00    -0.354 N 
ATOM     31  N   UNL A   1      42.539  29.638  29.588  1.00  0.00    -0.248 NA
ATOM     32  C   UNL A   1      40.745  31.094  29.947  1.00  0.00     0.031 C 
ATOM     33  C   UNL A   1      46.783  30.639  30.460  1.00  0.00     0.029 A 
ATOM     34  C   UNL A   1      45.452  30.339  30.215  1.00  0.00     0.049 A 
ATOM     35  H   UNL A   1      44.604  28.553  29.479  1.00  0.00     0.167 HD
ATOM     36  C   UNL A   1      43.021  30.832  30.103  1.00  0.00     0.074 A 
ATOM     37  C   UNL A   1      41.875  31.702  30.285  1.00  0.00     0.031 C 
ATOM     38  C   UNL A   1      44.296  31.175  30.404  1.00  0.00     0.031 A 
BRANCH  25  39
ATOM     39  C   UNL A   1      48.467  26.748  29.328  1.00  0.00    -0.014 A 
ATOM     40  C   UNL A   1      49.371  27.016  28.289  1.00  0.00     0.009 A 
ATOM     41  C   UNL A   1      48.928  26.085  30.476  1.00  0.00     0.009 A 
ATOM     42  C   UNL A   1      50.702  26.604  28.387  1.00  0.00     0.001 A 
ATOM     43  C   UNL A   1      50.264  25.691  30.580  1.00  0.00     0.001 A 
ATOM     44  C   UNL A   1      51.148  25.945  29.533  1.00  0.00     0.000 A 
ENDBRANCH  25  39
BRANCH  26  45
ATOM     45  C   UNL A   1      38.769  29.132  29.006  1.00  0.00    -0.014 A 
ATOM     46  C   UNL A   1      37.997  28.964  30.163  1.00  0.00     0.009 A 
ATOM     47  C   UNL A   1      38.176  29.685  27.859  1.00  0.00     0.009 A 
ATOM     48  C   UNL A   1      36.652  29.343  30.171  1.00  0.00     0.001 A 
ATOM     49  C   UNL A   1      36.840  30.084  27.878  1.00  0.00     0.001 A 
ATOM     50  C   UNL A   1      36.078  29.910  29.032  1.00  0.00     0.000 A 
ENDBRANCH  26  45
BRANCH  38  51
ATOM     51  C   UNL A   1      44.507  32.551  30.959  1.00  0.00    -0.014 A 
ATOM     52  C   UNL A   1      44.509  32.773  32.344  1.00  0.00     0.009 A 
ATOM     53  C   UNL A   1      44.722  33.631  30.090  1.00  0.00     0.009 A 
ATOM     54  C   UNL A   1      44.696  34.060  32.849  1.00  0.00     0.001 A 
ATOM     55  C   UNL A   1      44.928  34.913  30.599  1.00  0.00     0.001 A 
ATOM     56  C   UNL A   1      44.907  35.128  31.977  1.00  0.00     0.000 A 
ENDBRANCH  38  51
ENDBRANCH  12  13
ENDBRANCH   5   7
ENDBRANCH   2   3
ENDBRANCH   1   2
BRANCH   1  57
ATOM     57  C   UNL A   1      36.943  22.214  24.956  1.00  0.00     0.117 C 
BRANCH  57  58
ATOM     58  N   UNL A   1      35.826  22.194  24.019  1.00  0.00    -0.356 N 
ATOM     59  C   UNL A   1      34.699  22.941  23.883  1.00  0.00     0.227 C 
ATOM     60  H   UNL A   1      35.905  21.487  23.338  1.00  0.00     0.163 HD
ATOM     61  O   UNL A   1      34.073  22.779  22.827  1.00  0.00    -0.275 OA
BRANCH  59  62
ATOM     62  C   UNL A   1      34.140  23.922  24.897  1.00  0.00     0.127 C 
ATOM     63  C   UNL A   1      33.535  23.297  26.182  1.00  0.00     0.127 C 
ATOM     64  C   UNL A   1      33.010  24.853  24.473  1.00  0.00     0.155 C 
ATOM     65  C   UNL A   1      32.071  23.767  26.109  1.00  0.00     0.155 C 
ATOM     66  C   UNL A   1      32.661  25.879  25.515  1.00  0.00     0.004 C 
ATOM     67  O   UNL A   1      31.889  23.946  24.676  1.00  0.00    -0.365 OA
ATOM     68  C   UNL A   1      32.036  25.219  26.500  1.00  0.00     0.004 C 
BRANCH  63  69
ATOM     69  C   UNL A   1      33.706  21.860  26.637  1.00  0.00     0.227 C 
ATOM     70  O   UNL A   1      34.402  21.645  27.640  1.00  0.00    -0.275 OA
ATOM     71  N   UNL A   1      33.105  20.769  26.128  1.00  0.00    -0.352 N 
ATOM     72  H   UNL A   1      33.187  19.977  26.707  1.00  0.00     0.163 HD
BRANCH  71  73
ATOM     73  C   UNL A   1      32.367  20.512  24.918  1.00  0.00     0.151 C 
BRANCH  73  74
ATOM     74  C   UNL A   1      32.834  19.261  24.202  1.00  0.00    -0.026 A 
ATOM     75  C   UNL A   1      33.945  18.514  24.614  1.00  0.00     0.025 A 
ATOM     76  C   UNL A   1      32.152  18.821  23.062  1.00  0.00     0.025 A 
ATOM     77  C   UNL A   1      34.327  17.401  23.880  1.00  0.00     0.111 A 
ATOM     78  C   UNL A   1      32.618  17.704  22.381  1.00  0.00     0.111 A 
ATOM     79  N   UNL A   1      33.695  16.989  22.762  1.00  0.00    -0.265 NA
ENDBRANCH  73  74
ENDBRANCH  71  73
ENDBRANCH  63  69
ENDBRANCH  59  62
ENDBRANCH  57  58
ENDBRANCH   1  57
TORSDOF 13
ENDMDL
MODEL 3
REMARK VINA RESULT:     -11.8      2.478      7.361
REMARK SMILES O=C(NCCCNC(=O)[C@@H]1[C@H](C(=O)NCc2ccncc2)[C@H]2C=C[C@@H]1O2)c1ccc(-c2c3nc(c(-c4ccccc4)c4ccc([nH]4)c(-c4ccccc4)c4nc(c(-c5ccccc5)c5ccc2[nH]5)C=C4)C=C3)cc1
REMARK SMILES IDX 5 1 4 2 3 3 1 4 2 5 27 7 28 8 74 9 29 10 73 11 30 12 31 13
REMARK SMILES IDX 32 14 67 15 33 16 72 17 66 18 68 19 34 20 71 21 65 22 64 23
REMARK SMILES IDX 35 25 57 26 42 27 56 28 43 29 46 30 55 31 69 32 44 33 45 34
REMARK SMILES IDX 54 36 70 37 47 38 36 39 37 40 41 41 38 42 40 43 39 44 58 45
REMARK SMILES IDX 59 46 63 47 60 48 62 49 61 50 48 51 49 52 53 53 50 54 52 55
REMARK SMILES IDX 51 56 6 57 7 58 8 59 9 61 10 62 11 63 25 64 22 65 24 66
REMARK SMILES IDX 26 67 23 68 12 69 13 70 14 71 15 73 16 74 17 75 21 76 18 77
REMARK SMILES IDX 20 78 19 79
REMARK H PARENT 3 6 68 24 46 35 7 60 14 72
REMARK Flexibility Score: inf
ROOT
ATOM      1  C   UNL A   1      33.339  28.803  25.788  1.00  0.00     0.042 C 
ENDROOT
BRANCH   1   2
ATOM      2  C   UNL A   1      33.385  28.865  27.303  1.00  0.00     0.118 C 
BRANCH   2   3
ATOM      3  N   UNL A   1      33.521  30.217  27.830  1.00  0.00    -0.352 N 
ATOM      4  O   UNL A   1      34.579  32.032  28.651  1.00  0.00    -0.269 OA
ATOM      5  C   UNL A   1      34.643  30.866  28.286  1.00  0.00     0.251 C 
ATOM      6  H   UNL A   1      32.688  30.742  27.863  1.00  0.00     0.163 HD
BRANCH   5   7
ATOM      7  C   UNL A   1      35.897  30.101  28.414  1.00  0.00     0.039 A 
ATOM      8  C   UNL A   1      36.231  29.478  29.618  1.00  0.00     0.014 A 
ATOM      9  C   UNL A   1      36.799  30.134  27.349  1.00  0.00     0.014 A 
ATOM     10  C   UNL A   1      37.539  29.059  29.822  1.00  0.00     0.010 A 
ATOM     11  C   UNL A   1      38.087  29.636  27.529  1.00  0.00     0.010 A 
ATOM     12  C   UNL A   1      38.481  29.150  28.785  1.00  0.00    -0.014 A 
BRANCH  12  13
ATOM     13  C   UNL A   1      39.877  28.725  29.022  1.00  0.00     0.031 A 
ATOM     14  C   UNL A   1      40.871  29.661  29.650  1.00  0.00     0.074 A 
ATOM     15  C   UNL A   1      40.239  27.479  28.668  1.00  0.00     0.049 A 
ATOM     16  N   UNL A   1      42.146  29.474  29.876  1.00  0.00    -0.248 NA
ATOM     17  C   UNL A   1      40.375  30.983  30.068  1.00  0.00     0.031 C 
ATOM     18  C   UNL A   1      39.354  26.488  28.053  1.00  0.00     0.029 A 
ATOM     19  N   UNL A   1      41.442  26.836  28.776  1.00  0.00    -0.354 N 
ATOM     20  C   UNL A   1      42.613  30.661  30.426  1.00  0.00     0.074 A 
ATOM     21  C   UNL A   1      41.487  31.566  30.497  1.00  0.00     0.031 C 
ATOM     22  C   UNL A   1      40.038  25.351  27.862  1.00  0.00     0.029 A 
ATOM     23  C   UNL A   1      41.418  25.556  28.285  1.00  0.00     0.049 A 
ATOM     24  H   UNL A   1      42.244  27.250  29.169  1.00  0.00     0.167 HD
ATOM     25  C   UNL A   1      43.869  30.966  30.831  1.00  0.00     0.031 A 
ATOM     26  C   UNL A   1      42.404  24.653  28.159  1.00  0.00     0.031 A 
ATOM     27  C   UNL A   1      44.980  30.054  30.775  1.00  0.00     0.049 A 
ATOM     28  C   UNL A   1      43.783  25.014  28.613  1.00  0.00     0.074 A 
ATOM     29  C   UNL A   1      46.283  30.251  31.199  1.00  0.00     0.029 A 
ATOM     30  N   UNL A   1      44.916  28.767  30.261  1.00  0.00    -0.354 N 
ATOM     31  N   UNL A   1      44.205  26.136  29.142  1.00  0.00    -0.248 NA
ATOM     32  C   UNL A   1      44.821  23.989  28.449  1.00  0.00     0.031 C 
ATOM     33  C   UNL A   1      47.016  29.094  30.908  1.00  0.00     0.029 A 
ATOM     34  C   UNL A   1      46.160  28.166  30.336  1.00  0.00     0.049 A 
ATOM     35  H   UNL A   1      44.105  28.345  29.896  1.00  0.00     0.167 HD
ATOM     36  C   UNL A   1      45.560  25.956  29.376  1.00  0.00     0.074 A 
ATOM     37  C   UNL A   1      45.882  24.608  28.951  1.00  0.00     0.031 C 
ATOM     38  C   UNL A   1      46.458  26.830  29.889  1.00  0.00     0.031 A 
BRANCH  25  39
ATOM     39  C   UNL A   1      44.116  32.359  31.340  1.00  0.00    -0.014 A 
ATOM     40  C   UNL A   1      44.465  33.405  30.473  1.00  0.00     0.009 A 
ATOM     41  C   UNL A   1      43.960  32.633  32.708  1.00  0.00     0.009 A 
ATOM     42  C   UNL A   1      44.680  34.693  30.970  1.00  0.00     0.001 A 
ATOM     43  C   UNL A   1      44.157  33.925  33.199  1.00  0.00     0.001 A 
ATOM     44  C   UNL A   1      44.523  34.952  32.331  1.00  0.00     0.000 A 
ENDBRANCH  25  39
BRANCH  26  45
ATOM     45  C   UNL A   1      42.100  23.336  27.550  1.00  0.00    -0.014 A 
ATOM     46  C   UNL A   1      42.336  23.111  26.187  1.00  0.00     0.009 A 
ATOM     47  C   UNL A   1      41.646  22.277  28.352  1.00  0.00     0.009 A 
ATOM     48  C   UNL A   1      42.122  21.845  25.637  1.00  0.00     0.001 A 
ATOM     49  C   UNL A   1      41.455  21.008  27.804  1.00  0.00     0.001 A 
ATOM     50  C   UNL A   1      41.690  20.793  26.447  1.00  0.00     0.000 A 
ENDBRANCH  26  45
BRANCH  38  51
ATOM     51  C   UNL A   1      47.870  26.344  30.017  1.00  0.00    -0.014 A 
ATOM     52  C   UNL A   1      48.339  25.813  31.227  1.00  0.00     0.009 A 
ATOM     53  C   UNL A   1      48.732  26.402  28.912  1.00  0.00     0.009 A 
ATOM     54  C   UNL A   1      49.658  25.372  31.337  1.00  0.00     0.001 A 
ATOM     55  C   UNL A   1      50.045  25.944  29.020  1.00  0.00     0.001 A 
ATOM     56  C   UNL A   1      50.509  25.436  30.233  1.00  0.00     0.000 A 
ENDBRANCH  38  51
ENDBRANCH  12  13
ENDBRANCH   5   7
ENDBRANCH   2   3
ENDBRANCH   1   2
BRANCH   1  57
ATOM     57  C   UNL A   1      34.024  27.585  25.190  1.00  0.00     0.117 C 
BRANCH  57  58
ATOM     58  N   UNL A   1      33.407  26.320  25.568  1.00  0.00    -0.356 N 
ATOM     59  C   UNL A   1      33.863  25.044  25.670  1.00  0.00     0.227 C 
ATOM     60  H   UNL A   1      32.454  26.409  25.800  1.00  0.00     0.163 HD
ATOM     61  O   UNL A   1      33.103  24.247  26.238  1.00  0.00    -0.275 OA
BRANCH  59  62
ATOM     62  C   UNL A   1      35.184  24.514  25.145  1.00  0.00     0.127 C 
ATOM     63  C   UNL A   1      35.094  23.554  23.930  1.00  0.00     0.127 C 
ATOM     64  C   UNL A   1      36.076  23.707  26.081  1.00  0.00     0.155 C 
ATOM     65  C   UNL A   1      35.713  22.262  24.494  1.00  0.00     0.155 C 
ATOM     66  C   UNL A   1      37.420  23.382  25.490  1.00  0.00     0.004 C 
ATOM     67  O   UNL A   1      35.446  22.404  25.918  1.00  0.00    -0.365 OA
ATOM     68  C   UNL A   1      37.204  22.454  24.547  1.00  0.00     0.004 C 
BRANCH  63  69
ATOM     69  C   UNL A   1      33.869  23.329  23.063  1.00  0.00     0.227 C 
ATOM     70  O   UNL A   1      33.717  24.056  22.070  1.00  0.00    -0.275 OA
ATOM     71  N   UNL A   1      32.951  22.354  23.190  1.00  0.00    -0.352 N 
ATOM     72  H   UNL A   1      32.370  22.264  22.399  1.00  0.00     0.163 HD
BRANCH  71  73
ATOM     73  C   UNL A   1      32.635  21.413  24.234  1.00  0.00     0.151 C 
BRANCH  73  74
ATOM     74  C   UNL A   1      32.834  19.974  23.803  1.00  0.00    -0.026 A 
ATOM     75  C   UNL A   1      32.175  19.406  22.705  1.00  0.00     0.025 A 
ATOM     76  C   UNL A   1      33.697  19.147  24.531  1.00  0.00     0.025 A 
ATOM     77  C   UNL A   1      32.387  18.069  22.401  1.00  0.00     0.111 A 
ATOM     78  C   UNL A   1      33.833  17.814  24.162  1.00  0.00     0.111 A 
ATOM     79  N   UNL A   1      33.191  17.256  23.117  1.00  0.00    -0.265 NA
ENDBRANCH  73  74
ENDBRANCH  71  73
ENDBRANCH  63  69
ENDBRANCH  59  62
ENDBRANCH  57  58
ENDBRANCH   1  57
TORSDOF 13
ENDMDL
