MODEL 1
REMARK VINA RESULT:     -11.5      0.000      0.000
REMARK SMILES C[C@H]1[C@@H](C(=O)NCCCNC(=O)c2ccc(-c3c4nc(c(-c5ccccc5)c5ccc([nH]5)c(-c5ccccc5)c5nc(c(-c6ccccc6)c6ccc3[nH]6)C=C5)C=C4)cc2)CCN1C(=O)/C=C/c1cccc(F)c1
REMARK SMILES IDX 7 1 6 2 4 3 5 4 3 6 1 7 2 8 63 9 61 10 62 11 64 12 65 13
REMARK SMILES IDX 66 14 67 15 68 16 69 17 74 18 70 19 72 20 71 21 73 22 8 23
REMARK SMILES IDX 9 24 10 25 11 26 12 28 13 29 14 30 60 31 15 32 59 33 16 34
REMARK SMILES IDX 17 35 18 36 53 37 19 38 58 39 52 40 54 41 20 42 57 43 51 44
REMARK SMILES IDX 50 45 21 47 43 48 28 49 42 50 29 51 32 52 41 53 55 54 30 55
REMARK SMILES IDX 31 56 40 58 56 59 33 60 22 61 23 62 27 63 24 64 26 65 25 66
REMARK SMILES IDX 44 67 45 68 49 69 46 70 48 71 47 72 34 73 35 74 39 75 36 76
REMARK SMILES IDX 38 77 37 78
REMARK H PARENT 6 5 10 27 54 46 32 57
REMARK Flexibility Score: inf
ROOT
ATOM      1  C   UNL A   1      31.410  30.609  26.449  1.00  0.00     0.117 C 
ENDROOT
BRANCH   1   2
ATOM      2  N   UNL A   1      31.815  30.207  25.109  1.00  0.00    -0.356 N 
ATOM      3  C   UNL A   1      31.723  29.019  24.446  1.00  0.00     0.225 C 
ATOM      4  O   UNL A   1      32.259  28.965  23.338  1.00  0.00    -0.275 OA
ATOM      5  H   UNL A   1      32.233  30.928  24.584  1.00  0.00     0.163 HD
BRANCH   3   6
ATOM      6  C   UNL A   1      30.925  27.850  25.018  1.00  0.00     0.102 C 
ATOM      7  C   UNL A   1      33.067  27.168  26.381  1.00  0.00     0.032 C 
ATOM      8  C   UNL A   1      31.584  26.959  26.096  1.00  0.00     0.094 C 
ATOM      9  N   UNL A   1      31.375  25.580  25.650  1.00  0.00    -0.336 N 
ATOM     10  C   UNL A   1      30.454  26.854  23.929  1.00  0.00     0.037 C 
ATOM     11  C   UNL A   1      31.185  25.557  24.218  1.00  0.00     0.121 C 
BRANCH   9  12
ATOM     12  C   UNL A   1      31.552  24.418  26.373  1.00  0.00     0.246 C 
ATOM     13  O   UNL A   1      30.777  24.032  27.249  1.00  0.00    -0.270 OA
BRANCH  12  14
ATOM     14  C   UNL A   1      32.662  23.521  25.950  1.00  0.00     0.072 C 
ATOM     15  C   UNL A   1      33.870  23.552  26.533  1.00  0.00     0.014 C 
BRANCH  15  16
ATOM     16  C   UNL A   1      35.092  22.890  26.037  1.00  0.00    -0.023 A 
ATOM     17  C   UNL A   1      36.196  23.696  25.709  1.00  0.00     0.008 A 
ATOM     18  C   UNL A   1      35.183  21.514  25.791  1.00  0.00     0.047 A 
ATOM     19  C   UNL A   1      37.357  23.147  25.155  1.00  0.00     0.004 A 
ATOM     20  C   UNL A   1      36.345  20.976  25.240  1.00  0.00     0.123 A 
ATOM     21  C   UNL A   1      37.432  21.778  24.919  1.00  0.00     0.039 A 
ATOM     22  F   UNL A   1      36.409  19.659  25.000  1.00  0.00    -0.207 F 
ENDBRANCH  15  16
ENDBRANCH  12  14
ENDBRANCH   9  12
ENDBRANCH   3   6
ENDBRANCH   1   2
BRANCH   1  23
ATOM     23  C   UNL A   1      31.367  32.135  26.590  1.00  0.00     0.042 C 
BRANCH  23  24
ATOM     24  C   UNL A   1      32.706  32.786  26.913  1.00  0.00     0.118 C 
BRANCH  24  25
ATOM     25  N   UNL A   1      32.541  34.037  27.626  1.00  0.00    -0.352 N 
ATOM     26  C   UNL A   1      33.163  34.537  28.744  1.00  0.00     0.251 C 
ATOM     27  H   UNL A   1      31.861  34.635  27.241  1.00  0.00     0.163 HD
ATOM     28  O   UNL A   1      32.656  35.516  29.294  1.00  0.00    -0.269 OA
BRANCH  26  29
ATOM     29  C   UNL A   1      34.404  33.951  29.320  1.00  0.00     0.039 A 
ATOM     30  C   UNL A   1      35.624  34.266  28.704  1.00  0.00     0.014 A 
ATOM     31  C   UNL A   1      34.402  33.016  30.357  1.00  0.00     0.014 A 
ATOM     32  C   UNL A   1      36.816  33.666  29.130  1.00  0.00     0.010 A 
ATOM     33  C   UNL A   1      35.604  32.486  30.844  1.00  0.00     0.010 A 
ATOM     34  C   UNL A   1      36.822  32.777  30.215  1.00  0.00    -0.014 A 
BRANCH  34  35
ATOM     35  C   UNL A   1      38.081  32.112  30.655  1.00  0.00     0.031 A 
ATOM     36  C   UNL A   1      38.901  32.688  31.784  1.00  0.00     0.074 A 
ATOM     37  C   UNL A   1      38.509  30.995  30.034  1.00  0.00     0.049 A 
ATOM     38  N   UNL A   1      40.029  32.257  32.294  1.00  0.00    -0.248 NA
ATOM     39  C   UNL A   1      38.400  33.925  32.407  1.00  0.00     0.031 C 
ATOM     40  C   UNL A   1      37.843  30.344  28.906  1.00  0.00     0.029 A 
ATOM     41  N   UNL A   1      39.612  30.208  30.268  1.00  0.00    -0.354 N 
ATOM     42  C   UNL A   1      40.380  33.176  33.276  1.00  0.00     0.074 A 
ATOM     43  C   UNL A   1      39.373  34.215  33.258  1.00  0.00     0.031 C 
ATOM     44  C   UNL A   1      38.531  29.241  28.565  1.00  0.00     0.029 A 
ATOM     45  C   UNL A   1      39.704  29.126  29.427  1.00  0.00     0.049 A 
ATOM     46  H   UNL A   1      40.273  30.403  30.971  1.00  0.00     0.167 HD
ATOM     47  C   UNL A   1      41.428  33.154  34.134  1.00  0.00     0.031 A 
ATOM     48  C   UNL A   1      40.626  28.147  29.356  1.00  0.00     0.031 A 
ATOM     49  C   UNL A   1      42.424  32.116  34.177  1.00  0.00     0.049 A 
ATOM     50  C   UNL A   1      41.775  28.135  30.323  1.00  0.00     0.074 A 
ATOM     51  C   UNL A   1      43.494  31.982  35.047  1.00  0.00     0.029 A 
ATOM     52  N   UNL A   1      42.472  31.034  33.315  1.00  0.00    -0.354 N 
ATOM     53  N   UNL A   1      42.055  28.982  31.283  1.00  0.00    -0.248 NA
ATOM     54  C   UNL A   1      42.726  27.020  30.206  1.00  0.00     0.031 C 
ATOM     55  C   UNL A   1      44.212  30.837  34.683  1.00  0.00     0.029 A 
ATOM     56  C   UNL A   1      43.561  30.234  33.620  1.00  0.00     0.049 A 
ATOM     57  H   UNL A   1      41.826  30.857  32.593  1.00  0.00     0.167 HD
ATOM     58  C   UNL A   1      43.203  28.494  31.895  1.00  0.00     0.074 A 
ATOM     59  C   UNL A   1      43.553  27.265  31.213  1.00  0.00     0.031 C 
ATOM     60  C   UNL A   1      43.904  29.018  32.929  1.00  0.00     0.031 A 
BRANCH  47  61
ATOM     61  C   UNL A   1      41.551  34.298  35.104  1.00  0.00    -0.014 A 
ATOM     62  C   UNL A   1      42.260  35.463  34.767  1.00  0.00     0.009 A 
ATOM     63  C   UNL A   1      40.929  34.223  36.359  1.00  0.00     0.009 A 
ATOM     64  C   UNL A   1      42.379  36.510  35.683  1.00  0.00     0.001 A 
ATOM     65  C   UNL A   1      41.024  35.284  37.262  1.00  0.00     0.001 A 
ATOM     66  C   UNL A   1      41.757  36.422  36.928  1.00  0.00     0.000 A 
ENDBRANCH  47  61
BRANCH  48  67
ATOM     67  C   UNL A   1      40.488  27.075  28.335  1.00  0.00    -0.014 A 
ATOM     68  C   UNL A   1      41.119  27.193  27.087  1.00  0.00     0.009 A 
ATOM     69  C   UNL A   1      39.726  25.928  28.605  1.00  0.00     0.009 A 
ATOM     70  C   UNL A   1      40.971  26.194  26.123  1.00  0.00     0.001 A 
ATOM     71  C   UNL A   1      39.602  24.919  27.648  1.00  0.00     0.001 A 
ATOM     72  C   UNL A   1      40.217  25.056  26.405  1.00  0.00     0.000 A 
ENDBRANCH  48  67
BRANCH  60  73
ATOM     73  C   UNL A   1      45.107  28.252  33.399  1.00  0.00    -0.014 A 
ATOM     74  C   UNL A   1      44.989  27.214  34.337  1.00  0.00     0.009 A 
ATOM     75  C   UNL A   1      46.375  28.555  32.876  1.00  0.00     0.009 A 
ATOM     76  C   UNL A   1      46.120  26.520  34.770  1.00  0.00     0.001 A 
ATOM     77  C   UNL A   1      47.501  27.841  33.290  1.00  0.00     0.001 A 
ATOM     78  C   UNL A   1      47.374  26.832  34.243  1.00  0.00     0.000 A 
ENDBRANCH  60  73
ENDBRANCH  34  35
ENDBRANCH  26  29
ENDBRANCH  24  25
ENDBRANCH  23  24
ENDBRANCH   1  23
TORSDOF 13
ENDMDL
MODEL 2
REMARK VINA RESULT:     -11.3      2.365      3.621
REMARK SMILES C[C@H]1[C@@H](C(=O)NCCCNC(=O)c2ccc(-c3c4nc(c(-c5ccccc5)c5ccc([nH]5)c(-c5ccccc5)c5nc(c(-c6ccccc6)c6ccc3[nH]6)C=C5)C=C4)cc2)CCN1C(=O)/C=C/c1cccc(F)c1
REMARK SMILES IDX 7 1 6 2 4 3 5 4 3 6 1 7 2 8 63 9 61 10 62 11 64 12 65 13
REMARK SMILES IDX 66 14 67 15 68 16 69 17 74 18 70 19 72 20 71 21 73 22 8 23
REMARK SMILES IDX 9 24 10 25 11 26 12 28 13 29 14 30 60 31 15 32 59 33 16 34
REMARK SMILES IDX 17 35 18 36 53 37 19 38 58 39 52 40 54 41 20 42 57 43 51 44
REMARK SMILES IDX 50 45 21 47 43 48 28 49 42 50 29 51 32 52 41 53 55 54 30 55
REMARK SMILES IDX 31 56 40 58 56 59 33 60 22 61 23 62 27 63 24 64 26 65 25 66
REMARK SMILES IDX 44 67 45 68 49 69 46 70 48 71 47 72 34 73 35 74 39 75 36 76
REMARK SMILES IDX 38 77 37 78
REMARK H PARENT 6 5 10 27 54 46 32 57
REMARK Flexibility Score: inf
ROOT
ATOM      1  C   UNL A   1      31.905  29.354  25.181  1.00  0.00     0.117 C 
ENDROOT
BRANCH   1   2
ATOM      2  N   UNL A   1      30.752  28.918  24.406  1.00  0.00    -0.356 N 
ATOM      3  C   UNL A   1      30.416  27.709  23.871  1.00  0.00     0.225 C 
ATOM      4  O   UNL A   1      29.406  27.681  23.166  1.00  0.00    -0.275 OA
ATOM      5  H   UNL A   1      30.091  29.628  24.237  1.00  0.00     0.163 HD
BRANCH   3   6
ATOM      6  C   UNL A   1      31.210  26.447  24.200  1.00  0.00     0.102 C 
ATOM      7  C   UNL A   1      32.816  27.041  22.207  1.00  0.00     0.032 C 
ATOM      8  C   UNL A   1      32.507  26.160  23.411  1.00  0.00     0.094 C 
ATOM      9  N   UNL A   1      32.399  24.769  22.968  1.00  0.00    -0.336 N 
ATOM     10  C   UNL A   1      30.371  25.154  24.049  1.00  0.00     0.037 C 
ATOM     11  C   UNL A   1      31.008  24.386  22.907  1.00  0.00     0.121 C 
BRANCH   9  12
ATOM     12  C   UNL A   1      33.392  23.965  22.446  1.00  0.00     0.246 C 
ATOM     13  O   UNL A   1      33.309  23.393  21.358  1.00  0.00    -0.270 OA
BRANCH  12  14
ATOM     14  C   UNL A   1      34.686  23.926  23.180  1.00  0.00     0.072 C 
ATOM     15  C   UNL A   1      35.265  22.773  23.550  1.00  0.00     0.014 C 
BRANCH  15  16
ATOM     16  C   UNL A   1      36.402  22.630  24.479  1.00  0.00    -0.023 A 
ATOM     17  C   UNL A   1      36.799  23.758  25.218  1.00  0.00     0.008 A 
ATOM     18  C   UNL A   1      37.163  21.460  24.601  1.00  0.00     0.047 A 
ATOM     19  C   UNL A   1      37.919  23.720  26.056  1.00  0.00     0.004 A 
ATOM     20  C   UNL A   1      38.276  21.432  25.439  1.00  0.00     0.123 A 
ATOM     21  C   UNL A   1      38.662  22.550  26.167  1.00  0.00     0.039 A 
ATOM     22  F   UNL A   1      38.999  20.308  25.533  1.00  0.00    -0.207 F 
ENDBRANCH  15  16
ENDBRANCH  12  14
ENDBRANCH   9  12
ENDBRANCH   3   6
ENDBRANCH   1   2
BRANCH   1  23
ATOM     23  C   UNL A   1      31.956  28.664  26.549  1.00  0.00     0.042 C 
BRANCH  23  24
ATOM     24  C   UNL A   1      33.215  28.946  27.361  1.00  0.00     0.118 C 
BRANCH  24  25
ATOM     25  N   UNL A   1      33.429  30.368  27.549  1.00  0.00    -0.352 N 
ATOM     26  C   UNL A   1      34.477  31.065  28.097  1.00  0.00     0.251 C 
ATOM     27  H   UNL A   1      32.692  30.934  27.226  1.00  0.00     0.163 HD
ATOM     28  O   UNL A   1      34.297  32.254  28.369  1.00  0.00    -0.269 OA
BRANCH  26  29
ATOM     29  C   UNL A   1      35.805  30.456  28.383  1.00  0.00     0.039 A 
ATOM     30  C   UNL A   1      35.964  29.773  29.598  1.00  0.00     0.014 A 
ATOM     31  C   UNL A   1      36.923  30.634  27.567  1.00  0.00     0.014 A 
ATOM     32  C   UNL A   1      37.214  29.269  29.977  1.00  0.00     0.010 A 
ATOM     33  C   UNL A   1      38.152  30.050  27.901  1.00  0.00     0.010 A 
ATOM     34  C   UNL A   1      38.322  29.389  29.125  1.00  0.00    -0.014 A 
BRANCH  34  35
ATOM     35  C   UNL A   1      39.663  28.882  29.533  1.00  0.00     0.031 A 
ATOM     36  C   UNL A   1      40.532  29.680  30.474  1.00  0.00     0.074 A 
ATOM     37  C   UNL A   1      40.120  27.710  29.048  1.00  0.00     0.049 A 
ATOM     38  N   UNL A   1      41.731  29.407  30.929  1.00  0.00    -0.248 NA
ATOM     39  C   UNL A   1      39.994  30.966  30.950  1.00  0.00     0.031 C 
ATOM     40  C   UNL A   1      39.410  26.848  28.103  1.00  0.00     0.029 A 
ATOM     41  N   UNL A   1      41.297  27.042  29.288  1.00  0.00    -0.354 N 
ATOM     42  C   UNL A   1      42.095  30.490  31.721  1.00  0.00     0.074 A 
ATOM     43  C   UNL A   1      41.013  31.447  31.646  1.00  0.00     0.031 C 
ATOM     44  C   UNL A   1      40.149  25.752  27.867  1.00  0.00     0.029 A 
ATOM     45  C   UNL A   1      41.398  25.848  28.616  1.00  0.00     0.049 A 
ATOM     46  H   UNL A   1      42.000  27.386  29.885  1.00  0.00     0.167 HD
ATOM     47  C   UNL A   1      43.214  30.670  32.464  1.00  0.00     0.031 A 
ATOM     48  C   UNL A   1      42.383  24.930  28.602  1.00  0.00     0.031 A 
ATOM     49  C   UNL A   1      44.288  29.717  32.564  1.00  0.00     0.049 A 
ATOM     50  C   UNL A   1      43.611  25.144  29.441  1.00  0.00     0.074 A 
ATOM     51  C   UNL A   1      45.438  29.790  33.333  1.00  0.00     0.029 A 
ATOM     52  N   UNL A   1      44.342  28.517  31.875  1.00  0.00    -0.354 N 
ATOM     53  N   UNL A   1      43.909  26.148  30.229  1.00  0.00    -0.248 NA
ATOM     54  C   UNL A   1      44.632  24.086  29.400  1.00  0.00     0.031 C 
ATOM     55  C   UNL A   1      46.207  28.649  33.077  1.00  0.00     0.029 A 
ATOM     56  C   UNL A   1      45.514  27.846  32.188  1.00  0.00     0.049 A 
ATOM     57  H   UNL A   1      43.651  28.188  31.256  1.00  0.00     0.167 HD
ATOM     58  C   UNL A   1      45.140  25.836  30.791  1.00  0.00     0.074 A 
ATOM     59  C   UNL A   1      45.523  24.539  30.271  1.00  0.00     0.031 C 
ATOM     60  C   UNL A   1      45.887  26.560  31.659  1.00  0.00     0.031 A 
BRANCH  47  61
ATOM     61  C   UNL A   1      43.333  31.958  33.232  1.00  0.00    -0.014 A 
ATOM     62  C   UNL A   1      42.850  32.068  34.547  1.00  0.00     0.009 A 
ATOM     63  C   UNL A   1      43.960  33.068  32.646  1.00  0.00     0.009 A 
ATOM     64  C   UNL A   1      42.954  33.274  35.242  1.00  0.00     0.001 A 
ATOM     65  C   UNL A   1      44.090  34.265  33.354  1.00  0.00     0.001 A 
ATOM     66  C   UNL A   1      43.577  34.370  34.646  1.00  0.00     0.000 A 
ENDBRANCH  47  61
BRANCH  48  67
ATOM     67  C   UNL A   1      42.239  23.704  27.774  1.00  0.00    -0.014 A 
ATOM     68  C   UNL A   1      41.848  22.490  28.359  1.00  0.00     0.009 A 
ATOM     69  C   UNL A   1      42.490  23.743  26.394  1.00  0.00     0.009 A 
ATOM     70  C   UNL A   1      41.734  21.335  27.583  1.00  0.00     0.001 A 
ATOM     71  C   UNL A   1      42.348  22.592  25.616  1.00  0.00     0.001 A 
ATOM     72  C   UNL A   1      41.979  21.388  26.212  1.00  0.00     0.000 A 
ENDBRANCH  48  67
BRANCH  60  73
ATOM     73  C   UNL A   1      47.183  25.955  32.117  1.00  0.00    -0.014 A 
ATOM     74  C   UNL A   1      48.368  26.130  31.385  1.00  0.00     0.009 A 
ATOM     75  C   UNL A   1      47.225  25.220  33.313  1.00  0.00     0.009 A 
ATOM     76  C   UNL A   1      49.561  25.550  31.821  1.00  0.00     0.001 A 
ATOM     77  C   UNL A   1      48.424  24.665  33.762  1.00  0.00     0.001 A 
ATOM     78  C   UNL A   1      49.588  24.822  33.011  1.00  0.00     0.000 A 
ENDBRANCH  60  73
ENDBRANCH  34  35
ENDBRANCH  26  29
ENDBRANCH  24  25
ENDBRANCH  23  24
ENDBRANCH   1  23
TORSDOF 13
ENDMDL
MODEL 3
REMARK VINA RESULT:     -11.3      2.813      4.097
REMARK SMILES C[C@H]1[C@@H](C(=O)NCCCNC(=O)c2ccc(-c3c4nc(c(-c5ccccc5)c5ccc([nH]5)c(-c5ccccc5)c5nc(c(-c6ccccc6)c6ccc3[nH]6)C=C5)C=C4)cc2)CCN1C(=O)/C=C/c1cccc(F)c1
REMARK SMILES IDX 7 1 6 2 4 3 5 4 3 6 1 7 2 8 63 9 61 10 62 11 64 12 65 13
REMARK SMILES IDX 66 14 67 15 68 16 69 17 74 18 70 19 72 20 71 21 73 22 8 23
REMARK SMILES IDX 9 24 10 25 11 26 12 28 13 29 14 30 60 31 15 32 59 33 16 34
REMARK SMILES IDX 17 35 18 36 53 37 19 38 58 39 52 40 54 41 20 42 57 43 51 44
REMARK SMILES IDX 50 45 21 47 43 48 28 49 42 50 29 51 32 52 41 53 55 54 30 55
REMARK SMILES IDX 31 56 40 58 56 59 33 60 22 61 23 62 27 63 24 64 26 65 25 66
REMARK SMILES IDX 44 67 45 68 49 69 46 70 48 71 47 72 34 73 35 74 39 75 36 76
REMARK SMILES IDX 38 77 37 78
REMARK H PARENT 6 5 10 27 54 46 32 57
REMARK Flexibility Score: inf
ROOT
ATOM      1  C   UNL A   1      31.750  29.823  25.165  1.00  0.00     0.117 C 
ENDROOT
BRANCH   1   2
ATOM      2  N   UNL A   1      31.145  29.460  23.891  1.00  0.00    -0.356 N 
ATOM      3  C   UNL A   1      30.951  28.255  23.284  1.00  0.00     0.225 C 
ATOM      4  O   UNL A   1      30.494  28.283  22.139  1.00  0.00    -0.275 OA
ATOM      5  H   UNL A   1      30.813  30.229  23.372  1.00  0.00     0.163 HD
BRANCH   3   6
ATOM      6  C   UNL A   1      31.211  26.943  24.020  1.00  0.00     0.102 C 
ATOM      7  C   UNL A   1      33.279  26.568  22.442  1.00  0.00     0.032 C 
ATOM      8  C   UNL A   1      32.472  26.126  23.658  1.00  0.00     0.094 C 
ATOM      9  N   UNL A   1      32.007  24.755  23.447  1.00  0.00    -0.336 N 
ATOM     10  C   UNL A   1      30.044  25.935  23.880  1.00  0.00     0.037 C 
ATOM     11  C   UNL A   1      30.607  24.766  23.093  1.00  0.00     0.121 C 
BRANCH   9  12
ATOM     12  C   UNL A   1      32.767  23.606  23.348  1.00  0.00     0.246 C 
ATOM     13  O   UNL A   1      32.564  22.722  22.516  1.00  0.00    -0.270 OA
BRANCH  12  14
ATOM     14  C   UNL A   1      33.984  23.526  24.200  1.00  0.00     0.072 C 
ATOM     15  C   UNL A   1      35.148  23.039  23.742  1.00  0.00     0.014 C 
BRANCH  15  16
ATOM     16  C   UNL A   1      36.327  22.693  24.559  1.00  0.00    -0.023 A 
ATOM     17  C   UNL A   1      36.902  23.702  25.351  1.00  0.00     0.008 A 
ATOM     18  C   UNL A   1      36.957  21.442  24.523  1.00  0.00     0.047 A 
ATOM     19  C   UNL A   1      38.070  23.470  26.087  1.00  0.00     0.004 A 
ATOM     20  C   UNL A   1      38.119  21.221  25.261  1.00  0.00     0.123 A 
ATOM     21  C   UNL A   1      38.682  22.221  26.041  1.00  0.00     0.039 A 
ATOM     22  F   UNL A   1      38.714  20.021  25.203  1.00  0.00    -0.207 F 
ENDBRANCH  15  16
ENDBRANCH  12  14
ENDBRANCH   9  12
ENDBRANCH   3   6
ENDBRANCH   1   2
BRANCH   1  23
ATOM     23  C   UNL A   1      33.195  29.320  25.265  1.00  0.00     0.042 C 
BRANCH  23  24
ATOM     24  C   UNL A   1      33.689  29.070  26.685  1.00  0.00     0.118 C 
BRANCH  24  25
ATOM     25  N   UNL A   1      33.747  30.295  27.459  1.00  0.00    -0.352 N 
ATOM     26  C   UNL A   1      34.698  30.781  28.323  1.00  0.00     0.251 C 
ATOM     27  H   UNL A   1      32.966  30.882  27.347  1.00  0.00     0.163 HD
ATOM     28  O   UNL A   1      34.386  31.727  29.048  1.00  0.00    -0.269 OA
BRANCH  26  29
ATOM     29  C   UNL A   1      36.072  30.217  28.428  1.00  0.00     0.039 A 
ATOM     30  C   UNL A   1      36.465  29.676  29.661  1.00  0.00     0.014 A 
ATOM     31  C   UNL A   1      37.020  30.311  27.407  1.00  0.00     0.014 A 
ATOM     32  C   UNL A   1      37.777  29.227  29.858  1.00  0.00     0.010 A 
ATOM     33  C   UNL A   1      38.305  29.777  27.575  1.00  0.00     0.010 A 
ATOM     34  C   UNL A   1      38.710  29.260  28.812  1.00  0.00    -0.014 A 
BRANCH  34  35
ATOM     35  C   UNL A   1      40.116  28.811  29.022  1.00  0.00     0.031 A 
ATOM     36  C   UNL A   1      41.126  29.729  29.667  1.00  0.00     0.074 A 
ATOM     37  C   UNL A   1      40.503  27.584  28.620  1.00  0.00     0.049 A 
ATOM     38  N   UNL A   1      42.396  29.519  29.919  1.00  0.00    -0.248 NA
ATOM     39  C   UNL A   1      40.655  31.068  30.060  1.00  0.00     0.031 C 
ATOM     40  C   UNL A   1      39.649  26.603  27.951  1.00  0.00     0.029 A 
ATOM     41  N   UNL A   1      41.720  26.953  28.720  1.00  0.00    -0.354 N 
ATOM     42  C   UNL A   1      42.875  30.699  30.476  1.00  0.00     0.074 A 
ATOM     43  C   UNL A   1      41.774  31.638  30.481  1.00  0.00     0.031 C 
ATOM     44  C   UNL A   1      40.358  25.484  27.727  1.00  0.00     0.029 A 
ATOM     45  C   UNL A   1      41.723  25.680  28.206  1.00  0.00     0.049 A 
ATOM     46  H   UNL A   1      42.514  27.375  29.121  1.00  0.00     0.167 HD
ATOM     47  C   UNL A   1      44.108  30.977  30.963  1.00  0.00     0.031 A 
ATOM     48  C   UNL A   1      42.711  24.767  28.128  1.00  0.00     0.031 A 
ATOM     49  C   UNL A   1      45.205  30.046  30.984  1.00  0.00     0.049 A 
ATOM     50  C   UNL A   1      44.068  25.092  28.684  1.00  0.00     0.074 A 
ATOM     51  C   UNL A   1      46.477  30.221  31.505  1.00  0.00     0.029 A 
ATOM     52  N   UNL A   1      45.159  28.763  30.464  1.00  0.00    -0.354 N 
ATOM     53  N   UNL A   1      44.483  26.193  29.260  1.00  0.00    -0.248 NA
ATOM     54  C   UNL A   1      45.090  24.038  28.591  1.00  0.00     0.031 C 
ATOM     55  C   UNL A   1      47.213  29.056  31.262  1.00  0.00     0.029 A 
ATOM     56  C   UNL A   1      46.385  28.140  30.635  1.00  0.00     0.049 A 
ATOM     57  H   UNL A   1      44.373  28.354  30.036  1.00  0.00     0.167 HD
ATOM     58  C   UNL A   1      45.806  25.959  29.615  1.00  0.00     0.074 A 
ATOM     59  C   UNL A   1      46.117  24.604  29.210  1.00  0.00     0.031 C 
ATOM     60  C   UNL A   1      46.685  26.794  30.221  1.00  0.00     0.031 A 
BRANCH  47  61
ATOM     61  C   UNL A   1      44.337  32.358  31.516  1.00  0.00    -0.014 A 
ATOM     62  C   UNL A   1      44.797  33.402  30.697  1.00  0.00     0.009 A 
ATOM     63  C   UNL A   1      44.065  32.626  32.867  1.00  0.00     0.009 A 
ATOM     64  C   UNL A   1      45.019  34.674  31.227  1.00  0.00     0.001 A 
ATOM     65  C   UNL A   1      44.260  33.907  33.388  1.00  0.00     0.001 A 
ATOM     66  C   UNL A   1      44.747  34.926  32.571  1.00  0.00     0.000 A 
ENDBRANCH  47  61
BRANCH  48  67
ATOM     67  C   UNL A   1      42.444  23.440  27.513  1.00  0.00    -0.014 A 
ATOM     68  C   UNL A   1      41.974  22.374  28.294  1.00  0.00     0.009 A 
ATOM     69  C   UNL A   1      42.658  23.235  26.142  1.00  0.00     0.009 A 
ATOM     70  C   UNL A   1      41.744  21.123  27.719  1.00  0.00     0.001 A 
ATOM     71  C   UNL A   1      42.402  21.990  25.564  1.00  0.00     0.001 A 
ATOM     72  C   UNL A   1      41.953  20.933  26.354  1.00  0.00     0.000 A 
ENDBRANCH  48  67
BRANCH  60  73
ATOM     73  C   UNL A   1      48.058  26.256  30.502  1.00  0.00    -0.014 A 
ATOM     74  C   UNL A   1      49.071  26.299  29.531  1.00  0.00     0.009 A 
ATOM     75  C   UNL A   1      48.352  25.720  31.767  1.00  0.00     0.009 A 
ATOM     76  C   UNL A   1      50.338  25.783  29.807  1.00  0.00     0.001 A 
ATOM     77  C   UNL A   1      49.627  25.230  32.050  1.00  0.00     0.001 A 
ATOM     78  C   UNL A   1      50.616  25.253  31.067  1.00  0.00     0.000 A 
ENDBRANCH  60  73
ENDBRANCH  34  35
ENDBRANCH  26  29
ENDBRANCH  24  25
ENDBRANCH  23  24
ENDBRANCH   1  23
TORSDOF 13
ENDMDL
