MODEL 1
REMARK VINA RESULT:     -11.3      0.000      0.000
REMARK SMILES O=C(CN(Cc1ccccc1Cl)S(=O)(=O)c1ccc(Cl)cc1)NCCCNC(=O)c1ccc(-c2c3nc(c(-c4ccccc4)c4ccc([nH]4)c(-c4ccccc4)c4nc(c(-c5ccccc5)c5ccc2[nH]5)C=C4)C=C3)cc1
REMARK SMILES IDX 24 1 23 2 1 3 2 4 3 6 4 7 5 8 6 9 7 10 11 11 8 12 10 13
REMARK SMILES IDX 12 14 9 15 13 16 14 17 15 18 16 19 17 20 22 21 18 22 21 23
REMARK SMILES IDX 19 24 20 25 25 26 26 27 27 28 28 29 29 31 30 32 31 33 77 34
REMARK SMILES IDX 32 35 76 36 33 37 34 38 35 39 70 40 36 41 75 42 69 43 71 44
REMARK SMILES IDX 37 45 74 46 68 47 67 48 38 50 60 51 45 52 59 53 46 54 49 55
REMARK SMILES IDX 58 56 72 57 47 58 48 59 57 61 73 62 50 63 39 64 40 65 44 66
REMARK SMILES IDX 41 67 43 68 42 69 61 70 62 71 66 72 63 73 65 74 64 75 51 76
REMARK SMILES IDX 52 77 56 78 53 79 55 80 54 81
REMARK H PARENT 23 5 27 30 71 49 49 60
REMARK Flexibility Score: inf
ROOT
ATOM      1  C   UNL A   1      31.448  28.274  25.813  1.00  0.00     0.117 C 
ENDROOT
BRANCH   1   2
ATOM      2  N   UNL A   1      31.568  27.048  25.053  1.00  0.00    -0.355 N 
ATOM      3  O   UNL A   1      29.637  27.360  23.862  1.00  0.00    -0.274 OA
ATOM      4  C   UNL A   1      30.685  26.743  24.041  1.00  0.00     0.235 C 
ATOM      5  H   UNL A   1      32.294  26.419  25.263  1.00  0.00     0.163 HD
BRANCH   4   6
ATOM      6  C   UNL A   1      31.027  25.503  23.238  1.00  0.00     0.202 C 
BRANCH   6   7
ATOM      7  N   UNL A   1      32.108  24.577  23.725  1.00  0.00    -0.184 NA
BRANCH   7   8
ATOM      8  C   UNL A   1      31.508  23.340  24.341  1.00  0.00     0.140 C 
BRANCH   8   9
ATOM      9  C   UNL A   1      32.266  22.637  25.449  1.00  0.00    -0.014 A 
ATOM     10  C   UNL A   1      32.272  23.211  26.733  1.00  0.00     0.006 A 
ATOM     11  C   UNL A   1      32.966  21.430  25.272  1.00  0.00     0.045 A 
ATOM     12  C   UNL A   1      33.012  22.652  27.777  1.00  0.00     0.000 A 
ATOM     13  C   UNL A   1      33.717  20.877  26.317  1.00  0.00     0.021 A 
ATOM     14  Cl  UNL A   1      32.913  20.530  23.798  1.00  0.00    -0.084 Cl
ATOM     15  C   UNL A   1      33.751  21.496  27.565  1.00  0.00     0.002 A 
ENDBRANCH   8   9
ENDBRANCH   7   8
BRANCH   7  16
ATOM     16  S   UNL A   1      33.378  24.373  22.594  1.00  0.00     0.243 S 
ATOM     17  O   UNL A   1      33.047  23.258  21.743  1.00  0.00    -0.207 OA
ATOM     18  O   UNL A   1      33.695  25.672  22.034  1.00  0.00    -0.207 OA
BRANCH  16  19
ATOM     19  C   UNL A   1      34.813  23.941  23.552  1.00  0.00     0.082 A 
ATOM     20  C   UNL A   1      35.673  22.931  23.105  1.00  0.00     0.023 A 
ATOM     21  C   UNL A   1      35.022  24.566  24.786  1.00  0.00     0.023 A 
ATOM     22  C   UNL A   1      36.760  22.558  23.900  1.00  0.00     0.022 A 
ATOM     23  C   UNL A   1      36.107  24.183  25.578  1.00  0.00     0.022 A 
ATOM     24  C   UNL A   1      36.970  23.181  25.132  1.00  0.00     0.041 A 
ATOM     25  Cl  UNL A   1      38.295  22.701  26.117  1.00  0.00    -0.084 Cl
ENDBRANCH  16  19
ENDBRANCH   7  16
ENDBRANCH   6   7
ENDBRANCH   4   6
ENDBRANCH   1   2
BRANCH   1  26
ATOM     26  C   UNL A   1      32.079  28.181  27.196  1.00  0.00     0.042 C 
BRANCH  26  27
ATOM     27  C   UNL A   1      33.493  28.745  27.278  1.00  0.00     0.118 C 
BRANCH  27  28
ATOM     28  N   UNL A   1      33.534  30.135  27.716  1.00  0.00    -0.352 N 
ATOM     29  C   UNL A   1      34.532  30.849  28.328  1.00  0.00     0.251 C 
ATOM     30  H   UNL A   1      32.708  30.644  27.546  1.00  0.00     0.163 HD
ATOM     31  O   UNL A   1      34.306  31.989  28.727  1.00  0.00    -0.269 OA
BRANCH  29  32
ATOM     32  C   UNL A   1      35.873  30.259  28.533  1.00  0.00     0.039 A 
ATOM     33  C   UNL A   1      36.772  30.258  27.461  1.00  0.00     0.014 A 
ATOM     34  C   UNL A   1      36.238  29.680  29.751  1.00  0.00     0.014 A 
ATOM     35  C   UNL A   1      38.060  29.742  27.633  1.00  0.00     0.010 A 
ATOM     36  C   UNL A   1      37.542  29.222  29.940  1.00  0.00     0.010 A 
ATOM     37  C   UNL A   1      38.466  29.253  28.883  1.00  0.00    -0.014 A 
BRANCH  37  38
ATOM     38  C   UNL A   1      39.855  28.784  29.113  1.00  0.00     0.031 A 
ATOM     39  C   UNL A   1      40.886  29.711  29.691  1.00  0.00     0.074 A 
ATOM     40  C   UNL A   1      40.208  27.540  28.733  1.00  0.00     0.049 A 
ATOM     41  N   UNL A   1      42.165  29.506  29.884  1.00  0.00    -0.248 NA
ATOM     42  C   UNL A   1      40.425  31.051  30.085  1.00  0.00     0.031 C 
ATOM     43  C   UNL A   1      39.314  26.552  28.126  1.00  0.00     0.029 A 
ATOM     44  N   UNL A   1      41.421  26.901  28.790  1.00  0.00    -0.354 N 
ATOM     45  C   UNL A   1      42.665  30.696  30.397  1.00  0.00     0.074 A 
ATOM     46  C   UNL A   1      41.559  31.628  30.455  1.00  0.00     0.031 C 
ATOM     47  C   UNL A   1      40.005  25.426  27.885  1.00  0.00     0.029 A 
ATOM     48  C   UNL A   1      41.395  25.624  28.285  1.00  0.00     0.049 A 
ATOM     49  H   UNL A   1      42.234  27.318  29.158  1.00  0.00     0.167 HD
ATOM     50  C   UNL A   1      43.927  30.984  30.794  1.00  0.00     0.031 A 
ATOM     51  C   UNL A   1      42.379  24.716  28.149  1.00  0.00     0.031 A 
ATOM     52  C   UNL A   1      45.025  30.055  30.758  1.00  0.00     0.049 A 
ATOM     53  C   UNL A   1      43.769  25.059  28.602  1.00  0.00     0.074 A 
ATOM     54  C   UNL A   1      46.326  30.240  31.195  1.00  0.00     0.029 A 
ATOM     55  N   UNL A   1      44.949  28.766  30.258  1.00  0.00    -0.354 N 
ATOM     56  N   UNL A   1      44.213  26.172  29.133  1.00  0.00    -0.248 NA
ATOM     57  C   UNL A   1      44.792  24.016  28.441  1.00  0.00     0.031 C 
ATOM     58  C   UNL A   1      47.047  29.071  30.926  1.00  0.00     0.029 A 
ATOM     59  C   UNL A   1      46.184  28.148  30.360  1.00  0.00     0.049 A 
ATOM     60  H   UNL A   1      44.138  28.350  29.884  1.00  0.00     0.167 HD
ATOM     61  C   UNL A   1      45.559  25.955  29.394  1.00  0.00     0.074 A 
ATOM     62  C   UNL A   1      45.857  24.602  28.971  1.00  0.00     0.031 C 
ATOM     63  C   UNL A   1      46.465  26.801  29.938  1.00  0.00     0.031 A 
BRANCH  50  64
ATOM     64  C   UNL A   1      44.189  32.374  31.301  1.00  0.00    -0.014 A 
ATOM     65  C   UNL A   1      44.111  32.673  32.670  1.00  0.00     0.009 A 
ATOM     66  C   UNL A   1      44.553  33.387  30.401  1.00  0.00     0.009 A 
ATOM     67  C   UNL A   1      44.358  33.970  33.124  1.00  0.00     0.001 A 
ATOM     68  C   UNL A   1      44.823  34.677  30.862  1.00  0.00     0.001 A 
ATOM     69  C   UNL A   1      44.717  34.969  32.221  1.00  0.00     0.000 A 
ENDBRANCH  50  64
BRANCH  51  70
ATOM     70  C   UNL A   1      42.080  23.382  27.572  1.00  0.00    -0.014 A 
ATOM     71  C   UNL A   1      42.376  23.109  26.229  1.00  0.00     0.009 A 
ATOM     72  C   UNL A   1      41.499  22.376  28.361  1.00  0.00     0.009 A 
ATOM     73  C   UNL A   1      42.076  21.861  25.679  1.00  0.00     0.001 A 
ATOM     74  C   UNL A   1      41.223  21.122  27.814  1.00  0.00     0.001 A 
ATOM     75  C   UNL A   1      41.504  20.868  26.473  1.00  0.00     0.000 A 
ENDBRANCH  51  70
BRANCH  63  76
ATOM     76  C   UNL A   1      47.857  26.277  30.139  1.00  0.00    -0.014 A 
ATOM     77  C   UNL A   1      48.273  25.777  31.381  1.00  0.00     0.009 A 
ATOM     78  C   UNL A   1      48.750  26.248  29.056  1.00  0.00     0.009 A 
ATOM     79  C   UNL A   1      49.568  25.280  31.542  1.00  0.00     0.001 A 
ATOM     80  C   UNL A   1      50.036  25.731  29.214  1.00  0.00     0.001 A 
ATOM     81  C   UNL A   1      50.446  25.254  30.458  1.00  0.00     0.000 A 
ENDBRANCH  63  76
ENDBRANCH  37  38
ENDBRANCH  29  32
ENDBRANCH  27  28
ENDBRANCH  26  27
ENDBRANCH   1  26
TORSDOF 15
ENDMDL
MODEL 2
REMARK VINA RESULT:     -11.1      2.884      7.839
REMARK SMILES O=C(CN(Cc1ccccc1Cl)S(=O)(=O)c1ccc(Cl)cc1)NCCCNC(=O)c1ccc(-c2c3nc(c(-c4ccccc4)c4ccc([nH]4)c(-c4ccccc4)c4nc(c(-c5ccccc5)c5ccc2[nH]5)C=C4)C=C3)cc1
REMARK SMILES IDX 24 1 23 2 1 3 2 4 3 6 4 7 5 8 6 9 7 10 11 11 8 12 10 13
REMARK SMILES IDX 12 14 9 15 13 16 14 17 15 18 16 19 17 20 22 21 18 22 21 23
REMARK SMILES IDX 19 24 20 25 25 26 26 27 27 28 28 29 29 31 30 32 31 33 77 34
REMARK SMILES IDX 32 35 76 36 33 37 34 38 35 39 70 40 36 41 75 42 69 43 71 44
REMARK SMILES IDX 37 45 74 46 68 47 67 48 38 50 60 51 45 52 59 53 46 54 49 55
REMARK SMILES IDX 58 56 72 57 47 58 48 59 57 61 73 62 50 63 39 64 40 65 44 66
REMARK SMILES IDX 41 67 43 68 42 69 61 70 62 71 66 72 63 73 65 74 64 75 51 76
REMARK SMILES IDX 52 77 56 78 53 79 55 80 54 81
REMARK H PARENT 23 5 27 30 71 49 49 60
REMARK Flexibility Score: inf
ROOT
ATOM      1  C   UNL A   1      35.210  22.179  24.056  1.00  0.00     0.117 C 
ENDROOT
BRANCH   1   2
ATOM      2  N   UNL A   1      33.938  22.784  24.386  1.00  0.00    -0.355 N 
ATOM      3  O   UNL A   1      32.674  21.067  23.551  1.00  0.00    -0.274 OA
ATOM      4  C   UNL A   1      32.752  22.110  24.197  1.00  0.00     0.235 C 
ATOM      5  H   UNL A   1      33.919  23.697  24.753  1.00  0.00     0.163 HD
BRANCH   4   6
ATOM      6  C   UNL A   1      31.518  22.812  24.729  1.00  0.00     0.202 C 
BRANCH   6   7
ATOM      7  N   UNL A   1      31.486  24.314  24.791  1.00  0.00    -0.184 NA
BRANCH   7   8
ATOM      8  C   UNL A   1      30.728  24.877  23.616  1.00  0.00     0.140 C 
BRANCH   8   9
ATOM      9  C   UNL A   1      30.812  26.364  23.340  1.00  0.00    -0.014 A 
ATOM     10  C   UNL A   1      32.035  26.902  22.897  1.00  0.00     0.006 A 
ATOM     11  C   UNL A   1      29.731  27.250  23.496  1.00  0.00     0.045 A 
ATOM     12  C   UNL A   1      32.197  28.274  22.697  1.00  0.00     0.000 A 
ATOM     13  C   UNL A   1      29.899  28.627  23.306  1.00  0.00     0.021 A 
ATOM     14  Cl  UNL A   1      28.134  26.711  23.877  1.00  0.00    -0.084 Cl
ATOM     15  C   UNL A   1      31.135  29.140  22.920  1.00  0.00     0.002 A 
ENDBRANCH   8   9
ENDBRANCH   7   8
BRANCH   7  16
ATOM     16  S   UNL A   1      31.108  24.915  26.350  1.00  0.00     0.243 S 
ATOM     17  O   UNL A   1      29.690  25.168  26.402  1.00  0.00    -0.207 OA
ATOM     18  O   UNL A   1      31.752  24.063  27.329  1.00  0.00    -0.207 OA
BRANCH  16  19
ATOM     19  C   UNL A   1      31.960  26.470  26.488  1.00  0.00     0.082 A 
ATOM     20  C   UNL A   1      33.322  26.552  26.175  1.00  0.00     0.023 A 
ATOM     21  C   UNL A   1      31.271  27.582  26.987  1.00  0.00     0.023 A 
ATOM     22  C   UNL A   1      33.992  27.765  26.351  1.00  0.00     0.022 A 
ATOM     23  C   UNL A   1      31.950  28.789  27.166  1.00  0.00     0.022 A 
ATOM     24  C   UNL A   1      33.306  28.876  26.848  1.00  0.00     0.041 A 
ATOM     25  Cl  UNL A   1      34.142  30.360  27.085  1.00  0.00    -0.084 Cl
ENDBRANCH  16  19
ENDBRANCH   7  16
ENDBRANCH   6   7
ENDBRANCH   4   6
ENDBRANCH   1   2
BRANCH   1  26
ATOM     26  C   UNL A   1      36.331  23.198  23.897  1.00  0.00     0.042 C 
BRANCH  26  27
ATOM     27  C   UNL A   1      37.040  23.556  25.199  1.00  0.00     0.118 C 
BRANCH  27  28
ATOM     28  N   UNL A   1      38.182  22.696  25.487  1.00  0.00    -0.352 N 
ATOM     29  C   UNL A   1      39.360  22.965  26.135  1.00  0.00     0.251 C 
ATOM     30  H   UNL A   1      38.092  21.772  25.163  1.00  0.00     0.163 HD
ATOM     31  O   UNL A   1      40.248  22.117  26.158  1.00  0.00    -0.269 OA
BRANCH  29  32
ATOM     32  C   UNL A   1      39.586  24.273  26.789  1.00  0.00     0.039 A 
ATOM     33  C   UNL A   1      39.098  24.463  28.086  1.00  0.00     0.014 A 
ATOM     34  C   UNL A   1      40.241  25.317  26.130  1.00  0.00     0.014 A 
ATOM     35  C   UNL A   1      39.327  25.673  28.747  1.00  0.00     0.010 A 
ATOM     36  C   UNL A   1      40.523  26.500  26.812  1.00  0.00     0.010 A 
ATOM     37  C   UNL A   1      40.073  26.688  28.128  1.00  0.00    -0.014 A 
BRANCH  37  38
ATOM     38  C   UNL A   1      40.406  27.945  28.843  1.00  0.00     0.031 A 
ATOM     39  C   UNL A   1      41.722  28.091  29.552  1.00  0.00     0.074 A 
ATOM     40  C   UNL A   1      39.490  28.931  28.915  1.00  0.00     0.049 A 
ATOM     41  N   UNL A   1      42.153  29.079  30.297  1.00  0.00    -0.248 NA
ATOM     42  C   UNL A   1      42.671  26.974  29.425  1.00  0.00     0.031 C 
ATOM     43  C   UNL A   1      38.161  28.902  28.302  1.00  0.00     0.029 A 
ATOM     44  N   UNL A   1      39.538  30.147  29.549  1.00  0.00    -0.354 N 
ATOM     45  C   UNL A   1      43.408  28.692  30.747  1.00  0.00     0.074 A 
ATOM     46  C   UNL A   1      43.657  27.367  30.218  1.00  0.00     0.031 C 
ATOM     47  C   UNL A   1      37.528  30.054  28.575  1.00  0.00     0.029 A 
ATOM     48  C   UNL A   1      38.389  30.886  29.410  1.00  0.00     0.049 A 
ATOM     49  H   UNL A   1      40.322  30.460  30.057  1.00  0.00     0.167 HD
ATOM     50  C   UNL A   1      44.281  29.380  31.520  1.00  0.00     0.031 A 
ATOM     51  C   UNL A   1      38.059  32.093  29.905  1.00  0.00     0.031 A 
ATOM     52  C   UNL A   1      44.048  30.705  32.031  1.00  0.00     0.049 A 
ATOM     53  C   UNL A   1      39.047  32.838  30.756  1.00  0.00     0.074 A 
ATOM     54  C   UNL A   1      44.900  31.505  32.774  1.00  0.00     0.029 A 
ATOM     55  N   UNL A   1      42.879  31.425  31.848  1.00  0.00    -0.354 N 
ATOM     56  N   UNL A   1      40.251  32.480  31.129  1.00  0.00    -0.248 NA
ATOM     57  C   UNL A   1      38.630  34.159  31.250  1.00  0.00     0.031 C 
ATOM     58  C   UNL A   1      44.230  32.697  33.071  1.00  0.00     0.029 A 
ATOM     59  C   UNL A   1      42.979  32.654  32.479  1.00  0.00     0.049 A 
ATOM     60  H   UNL A   1      42.092  31.110  31.346  1.00  0.00     0.167 HD
ATOM     61  C   UNL A   1      40.746  33.539  31.877  1.00  0.00     0.074 A 
ATOM     62  C   UNL A   1      39.715  34.557  31.899  1.00  0.00     0.031 C 
ATOM     63  C   UNL A   1      41.948  33.657  32.489  1.00  0.00     0.031 A 
BRANCH  50  64
ATOM     64  C   UNL A   1      45.576  28.703  31.867  1.00  0.00    -0.014 A 
ATOM     65  C   UNL A   1      45.708  27.951  33.045  1.00  0.00     0.009 A 
ATOM     66  C   UNL A   1      46.665  28.789  30.987  1.00  0.00     0.009 A 
ATOM     67  C   UNL A   1      46.919  27.328  33.352  1.00  0.00     0.001 A 
ATOM     68  C   UNL A   1      47.867  28.144  31.285  1.00  0.00     0.001 A 
ATOM     69  C   UNL A   1      47.996  27.422  32.471  1.00  0.00     0.000 A 
ENDBRANCH  50  64
BRANCH  51  70
ATOM     70  C   UNL A   1      36.735  32.685  29.591  1.00  0.00    -0.014 A 
ATOM     71  C   UNL A   1      35.671  32.558  30.497  1.00  0.00     0.009 A 
ATOM     72  C   UNL A   1      36.528  33.378  28.389  1.00  0.00     0.009 A 
ATOM     73  C   UNL A   1      34.418  33.096  30.194  1.00  0.00     0.001 A 
ATOM     74  C   UNL A   1      35.281  33.935  28.100  1.00  0.00     0.001 A 
ATOM     75  C   UNL A   1      34.226  33.787  28.999  1.00  0.00     0.000 A 
ENDBRANCH  51  70
BRANCH  63  76
ATOM     76  C   UNL A   1      42.228  34.946  33.206  1.00  0.00    -0.014 A 
ATOM     77  C   UNL A   1      41.745  35.176  34.502  1.00  0.00     0.009 A 
ATOM     78  C   UNL A   1      43.022  35.925  32.589  1.00  0.00     0.009 A 
ATOM     79  C   UNL A   1      42.030  36.375  35.157  1.00  0.00     0.001 A 
ATOM     80  C   UNL A   1      43.324  37.113  33.254  1.00  0.00     0.001 A 
ATOM     81  C   UNL A   1      42.822  37.340  34.535  1.00  0.00     0.000 A 
ENDBRANCH  63  76
ENDBRANCH  37  38
ENDBRANCH  29  32
ENDBRANCH  27  28
ENDBRANCH  26  27
ENDBRANCH   1  26
TORSDOF 15
ENDMDL
MODEL 3
REMARK VINA RESULT:     -11.1      2.845      7.670
REMARK SMILES O=C(CN(Cc1ccccc1Cl)S(=O)(=O)c1ccc(Cl)cc1)NCCCNC(=O)c1ccc(-c2c3nc(c(-c4ccccc4)c4ccc([nH]4)c(-c4ccccc4)c4nc(c(-c5ccccc5)c5ccc2[nH]5)C=C4)C=C3)cc1
REMARK SMILES IDX 24 1 23 2 1 3 2 4 3 6 4 7 5 8 6 9 7 10 11 11 8 12 10 13
REMARK SMILES IDX 12 14 9 15 13 16 14 17 15 18 16 19 17 20 22 21 18 22 21 23
REMARK SMILES IDX 19 24 20 25 25 26 26 27 27 28 28 29 29 31 30 32 31 33 77 34
REMARK SMILES IDX 32 35 76 36 33 37 34 38 35 39 70 40 36 41 75 42 69 43 71 44
REMARK SMILES IDX 37 45 74 46 68 47 67 48 38 50 60 51 45 52 59 53 46 54 49 55
REMARK SMILES IDX 58 56 72 57 47 58 48 59 57 61 73 62 50 63 39 64 40 65 44 66
REMARK SMILES IDX 41 67 43 68 42 69 61 70 62 71 66 72 63 73 65 74 64 75 51 76
REMARK SMILES IDX 52 77 56 78 53 79 55 80 54 81
REMARK H PARENT 23 5 27 30 71 49 49 60
REMARK Flexibility Score: inf
ROOT
ATOM      1  C   UNL A   1      34.985  22.386  25.721  1.00  0.00     0.117 C 
ENDROOT
BRANCH   1   2
ATOM      2  N   UNL A   1      33.682  22.962  25.466  1.00  0.00    -0.355 N 
ATOM      3  O   UNL A   1      33.022  21.327  24.004  1.00  0.00    -0.274 OA
ATOM      4  C   UNL A   1      32.749  22.308  24.692  1.00  0.00     0.235 C 
ATOM      5  H   UNL A   1      33.457  23.838  25.852  1.00  0.00     0.163 HD
BRANCH   4   6
ATOM      6  C   UNL A   1      31.381  22.962  24.641  1.00  0.00     0.202 C 
BRANCH   6   7
ATOM      7  N   UNL A   1      31.268  24.458  24.744  1.00  0.00    -0.184 NA
BRANCH   7   8
ATOM      8  C   UNL A   1      30.449  25.007  23.605  1.00  0.00     0.140 C 
BRANCH   8   9
ATOM      9  C   UNL A   1      30.520  26.491  23.307  1.00  0.00    -0.014 A 
ATOM     10  C   UNL A   1      31.740  27.034  22.861  1.00  0.00     0.006 A 
ATOM     11  C   UNL A   1      29.430  27.368  23.443  1.00  0.00     0.045 A 
ATOM     12  C   UNL A   1      31.890  28.404  22.641  1.00  0.00     0.000 A 
ATOM     13  C   UNL A   1      29.585  28.744  23.233  1.00  0.00     0.021 A 
ATOM     14  Cl  UNL A   1      27.836  26.820  23.824  1.00  0.00    -0.084 Cl
ATOM     15  C   UNL A   1      30.818  29.263  22.845  1.00  0.00     0.002 A 
ENDBRANCH   8   9
ENDBRANCH   7   8
BRANCH   7  16
ATOM     16  S   UNL A   1      30.899  24.996  26.328  1.00  0.00     0.243 S 
ATOM     17  O   UNL A   1      29.505  25.362  26.365  1.00  0.00    -0.207 OA
ATOM     18  O   UNL A   1      31.445  24.037  27.268  1.00  0.00    -0.207 OA
BRANCH  16  19
ATOM     19  C   UNL A   1      31.871  26.464  26.578  1.00  0.00     0.082 A 
ATOM     20  C   UNL A   1      31.283  27.605  27.137  1.00  0.00     0.023 A 
ATOM     21  C   UNL A   1      33.199  26.486  26.137  1.00  0.00     0.023 A 
ATOM     22  C   UNL A   1      32.042  28.771  27.267  1.00  0.00     0.022 A 
ATOM     23  C   UNL A   1      33.949  27.657  26.265  1.00  0.00     0.022 A 
ATOM     24  C   UNL A   1      33.368  28.794  26.828  1.00  0.00     0.041 A 
ATOM     25  Cl  UNL A   1      34.289  30.239  26.969  1.00  0.00    -0.084 Cl
ENDBRANCH  16  19
ENDBRANCH   7  16
ENDBRANCH   6   7
ENDBRANCH   4   6
ENDBRANCH   1   2
BRANCH   1  26
ATOM     26  C   UNL A   1      36.027  23.424  26.117  1.00  0.00     0.042 C 
BRANCH  26  27
ATOM     27  C   UNL A   1      37.182  23.558  25.129  1.00  0.00     0.118 C 
BRANCH  27  28
ATOM     28  N   UNL A   1      38.300  22.673  25.428  1.00  0.00    -0.352 N 
ATOM     29  C   UNL A   1      39.476  22.912  26.093  1.00  0.00     0.251 C 
ATOM     30  H   UNL A   1      38.194  21.752  25.098  1.00  0.00     0.163 HD
ATOM     31  O   UNL A   1      40.344  22.044  26.123  1.00  0.00    -0.269 OA
BRANCH  29  32
ATOM     32  C   UNL A   1      39.722  24.212  26.756  1.00  0.00     0.039 A 
ATOM     33  C   UNL A   1      39.249  24.394  28.061  1.00  0.00     0.014 A 
ATOM     34  C   UNL A   1      40.379  25.255  26.100  1.00  0.00     0.014 A 
ATOM     35  C   UNL A   1      39.497  25.595  28.730  1.00  0.00     0.010 A 
ATOM     36  C   UNL A   1      40.681  26.429  26.790  1.00  0.00     0.010 A 
ATOM     37  C   UNL A   1      40.246  26.609  28.112  1.00  0.00    -0.014 A 
BRANCH  37  38
ATOM     38  C   UNL A   1      40.600  27.856  28.835  1.00  0.00     0.031 A 
ATOM     39  C   UNL A   1      39.595  28.963  28.979  1.00  0.00     0.074 A 
ATOM     40  C   UNL A   1      41.853  28.021  29.302  1.00  0.00     0.049 A 
ATOM     41  N   UNL A   1      39.749  30.154  29.502  1.00  0.00    -0.248 NA
ATOM     42  C   UNL A   1      38.248  28.708  28.447  1.00  0.00     0.031 C 
ATOM     43  C   UNL A   1      42.934  27.039  29.198  1.00  0.00     0.029 A 
ATOM     44  N   UNL A   1      42.430  29.084  29.949  1.00  0.00    -0.354 N 
ATOM     45  C   UNL A   1      38.529  30.797  29.339  1.00  0.00     0.074 A 
ATOM     46  C   UNL A   1      37.656  29.878  28.641  1.00  0.00     0.031 C 
ATOM     47  C   UNL A   1      44.038  27.539  29.777  1.00  0.00     0.029 A 
ATOM     48  C   UNL A   1      43.754  28.887  30.259  1.00  0.00     0.049 A 
ATOM     49  H   UNL A   1      41.943  29.911  30.169  1.00  0.00     0.167 HD
ATOM     50  C   UNL A   1      38.164  32.037  29.744  1.00  0.00     0.031 A 
ATOM     51  C   UNL A   1      44.643  29.701  30.858  1.00  0.00     0.031 A 
ATOM     52  C   UNL A   1      39.021  32.947  30.457  1.00  0.00     0.049 A 
ATOM     53  C   UNL A   1      44.211  31.069  31.302  1.00  0.00     0.074 A 
ATOM     54  C   UNL A   1      38.719  34.201  30.960  1.00  0.00     0.029 A 
ATOM     55  N   UNL A   1      40.347  32.699  30.769  1.00  0.00    -0.354 N 
ATOM     56  N   UNL A   1      43.038  31.642  31.187  1.00  0.00    -0.248 NA
ATOM     57  C   UNL A   1      45.228  31.900  31.963  1.00  0.00     0.031 C 
ATOM     58  C   UNL A   1      39.875  34.727  31.546  1.00  0.00     0.029 A 
ATOM     59  C   UNL A   1      40.883  33.783  31.443  1.00  0.00     0.049 A 
ATOM     60  H   UNL A   1      40.837  31.875  30.544  1.00  0.00     0.167 HD
ATOM     61  C   UNL A   1      43.167  32.888  31.784  1.00  0.00     0.074 A 
ATOM     62  C   UNL A   1      44.530  32.985  32.268  1.00  0.00     0.031 C 
ATOM     63  C   UNL A   1      42.238  33.864  31.922  1.00  0.00     0.031 A 
BRANCH  50  64
ATOM     64  C   UNL A   1      36.768  32.485  29.418  1.00  0.00    -0.014 A 
ATOM     65  C   UNL A   1      35.713  32.287  30.322  1.00  0.00     0.009 A 
ATOM     66  C   UNL A   1      36.512  33.145  28.206  1.00  0.00     0.009 A 
ATOM     67  C   UNL A   1      34.421  32.709  30.003  1.00  0.00     0.001 A 
ATOM     68  C   UNL A   1      35.224  33.588  27.901  1.00  0.00     0.001 A 
ATOM     69  C   UNL A   1      34.178  33.362  28.795  1.00  0.00     0.000 A 
ENDBRANCH  50  64
BRANCH  51  70
ATOM     70  C   UNL A   1      46.033  29.235  31.090  1.00  0.00    -0.014 A 
ATOM     71  C   UNL A   1      46.366  28.565  32.276  1.00  0.00     0.009 A 
ATOM     72  C   UNL A   1      47.031  29.456  30.128  1.00  0.00     0.009 A 
ATOM     73  C   UNL A   1      47.677  28.144  32.506  1.00  0.00     0.001 A 
ATOM     74  C   UNL A   1      48.335  29.012  30.350  1.00  0.00     0.001 A 
ATOM     75  C   UNL A   1      48.659  28.364  31.541  1.00  0.00     0.000 A 
ENDBRANCH  51  70
BRANCH  63  76
ATOM     76  C   UNL A   1      42.653  35.107  32.653  1.00  0.00    -0.014 A 
ATOM     77  C   UNL A   1      42.360  35.282  34.013  1.00  0.00     0.009 A 
ATOM     78  C   UNL A   1      43.383  36.097  31.978  1.00  0.00     0.009 A 
ATOM     79  C   UNL A   1      42.768  36.439  34.678  1.00  0.00     0.001 A 
ATOM     80  C   UNL A   1      43.809  37.243  32.651  1.00  0.00     0.001 A 
ATOM     81  C   UNL A   1      43.496  37.416  33.998  1.00  0.00     0.000 A 
ENDBRANCH  63  76
ENDBRANCH  37  38
ENDBRANCH  29  32
ENDBRANCH  27  28
ENDBRANCH  26  27
ENDBRANCH   1  26
TORSDOF 15
ENDMDL
