MODEL 1
REMARK VINA RESULT:     -11.2      0.000      0.000
REMARK SMILES O=C(C[C@@H]1CN(C(=O)Nc2ccccc2)CCO1)NCCCNC(=O)c1ccc(-c2c3nc(c(-c4ccccc4)c4ccc([nH]4)c(-c4ccccc4)c4nc(c(-c5ccccc5)c5ccc2[nH]5)C=C4)C=C3)cc1
REMARK SMILES IDX 20 1 19 2 1 3 2 4 3 6 4 7 5 8 18 9 6 10 17 11 16 12 7 13
REMARK SMILES IDX 8 14 9 15 10 17 11 18 15 19 12 20 14 21 13 22 21 23 22 24
REMARK SMILES IDX 23 25 24 26 25 28 26 29 27 30 73 31 28 32 72 33 29 34 30 35
REMARK SMILES IDX 31 36 66 37 32 38 71 39 65 40 67 41 33 42 70 43 64 44 63 45
REMARK SMILES IDX 34 47 56 48 41 49 55 50 42 51 45 52 54 53 68 54 43 55 44 56
REMARK SMILES IDX 53 58 69 59 46 60 35 61 36 62 40 63 37 64 39 65 38 66 57 67
REMARK SMILES IDX 58 68 62 69 59 70 61 71 60 72 47 73 48 74 52 75 49 76 51 77
REMARK SMILES IDX 50 78
REMARK H PARENT 19 5 9 16 23 27 67 46 45 57
REMARK Flexibility Score: inf
ROOT
ATOM      1  C   UNL A   1      37.096  20.933  24.536  1.00  0.00     0.117 C 
ENDROOT
BRANCH   1   2
ATOM      2  N   UNL A   1      36.334  21.562  25.599  1.00  0.00    -0.356 N 
ATOM      3  O   UNL A   1      37.044  23.690  25.102  1.00  0.00    -0.275 OA
ATOM      4  C   UNL A   1      36.302  22.940  25.722  1.00  0.00     0.222 C 
ATOM      5  H   UNL A   1      35.834  21.002  26.236  1.00  0.00     0.163 HD
BRANCH   4   6
ATOM      6  C   UNL A   1      35.223  23.451  26.649  1.00  0.00     0.133 C 
BRANCH   6   7
ATOM      7  C   UNL A   1      33.825  23.420  26.027  1.00  0.00     0.147 C 
ATOM      8  C   UNL A   1      32.705  22.898  26.945  1.00  0.00     0.154 C 
ATOM      9  O   UNL A   1      33.807  22.649  24.806  1.00  0.00    -0.374 OA
ATOM     10  N   UNL A   1      31.415  23.133  26.296  1.00  0.00    -0.320 N 
ATOM     11  C   UNL A   1      32.547  22.820  24.118  1.00  0.00     0.182 C 
ATOM     12  C   UNL A   1      31.333  22.463  24.995  1.00  0.00     0.150 C 
BRANCH  10  13
ATOM     13  C   UNL A   1      30.283  23.652  26.873  1.00  0.00     0.322 C 
ATOM     14  O   UNL A   1      29.518  22.950  27.539  1.00  0.00    -0.248 OA
ATOM     15  N   UNL A   1      30.012  24.988  26.807  1.00  0.00    -0.308 N 
ATOM     16  H   UNL A   1      29.549  25.340  27.600  1.00  0.00     0.171 HD
BRANCH  15  17
ATOM     17  C   UNL A   1      30.270  25.956  25.823  1.00  0.00     0.042 A 
ATOM     18  C   UNL A   1      29.481  25.954  24.671  1.00  0.00     0.026 A 
ATOM     19  C   UNL A   1      31.287  26.906  25.942  1.00  0.00     0.026 A 
ATOM     20  C   UNL A   1      29.634  26.964  23.716  1.00  0.00     0.002 A 
ATOM     21  C   UNL A   1      31.408  27.940  25.012  1.00  0.00     0.002 A 
ATOM     22  C   UNL A   1      30.563  27.982  23.908  1.00  0.00     0.000 A 
ENDBRANCH  15  17
ENDBRANCH  10  13
ENDBRANCH   6   7
ENDBRANCH   4   6
ENDBRANCH   1   2
BRANCH   1  23
ATOM     23  C   UNL A   1      37.942  19.756  25.001  1.00  0.00     0.042 C 
BRANCH  23  24
ATOM     24  C   UNL A   1      39.203  20.128  25.775  1.00  0.00     0.118 C 
BRANCH  24  25
ATOM     25  N   UNL A   1      40.222  19.087  25.794  1.00  0.00    -0.352 N 
ATOM     26  C   UNL A   1      41.577  19.184  26.030  1.00  0.00     0.251 C 
ATOM     27  H   UNL A   1      39.893  18.178  25.611  1.00  0.00     0.163 HD
ATOM     28  O   UNL A   1      42.290  18.193  25.925  1.00  0.00    -0.269 OA
BRANCH  26  29
ATOM     29  C   UNL A   1      42.188  20.487  26.389  1.00  0.00     0.039 A 
ATOM     30  C   UNL A   1      42.723  21.292  25.382  1.00  0.00     0.014 A 
ATOM     31  C   UNL A   1      42.241  20.915  27.715  1.00  0.00     0.014 A 
ATOM     32  C   UNL A   1      43.223  22.561  25.699  1.00  0.00     0.010 A 
ATOM     33  C   UNL A   1      42.674  22.202  28.024  1.00  0.00     0.010 A 
ATOM     34  C   UNL A   1      43.157  23.049  27.016  1.00  0.00    -0.014 A 
BRANCH  34  35
ATOM     35  C   UNL A   1      43.521  24.455  27.341  1.00  0.00     0.031 A 
ATOM     36  C   UNL A   1      44.952  24.917  27.308  1.00  0.00     0.074 A 
ATOM     37  C   UNL A   1      42.557  25.304  27.750  1.00  0.00     0.049 A 
ATOM     38  N   UNL A   1      45.444  26.097  27.594  1.00  0.00    -0.248 NA
ATOM     39  C   UNL A   1      45.967  23.922  26.931  1.00  0.00     0.031 C 
ATOM     40  C   UNL A   1      41.137  24.970  27.890  1.00  0.00     0.029 A 
ATOM     41  N   UNL A   1      42.625  26.623  28.128  1.00  0.00    -0.354 N 
ATOM     42  C   UNL A   1      46.820  25.985  27.442  1.00  0.00     0.074 A 
ATOM     43  C   UNL A   1      47.091  24.607  27.091  1.00  0.00     0.031 C 
ATOM     44  C   UNL A   1      40.465  26.062  28.288  1.00  0.00     0.029 A 
ATOM     45  C   UNL A   1      41.407  27.161  28.472  1.00  0.00     0.049 A 
ATOM     46  H   UNL A   1      43.467  27.134  28.153  1.00  0.00     0.167 HD
ATOM     47  C   UNL A   1      47.771  26.943  27.562  1.00  0.00     0.031 A 
ATOM     48  C   UNL A   1      41.081  28.399  28.890  1.00  0.00     0.031 A 
ATOM     49  C   UNL A   1      47.505  28.315  27.908  1.00  0.00     0.049 A 
ATOM     50  C   UNL A   1      42.154  29.442  29.023  1.00  0.00     0.074 A 
ATOM     51  C   UNL A   1      48.397  29.372  27.989  1.00  0.00     0.029 A 
ATOM     52  N   UNL A   1      46.257  28.821  28.236  1.00  0.00    -0.354 N 
ATOM     53  N   UNL A   1      43.439  29.338  28.789  1.00  0.00    -0.248 NA
ATOM     54  C   UNL A   1      41.729  30.778  29.464  1.00  0.00     0.031 C 
ATOM     55  C   UNL A   1      47.699  30.502  28.422  1.00  0.00     0.029 A 
ATOM     56  C   UNL A   1      46.360  30.168  28.547  1.00  0.00     0.049 A 
ATOM     57  H   UNL A   1      45.421  28.301  28.246  1.00  0.00     0.167 HD
ATOM     58  C   UNL A   1      43.969  30.600  29.021  1.00  0.00     0.074 A 
ATOM     59  C   UNL A   1      42.865  31.456  29.402  1.00  0.00     0.031 C 
ATOM     60  C   UNL A   1      45.257  31.013  28.923  1.00  0.00     0.031 A 
BRANCH  47  61
ATOM     61  C   UNL A   1      49.201  26.539  27.320  1.00  0.00    -0.014 A 
ATOM     62  C   UNL A   1      50.027  26.117  28.374  1.00  0.00     0.009 A 
ATOM     63  C   UNL A   1      49.714  26.529  26.013  1.00  0.00     0.009 A 
ATOM     64  C   UNL A   1      51.347  25.731  28.130  1.00  0.00     0.001 A 
ATOM     65  C   UNL A   1      51.025  26.113  25.767  1.00  0.00     0.001 A 
ATOM     66  C   UNL A   1      51.843  25.724  26.827  1.00  0.00     0.000 A 
ENDBRANCH  47  61
BRANCH  48  67
ATOM     67  C   UNL A   1      39.662  28.730  29.191  1.00  0.00    -0.014 A 
ATOM     68  C   UNL A   1      39.143  28.528  30.479  1.00  0.00     0.009 A 
ATOM     69  C   UNL A   1      38.821  29.248  28.194  1.00  0.00     0.009 A 
ATOM     70  C   UNL A   1      37.803  28.810  30.754  1.00  0.00     0.001 A 
ATOM     71  C   UNL A   1      37.490  29.558  28.481  1.00  0.00     0.001 A 
ATOM     72  C   UNL A   1      36.979  29.330  29.757  1.00  0.00     0.000 A 
ENDBRANCH  48  67
BRANCH  60  73
ATOM     73  C   UNL A   1      45.540  32.465  29.189  1.00  0.00    -0.014 A 
ATOM     74  C   UNL A   1      45.463  33.426  28.169  1.00  0.00     0.009 A 
ATOM     75  C   UNL A   1      45.846  32.882  30.494  1.00  0.00     0.009 A 
ATOM     76  C   UNL A   1      45.719  34.772  28.446  1.00  0.00     0.001 A 
ATOM     77  C   UNL A   1      46.071  34.231  30.773  1.00  0.00     0.001 A 
ATOM     78  C   UNL A   1      46.017  35.173  29.748  1.00  0.00     0.000 A 
ENDBRANCH  60  73
ENDBRANCH  34  35
ENDBRANCH  26  29
ENDBRANCH  24  25
ENDBRANCH  23  24
ENDBRANCH   1  23
TORSDOF 13
ENDMDL
MODEL 2
REMARK VINA RESULT:     -11.1      2.499      7.937
REMARK SMILES O=C(C[C@@H]1CN(C(=O)Nc2ccccc2)CCO1)NCCCNC(=O)c1ccc(-c2c3nc(c(-c4ccccc4)c4ccc([nH]4)c(-c4ccccc4)c4nc(c(-c5ccccc5)c5ccc2[nH]5)C=C4)C=C3)cc1
REMARK SMILES IDX 20 1 19 2 1 3 2 4 3 6 4 7 5 8 18 9 6 10 17 11 16 12 7 13
REMARK SMILES IDX 8 14 9 15 10 17 11 18 15 19 12 20 14 21 13 22 21 23 22 24
REMARK SMILES IDX 23 25 24 26 25 28 26 29 27 30 73 31 28 32 72 33 29 34 30 35
REMARK SMILES IDX 31 36 66 37 32 38 71 39 65 40 67 41 33 42 70 43 64 44 63 45
REMARK SMILES IDX 34 47 56 48 41 49 55 50 42 51 45 52 54 53 68 54 43 55 44 56
REMARK SMILES IDX 53 58 69 59 46 60 35 61 36 62 40 63 37 64 39 65 38 66 57 67
REMARK SMILES IDX 58 68 62 69 59 70 61 71 60 72 47 73 48 74 52 75 49 76 51 77
REMARK SMILES IDX 50 78
REMARK H PARENT 19 5 9 16 23 27 67 46 45 57
REMARK Flexibility Score: inf
ROOT
ATOM      1  C   UNL A   1      31.789  28.782  25.341  1.00  0.00     0.117 C 
ENDROOT
BRANCH   1   2
ATOM      2  N   UNL A   1      31.649  27.359  25.092  1.00  0.00    -0.356 N 
ATOM      3  O   UNL A   1      30.853  26.881  27.195  1.00  0.00    -0.275 OA
ATOM      4  C   UNL A   1      31.081  26.530  26.044  1.00  0.00     0.222 C 
ATOM      5  H   UNL A   1      31.961  26.981  24.238  1.00  0.00     0.163 HD
BRANCH   4   6
ATOM      6  C   UNL A   1      30.704  25.162  25.523  1.00  0.00     0.133 C 
BRANCH   6   7
ATOM      7  C   UNL A   1      31.738  24.083  25.855  1.00  0.00     0.147 C 
ATOM      8  C   UNL A   1      31.537  22.734  25.140  1.00  0.00     0.154 C 
ATOM      9  O   UNL A   1      31.807  23.837  27.276  1.00  0.00    -0.374 OA
ATOM     10  N   UNL A   1      32.708  21.893  25.383  1.00  0.00    -0.320 N 
ATOM     11  C   UNL A   1      32.937  22.990  27.589  1.00  0.00     0.182 C 
ATOM     12  C   UNL A   1      32.920  21.660  26.814  1.00  0.00     0.150 C 
BRANCH  10  13
ATOM     13  C   UNL A   1      33.397  21.148  24.457  1.00  0.00     0.322 C 
ATOM     14  O   UNL A   1      32.872  20.196  23.876  1.00  0.00    -0.248 OA
ATOM     15  N   UNL A   1      34.660  21.496  24.079  1.00  0.00    -0.308 N 
ATOM     16  H   UNL A   1      34.866  21.289  23.140  1.00  0.00     0.171 HD
BRANCH  15  17
ATOM     17  C   UNL A   1      35.724  22.094  24.776  1.00  0.00     0.042 A 
ATOM     18  C   UNL A   1      36.843  21.312  25.071  1.00  0.00     0.026 A 
ATOM     19  C   UNL A   1      35.702  23.426  25.194  1.00  0.00     0.026 A 
ATOM     20  C   UNL A   1      37.964  21.895  25.668  1.00  0.00     0.002 A 
ATOM     21  C   UNL A   1      36.839  24.018  25.747  1.00  0.00     0.002 A 
ATOM     22  C   UNL A   1      37.982  23.255  25.963  1.00  0.00     0.000 A 
ENDBRANCH  15  17
ENDBRANCH  10  13
ENDBRANCH   6   7
ENDBRANCH   4   6
ENDBRANCH   1   2
BRANCH   1  23
ATOM     23  C   UNL A   1      33.207  29.204  25.703  1.00  0.00     0.042 C 
BRANCH  23  24
ATOM     24  C   UNL A   1      33.524  29.198  27.196  1.00  0.00     0.118 C 
BRANCH  24  25
ATOM     25  N   UNL A   1      33.608  30.524  27.795  1.00  0.00    -0.352 N 
ATOM     26  C   UNL A   1      34.648  31.117  28.478  1.00  0.00     0.251 C 
ATOM     27  H   UNL A   1      32.802  31.078  27.695  1.00  0.00     0.163 HD
ATOM     28  O   UNL A   1      34.498  32.226  28.979  1.00  0.00    -0.269 OA
BRANCH  26  29
ATOM     29  C   UNL A   1      35.945  30.416  28.635  1.00  0.00     0.039 A 
ATOM     30  C   UNL A   1      36.848  30.399  27.570  1.00  0.00     0.014 A 
ATOM     31  C   UNL A   1      36.273  29.770  29.827  1.00  0.00     0.014 A 
ATOM     32  C   UNL A   1      38.110  29.815  27.738  1.00  0.00     0.010 A 
ATOM     33  C   UNL A   1      37.551  29.249  30.019  1.00  0.00     0.010 A 
ATOM     34  C   UNL A   1      38.492  29.280  28.980  1.00  0.00    -0.014 A 
BRANCH  34  35
ATOM     35  C   UNL A   1      39.884  28.815  29.229  1.00  0.00     0.031 A 
ATOM     36  C   UNL A   1      40.907  29.719  29.861  1.00  0.00     0.074 A 
ATOM     37  C   UNL A   1      40.251  27.588  28.806  1.00  0.00     0.049 A 
ATOM     38  N   UNL A   1      42.170  29.482  30.118  1.00  0.00    -0.248 NA
ATOM     39  C   UNL A   1      40.466  31.074  30.227  1.00  0.00     0.031 C 
ATOM     40  C   UNL A   1      39.378  26.631  28.122  1.00  0.00     0.029 A 
ATOM     41  N   UNL A   1      41.457  26.936  28.886  1.00  0.00    -0.354 N 
ATOM     42  C   UNL A   1      42.674  30.655  30.666  1.00  0.00     0.074 A 
ATOM     43  C   UNL A   1      41.596  31.620  30.653  1.00  0.00     0.031 C 
ATOM     44  C   UNL A   1      40.066  25.505  27.876  1.00  0.00     0.029 A 
ATOM     45  C   UNL A   1      41.437  25.672  28.346  1.00  0.00     0.049 A 
ATOM     46  H   UNL A   1      42.261  27.337  29.290  1.00  0.00     0.167 HD
ATOM     47  C   UNL A   1      43.914  30.902  31.153  1.00  0.00     0.031 A 
ATOM     48  C   UNL A   1      42.410  24.747  28.239  1.00  0.00     0.031 A 
ATOM     49  C   UNL A   1      44.988  29.943  31.170  1.00  0.00     0.049 A 
ATOM     50  C   UNL A   1      43.779  25.048  28.780  1.00  0.00     0.074 A 
ATOM     51  C   UNL A   1      46.259  30.082  31.704  1.00  0.00     0.029 A 
ATOM     52  N   UNL A   1      44.922  28.671  30.625  1.00  0.00    -0.354 N 
ATOM     53  N   UNL A   1      44.212  26.132  29.374  1.00  0.00    -0.248 NA
ATOM     54  C   UNL A   1      44.790  23.989  28.648  1.00  0.00     0.031 C 
ATOM     55  C   UNL A   1      46.979  28.916  31.430  1.00  0.00     0.029 A 
ATOM     56  C   UNL A   1      46.138  28.024  30.785  1.00  0.00     0.049 A 
ATOM     57  H   UNL A   1      44.129  28.282  30.189  1.00  0.00     0.167 HD
ATOM     58  C   UNL A   1      45.532  25.875  29.717  1.00  0.00     0.074 A 
ATOM     59  C   UNL A   1      45.826  24.527  29.275  1.00  0.00     0.031 C 
ATOM     60  C   UNL A   1      46.421  26.683  30.345  1.00  0.00     0.031 A 
BRANCH  47  61
ATOM     61  C   UNL A   1      44.182  32.274  31.711  1.00  0.00    -0.014 A 
ATOM     62  C   UNL A   1      43.973  32.560  33.071  1.00  0.00     0.009 A 
ATOM     63  C   UNL A   1      44.702  33.280  30.881  1.00  0.00     0.009 A 
ATOM     64  C   UNL A   1      44.241  33.834  33.576  1.00  0.00     0.001 A 
ATOM     65  C   UNL A   1      44.999  34.544  31.396  1.00  0.00     0.001 A 
ATOM     66  C   UNL A   1      44.758  34.823  32.740  1.00  0.00     0.000 A 
ENDBRANCH  47  61
BRANCH  48  67
ATOM     67  C   UNL A   1      42.117  23.431  27.609  1.00  0.00    -0.014 A 
ATOM     68  C   UNL A   1      42.447  23.196  26.266  1.00  0.00     0.009 A 
ATOM     69  C   UNL A   1      41.505  22.406  28.347  1.00  0.00     0.009 A 
ATOM     70  C   UNL A   1      42.144  21.972  25.666  1.00  0.00     0.001 A 
ATOM     71  C   UNL A   1      41.232  21.172  27.753  1.00  0.00     0.001 A 
ATOM     72  C   UNL A   1      41.542  20.959  26.412  1.00  0.00     0.000 A 
ENDBRANCH  48  67
BRANCH  60  73
ATOM     73  C   UNL A   1      47.784  26.119  30.635  1.00  0.00    -0.014 A 
ATOM     74  C   UNL A   1      48.789  26.091  29.656  1.00  0.00     0.009 A 
ATOM     75  C   UNL A   1      48.078  25.649  31.924  1.00  0.00     0.009 A 
ATOM     76  C   UNL A   1      50.052  25.573  29.955  1.00  0.00     0.001 A 
ATOM     77  C   UNL A   1      49.349  25.160  32.229  1.00  0.00     0.001 A 
ATOM     78  C   UNL A   1      50.333  25.114  31.242  1.00  0.00     0.000 A 
ENDBRANCH  60  73
ENDBRANCH  34  35
ENDBRANCH  26  29
ENDBRANCH  24  25
ENDBRANCH  23  24
ENDBRANCH   1  23
TORSDOF 13
ENDMDL
MODEL 3
REMARK VINA RESULT:     -11.0      3.018      4.778
REMARK SMILES O=C(C[C@@H]1CN(C(=O)Nc2ccccc2)CCO1)NCCCNC(=O)c1ccc(-c2c3nc(c(-c4ccccc4)c4ccc([nH]4)c(-c4ccccc4)c4nc(c(-c5ccccc5)c5ccc2[nH]5)C=C4)C=C3)cc1
REMARK SMILES IDX 20 1 19 2 1 3 2 4 3 6 4 7 5 8 18 9 6 10 17 11 16 12 7 13
REMARK SMILES IDX 8 14 9 15 10 17 11 18 15 19 12 20 14 21 13 22 21 23 22 24
REMARK SMILES IDX 23 25 24 26 25 28 26 29 27 30 73 31 28 32 72 33 29 34 30 35
REMARK SMILES IDX 31 36 66 37 32 38 71 39 65 40 67 41 33 42 70 43 64 44 63 45
REMARK SMILES IDX 34 47 56 48 41 49 55 50 42 51 45 52 54 53 68 54 43 55 44 56
REMARK SMILES IDX 53 58 69 59 46 60 35 61 36 62 40 63 37 64 39 65 38 66 57 67
REMARK SMILES IDX 58 68 62 69 59 70 61 71 60 72 47 73 48 74 52 75 49 76 51 77
REMARK SMILES IDX 50 78
REMARK H PARENT 19 5 9 16 23 27 67 46 45 57
REMARK Flexibility Score: inf
ROOT
ATOM      1  C   UNL A   1      34.763  22.439  25.781  1.00  0.00     0.117 C 
ENDROOT
BRANCH   1   2
ATOM      2  N   UNL A   1      33.613  23.138  25.238  1.00  0.00    -0.356 N 
ATOM      3  O   UNL A   1      32.192  21.343  25.445  1.00  0.00    -0.275 OA
ATOM      4  C   UNL A   1      32.368  22.532  25.213  1.00  0.00     0.222 C 
ATOM      5  H   UNL A   1      33.719  24.050  24.884  1.00  0.00     0.163 HD
BRANCH   4   6
ATOM      6  C   UNL A   1      31.226  23.482  24.932  1.00  0.00     0.133 C 
BRANCH   6   7
ATOM      7  C   UNL A   1      31.606  24.623  23.985  1.00  0.00     0.147 C 
ATOM      8  C   UNL A   1      30.428  25.452  23.444  1.00  0.00     0.154 C 
ATOM      9  O   UNL A   1      32.377  24.142  22.862  1.00  0.00    -0.374 OA
ATOM     10  N   UNL A   1      30.957  26.621  22.743  1.00  0.00    -0.320 N 
ATOM     11  C   UNL A   1      32.918  25.252  22.108  1.00  0.00     0.182 C 
ATOM     12  C   UNL A   1      31.834  26.236  21.633  1.00  0.00     0.150 C 
BRANCH  10  13
ATOM     13  C   UNL A   1      30.522  27.919  22.855  1.00  0.00     0.322 C 
ATOM     14  O   UNL A   1      29.921  28.480  21.936  1.00  0.00    -0.248 OA
ATOM     15  N   UNL A   1      30.659  28.604  24.026  1.00  0.00    -0.308 N 
ATOM     16  H   UNL A   1      29.932  29.243  24.201  1.00  0.00     0.171 HD
BRANCH  15  17
ATOM     17  C   UNL A   1      31.641  28.570  25.031  1.00  0.00     0.042 A 
ATOM     18  C   UNL A   1      31.317  27.970  26.250  1.00  0.00     0.026 A 
ATOM     19  C   UNL A   1      32.914  29.119  24.866  1.00  0.00     0.026 A 
ATOM     20  C   UNL A   1      32.296  27.821  27.237  1.00  0.00     0.002 A 
ATOM     21  C   UNL A   1      33.903  28.928  25.833  1.00  0.00     0.002 A 
ATOM     22  C   UNL A   1      33.599  28.256  27.012  1.00  0.00     0.000 A 
ENDBRANCH  15  17
ENDBRANCH  10  13
ENDBRANCH   6   7
ENDBRANCH   4   6
ENDBRANCH   1   2
BRANCH   1  23
ATOM     23  C   UNL A   1      35.958  23.343  26.051  1.00  0.00     0.042 C 
BRANCH  23  24
ATOM     24  C   UNL A   1      37.109  23.210  25.057  1.00  0.00     0.118 C 
BRANCH  24  25
ATOM     25  N   UNL A   1      38.190  22.343  25.507  1.00  0.00    -0.352 N 
ATOM     26  C   UNL A   1      39.302  22.643  26.265  1.00  0.00     0.251 C 
ATOM     27  H   UNL A   1      38.114  21.402  25.229  1.00  0.00     0.163 HD
ATOM     28  O   UNL A   1      40.149  21.783  26.477  1.00  0.00    -0.269 OA
BRANCH  26  29
ATOM     29  C   UNL A   1      39.499  24.009  26.808  1.00  0.00     0.039 A 
ATOM     30  C   UNL A   1      39.055  24.304  28.098  1.00  0.00     0.014 A 
ATOM     31  C   UNL A   1      40.115  25.002  26.047  1.00  0.00     0.014 A 
ATOM     32  C   UNL A   1      39.314  25.564  28.652  1.00  0.00     0.010 A 
ATOM     33  C   UNL A   1      40.435  26.232  26.618  1.00  0.00     0.010 A 
ATOM     34  C   UNL A   1      40.051  26.523  27.935  1.00  0.00    -0.014 A 
BRANCH  34  35
ATOM     35  C   UNL A   1      40.486  27.797  28.568  1.00  0.00     0.031 A 
ATOM     36  C   UNL A   1      41.883  27.967  29.101  1.00  0.00     0.074 A 
ATOM     37  C   UNL A   1      39.585  28.787  28.738  1.00  0.00     0.049 A 
ATOM     38  N   UNL A   1      42.414  28.999  29.709  1.00  0.00    -0.248 NA
ATOM     39  C   UNL A   1      42.796  26.822  28.958  1.00  0.00     0.031 C 
ATOM     40  C   UNL A   1      38.180  28.732  28.327  1.00  0.00     0.029 A 
ATOM     41  N   UNL A   1      39.716  30.031  29.305  1.00  0.00    -0.354 N 
ATOM     42  C   UNL A   1      43.714  28.626  30.028  1.00  0.00     0.074 A 
ATOM     43  C   UNL A   1      43.875  27.255  29.595  1.00  0.00     0.031 C 
ATOM     44  C   UNL A   1      37.590  29.901  28.623  1.00  0.00     0.029 A 
ATOM     45  C   UNL A   1      38.558  30.772  29.280  1.00  0.00     0.049 A 
ATOM     46  H   UNL A   1      40.559  30.361  29.693  1.00  0.00     0.167 HD
ATOM     47  C   UNL A   1      44.692  29.363  30.609  1.00  0.00     0.031 A 
ATOM     48  C   UNL A   1      38.300  32.013  29.735  1.00  0.00     0.031 A 
ATOM     49  C   UNL A   1      44.537  30.729  31.037  1.00  0.00     0.049 A 
ATOM     50  C   UNL A   1      39.399  32.807  30.383  1.00  0.00     0.074 A 
ATOM     51  C   UNL A   1      45.491  31.577  31.576  1.00  0.00     0.029 A 
ATOM     52  N   UNL A   1      43.352  31.445  30.983  1.00  0.00    -0.354 N 
ATOM     53  N   UNL A   1      40.647  32.468  30.596  1.00  0.00    -0.248 NA
ATOM     54  C   UNL A   1      39.056  34.161  30.840  1.00  0.00     0.031 C 
ATOM     55  C   UNL A   1      44.869  32.786  31.900  1.00  0.00     0.029 A 
ATOM     56  C   UNL A   1      43.544  32.716  31.504  1.00  0.00     0.049 A 
ATOM     57  H   UNL A   1      42.500  31.104  30.627  1.00  0.00     0.167 HD
ATOM     58  C   UNL A   1      41.246  33.577  31.179  1.00  0.00     0.074 A 
ATOM     59  C   UNL A   1      40.228  34.602  31.275  1.00  0.00     0.031 C 
ATOM     60  C   UNL A   1      42.526  33.731  31.594  1.00  0.00     0.031 A 
BRANCH  47  61
ATOM     61  C   UNL A   1      46.028  28.703  30.820  1.00  0.00    -0.014 A 
ATOM     62  C   UNL A   1      47.032  28.762  29.839  1.00  0.00     0.009 A 
ATOM     63  C   UNL A   1      46.309  28.061  32.036  1.00  0.00     0.009 A 
ATOM     64  C   UNL A   1      48.272  28.157  30.056  1.00  0.00     0.001 A 
ATOM     65  C   UNL A   1      47.560  27.484  32.263  1.00  0.00     0.001 A 
ATOM     66  C   UNL A   1      48.537  27.524  31.270  1.00  0.00     0.000 A 
ENDBRANCH  47  61
BRANCH  48  67
ATOM     67  C   UNL A   1      36.941  32.595  29.572  1.00  0.00    -0.014 A 
ATOM     68  C   UNL A   1      36.609  33.313  28.414  1.00  0.00     0.009 A 
ATOM     69  C   UNL A   1      35.971  32.438  30.574  1.00  0.00     0.009 A 
ATOM     70  C   UNL A   1      35.343  33.887  28.275  1.00  0.00     0.001 A 
ATOM     71  C   UNL A   1      34.696  32.985  30.418  1.00  0.00     0.001 A 
ATOM     72  C   UNL A   1      34.386  33.718  29.274  1.00  0.00     0.000 A 
ENDBRANCH  48  67
BRANCH  60  73
ATOM     73  C   UNL A   1      42.917  35.072  32.151  1.00  0.00    -0.014 A 
ATOM     74  C   UNL A   1      43.500  36.060  31.343  1.00  0.00     0.009 A 
ATOM     75  C   UNL A   1      42.654  35.364  33.498  1.00  0.00     0.009 A 
ATOM     76  C   UNL A   1      43.842  37.303  31.883  1.00  0.00     0.001 A 
ATOM     77  C   UNL A   1      42.969  36.616  34.028  1.00  0.00     0.001 A 
ATOM     78  C   UNL A   1      43.571  37.581  33.223  1.00  0.00     0.000 A 
ENDBRANCH  60  73
ENDBRANCH  34  35
ENDBRANCH  26  29
ENDBRANCH  24  25
ENDBRANCH  23  24
ENDBRANCH   1  23
TORSDOF 13
ENDMDL
