MODEL 1
REMARK VINA RESULT:     -10.1      0.000      0.000
REMARK SMILES C[C@H](Sc1ccc(N)c(Cl)c1)C(=O)NCCCNC(=O)c1ccc(-c2c3nc(c(-c4ccccc4)c4ccc([nH]4)c(-c4ccccc4)c4nc(c(-c5ccccc5)c5ccc2[nH]5)C=C4)C=C3)cc1
REMARK SMILES IDX 15 1 14 2 12 3 13 4 2 6 1 7 3 8 4 9 5 10 11 11 6 12 9 13
REMARK SMILES IDX 7 14 10 15 8 16 16 19 17 20 18 21 19 22 20 24 21 25 22 26
REMARK SMILES IDX 68 27 23 28 67 29 24 30 25 31 26 32 61 33 27 34 66 35 60 36
REMARK SMILES IDX 62 37 28 38 65 39 59 40 58 41 29 43 51 44 36 45 50 46 37 47
REMARK SMILES IDX 40 48 49 49 63 50 38 51 39 52 48 54 64 55 41 56 30 57 31 58
REMARK SMILES IDX 35 59 32 60 34 61 33 62 52 63 53 64 57 65 54 66 56 67 55 68
REMARK SMILES IDX 42 69 43 70 47 71 44 72 46 73 45 74
REMARK H PARENT 14 5 8 17 8 18 18 23 62 42 40 53
REMARK Flexibility Score: inf
ROOT
ATOM      1  C   UNL A   1      36.415  19.902  25.004  1.00  0.00     0.117 C 
ENDROOT
BRANCH   1   2
ATOM      2  N   UNL A   1      35.997  21.044  25.788  1.00  0.00    -0.355 N 
ATOM      3  C   UNL A   1      35.559  22.272  25.399  1.00  0.00     0.233 C 
ATOM      4  O   UNL A   1      35.386  23.101  26.301  1.00  0.00    -0.274 OA
ATOM      5  H   UNL A   1      36.035  20.909  26.763  1.00  0.00     0.163 HD
BRANCH   3   6
ATOM      6  C   UNL A   1      35.204  22.616  23.951  1.00  0.00     0.137 C 
ATOM      7  C   UNL A   1      36.389  23.116  23.146  1.00  0.00     0.030 C 
BRANCH   6   8
ATOM      8  S   UNL A   1      33.527  23.365  23.778  1.00  0.00    -0.113 SA
BRANCH   8   9
ATOM      9  C   UNL A   1      33.603  25.134  23.572  1.00  0.00     0.010 A 
ATOM     10  C   UNL A   1      33.486  25.852  22.384  1.00  0.00     0.017 A 
ATOM     11  C   UNL A   1      33.724  25.873  24.761  1.00  0.00     0.037 A 
ATOM     12  C   UNL A   1      33.551  27.255  22.366  1.00  0.00     0.028 A 
ATOM     13  C   UNL A   1      33.759  27.273  24.749  1.00  0.00     0.065 A 
ATOM     14  C   UNL A   1      33.660  27.988  23.547  1.00  0.00     0.050 A 
ATOM     15  Cl  UNL A   1      33.902  28.106  26.260  1.00  0.00    -0.082 Cl
BRANCH  14  16
ATOM     16  N   UNL A   1      33.776  29.371  23.488  1.00  0.00    -0.398 N 
ATOM     17  H   UNL A   1      33.089  29.903  23.025  1.00  0.00     0.156 HD
ATOM     18  H   UNL A   1      34.545  29.820  23.909  1.00  0.00     0.156 HD
ENDBRANCH  14  16
ENDBRANCH   8   9
ENDBRANCH   6   8
ENDBRANCH   3   6
ENDBRANCH   1   2
BRANCH   1  19
ATOM     19  C   UNL A   1      37.878  20.007  24.596  1.00  0.00     0.042 C 
BRANCH  19  20
ATOM     20  C   UNL A   1      38.807  20.298  25.770  1.00  0.00     0.118 C 
BRANCH  20  21
ATOM     21  N   UNL A   1      39.876  19.312  25.888  1.00  0.00    -0.352 N 
ATOM     22  C   UNL A   1      41.207  19.495  26.170  1.00  0.00     0.251 C 
ATOM     23  H   UNL A   1      39.602  18.377  25.746  1.00  0.00     0.163 HD
ATOM     24  O   UNL A   1      42.000  18.568  26.035  1.00  0.00    -0.269 OA
BRANCH  22  25
ATOM     25  C   UNL A   1      41.687  20.817  26.621  1.00  0.00     0.039 A 
ATOM     26  C   UNL A   1      42.232  21.701  25.686  1.00  0.00     0.014 A 
ATOM     27  C   UNL A   1      41.589  21.184  27.965  1.00  0.00     0.014 A 
ATOM     28  C   UNL A   1      42.608  22.986  26.087  1.00  0.00     0.010 A 
ATOM     29  C   UNL A   1      41.889  22.486  28.347  1.00  0.00     0.010 A 
ATOM     30  C   UNL A   1      42.398  23.401  27.411  1.00  0.00    -0.014 A 
BRANCH  30  31
ATOM     31  C   UNL A   1      42.694  24.785  27.856  1.00  0.00     0.031 A 
ATOM     32  C   UNL A   1      44.091  25.156  28.269  1.00  0.00     0.074 A 
ATOM     33  C   UNL A   1      41.689  25.673  27.992  1.00  0.00     0.049 A 
ATOM     34  N   UNL A   1      44.523  26.257  28.830  1.00  0.00    -0.248 NA
ATOM     35  C   UNL A   1      45.135  24.142  28.049  1.00  0.00     0.031 C 
ATOM     36  C   UNL A   1      40.286  25.429  27.652  1.00  0.00     0.029 A 
ATOM     37  N   UNL A   1      41.695  26.959  28.474  1.00  0.00    -0.354 N 
ATOM     38  C   UNL A   1      45.878  26.056  29.055  1.00  0.00     0.074 A 
ATOM     39  C   UNL A   1      46.189  24.715  28.610  1.00  0.00     0.031 C 
ATOM     40  C   UNL A   1      39.570  26.532  27.923  1.00  0.00     0.029 A 
ATOM     41  C   UNL A   1      40.450  27.541  28.502  1.00  0.00     0.049 A 
ATOM     42  H   UNL A   1      42.512  27.419  28.771  1.00  0.00     0.167 HD
ATOM     43  C   UNL A   1      46.787  26.916  29.572  1.00  0.00     0.031 A 
ATOM     44  C   UNL A   1      40.057  28.743  28.963  1.00  0.00     0.031 A 
ATOM     45  C   UNL A   1      46.477  28.253  30.003  1.00  0.00     0.049 A 
ATOM     46  C   UNL A   1      41.081  29.671  29.558  1.00  0.00     0.074 A 
ATOM     47  C   UNL A   1      47.336  29.221  30.494  1.00  0.00     0.029 A 
ATOM     48  N   UNL A   1      45.208  28.810  29.996  1.00  0.00    -0.354 N 
ATOM     49  N   UNL A   1      42.369  29.488  29.715  1.00  0.00    -0.248 NA
ATOM     50  C   UNL A   1      40.596  30.976  30.033  1.00  0.00     0.031 C 
ATOM     51  C   UNL A   1      46.578  30.345  30.832  1.00  0.00     0.029 A 
ATOM     52  C   UNL A   1      45.257  30.100  30.492  1.00  0.00     0.049 A 
ATOM     53  H   UNL A   1      44.392  28.354  29.684  1.00  0.00     0.167 HD
ATOM     54  C   UNL A   1      42.854  30.666  30.269  1.00  0.00     0.074 A 
ATOM     55  C   UNL A   1      41.723  31.558  30.416  1.00  0.00     0.031 C 
ATOM     56  C   UNL A   1      44.125  30.981  30.617  1.00  0.00     0.031 A 
BRANCH  43  57
ATOM     57  C   UNL A   1      48.203  26.431  29.712  1.00  0.00    -0.014 A 
ATOM     58  C   UNL A   1      49.139  26.605  28.681  1.00  0.00     0.009 A 
ATOM     59  C   UNL A   1      48.617  25.820  30.906  1.00  0.00     0.009 A 
ATOM     60  C   UNL A   1      50.449  26.143  28.828  1.00  0.00     0.001 A 
ATOM     61  C   UNL A   1      49.934  25.388  31.064  1.00  0.00     0.001 A 
ATOM     62  C   UNL A   1      50.847  25.540  30.020  1.00  0.00     0.000 A 
ENDBRANCH  43  57
BRANCH  44  63
ATOM     63  C   UNL A   1      38.629  29.145  28.875  1.00  0.00    -0.014 A 
ATOM     64  C   UNL A   1      37.776  28.978  29.978  1.00  0.00     0.009 A 
ATOM     65  C   UNL A   1      38.107  29.691  27.692  1.00  0.00     0.009 A 
ATOM     66  C   UNL A   1      36.426  29.325  29.888  1.00  0.00     0.001 A 
ATOM     67  C   UNL A   1      36.763  30.064  27.615  1.00  0.00     0.001 A 
ATOM     68  C   UNL A   1      35.922  29.871  28.708  1.00  0.00     0.000 A 
ENDBRANCH  44  63
BRANCH  56  69
ATOM     69  C   UNL A   1      44.380  32.368  31.137  1.00  0.00    -0.014 A 
ATOM     70  C   UNL A   1      44.295  32.668  32.504  1.00  0.00     0.009 A 
ATOM     71  C   UNL A   1      44.780  33.373  30.241  1.00  0.00     0.009 A 
ATOM     72  C   UNL A   1      44.584  33.956  32.961  1.00  0.00     0.001 A 
ATOM     73  C   UNL A   1      45.098  34.651  30.704  1.00  0.00     0.001 A 
ATOM     74  C   UNL A   1      44.993  34.942  32.064  1.00  0.00     0.000 A 
ENDBRANCH  56  69
ENDBRANCH  30  31
ENDBRANCH  22  25
ENDBRANCH  20  21
ENDBRANCH  19  20
ENDBRANCH   1  19
TORSDOF 13
ENDMDL
MODEL 2
REMARK VINA RESULT:     -10.1      1.972      2.978
REMARK SMILES C[C@H](Sc1ccc(N)c(Cl)c1)C(=O)NCCCNC(=O)c1ccc(-c2c3nc(c(-c4ccccc4)c4ccc([nH]4)c(-c4ccccc4)c4nc(c(-c5ccccc5)c5ccc2[nH]5)C=C4)C=C3)cc1
REMARK SMILES IDX 15 1 14 2 12 3 13 4 2 6 1 7 3 8 4 9 5 10 11 11 6 12 9 13
REMARK SMILES IDX 7 14 10 15 8 16 16 19 17 20 18 21 19 22 20 24 21 25 22 26
REMARK SMILES IDX 68 27 23 28 67 29 24 30 25 31 26 32 61 33 27 34 66 35 60 36
REMARK SMILES IDX 62 37 28 38 65 39 59 40 58 41 29 43 51 44 36 45 50 46 37 47
REMARK SMILES IDX 40 48 49 49 63 50 38 51 39 52 48 54 64 55 41 56 30 57 31 58
REMARK SMILES IDX 35 59 32 60 34 61 33 62 52 63 53 64 57 65 54 66 56 67 55 68
REMARK SMILES IDX 42 69 43 70 47 71 44 72 46 73 45 74
REMARK H PARENT 14 5 8 17 8 18 18 23 62 42 40 53
REMARK Flexibility Score: inf
ROOT
ATOM      1  C   UNL A   1      36.543  20.697  25.020  1.00  0.00     0.117 C 
ENDROOT
BRANCH   1   2
ATOM      2  N   UNL A   1      36.805  21.878  25.813  1.00  0.00    -0.355 N 
ATOM      3  C   UNL A   1      36.182  23.086  25.834  1.00  0.00     0.233 C 
ATOM      4  O   UNL A   1      36.706  23.959  26.536  1.00  0.00    -0.274 OA
ATOM      5  H   UNL A   1      37.558  21.791  26.442  1.00  0.00     0.163 HD
BRANCH   3   6
ATOM      6  C   UNL A   1      34.858  23.360  25.116  1.00  0.00     0.137 C 
ATOM      7  C   UNL A   1      34.697  24.807  24.687  1.00  0.00     0.030 C 
BRANCH   6   8
ATOM      8  S   UNL A   1      33.449  22.389  25.806  1.00  0.00    -0.113 SA
BRANCH   8   9
ATOM      9  C   UNL A   1      32.927  21.091  24.701  1.00  0.00     0.010 A 
ATOM     10  C   UNL A   1      32.548  21.220  23.366  1.00  0.00     0.017 A 
ATOM     11  C   UNL A   1      32.976  19.792  25.232  1.00  0.00     0.037 A 
ATOM     12  C   UNL A   1      32.169  20.106  22.601  1.00  0.00     0.028 A 
ATOM     13  C   UNL A   1      32.628  18.675  24.462  1.00  0.00     0.065 A 
ATOM     14  C   UNL A   1      32.229  18.815  23.125  1.00  0.00     0.050 A 
ATOM     15  Cl  UNL A   1      32.725  17.108  25.193  1.00  0.00    -0.082 Cl
BRANCH  14  16
ATOM     16  N   UNL A   1      31.796  17.742  22.358  1.00  0.00    -0.398 N 
ATOM     17  H   UNL A   1      31.124  17.119  22.718  1.00  0.00     0.156 HD
ATOM     18  H   UNL A   1      32.160  17.603  21.453  1.00  0.00     0.156 HD
ENDBRANCH  14  16
ENDBRANCH   8   9
ENDBRANCH   6   8
ENDBRANCH   3   6
ENDBRANCH   1   2
BRANCH   1  19
ATOM     19  C   UNL A   1      37.752  19.771  24.977  1.00  0.00     0.042 C 
BRANCH  19  20
ATOM     20  C   UNL A   1      38.956  20.324  25.729  1.00  0.00     0.118 C 
BRANCH  20  21
ATOM     21  N   UNL A   1      40.030  19.345  25.854  1.00  0.00    -0.352 N 
ATOM     22  C   UNL A   1      41.359  19.536  26.144  1.00  0.00     0.251 C 
ATOM     23  H   UNL A   1      39.763  18.409  25.710  1.00  0.00     0.163 HD
ATOM     24  O   UNL A   1      42.158  18.614  26.013  1.00  0.00    -0.269 OA
BRANCH  22  25
ATOM     25  C   UNL A   1      41.828  20.861  26.598  1.00  0.00     0.039 A 
ATOM     26  C   UNL A   1      42.321  21.770  25.658  1.00  0.00     0.014 A 
ATOM     27  C   UNL A   1      41.771  21.205  27.951  1.00  0.00     0.014 A 
ATOM     28  C   UNL A   1      42.686  23.056  26.066  1.00  0.00     0.010 A 
ATOM     29  C   UNL A   1      42.058  22.507  28.342  1.00  0.00     0.010 A 
ATOM     30  C   UNL A   1      42.515  23.446  27.403  1.00  0.00    -0.014 A 
BRANCH  30  31
ATOM     31  C   UNL A   1      42.798  24.830  27.859  1.00  0.00     0.031 A 
ATOM     32  C   UNL A   1      44.192  25.210  28.275  1.00  0.00     0.074 A 
ATOM     33  C   UNL A   1      41.786  25.708  28.001  1.00  0.00     0.049 A 
ATOM     34  N   UNL A   1      44.614  26.309  28.845  1.00  0.00    -0.248 NA
ATOM     35  C   UNL A   1      45.245  24.206  28.048  1.00  0.00     0.031 C 
ATOM     36  C   UNL A   1      40.386  25.454  27.658  1.00  0.00     0.029 A 
ATOM     37  N   UNL A   1      41.781  26.990  28.493  1.00  0.00    -0.354 N 
ATOM     38  C   UNL A   1      45.972  26.119  29.069  1.00  0.00     0.074 A 
ATOM     39  C   UNL A   1      46.294  24.784  28.614  1.00  0.00     0.031 C 
ATOM     40  C   UNL A   1      39.659  26.549  27.937  1.00  0.00     0.029 A 
ATOM     41  C   UNL A   1      40.531  27.561  28.525  1.00  0.00     0.049 A 
ATOM     42  H   UNL A   1      42.594  27.455  28.794  1.00  0.00     0.167 HD
ATOM     43  C   UNL A   1      46.873  26.983  29.594  1.00  0.00     0.031 A 
ATOM     44  C   UNL A   1      40.128  28.757  28.994  1.00  0.00     0.031 A 
ATOM     45  C   UNL A   1      46.551  28.313  30.035  1.00  0.00     0.049 A 
ATOM     46  C   UNL A   1      41.143  29.689  29.597  1.00  0.00     0.074 A 
ATOM     47  C   UNL A   1      47.401  29.284  30.534  1.00  0.00     0.029 A 
ATOM     48  N   UNL A   1      45.277  28.859  30.031  1.00  0.00    -0.354 N 
ATOM     49  N   UNL A   1      42.433  29.515  29.754  1.00  0.00    -0.248 NA
ATOM     50  C   UNL A   1      40.647  30.985  30.082  1.00  0.00     0.031 C 
ATOM     51  C   UNL A   1      46.634  30.400  30.880  1.00  0.00     0.029 A 
ATOM     52  C   UNL A   1      45.315  30.146  30.538  1.00  0.00     0.049 A 
ATOM     53  H   UNL A   1      44.466  28.399  29.715  1.00  0.00     0.167 HD
ATOM     54  C   UNL A   1      42.907  30.693  30.317  1.00  0.00     0.074 A 
ATOM     55  C   UNL A   1      41.768  31.574  30.471  1.00  0.00     0.031 C 
ATOM     56  C   UNL A   1      44.175  31.016  30.669  1.00  0.00     0.031 A 
BRANCH  43  57
ATOM     57  C   UNL A   1      48.293  26.508  29.731  1.00  0.00    -0.014 A 
ATOM     58  C   UNL A   1      48.712  25.777  30.854  1.00  0.00     0.009 A 
ATOM     59  C   UNL A   1      49.217  26.766  28.707  1.00  0.00     0.009 A 
ATOM     60  C   UNL A   1      50.037  25.348  30.965  1.00  0.00     0.001 A 
ATOM     61  C   UNL A   1      50.531  26.308  28.804  1.00  0.00     0.001 A 
ATOM     62  C   UNL A   1      50.943  25.609  29.939  1.00  0.00     0.000 A 
ENDBRANCH  43  57
BRANCH  44  63
ATOM     63  C   UNL A   1      38.696  29.147  28.909  1.00  0.00    -0.014 A 
ATOM     64  C   UNL A   1      37.849  28.985  30.017  1.00  0.00     0.009 A 
ATOM     65  C   UNL A   1      38.165  29.677  27.723  1.00  0.00     0.009 A 
ATOM     66  C   UNL A   1      36.496  29.320  29.929  1.00  0.00     0.001 A 
ATOM     67  C   UNL A   1      36.818  30.040  27.649  1.00  0.00     0.001 A 
ATOM     68  C   UNL A   1      35.983  29.851  28.747  1.00  0.00     0.000 A 
ENDBRANCH  44  63
BRANCH  56  69
ATOM     69  C   UNL A   1      44.418  32.401  31.199  1.00  0.00    -0.014 A 
ATOM     70  C   UNL A   1      44.381  32.680  32.573  1.00  0.00     0.009 A 
ATOM     71  C   UNL A   1      44.758  33.429  30.304  1.00  0.00     0.009 A 
ATOM     72  C   UNL A   1      44.658  33.967  33.038  1.00  0.00     0.001 A 
ATOM     73  C   UNL A   1      45.064  34.707  30.774  1.00  0.00     0.001 A 
ATOM     74  C   UNL A   1      45.007  34.976  32.140  1.00  0.00     0.000 A 
ENDBRANCH  56  69
ENDBRANCH  30  31
ENDBRANCH  22  25
ENDBRANCH  20  21
ENDBRANCH  19  20
ENDBRANCH   1  19
TORSDOF 13
ENDMDL
MODEL 3
REMARK VINA RESULT:     -10.1      2.119      7.031
REMARK SMILES C[C@H](Sc1ccc(N)c(Cl)c1)C(=O)NCCCNC(=O)c1ccc(-c2c3nc(c(-c4ccccc4)c4ccc([nH]4)c(-c4ccccc4)c4nc(c(-c5ccccc5)c5ccc2[nH]5)C=C4)C=C3)cc1
REMARK SMILES IDX 15 1 14 2 12 3 13 4 2 6 1 7 3 8 4 9 5 10 11 11 6 12 9 13
REMARK SMILES IDX 7 14 10 15 8 16 16 19 17 20 18 21 19 22 20 24 21 25 22 26
REMARK SMILES IDX 68 27 23 28 67 29 24 30 25 31 26 32 61 33 27 34 66 35 60 36
REMARK SMILES IDX 62 37 28 38 65 39 59 40 58 41 29 43 51 44 36 45 50 46 37 47
REMARK SMILES IDX 40 48 49 49 63 50 38 51 39 52 48 54 64 55 41 56 30 57 31 58
REMARK SMILES IDX 35 59 32 60 34 61 33 62 52 63 53 64 57 65 54 66 56 67 55 68
REMARK SMILES IDX 42 69 43 70 47 71 44 72 46 73 45 74
REMARK H PARENT 14 5 8 17 8 18 18 23 62 42 40 53
REMARK Flexibility Score: inf
ROOT
ATOM      1  C   UNL A   1      36.768  21.301  24.769  1.00  0.00     0.117 C 
ENDROOT
BRANCH   1   2
ATOM      2  N   UNL A   1      36.087  21.710  25.979  1.00  0.00    -0.355 N 
ATOM      3  C   UNL A   1      35.097  22.622  26.172  1.00  0.00     0.233 C 
ATOM      4  O   UNL A   1      34.790  22.854  27.348  1.00  0.00    -0.274 OA
ATOM      5  H   UNL A   1      36.390  21.250  26.796  1.00  0.00     0.163 HD
BRANCH   3   6
ATOM      6  C   UNL A   1      34.324  23.277  25.025  1.00  0.00     0.137 C 
ATOM      7  C   UNL A   1      34.582  24.767  24.903  1.00  0.00     0.030 C 
BRANCH   6   8
ATOM      8  S   UNL A   1      32.641  22.560  24.789  1.00  0.00    -0.113 SA
BRANCH   8   9
ATOM      9  C   UNL A   1      32.671  20.778  24.756  1.00  0.00     0.010 A 
ATOM     10  C   UNL A   1      32.811  19.915  25.842  1.00  0.00     0.017 A 
ATOM     11  C   UNL A   1      32.459  20.196  23.496  1.00  0.00     0.037 A 
ATOM     12  C   UNL A   1      32.804  18.522  25.676  1.00  0.00     0.028 A 
ATOM     13  C   UNL A   1      32.422  18.805  23.332  1.00  0.00     0.065 A 
ATOM     14  C   UNL A   1      32.582  17.944  24.426  1.00  0.00     0.050 A 
ATOM     15  Cl  UNL A   1      32.147  18.170  21.744  1.00  0.00    -0.082 Cl
BRANCH  14  16
ATOM     16  N   UNL A   1      32.636  16.563  24.289  1.00  0.00    -0.398 N 
ATOM     17  H   UNL A   1      33.492  16.090  24.404  1.00  0.00     0.156 HD
ATOM     18  H   UNL A   1      31.818  16.056  24.078  1.00  0.00     0.156 HD
ENDBRANCH  14  16
ENDBRANCH   8   9
ENDBRANCH   6   8
ENDBRANCH   3   6
ENDBRANCH   1   2
BRANCH   1  19
ATOM     19  C   UNL A   1      37.715  20.136  25.026  1.00  0.00     0.042 C 
BRANCH  19  20
ATOM     20  C   UNL A   1      38.955  20.536  25.816  1.00  0.00     0.118 C 
BRANCH  20  21
ATOM     21  N   UNL A   1      39.948  19.469  25.868  1.00  0.00    -0.352 N 
ATOM     22  C   UNL A   1      41.296  19.540  26.118  1.00  0.00     0.251 C 
ATOM     23  H   UNL A   1      39.600  18.563  25.699  1.00  0.00     0.163 HD
ATOM     24  O   UNL A   1      42.012  18.562  25.926  1.00  0.00    -0.269 OA
BRANCH  22  25
ATOM     25  C   UNL A   1      41.887  20.803  26.603  1.00  0.00     0.039 A 
ATOM     26  C   UNL A   1      42.391  21.722  25.678  1.00  0.00     0.014 A 
ATOM     27  C   UNL A   1      41.935  21.081  27.972  1.00  0.00     0.014 A 
ATOM     28  C   UNL A   1      42.872  22.956  26.123  1.00  0.00     0.010 A 
ATOM     29  C   UNL A   1      42.339  22.338  28.405  1.00  0.00     0.010 A 
ATOM     30  C   UNL A   1      42.809  23.289  27.484  1.00  0.00    -0.014 A 
BRANCH  30  31
ATOM     31  C   UNL A   1      43.219  24.624  27.986  1.00  0.00     0.031 A 
ATOM     32  C   UNL A   1      42.174  25.659  28.297  1.00  0.00     0.074 A 
ATOM     33  C   UNL A   1      44.527  24.939  28.058  1.00  0.00     0.049 A 
ATOM     34  N   UNL A   1      42.327  26.925  28.595  1.00  0.00    -0.248 NA
ATOM     35  C   UNL A   1      40.770  25.221  28.233  1.00  0.00     0.031 C 
ATOM     36  C   UNL A   1      45.638  24.033  27.759  1.00  0.00     0.029 A 
ATOM     37  N   UNL A   1      45.143  26.121  28.388  1.00  0.00    -0.354 N 
ATOM     38  C   UNL A   1      41.043  27.437  28.726  1.00  0.00     0.074 A 
ATOM     39  C   UNL A   1      40.123  26.359  28.433  1.00  0.00     0.031 C 
ATOM     40  C   UNL A   1      46.798  24.688  27.932  1.00  0.00     0.029 A 
ATOM     41  C   UNL A   1      46.513  26.070  28.303  1.00  0.00     0.049 A 
ATOM     42  H   UNL A   1      44.649  26.928  28.660  1.00  0.00     0.167 HD
ATOM     43  C   UNL A   1      40.661  28.689  29.073  1.00  0.00     0.031 A 
ATOM     44  C   UNL A   1      47.437  27.033  28.483  1.00  0.00     0.031 A 
ATOM     45  C   UNL A   1      41.578  29.756  29.374  1.00  0.00     0.049 A 
ATOM     46  C   UNL A   1      46.988  28.423  28.841  1.00  0.00     0.074 A 
ATOM     47  C   UNL A   1      41.293  31.046  29.784  1.00  0.00     0.029 A 
ATOM     48  N   UNL A   1      42.958  29.656  29.295  1.00  0.00    -0.354 N 
ATOM     49  N   UNL A   1      45.772  28.879  29.014  1.00  0.00    -0.248 NA
ATOM     50  C   UNL A   1      48.042  29.430  29.037  1.00  0.00     0.031 C 
ATOM     51  C   UNL A   1      42.499  31.742  29.904  1.00  0.00     0.029 A 
ATOM     52  C   UNL A   1      43.538  30.866  29.629  1.00  0.00     0.049 A 
ATOM     53  H   UNL A   1      43.453  28.843  29.038  1.00  0.00     0.167 HD
ATOM     54  C   UNL A   1      45.915  30.212  29.376  1.00  0.00     0.074 A 
ATOM     55  C   UNL A   1      47.336  30.490  29.402  1.00  0.00     0.031 C 
ATOM     56  C   UNL A   1      44.954  31.122  29.667  1.00  0.00     0.031 A 
BRANCH  43  57
ATOM     57  C   UNL A   1      39.187  28.976  29.132  1.00  0.00    -0.014 A 
ATOM     58  C   UNL A   1      38.455  28.791  30.316  1.00  0.00     0.009 A 
ATOM     59  C   UNL A   1      38.525  29.470  27.997  1.00  0.00     0.009 A 
ATOM     60  C   UNL A   1      37.085  29.059  30.350  1.00  0.00     0.001 A 
ATOM     61  C   UNL A   1      37.163  29.767  28.042  1.00  0.00     0.001 A 
ATOM     62  C   UNL A   1      36.441  29.551  29.216  1.00  0.00     0.000 A 
ENDBRANCH  43  57
BRANCH  44  63
ATOM     63  C   UNL A   1      48.882  26.716  28.332  1.00  0.00    -0.014 A 
ATOM     64  C   UNL A   1      49.512  26.854  27.085  1.00  0.00     0.009 A 
ATOM     65  C   UNL A   1      49.638  26.272  29.428  1.00  0.00     0.009 A 
ATOM     66  C   UNL A   1      50.862  26.527  26.935  1.00  0.00     0.001 A 
ATOM     67  C   UNL A   1      50.995  25.975  29.280  1.00  0.00     0.001 A 
ATOM     68  C   UNL A   1      51.603  26.092  28.033  1.00  0.00     0.000 A 
ENDBRANCH  44  63
BRANCH  56  69
ATOM     69  C   UNL A   1      45.401  32.490  30.100  1.00  0.00    -0.014 A 
ATOM     70  C   UNL A   1      45.555  33.538  29.181  1.00  0.00     0.009 A 
ATOM     71  C   UNL A   1      45.602  32.746  31.466  1.00  0.00     0.009 A 
ATOM     72  C   UNL A   1      45.925  34.812  29.621  1.00  0.00     0.001 A 
ATOM     73  C   UNL A   1      45.942  34.025  31.906  1.00  0.00     0.001 A 
ATOM     74  C   UNL A   1      46.110  35.056  30.981  1.00  0.00     0.000 A 
ENDBRANCH  56  69
ENDBRANCH  30  31
ENDBRANCH  22  25
ENDBRANCH  20  21
ENDBRANCH  19  20
ENDBRANCH   1  19
TORSDOF 13
ENDMDL
