MODEL 1
REMARK VINA RESULT:     -11.4      0.000      0.000
REMARK SMILES Cc1cc(C)n([C@H](C)[C@H](C)C(=O)NCCCNC(=O)c2ccc(-c3c4nc(c(-c5ccccc5)c5ccc([nH]5)c(-c5ccccc5)c5nc(c(-c6ccccc6)c6ccc3[nH]6)C=C5)C=C4)cc2)n1
REMARK SMILES IDX 15 1 14 2 13 3 11 4 12 5 9 7 10 8 7 9 8 10 6 11 1 12 2 13
REMARK SMILES IDX 3 14 68 15 4 16 5 17 16 18 17 19 18 20 19 22 20 23 21 24
REMARK SMILES IDX 67 25 22 26 66 27 23 28 24 29 25 30 60 31 26 32 65 33 59 34
REMARK SMILES IDX 61 35 27 36 64 37 58 38 57 39 28 41 50 42 35 43 49 44 36 45
REMARK SMILES IDX 39 46 48 47 62 48 37 49 38 50 47 52 63 53 40 54 29 55 30 56
REMARK SMILES IDX 34 57 31 58 33 59 32 60 51 61 52 62 56 63 53 64 55 65 54 66
REMARK SMILES IDX 41 67 42 68 46 69 43 70 45 71 44 72
REMARK H PARENT 13 6 17 21 61 40 39 51
REMARK Flexibility Score: inf
ROOT
ATOM      1  C   UNL A   1      38.100  21.321  25.182  1.00  0.00     0.042 C 
ENDROOT
BRANCH   1   2
ATOM      2  C   UNL A   1      36.629  21.587  25.477  1.00  0.00     0.117 C 
BRANCH   2   3
ATOM      3  N   UNL A   1      35.775  20.430  25.258  1.00  0.00    -0.356 N 
ATOM      4  C   UNL A   1      34.451  20.353  24.956  1.00  0.00     0.224 C 
ATOM      5  O   UNL A   1      33.986  19.236  24.713  1.00  0.00    -0.275 OA
ATOM      6  H   UNL A   1      36.228  19.561  25.344  1.00  0.00     0.163 HD
BRANCH   4   7
ATOM      7  C   UNL A   1      33.560  21.581  24.915  1.00  0.00     0.100 C 
ATOM      8  C   UNL A   1      32.549  21.468  23.766  1.00  0.00     0.020 C 
BRANCH   7   9
ATOM      9  C   UNL A   1      32.914  21.964  26.270  1.00  0.00     0.116 C 
ATOM     10  C   UNL A   1      33.675  21.586  27.550  1.00  0.00     0.034 C 
BRANCH   9  11
ATOM     11  N   UNL A   1      32.577  23.396  26.287  1.00  0.00    -0.266 N 
ATOM     12  C   UNL A   1      33.729  26.695  25.729  1.00  0.00     0.069 C 
ATOM     13  C   UNL A   1      32.954  25.465  26.011  1.00  0.00     0.060 A 
ATOM     14  C   UNL A   1      31.577  25.345  26.285  1.00  0.00     0.048 A 
ATOM     15  N   UNL A   1      33.564  24.276  26.024  1.00  0.00    -0.178 NA
ATOM     16  C   UNL A   1      31.357  23.999  26.489  1.00  0.00     0.036 A 
ATOM     17  C   UNL A   1      30.099  23.286  26.826  1.00  0.00     0.066 C 
ENDBRANCH   9  11
ENDBRANCH   7   9
ENDBRANCH   4   7
ENDBRANCH   2   3
ENDBRANCH   1   2
BRANCH   1  18
ATOM     18  C   UNL A   1      39.016  22.033  26.160  1.00  0.00     0.118 C 
BRANCH  18  19
ATOM     19  N   UNL A   1      40.437  21.799  25.886  1.00  0.00    -0.352 N 
ATOM     20  C   UNL A   1      41.496  22.670  26.087  1.00  0.00     0.251 C 
ATOM     21  H   UNL A   1      40.667  20.917  25.514  1.00  0.00     0.163 HD
ATOM     22  O   UNL A   1      42.568  22.508  25.542  1.00  0.00    -0.269 OA
BRANCH  20  23
ATOM     23  C   UNL A   1      41.268  23.816  26.985  1.00  0.00     0.039 A 
ATOM     24  C   UNL A   1      42.160  24.115  28.015  1.00  0.00     0.014 A 
ATOM     25  C   UNL A   1      40.198  24.654  26.689  1.00  0.00     0.014 A 
ATOM     26  C   UNL A   1      42.022  25.332  28.676  1.00  0.00     0.010 A 
ATOM     27  C   UNL A   1      40.178  25.920  27.213  1.00  0.00     0.010 A 
ATOM     28  C   UNL A   1      41.051  26.251  28.243  1.00  0.00    -0.014 A 
BRANCH  28  29
ATOM     29  C   UNL A   1      41.009  27.602  28.792  1.00  0.00     0.031 A 
ATOM     30  C   UNL A   1      41.933  28.576  28.152  1.00  0.00     0.074 A 
ATOM     31  C   UNL A   1      40.100  28.019  29.699  1.00  0.00     0.049 A 
ATOM     32  N   UNL A   1      43.006  29.074  28.670  1.00  0.00    -0.248 NA
ATOM     33  C   UNL A   1      41.720  28.949  26.746  1.00  0.00     0.031 C 
ATOM     34  C   UNL A   1      38.936  27.304  30.234  1.00  0.00     0.029 A 
ATOM     35  N   UNL A   1      39.973  29.251  30.260  1.00  0.00    -0.354 N 
ATOM     36  C   UNL A   1      43.503  29.979  27.740  1.00  0.00     0.074 A 
ATOM     37  C   UNL A   1      42.772  29.741  26.519  1.00  0.00     0.031 C 
ATOM     38  C   UNL A   1      38.097  28.182  30.827  1.00  0.00     0.029 A 
ATOM     39  C   UNL A   1      38.754  29.475  30.884  1.00  0.00     0.049 A 
ATOM     40  H   UNL A   1      40.686  29.928  30.226  1.00  0.00     0.167 HD
ATOM     41  C   UNL A   1      44.304  31.013  28.128  1.00  0.00     0.031 A 
ATOM     42  C   UNL A   1      38.309  30.645  31.398  1.00  0.00     0.031 A 
ATOM     43  C   UNL A   1      44.793  30.829  29.473  1.00  0.00     0.049 A 
ATOM     44  C   UNL A   1      39.496  31.489  31.663  1.00  0.00     0.074 A 
ATOM     45  C   UNL A   1      45.520  29.849  30.121  1.00  0.00     0.029 A 
ATOM     46  N   UNL A   1      44.179  31.555  30.468  1.00  0.00    -0.354 N 
ATOM     47  N   UNL A   1      40.374  31.209  32.583  1.00  0.00    -0.248 NA
ATOM     48  C   UNL A   1      39.954  32.387  30.616  1.00  0.00     0.031 C 
ATOM     49  C   UNL A   1      44.901  29.723  31.402  1.00  0.00     0.029 A 
ATOM     50  C   UNL A   1      43.895  30.686  31.489  1.00  0.00     0.049 A 
ATOM     51  H   UNL A   1      43.983  32.520  30.450  1.00  0.00     0.167 HD
ATOM     52  C   UNL A   1      41.597  31.493  31.993  1.00  0.00     0.074 A 
ATOM     53  C   UNL A   1      41.270  32.322  30.832  1.00  0.00     0.031 C 
ATOM     54  C   UNL A   1      42.721  30.791  32.329  1.00  0.00     0.031 A 
BRANCH  41  55
ATOM     55  C   UNL A   1      44.295  32.372  27.473  1.00  0.00    -0.014 A 
ATOM     56  C   UNL A   1      43.720  33.450  28.171  1.00  0.00     0.009 A 
ATOM     57  C   UNL A   1      44.549  32.570  26.103  1.00  0.00     0.009 A 
ATOM     58  C   UNL A   1      43.334  34.623  27.512  1.00  0.00     0.001 A 
ATOM     59  C   UNL A   1      44.202  33.756  25.450  1.00  0.00     0.001 A 
ATOM     60  C   UNL A   1      43.563  34.770  26.149  1.00  0.00     0.000 A 
ENDBRANCH  41  55
BRANCH  42  61
ATOM     61  C   UNL A   1      36.931  31.177  31.441  1.00  0.00    -0.014 A 
ATOM     62  C   UNL A   1      36.384  31.637  32.648  1.00  0.00     0.009 A 
ATOM     63  C   UNL A   1      36.261  31.504  30.249  1.00  0.00     0.009 A 
ATOM     64  C   UNL A   1      35.242  32.449  32.656  1.00  0.00     0.001 A 
ATOM     65  C   UNL A   1      35.119  32.310  30.256  1.00  0.00     0.001 A 
ATOM     66  C   UNL A   1      34.621  32.800  31.460  1.00  0.00     0.000 A 
ENDBRANCH  42  61
BRANCH  54  67
ATOM     67  C   UNL A   1      42.648  29.864  33.522  1.00  0.00    -0.014 A 
ATOM     68  C   UNL A   1      43.000  30.252  34.827  1.00  0.00     0.009 A 
ATOM     69  C   UNL A   1      42.091  28.590  33.341  1.00  0.00     0.009 A 
ATOM     70  C   UNL A   1      42.850  29.375  35.906  1.00  0.00     0.001 A 
ATOM     71  C   UNL A   1      41.917  27.721  34.422  1.00  0.00     0.001 A 
ATOM     72  C   UNL A   1      42.307  28.109  35.702  1.00  0.00     0.000 A 
ENDBRANCH  54  67
ENDBRANCH  28  29
ENDBRANCH  20  23
ENDBRANCH  18  19
ENDBRANCH   1  18
TORSDOF 12
ENDMDL
MODEL 2
REMARK VINA RESULT:     -11.2      3.565      7.758
REMARK SMILES Cc1cc(C)n([C@H](C)[C@H](C)C(=O)NCCCNC(=O)c2ccc(-c3c4nc(c(-c5ccccc5)c5ccc([nH]5)c(-c5ccccc5)c5nc(c(-c6ccccc6)c6ccc3[nH]6)C=C5)C=C4)cc2)n1
REMARK SMILES IDX 15 1 14 2 13 3 11 4 12 5 9 7 10 8 7 9 8 10 6 11 1 12 2 13
REMARK SMILES IDX 3 14 68 15 4 16 5 17 16 18 17 19 18 20 19 22 20 23 21 24
REMARK SMILES IDX 67 25 22 26 66 27 23 28 24 29 25 30 60 31 26 32 65 33 59 34
REMARK SMILES IDX 61 35 27 36 64 37 58 38 57 39 28 41 50 42 35 43 49 44 36 45
REMARK SMILES IDX 39 46 48 47 62 48 37 49 38 50 47 52 63 53 40 54 29 55 30 56
REMARK SMILES IDX 34 57 31 58 33 59 32 60 51 61 52 62 56 63 53 64 55 65 54 66
REMARK SMILES IDX 41 67 42 68 46 69 43 70 45 71 44 72
REMARK H PARENT 13 6 17 21 61 40 39 51
REMARK Flexibility Score: inf
ROOT
ATOM      1  C   UNL A   1      33.797  28.776  27.073  1.00  0.00     0.042 C 
ENDROOT
BRANCH   1   2
ATOM      2  C   UNL A   1      33.054  29.499  25.958  1.00  0.00     0.117 C 
BRANCH   2   3
ATOM      3  N   UNL A   1      33.652  29.313  24.646  1.00  0.00    -0.356 N 
ATOM      4  C   UNL A   1      33.104  28.885  23.477  1.00  0.00     0.224 C 
ATOM      5  O   UNL A   1      33.813  28.921  22.468  1.00  0.00    -0.275 OA
ATOM      6  H   UNL A   1      34.610  29.534  24.594  1.00  0.00     0.163 HD
BRANCH   4   7
ATOM      7  C   UNL A   1      31.677  28.375  23.394  1.00  0.00     0.100 C 
ATOM      8  C   UNL A   1      30.870  29.213  22.393  1.00  0.00     0.020 C 
BRANCH   7   9
ATOM      9  C   UNL A   1      31.541  26.848  23.172  1.00  0.00     0.116 C 
ATOM     10  C   UNL A   1      31.910  26.297  21.786  1.00  0.00     0.034 C 
BRANCH   9  11
ATOM     11  N   UNL A   1      32.272  26.114  24.218  1.00  0.00    -0.266 N 
ATOM     12  C   UNL A   1      35.266  24.445  25.092  1.00  0.00     0.069 C 
ATOM     13  C   UNL A   1      33.934  25.090  25.045  1.00  0.00     0.060 A 
ATOM     14  C   UNL A   1      33.012  25.264  26.095  1.00  0.00     0.048 A 
ATOM     15  N   UNL A   1      33.475  25.599  23.897  1.00  0.00    -0.178 NA
ATOM     16  C   UNL A   1      31.928  25.906  25.533  1.00  0.00     0.036 A 
ATOM     17  C   UNL A   1      30.651  26.333  26.159  1.00  0.00     0.066 C 
ENDBRANCH   9  11
ENDBRANCH   7   9
ENDBRANCH   4   7
ENDBRANCH   2   3
ENDBRANCH   1   2
BRANCH   1  18
ATOM     18  C   UNL A   1      35.208  29.303  27.257  1.00  0.00     0.118 C 
BRANCH  18  19
ATOM     19  N   UNL A   1      35.389  30.022  28.522  1.00  0.00    -0.352 N 
ATOM     20  C   UNL A   1      36.421  29.884  29.437  1.00  0.00     0.251 C 
ATOM     21  H   UNL A   1      34.695  30.682  28.749  1.00  0.00     0.163 HD
ATOM     22  O   UNL A   1      36.318  30.280  30.580  1.00  0.00    -0.269 OA
BRANCH  20  23
ATOM     23  C   UNL A   1      37.654  29.224  28.973  1.00  0.00     0.039 A 
ATOM     24  C   UNL A   1      38.359  29.705  27.870  1.00  0.00     0.014 A 
ATOM     25  C   UNL A   1      38.148  28.181  29.749  1.00  0.00     0.014 A 
ATOM     26  C   UNL A   1      39.628  29.190  27.621  1.00  0.00     0.010 A 
ATOM     27  C   UNL A   1      39.460  27.811  29.610  1.00  0.00     0.010 A 
ATOM     28  C   UNL A   1      40.192  28.269  28.521  1.00  0.00    -0.014 A 
BRANCH  28  29
ATOM     29  C   UNL A   1      41.586  27.859  28.389  1.00  0.00     0.031 A 
ATOM     30  C   UNL A   1      41.814  26.643  27.565  1.00  0.00     0.074 A 
ATOM     31  C   UNL A   1      42.632  28.591  28.828  1.00  0.00     0.049 A 
ATOM     32  N   UNL A   1      42.166  25.477  27.993  1.00  0.00    -0.248 NA
ATOM     33  C   UNL A   1      41.504  26.683  26.128  1.00  0.00     0.031 C 
ATOM     34  C   UNL A   1      42.637  29.942  29.401  1.00  0.00     0.029 A 
ATOM     35  N   UNL A   1      43.958  28.302  28.744  1.00  0.00    -0.354 N 
ATOM     36  C   UNL A   1      42.321  24.679  26.866  1.00  0.00     0.074 A 
ATOM     37  C   UNL A   1      41.745  25.418  25.769  1.00  0.00     0.031 C 
ATOM     38  C   UNL A   1      43.892  30.443  29.373  1.00  0.00     0.029 A 
ATOM     39  C   UNL A   1      44.797  29.385  28.965  1.00  0.00     0.049 A 
ATOM     40  H   UNL A   1      44.295  27.400  28.544  1.00  0.00     0.167 HD
ATOM     41  C   UNL A   1      43.130  23.582  26.890  1.00  0.00     0.031 A 
ATOM     42  C   UNL A   1      46.141  29.414  28.809  1.00  0.00     0.031 A 
ATOM     43  C   UNL A   1      43.488  23.216  28.240  1.00  0.00     0.049 A 
ATOM     44  C   UNL A   1      46.623  28.017  28.882  1.00  0.00     0.074 A 
ATOM     45  C   UNL A   1      42.781  22.884  29.381  1.00  0.00     0.029 A 
ATOM     46  N   UNL A   1      44.746  23.567  28.673  1.00  0.00    -0.354 N 
ATOM     47  N   UNL A   1      46.583  27.309  29.974  1.00  0.00    -0.248 NA
ATOM     48  C   UNL A   1      46.726  27.255  27.649  1.00  0.00     0.031 C 
ATOM     49  C   UNL A   1      43.475  23.538  30.443  1.00  0.00     0.029 A 
ATOM     50  C   UNL A   1      44.605  24.156  29.902  1.00  0.00     0.049 A 
ATOM     51  H   UNL A   1      45.591  23.421  28.189  1.00  0.00     0.167 HD
ATOM     52  C   UNL A   1      46.178  26.050  29.557  1.00  0.00     0.074 A 
ATOM     53  C   UNL A   1      46.397  26.045  28.110  1.00  0.00     0.031 C 
ATOM     54  C   UNL A   1      45.436  25.242  30.373  1.00  0.00     0.031 A 
BRANCH  41  55
ATOM     55  C   UNL A   1      43.939  23.109  25.707  1.00  0.00    -0.014 A 
ATOM     56  C   UNL A   1      43.916  21.740  25.382  1.00  0.00     0.009 A 
ATOM     57  C   UNL A   1      44.939  23.887  25.097  1.00  0.00     0.009 A 
ATOM     58  C   UNL A   1      44.901  21.168  24.568  1.00  0.00     0.001 A 
ATOM     59  C   UNL A   1      45.900  23.327  24.251  1.00  0.00     0.001 A 
ATOM     60  C   UNL A   1      45.900  21.959  24.013  1.00  0.00     0.000 A 
ENDBRANCH  41  55
BRANCH  42  61
ATOM     61  C   UNL A   1      47.000  30.527  28.354  1.00  0.00    -0.014 A 
ATOM     62  C   UNL A   1      48.397  30.422  28.423  1.00  0.00     0.009 A 
ATOM     63  C   UNL A   1      46.457  31.570  27.581  1.00  0.00     0.009 A 
ATOM     64  C   UNL A   1      49.220  31.291  27.695  1.00  0.00     0.001 A 
ATOM     65  C   UNL A   1      47.278  32.440  26.858  1.00  0.00     0.001 A 
ATOM     66  C   UNL A   1      48.661  32.288  26.899  1.00  0.00     0.000 A 
ENDBRANCH  42  61
BRANCH  54  67
ATOM     67  C   UNL A   1      45.269  25.655  31.818  1.00  0.00    -0.014 A 
ATOM     68  C   UNL A   1      44.254  26.521  32.264  1.00  0.00     0.009 A 
ATOM     69  C   UNL A   1      46.093  25.055  32.781  1.00  0.00     0.009 A 
ATOM     70  C   UNL A   1      44.105  26.818  33.623  1.00  0.00     0.001 A 
ATOM     71  C   UNL A   1      45.929  25.330  34.141  1.00  0.00     0.001 A 
ATOM     72  C   UNL A   1      44.943  26.220  34.561  1.00  0.00     0.000 A 
ENDBRANCH  54  67
ENDBRANCH  28  29
ENDBRANCH  20  23
ENDBRANCH  18  19
ENDBRANCH   1  18
TORSDOF 12
ENDMDL
MODEL 3
REMARK VINA RESULT:     -11.2      3.202      7.934
REMARK SMILES Cc1cc(C)n([C@H](C)[C@H](C)C(=O)NCCCNC(=O)c2ccc(-c3c4nc(c(-c5ccccc5)c5ccc([nH]5)c(-c5ccccc5)c5nc(c(-c6ccccc6)c6ccc3[nH]6)C=C5)C=C4)cc2)n1
REMARK SMILES IDX 15 1 14 2 13 3 11 4 12 5 9 7 10 8 7 9 8 10 6 11 1 12 2 13
REMARK SMILES IDX 3 14 68 15 4 16 5 17 16 18 17 19 18 20 19 22 20 23 21 24
REMARK SMILES IDX 67 25 22 26 66 27 23 28 24 29 25 30 60 31 26 32 65 33 59 34
REMARK SMILES IDX 61 35 27 36 64 37 58 38 57 39 28 41 50 42 35 43 49 44 36 45
REMARK SMILES IDX 39 46 48 47 62 48 37 49 38 50 47 52 63 53 40 54 29 55 30 56
REMARK SMILES IDX 34 57 31 58 33 59 32 60 51 61 52 62 56 63 53 64 55 65 54 66
REMARK SMILES IDX 41 67 42 68 46 69 43 70 45 71 44 72
REMARK H PARENT 13 6 17 21 61 40 39 51
REMARK Flexibility Score: inf
ROOT
ATOM      1  C   UNL A   1      32.404  29.950  26.990  1.00  0.00     0.042 C 
ENDROOT
BRANCH   1   2
ATOM      2  C   UNL A   1      32.668  28.487  27.321  1.00  0.00     0.117 C 
BRANCH   2   3
ATOM      3  N   UNL A   1      31.492  27.641  27.193  1.00  0.00    -0.356 N 
ATOM      4  C   UNL A   1      31.288  26.515  26.458  1.00  0.00     0.224 C 
ATOM      5  O   UNL A   1      30.218  25.919  26.612  1.00  0.00    -0.275 OA
ATOM      6  H   UNL A   1      30.716  27.930  27.725  1.00  0.00     0.163 HD
BRANCH   4   7
ATOM      7  C   UNL A   1      32.321  25.994  25.475  1.00  0.00     0.100 C 
ATOM      8  C   UNL A   1      32.937  24.688  25.993  1.00  0.00     0.020 C 
BRANCH   7   9
ATOM      9  C   UNL A   1      31.841  25.911  24.005  1.00  0.00     0.116 C 
ATOM     10  C   UNL A   1      30.963  24.713  23.613  1.00  0.00     0.034 C 
BRANCH   9  11
ATOM     11  N   UNL A   1      31.184  27.168  23.612  1.00  0.00    -0.266 N 
ATOM     12  C   UNL A   1      28.115  28.800  22.952  1.00  0.00     0.069 C 
ATOM     13  C   UNL A   1      29.527  28.421  23.184  1.00  0.00     0.060 A 
ATOM     14  C   UNL A   1      30.665  29.253  23.189  1.00  0.00     0.048 A 
ATOM     15  N   UNL A   1      29.848  27.147  23.431  1.00  0.00    -0.178 NA
ATOM     16  C   UNL A   1      31.733  28.417  23.440  1.00  0.00     0.036 A 
ATOM     17  C   UNL A   1      33.179  28.735  23.545  1.00  0.00     0.066 C 
ENDBRANCH   9  11
ENDBRANCH   7   9
ENDBRANCH   4   7
ENDBRANCH   2   3
ENDBRANCH   1   2
BRANCH   1  18
ATOM     18  C   UNL A   1      33.673  30.781  27.022  1.00  0.00     0.118 C 
BRANCH  18  19
ATOM     19  N   UNL A   1      33.663  31.799  28.077  1.00  0.00    -0.352 N 
ATOM     20  C   UNL A   1      34.606  31.999  29.073  1.00  0.00     0.251 C 
ATOM     21  H   UNL A   1      32.895  32.414  28.078  1.00  0.00     0.163 HD
ATOM     22  O   UNL A   1      34.354  32.646  30.069  1.00  0.00    -0.269 OA
BRANCH  20  23
ATOM     23  C   UNL A   1      35.932  31.385  28.884  1.00  0.00     0.039 A 
ATOM     24  C   UNL A   1      37.102  32.125  29.055  1.00  0.00     0.014 A 
ATOM     25  C   UNL A   1      35.971  30.015  28.646  1.00  0.00     0.014 A 
ATOM     26  C   UNL A   1      38.315  31.444  29.094  1.00  0.00     0.010 A 
ATOM     27  C   UNL A   1      37.139  29.333  28.866  1.00  0.00     0.010 A 
ATOM     28  C   UNL A   1      38.324  30.039  29.039  1.00  0.00    -0.014 A 
BRANCH  28  29
ATOM     29  C   UNL A   1      39.558  29.295  29.265  1.00  0.00     0.031 A 
ATOM     30  C   UNL A   1      39.846  28.960  30.685  1.00  0.00     0.074 A 
ATOM     31  C   UNL A   1      40.324  28.787  28.276  1.00  0.00     0.049 A 
ATOM     32  N   UNL A   1      40.763  29.481  31.428  1.00  0.00    -0.248 NA
ATOM     33  C   UNL A   1      38.949  28.039  31.400  1.00  0.00     0.031 C 
ATOM     34  C   UNL A   1      40.065  28.755  26.832  1.00  0.00     0.029 A 
ATOM     35  N   UNL A   1      41.478  28.075  28.384  1.00  0.00    -0.354 N 
ATOM     36  C   UNL A   1      40.700  28.818  32.648  1.00  0.00     0.074 A 
ATOM     37  C   UNL A   1      39.470  28.064  32.630  1.00  0.00     0.031 C 
ATOM     38  C   UNL A   1      40.884  27.856  26.243  1.00  0.00     0.029 A 
ATOM     39  C   UNL A   1      41.846  27.400  27.229  1.00  0.00     0.049 A 
ATOM     40  H   UNL A   1      42.008  28.042  29.212  1.00  0.00     0.167 HD
ATOM     41  C   UNL A   1      41.787  28.754  33.468  1.00  0.00     0.031 A 
ATOM     42  C   UNL A   1      42.862  26.515  27.096  1.00  0.00     0.031 A 
ATOM     43  C   UNL A   1      42.809  29.693  33.070  1.00  0.00     0.049 A 
ATOM     44  C   UNL A   1      43.818  26.775  28.195  1.00  0.00     0.074 A 
ATOM     45  C   UNL A   1      42.858  31.063  32.891  1.00  0.00     0.029 A 
ATOM     46  N   UNL A   1      43.890  29.191  32.382  1.00  0.00    -0.354 N 
ATOM     47  N   UNL A   1      44.533  27.861  28.272  1.00  0.00    -0.248 NA
ATOM     48  C   UNL A   1      43.653  26.048  29.443  1.00  0.00     0.031 C 
ATOM     49  C   UNL A   1      43.640  31.249  31.711  1.00  0.00     0.029 A 
ATOM     50  C   UNL A   1      44.088  29.995  31.291  1.00  0.00     0.049 A 
ATOM     51  H   UNL A   1      44.422  28.400  32.630  1.00  0.00     0.167 HD
ATOM     52  C   UNL A   1      44.499  28.204  29.616  1.00  0.00     0.074 A 
ATOM     53  C   UNL A   1      44.046  26.993  30.301  1.00  0.00     0.031 C 
ATOM     54  C   UNL A   1      44.558  29.512  30.011  1.00  0.00     0.031 A 
BRANCH  41  55
ATOM     55  C   UNL A   1      42.109  27.569  34.345  1.00  0.00    -0.014 A 
ATOM     56  C   UNL A   1      41.834  27.658  35.722  1.00  0.00     0.009 A 
ATOM     57  C   UNL A   1      42.931  26.505  33.932  1.00  0.00     0.009 A 
ATOM     58  C   UNL A   1      42.431  26.789  36.643  1.00  0.00     0.001 A 
ATOM     59  C   UNL A   1      43.496  25.609  34.844  1.00  0.00     0.001 A 
ATOM     60  C   UNL A   1      43.272  25.772  36.205  1.00  0.00     0.000 A 
ENDBRANCH  41  55
BRANCH  42  61
ATOM     61  C   UNL A   1      42.939  25.310  26.245  1.00  0.00    -0.014 A 
ATOM     62  C   UNL A   1      43.958  25.178  25.291  1.00  0.00     0.009 A 
ATOM     63  C   UNL A   1      42.191  24.164  26.570  1.00  0.00     0.009 A 
ATOM     64  C   UNL A   1      44.259  23.930  24.729  1.00  0.00     0.001 A 
ATOM     65  C   UNL A   1      42.487  22.920  26.006  1.00  0.00     0.001 A 
ATOM     66  C   UNL A   1      43.535  22.799  25.099  1.00  0.00     0.000 A 
ENDBRANCH  42  61
BRANCH  54  67
ATOM     67  C   UNL A   1      44.897  30.553  28.968  1.00  0.00    -0.014 A 
ATOM     68  C   UNL A   1      46.202  31.026  28.740  1.00  0.00     0.009 A 
ATOM     69  C   UNL A   1      43.880  30.983  28.103  1.00  0.00     0.009 A 
ATOM     70  C   UNL A   1      46.469  31.942  27.717  1.00  0.00     0.001 A 
ATOM     71  C   UNL A   1      44.150  31.878  27.064  1.00  0.00     0.001 A 
ATOM     72  C   UNL A   1      45.441  32.366  26.878  1.00  0.00     0.000 A 
ENDBRANCH  54  67
ENDBRANCH  28  29
ENDBRANCH  20  23
ENDBRANCH  18  19
ENDBRANCH   1  18
TORSDOF 12
ENDMDL
