MODEL 1
REMARK VINA RESULT:     -12.0      0.000      0.000
REMARK SMILES O=C(CSc1ccc(NC(=O)c2cccc3ccccc23)cc1)NCCCNC(=O)c1ccc(-c2c3nc(c(-c4ccccc4)c4ccc([nH]4)c(-c4ccccc4)c4nc(c(-c5ccccc5)c5ccc2[nH]5)C=C4)C=C3)cc1
REMARK SMILES IDX 25 1 24 2 1 3 2 4 3 6 4 7 5 8 6 9 23 10 7 11 22 12 8 13 9 14
REMARK SMILES IDX 10 15 11 17 12 18 13 19 21 20 14 21 16 22 20 23 15 24 17 25
REMARK SMILES IDX 19 26 18 27 26 28 27 29 28 30 29 31 30 33 31 34 32 35 78 36
REMARK SMILES IDX 33 37 77 38 34 39 35 40 36 41 71 42 37 43 76 44 70 45 72 46
REMARK SMILES IDX 38 47 75 48 69 49 68 50 39 52 61 53 46 54 60 55 47 56 50 57
REMARK SMILES IDX 59 58 73 59 48 60 49 61 58 63 74 64 51 65 40 66 41 67 45 68
REMARK SMILES IDX 42 69 44 70 43 71 62 72 63 73 67 74 64 75 66 76 65 77 52 78
REMARK SMILES IDX 53 79 57 80 54 81 56 82 55 83
REMARK H PARENT 24 5 9 16 28 32 72 51 50 62
REMARK Flexibility Score: inf
ROOT
ATOM      1  C   UNL A   1      30.561  32.291  25.437  1.00  0.00     0.117 C 
ENDROOT
BRANCH   1   2
ATOM      2  N   UNL A   1      30.086  31.188  24.636  1.00  0.00    -0.355 N 
ATOM      3  O   UNL A   1      28.529  32.378  23.452  1.00  0.00    -0.274 OA
ATOM      4  C   UNL A   1      29.144  31.331  23.644  1.00  0.00     0.230 C 
ATOM      5  H   UNL A   1      30.452  30.291  24.808  1.00  0.00     0.163 HD
BRANCH   4   6
ATOM      6  C   UNL A   1      28.895  30.097  22.788  1.00  0.00     0.174 C 
BRANCH   6   7
ATOM      7  S   UNL A   1      30.405  29.110  22.477  1.00  0.00    -0.116 SA
BRANCH   7   8
ATOM      8  C   UNL A   1      30.515  28.017  23.892  1.00  0.00     0.008 A 
ATOM      9  C   UNL A   1      29.581  26.974  23.945  1.00  0.00     0.017 A 
ATOM     10  C   UNL A   1      31.456  28.110  24.919  1.00  0.00     0.017 A 
ATOM     11  C   UNL A   1      29.644  25.996  24.943  1.00  0.00     0.027 A 
ATOM     12  C   UNL A   1      31.516  27.138  25.921  1.00  0.00     0.027 A 
ATOM     13  C   UNL A   1      30.670  26.028  25.879  1.00  0.00     0.041 A 
BRANCH  13  14
ATOM     14  N   UNL A   1      30.999  24.973  26.737  1.00  0.00    -0.322 N 
ATOM     15  C   UNL A   1      31.713  23.814  26.569  1.00  0.00     0.256 C 
ATOM     16  H   UNL A   1      30.646  25.086  27.649  1.00  0.00     0.170 HD
ATOM     17  O   UNL A   1      31.803  23.053  27.537  1.00  0.00    -0.269 OA
BRANCH  15  18
ATOM     18  C   UNL A   1      32.397  23.404  25.317  1.00  0.00     0.048 A 
ATOM     19  C   UNL A   1      31.524  22.877  24.349  1.00  0.00     0.014 A 
ATOM     20  C   UNL A   1      33.808  23.411  25.097  1.00  0.00    -0.006 A 
ATOM     21  C   UNL A   1      32.015  22.343  23.168  1.00  0.00     0.001 A 
ATOM     22  C   UNL A   1      34.284  22.864  23.875  1.00  0.00    -0.018 A 
ATOM     23  C   UNL A   1      34.788  23.935  25.981  1.00  0.00     0.009 A 
ATOM     24  C   UNL A   1      33.386  22.321  22.943  1.00  0.00     0.009 A 
ATOM     25  C   UNL A   1      35.656  22.868  23.578  1.00  0.00     0.009 A 
ATOM     26  C   UNL A   1      36.139  24.017  25.628  1.00  0.00     0.001 A 
ATOM     27  C   UNL A   1      36.575  23.472  24.430  1.00  0.00     0.001 A 
ENDBRANCH  15  18
ENDBRANCH  13  14
ENDBRANCH   7   8
ENDBRANCH   6   7
ENDBRANCH   4   6
ENDBRANCH   1   2
BRANCH   1  28
ATOM     28  C   UNL A   1      31.256  31.828  26.708  1.00  0.00     0.042 C 
BRANCH  28  29
ATOM     29  C   UNL A   1      32.552  32.572  27.016  1.00  0.00     0.118 C 
BRANCH  29  30
ATOM     30  N   UNL A   1      32.334  33.912  27.544  1.00  0.00    -0.352 N 
ATOM     31  C   UNL A   1      33.041  34.629  28.478  1.00  0.00     0.251 C 
ATOM     32  H   UNL A   1      31.552  34.378  27.171  1.00  0.00     0.163 HD
ATOM     33  O   UNL A   1      32.594  35.698  28.880  1.00  0.00    -0.269 OA
BRANCH  31  34
ATOM     34  C   UNL A   1      34.319  34.119  29.026  1.00  0.00     0.039 A 
ATOM     35  C   UNL A   1      34.289  33.420  30.236  1.00  0.00     0.014 A 
ATOM     36  C   UNL A   1      35.539  34.339  28.382  1.00  0.00     0.014 A 
ATOM     37  C   UNL A   1      35.468  32.885  30.760  1.00  0.00     0.010 A 
ATOM     38  C   UNL A   1      36.701  33.734  28.862  1.00  0.00     0.010 A 
ATOM     39  C   UNL A   1      36.678  32.999  30.056  1.00  0.00    -0.014 A 
BRANCH  39  40
ATOM     40  C   UNL A   1      37.908  32.322  30.547  1.00  0.00     0.031 A 
ATOM     41  C   UNL A   1      38.713  32.902  31.679  1.00  0.00     0.074 A 
ATOM     42  C   UNL A   1      38.325  31.192  29.940  1.00  0.00     0.049 A 
ATOM     43  N   UNL A   1      39.802  32.436  32.239  1.00  0.00    -0.248 NA
ATOM     44  C   UNL A   1      38.249  34.179  32.242  1.00  0.00     0.031 C 
ATOM     45  C   UNL A   1      37.665  30.551  28.801  1.00  0.00     0.029 A 
ATOM     46  N   UNL A   1      39.400  30.380  30.201  1.00  0.00    -0.354 N 
ATOM     47  C   UNL A   1      40.156  33.363  33.210  1.00  0.00     0.074 A 
ATOM     48  C   UNL A   1      39.198  34.445  33.128  1.00  0.00     0.031 C 
ATOM     49  C   UNL A   1      38.324  29.423  28.489  1.00  0.00     0.029 A 
ATOM     50  C   UNL A   1      39.475  29.285  29.375  1.00  0.00     0.049 A 
ATOM     51  H   UNL A   1      40.055  30.564  30.913  1.00  0.00     0.167 HD
ATOM     52  C   UNL A   1      41.173  33.312  34.105  1.00  0.00     0.031 A 
ATOM     53  C   UNL A   1      40.369  28.279  29.331  1.00  0.00     0.031 A 
ATOM     54  C   UNL A   1      42.130  32.240  34.185  1.00  0.00     0.049 A 
ATOM     55  C   UNL A   1      41.497  28.255  30.324  1.00  0.00     0.074 A 
ATOM     56  C   UNL A   1      43.166  32.074  35.090  1.00  0.00     0.029 A 
ATOM     57  N   UNL A   1      42.176  31.153  33.325  1.00  0.00    -0.354 N 
ATOM     58  N   UNL A   1      41.771  29.101  31.286  1.00  0.00    -0.248 NA
ATOM     59  C   UNL A   1      42.430  27.123  30.232  1.00  0.00     0.031 C 
ATOM     60  C   UNL A   1      43.876  30.921  34.739  1.00  0.00     0.029 A 
ATOM     61  C   UNL A   1      43.239  30.329  33.661  1.00  0.00     0.049 A 
ATOM     62  H   UNL A   1      41.547  30.992  32.585  1.00  0.00     0.167 HD
ATOM     63  C   UNL A   1      42.888  28.589  31.933  1.00  0.00     0.074 A 
ATOM     64  C   UNL A   1      43.224  27.347  31.268  1.00  0.00     0.031 C 
ATOM     65  C   UNL A   1      43.572  29.101  32.986  1.00  0.00     0.031 A 
BRANCH  52  66
ATOM     66  C   UNL A   1      41.309  34.463  35.067  1.00  0.00    -0.014 A 
ATOM     67  C   UNL A   1      40.692  34.436  36.328  1.00  0.00     0.009 A 
ATOM     68  C   UNL A   1      42.101  35.571  34.725  1.00  0.00     0.009 A 
ATOM     69  C   UNL A   1      40.834  35.511  37.210  1.00  0.00     0.001 A 
ATOM     70  C   UNL A   1      42.268  36.628  35.620  1.00  0.00     0.001 A 
ATOM     71  C   UNL A   1      41.626  36.603  36.858  1.00  0.00     0.000 A 
ENDBRANCH  52  66
BRANCH  53  72
ATOM     72  C   UNL A   1      40.224  27.196  28.322  1.00  0.00    -0.014 A 
ATOM     73  C   UNL A   1      39.525  26.020  28.632  1.00  0.00     0.009 A 
ATOM     74  C   UNL A   1      40.794  27.328  27.046  1.00  0.00     0.009 A 
ATOM     75  C   UNL A   1      39.428  24.985  27.697  1.00  0.00     0.001 A 
ATOM     76  C   UNL A   1      40.666  26.308  26.102  1.00  0.00     0.001 A 
ATOM     77  C   UNL A   1      39.994  25.133  26.433  1.00  0.00     0.000 A 
ENDBRANCH  53  72
BRANCH  65  78
ATOM     78  C   UNL A   1      44.731  28.293  33.506  1.00  0.00    -0.014 A 
ATOM     79  C   UNL A   1      46.039  28.497  33.038  1.00  0.00     0.009 A 
ATOM     80  C   UNL A   1      44.509  27.316  34.489  1.00  0.00     0.009 A 
ATOM     81  C   UNL A   1      47.090  27.703  33.507  1.00  0.00     0.001 A 
ATOM     82  C   UNL A   1      45.566  26.550  34.982  1.00  0.00     0.001 A 
ATOM     83  C   UNL A   1      46.852  26.733  34.480  1.00  0.00     0.000 A 
ENDBRANCH  65  78
ENDBRANCH  39  40
ENDBRANCH  31  34
ENDBRANCH  29  30
ENDBRANCH  28  29
ENDBRANCH   1  28
TORSDOF 14
ENDMDL
MODEL 2
REMARK VINA RESULT:     -12.0      0.342      5.795
REMARK SMILES O=C(CSc1ccc(NC(=O)c2cccc3ccccc23)cc1)NCCCNC(=O)c1ccc(-c2c3nc(c(-c4ccccc4)c4ccc([nH]4)c(-c4ccccc4)c4nc(c(-c5ccccc5)c5ccc2[nH]5)C=C4)C=C3)cc1
REMARK SMILES IDX 25 1 24 2 1 3 2 4 3 6 4 7 5 8 6 9 23 10 7 11 22 12 8 13 9 14
REMARK SMILES IDX 10 15 11 17 12 18 13 19 21 20 14 21 16 22 20 23 15 24 17 25
REMARK SMILES IDX 19 26 18 27 26 28 27 29 28 30 29 31 30 33 31 34 32 35 78 36
REMARK SMILES IDX 33 37 77 38 34 39 35 40 36 41 71 42 37 43 76 44 70 45 72 46
REMARK SMILES IDX 38 47 75 48 69 49 68 50 39 52 61 53 46 54 60 55 47 56 50 57
REMARK SMILES IDX 59 58 73 59 48 60 49 61 58 63 74 64 51 65 40 66 41 67 45 68
REMARK SMILES IDX 42 69 44 70 43 71 62 72 63 73 67 74 64 75 66 76 65 77 52 78
REMARK SMILES IDX 53 79 57 80 54 81 56 82 55 83
REMARK H PARENT 24 5 9 16 28 32 72 51 50 62
REMARK Flexibility Score: inf
ROOT
ATOM      1  C   UNL A   1      30.671  32.207  25.513  1.00  0.00     0.117 C 
ENDROOT
BRANCH   1   2
ATOM      2  N   UNL A   1      30.147  31.134  24.701  1.00  0.00    -0.355 N 
ATOM      3  O   UNL A   1      28.727  32.423  23.451  1.00  0.00    -0.274 OA
ATOM      4  C   UNL A   1      29.256  31.336  23.673  1.00  0.00     0.230 C 
ATOM      5  H   UNL A   1      30.440  30.215  24.893  1.00  0.00     0.163 HD
BRANCH   4   6
ATOM      6  C   UNL A   1      28.950  30.116  22.816  1.00  0.00     0.174 C 
BRANCH   6   7
ATOM      7  S   UNL A   1      30.420  29.080  22.474  1.00  0.00    -0.116 SA
BRANCH   7   8
ATOM      8  C   UNL A   1      30.534  27.995  23.893  1.00  0.00     0.008 A 
ATOM      9  C   UNL A   1      29.603  26.950  23.953  1.00  0.00     0.017 A 
ATOM     10  C   UNL A   1      31.476  28.095  24.919  1.00  0.00     0.017 A 
ATOM     11  C   UNL A   1      29.669  25.977  24.955  1.00  0.00     0.027 A 
ATOM     12  C   UNL A   1      31.539  27.128  25.925  1.00  0.00     0.027 A 
ATOM     13  C   UNL A   1      30.696  26.016  25.890  1.00  0.00     0.041 A 
BRANCH  13  14
ATOM     14  N   UNL A   1      31.029  24.966  26.753  1.00  0.00    -0.322 N 
ATOM     15  C   UNL A   1      31.746  23.808  26.589  1.00  0.00     0.256 C 
ATOM     16  H   UNL A   1      30.676  25.083  27.664  1.00  0.00     0.170 HD
ATOM     17  O   UNL A   1      31.838  23.052  27.560  1.00  0.00    -0.269 OA
BRANCH  15  18
ATOM     18  C   UNL A   1      32.430  23.394  25.339  1.00  0.00     0.048 A 
ATOM     19  C   UNL A   1      31.555  22.877  24.367  1.00  0.00     0.014 A 
ATOM     20  C   UNL A   1      33.842  23.388  25.123  1.00  0.00    -0.006 A 
ATOM     21  C   UNL A   1      32.044  22.340  23.186  1.00  0.00     0.001 A 
ATOM     22  C   UNL A   1      34.316  22.838  23.901  1.00  0.00    -0.018 A 
ATOM     23  C   UNL A   1      34.823  23.901  26.012  1.00  0.00     0.009 A 
ATOM     24  C   UNL A   1      33.416  22.306  22.966  1.00  0.00     0.009 A 
ATOM     25  C   UNL A   1      35.689  22.830  23.609  1.00  0.00     0.009 A 
ATOM     26  C   UNL A   1      36.176  23.971  25.663  1.00  0.00     0.001 A 
ATOM     27  C   UNL A   1      36.611  23.424  24.465  1.00  0.00     0.001 A 
ENDBRANCH  15  18
ENDBRANCH  13  14
ENDBRANCH   7   8
ENDBRANCH   6   7
ENDBRANCH   4   6
ENDBRANCH   1   2
BRANCH   1  28
ATOM     28  C   UNL A   1      31.418  31.698  26.735  1.00  0.00     0.042 C 
BRANCH  28  29
ATOM     29  C   UNL A   1      32.689  32.478  27.058  1.00  0.00     0.118 C 
BRANCH  29  30
ATOM     30  N   UNL A   1      32.429  33.818  27.567  1.00  0.00    -0.352 N 
ATOM     31  C   UNL A   1      33.098  34.561  28.507  1.00  0.00     0.251 C 
ATOM     32  H   UNL A   1      31.644  34.262  27.172  1.00  0.00     0.163 HD
ATOM     33  O   UNL A   1      32.618  35.624  28.888  1.00  0.00    -0.269 OA
BRANCH  31  34
ATOM     34  C   UNL A   1      34.375  34.088  29.088  1.00  0.00     0.039 A 
ATOM     35  C   UNL A   1      34.332  33.359  30.281  1.00  0.00     0.014 A 
ATOM     36  C   UNL A   1      35.607  34.369  28.492  1.00  0.00     0.014 A 
ATOM     37  C   UNL A   1      35.512  32.857  30.833  1.00  0.00     0.010 A 
ATOM     38  C   UNL A   1      36.775  33.798  28.999  1.00  0.00     0.010 A 
ATOM     39  C   UNL A   1      36.740  33.034  30.175  1.00  0.00    -0.014 A 
BRANCH  39  40
ATOM     40  C   UNL A   1      37.978  32.394  30.692  1.00  0.00     0.031 A 
ATOM     41  C   UNL A   1      38.494  31.111  30.098  1.00  0.00     0.074 A 
ATOM     42  C   UNL A   1      38.625  32.955  31.734  1.00  0.00     0.049 A 
ATOM     43  N   UNL A   1      39.563  30.424  30.420  1.00  0.00    -0.248 NA
ATOM     44  C   UNL A   1      37.698  30.508  29.018  1.00  0.00     0.031 C 
ATOM     45  C   UNL A   1      38.205  34.171  32.434  1.00  0.00     0.029 A 
ATOM     46  N   UNL A   1      39.775  32.579  32.382  1.00  0.00    -0.354 N 
ATOM     47  C   UNL A   1      39.563  29.310  29.590  1.00  0.00     0.074 A 
ATOM     48  C   UNL A   1      38.360  29.382  28.790  1.00  0.00     0.031 C 
ATOM     49  C   UNL A   1      39.107  34.464  33.385  1.00  0.00     0.029 A 
ATOM     50  C   UNL A   1      40.142  33.437  33.391  1.00  0.00     0.049 A 
ATOM     51  H   UNL A   1      40.288  31.773  32.147  1.00  0.00     0.167 HD
ATOM     52  C   UNL A   1      40.489  28.325  29.488  1.00  0.00     0.031 A 
ATOM     53  C   UNL A   1      41.195  33.403  34.230  1.00  0.00     0.031 A 
ATOM     54  C   UNL A   1      41.684  28.248  30.288  1.00  0.00     0.049 A 
ATOM     55  C   UNL A   1      42.198  32.291  34.107  1.00  0.00     0.074 A 
ATOM     56  C   UNL A   1      42.706  27.316  30.223  1.00  0.00     0.029 A 
ATOM     57  N   UNL A   1      42.015  29.132  31.303  1.00  0.00    -0.354 N 
ATOM     58  N   UNL A   1      42.221  31.287  33.265  1.00  0.00    -0.248 NA
ATOM     59  C   UNL A   1      43.330  32.320  35.043  1.00  0.00     0.031 C 
ATOM     60  C   UNL A   1      43.624  27.600  31.240  1.00  0.00     0.029 A 
ATOM     61  C   UNL A   1      43.211  28.750  31.891  1.00  0.00     0.049 A 
ATOM     62  H   UNL A   1      41.479  29.914  31.568  1.00  0.00     0.167 HD
ATOM     63  C   UNL A   1      43.384  30.583  33.549  1.00  0.00     0.074 A 
ATOM     64  C   UNL A   1      44.049  31.289  34.624  1.00  0.00     0.031 C 
ATOM     65  C   UNL A   1      43.860  29.454  32.968  1.00  0.00     0.031 A 
BRANCH  52  66
ATOM     66  C   UNL A   1      40.236  27.238  28.477  1.00  0.00    -0.014 A 
ATOM     67  C   UNL A   1      40.762  27.314  27.177  1.00  0.00     0.009 A 
ATOM     68  C   UNL A   1      39.498  26.101  28.842  1.00  0.00     0.009 A 
ATOM     69  C   UNL A   1      40.522  26.293  26.254  1.00  0.00     0.001 A 
ATOM     70  C   UNL A   1      39.287  25.067  27.928  1.00  0.00     0.001 A 
ATOM     71  C   UNL A   1      39.790  25.168  26.632  1.00  0.00     0.000 A 
ENDBRANCH  52  66
BRANCH  53  72
ATOM     72  C   UNL A   1      41.367  34.470  35.253  1.00  0.00    -0.014 A 
ATOM     73  C   UNL A   1      40.787  34.341  36.524  1.00  0.00     0.009 A 
ATOM     74  C   UNL A   1      42.104  35.627  34.959  1.00  0.00     0.009 A 
ATOM     75  C   UNL A   1      40.914  35.364  37.468  1.00  0.00     0.001 A 
ATOM     76  C   UNL A   1      42.259  36.632  35.915  1.00  0.00     0.001 A 
ATOM     77  C   UNL A   1      41.653  36.505  37.164  1.00  0.00     0.000 A 
ENDBRANCH  53  72
BRANCH  65  78
ATOM     78  C   UNL A   1      45.184  28.936  33.463  1.00  0.00    -0.014 A 
ATOM     79  C   UNL A   1      46.399  29.385  32.921  1.00  0.00     0.009 A 
ATOM     80  C   UNL A   1      45.213  27.988  34.498  1.00  0.00     0.009 A 
ATOM     81  C   UNL A   1      47.611  28.857  33.370  1.00  0.00     0.001 A 
ATOM     82  C   UNL A   1      46.428  27.489  34.970  1.00  0.00     0.001 A 
ATOM     83  C   UNL A   1      47.625  27.912  34.396  1.00  0.00     0.000 A 
ENDBRANCH  65  78
ENDBRANCH  39  40
ENDBRANCH  31  34
ENDBRANCH  29  30
ENDBRANCH  28  29
ENDBRANCH   1  28
TORSDOF 14
ENDMDL
MODEL 3
REMARK VINA RESULT:     -11.9      3.995      9.249
REMARK SMILES O=C(CSc1ccc(NC(=O)c2cccc3ccccc23)cc1)NCCCNC(=O)c1ccc(-c2c3nc(c(-c4ccccc4)c4ccc([nH]4)c(-c4ccccc4)c4nc(c(-c5ccccc5)c5ccc2[nH]5)C=C4)C=C3)cc1
REMARK SMILES IDX 25 1 24 2 1 3 2 4 3 6 4 7 5 8 6 9 23 10 7 11 22 12 8 13 9 14
REMARK SMILES IDX 10 15 11 17 12 18 13 19 21 20 14 21 16 22 20 23 15 24 17 25
REMARK SMILES IDX 19 26 18 27 26 28 27 29 28 30 29 31 30 33 31 34 32 35 78 36
REMARK SMILES IDX 33 37 77 38 34 39 35 40 36 41 71 42 37 43 76 44 70 45 72 46
REMARK SMILES IDX 38 47 75 48 69 49 68 50 39 52 61 53 46 54 60 55 47 56 50 57
REMARK SMILES IDX 59 58 73 59 48 60 49 61 58 63 74 64 51 65 40 66 41 67 45 68
REMARK SMILES IDX 42 69 44 70 43 71 62 72 63 73 67 74 64 75 66 76 65 77 52 78
REMARK SMILES IDX 53 79 57 80 54 81 56 82 55 83
REMARK H PARENT 24 5 9 16 28 32 72 51 50 62
REMARK Flexibility Score: inf
ROOT
ATOM      1  C   UNL A   1      36.757  19.185  24.800  1.00  0.00     0.117 C 
ENDROOT
BRANCH   1   2
ATOM      2  N   UNL A   1      35.422  19.696  25.006  1.00  0.00    -0.355 N 
ATOM      3  O   UNL A   1      34.319  17.948  24.022  1.00  0.00    -0.274 OA
ATOM      4  C   UNL A   1      34.289  18.998  24.660  1.00  0.00     0.230 C 
ATOM      5  H   UNL A   1      35.318  20.586  25.412  1.00  0.00     0.163 HD
BRANCH   4   6
ATOM      6  C   UNL A   1      32.971  19.613  25.110  1.00  0.00     0.174 C 
BRANCH   6   7
ATOM      7  S   UNL A   1      33.165  20.847  26.449  1.00  0.00    -0.116 SA
BRANCH   7   8
ATOM      8  C   UNL A   1      32.287  22.288  25.850  1.00  0.00     0.008 A 
ATOM      9  C   UNL A   1      32.152  22.400  24.460  1.00  0.00     0.017 A 
ATOM     10  C   UNL A   1      31.719  23.283  26.648  1.00  0.00     0.017 A 
ATOM     11  C   UNL A   1      31.391  23.423  23.886  1.00  0.00     0.027 A 
ATOM     12  C   UNL A   1      30.963  24.310  26.075  1.00  0.00     0.027 A 
ATOM     13  C   UNL A   1      30.720  24.326  24.702  1.00  0.00     0.041 A 
BRANCH  13  14
ATOM     14  N   UNL A   1      29.721  25.203  24.266  1.00  0.00    -0.322 N 
ATOM     15  C   UNL A   1      29.713  26.541  23.962  1.00  0.00     0.256 C 
ATOM     16  H   UNL A   1      28.843  24.771  24.155  1.00  0.00     0.170 HD
ATOM     17  O   UNL A   1      28.636  27.043  23.625  1.00  0.00    -0.269 OA
BRANCH  15  18
ATOM     18  C   UNL A   1      30.898  27.433  23.995  1.00  0.00     0.048 A 
ATOM     19  C   UNL A   1      31.404  27.738  22.719  1.00  0.00     0.014 A 
ATOM     20  C   UNL A   1      31.574  27.879  25.171  1.00  0.00    -0.006 A 
ATOM     21  C   UNL A   1      32.575  28.466  22.576  1.00  0.00     0.001 A 
ATOM     22  C   UNL A   1      32.768  28.630  24.996  1.00  0.00    -0.018 A 
ATOM     23  C   UNL A   1      31.152  27.659  26.509  1.00  0.00     0.009 A 
ATOM     24  C   UNL A   1      33.259  28.893  23.709  1.00  0.00     0.009 A 
ATOM     25  C   UNL A   1      33.466  29.128  26.108  1.00  0.00     0.009 A 
ATOM     26  C   UNL A   1      31.807  28.243  27.599  1.00  0.00     0.001 A 
ATOM     27  C   UNL A   1      32.972  28.967  27.399  1.00  0.00     0.001 A 
ENDBRANCH  15  18
ENDBRANCH  13  14
ENDBRANCH   7   8
ENDBRANCH   6   7
ENDBRANCH   4   6
ENDBRANCH   1   2
BRANCH   1  28
ATOM     28  C   UNL A   1      37.783  20.295  24.635  1.00  0.00     0.042 C 
BRANCH  28  29
ATOM     29  C   UNL A   1      38.732  20.447  25.820  1.00  0.00     0.118 C 
BRANCH  29  30
ATOM     30  N   UNL A   1      39.823  19.481  25.811  1.00  0.00    -0.352 N 
ATOM     31  C   UNL A   1      41.157  19.638  26.100  1.00  0.00     0.251 C 
ATOM     32  H   UNL A   1      39.561  18.568  25.556  1.00  0.00     0.163 HD
ATOM     33  O   UNL A   1      41.931  18.710  25.890  1.00  0.00    -0.269 OA
BRANCH  31  34
ATOM     34  C   UNL A   1      41.677  20.917  26.634  1.00  0.00     0.039 A 
ATOM     35  C   UNL A   1      42.125  21.882  25.725  1.00  0.00     0.014 A 
ATOM     36  C   UNL A   1      41.753  21.169  28.005  1.00  0.00     0.014 A 
ATOM     37  C   UNL A   1      42.580  23.117  26.190  1.00  0.00     0.010 A 
ATOM     38  C   UNL A   1      42.129  22.432  28.464  1.00  0.00     0.010 A 
ATOM     39  C   UNL A   1      42.545  23.421  27.561  1.00  0.00    -0.014 A 
BRANCH  39  40
ATOM     40  C   UNL A   1      42.908  24.779  28.047  1.00  0.00     0.031 A 
ATOM     41  C   UNL A   1      41.853  25.828  28.275  1.00  0.00     0.074 A 
ATOM     42  C   UNL A   1      44.206  25.081  28.250  1.00  0.00     0.049 A 
ATOM     43  N   UNL A   1      41.993  27.057  28.708  1.00  0.00    -0.248 NA
ATOM     44  C   UNL A   1      40.465  25.459  27.958  1.00  0.00     0.031 C 
ATOM     45  C   UNL A   1      45.332  24.173  28.020  1.00  0.00     0.029 A 
ATOM     46  N   UNL A   1      44.797  26.236  28.699  1.00  0.00    -0.354 N 
ATOM     47  C   UNL A   1      40.718  27.607  28.707  1.00  0.00     0.074 A 
ATOM     48  C   UNL A   1      39.825  26.599  28.179  1.00  0.00     0.031 C 
ATOM     49  C   UNL A   1      46.472  24.789  28.371  1.00  0.00     0.029 A 
ATOM     50  C   UNL A   1      46.165  26.147  28.807  1.00  0.00     0.049 A 
ATOM     51  H   UNL A   1      44.291  27.049  28.923  1.00  0.00     0.167 HD
ATOM     52  C   UNL A   1      40.320  28.834  29.125  1.00  0.00     0.031 A 
ATOM     53  C   UNL A   1      47.073  27.055  29.211  1.00  0.00     0.031 A 
ATOM     54  C   UNL A   1      41.208  29.841  29.645  1.00  0.00     0.049 A 
ATOM     55  C   UNL A   1      46.607  28.413  29.654  1.00  0.00     0.074 A 
ATOM     56  C   UNL A   1      40.892  31.096  30.141  1.00  0.00     0.029 A 
ATOM     57  N   UNL A   1      42.586  29.715  29.731  1.00  0.00    -0.354 N 
ATOM     58  N   UNL A   1      45.388  28.890  29.719  1.00  0.00    -0.248 NA
ATOM     59  C   UNL A   1      47.647  29.353  30.096  1.00  0.00     0.031 C 
ATOM     60  C   UNL A   1      42.084  31.751  30.468  1.00  0.00     0.029 A 
ATOM     61  C   UNL A   1      43.136  30.879  30.244  1.00  0.00     0.049 A 
ATOM     62  H   UNL A   1      43.097  28.917  29.465  1.00  0.00     0.167 HD
ATOM     63  C   UNL A   1      45.511  30.172  30.238  1.00  0.00     0.074 A 
ATOM     64  C   UNL A   1      46.920  30.388  30.491  1.00  0.00     0.031 C 
ATOM     65  C   UNL A   1      44.541  31.088  30.484  1.00  0.00     0.031 A 
BRANCH  52  66
ATOM     66  C   UNL A   1      38.853  29.159  29.024  1.00  0.00    -0.014 A 
ATOM     67  C   UNL A   1      37.996  29.010  30.127  1.00  0.00     0.009 A 
ATOM     68  C   UNL A   1      38.329  29.663  27.824  1.00  0.00     0.009 A 
ATOM     69  C   UNL A   1      36.639  29.322  30.017  1.00  0.00     0.001 A 
ATOM     70  C   UNL A   1      36.979  30.005  27.726  1.00  0.00     0.001 A 
ATOM     71  C   UNL A   1      36.132  29.824  28.819  1.00  0.00     0.000 A 
ENDBRANCH  52  66
BRANCH  53  72
ATOM     72  C   UNL A   1      48.518  26.704  29.235  1.00  0.00    -0.014 A 
ATOM     73  C   UNL A   1      49.336  26.967  28.125  1.00  0.00     0.009 A 
ATOM     74  C   UNL A   1      49.086  26.095  30.365  1.00  0.00     0.009 A 
ATOM     75  C   UNL A   1      50.683  26.596  28.134  1.00  0.00     0.001 A 
ATOM     76  C   UNL A   1      50.440  25.757  30.384  1.00  0.00     0.001 A 
ATOM     77  C   UNL A   1      51.234  25.997  29.265  1.00  0.00     0.000 A 
ENDBRANCH  53  72
BRANCH  65  78
ATOM     78  C   UNL A   1      44.975  32.394  31.094  1.00  0.00    -0.014 A 
ATOM     79  C   UNL A   1      45.054  32.566  32.485  1.00  0.00     0.009 A 
ATOM     80  C   UNL A   1      45.319  33.468  30.258  1.00  0.00     0.009 A 
ATOM     81  C   UNL A   1      45.419  33.802  33.025  1.00  0.00     0.001 A 
ATOM     82  C   UNL A   1      45.718  34.691  30.800  1.00  0.00     0.001 A 
ATOM     83  C   UNL A   1      45.753  34.862  32.182  1.00  0.00     0.000 A 
ENDBRANCH  65  78
ENDBRANCH  39  40
ENDBRANCH  31  34
ENDBRANCH  29  30
ENDBRANCH  28  29
ENDBRANCH   1  28
TORSDOF 14
ENDMDL
