MODEL 1
REMARK VINA RESULT:     -12.4      0.000      0.000
REMARK SMILES C[C@H](Nc1nccc(-c2cc(C(=O)NCCCNC(=O)c3ccc(-c4c5nc(c(-c6ccccc6)c6ccc([nH]6)c(-c6ccccc6)c6nc(c(-c7ccccc7)c7ccc4[nH]7)C=C6)C=C5)cc3)ccn2)n1)c1cn2ccsc2n1
REMARK SMILES IDX 15 1 14 2 12 3 13 4 11 6 9 7 10 8 71 9 70 10 69 11 8 12 4 13
REMARK SMILES IDX 5 14 72 15 6 16 7 17 3 18 2 20 1 21 73 22 74 23 80 24 75 25
REMARK SMILES IDX 79 26 76 27 78 28 77 29 16 30 17 31 18 32 19 33 20 35 21 36
REMARK SMILES IDX 22 37 68 38 23 39 67 40 24 41 25 42 26 43 61 44 27 45 66 46
REMARK SMILES IDX 60 47 62 48 28 49 65 50 59 51 58 52 29 54 51 55 36 56 50 57
REMARK SMILES IDX 37 58 40 59 49 60 63 61 38 62 39 63 48 65 64 66 41 67 30 68
REMARK SMILES IDX 31 69 35 70 32 71 34 72 33 73 52 74 53 75 57 76 54 77 56 78
REMARK SMILES IDX 55 79 42 80 43 81 47 82 44 83 46 84 45 85
REMARK H PARENT 14 5 3 19 18 34 62 53 40 64
REMARK Flexibility Score: inf
ROOT
ATOM      1  C   UNL A   1      36.433  20.582  25.016  1.00  0.00     0.118 C 
ENDROOT
BRANCH   1   2
ATOM      2  N   UNL A   1      35.345  19.623  24.962  1.00  0.00    -0.352 N 
ATOM      3  C   UNL A   1      33.980  19.738  24.918  1.00  0.00     0.251 C 
ATOM      4  O   UNL A   1      33.331  18.694  24.860  1.00  0.00    -0.269 OA
ATOM      5  H   UNL A   1      35.654  18.689  24.956  1.00  0.00     0.163 HD
BRANCH   3   6
ATOM      6  C   UNL A   1      33.260  21.038  24.868  1.00  0.00     0.043 A 
ATOM      7  C   UNL A   1      32.600  23.078  23.795  1.00  0.00     0.090 A 
ATOM      8  C   UNL A   1      33.484  22.015  23.910  1.00  0.00     0.044 A 
ATOM      9  N   UNL A   1      31.617  23.299  24.698  1.00  0.00    -0.255 NA
ATOM     10  C   UNL A   1      31.511  22.425  25.720  1.00  0.00     0.112 A 
ATOM     11  C   UNL A   1      32.274  21.275  25.827  1.00  0.00     0.034 A 
BRANCH   7  12
ATOM     12  C   UNL A   1      32.675  23.938  22.609  1.00  0.00     0.094 A 
ATOM     13  C   UNL A   1      32.724  26.070  21.773  1.00  0.00     0.223 A 
ATOM     14  N   UNL A   1      32.997  25.649  20.532  1.00  0.00    -0.222 NA
ATOM     15  N   UNL A   1      32.582  25.261  22.828  1.00  0.00    -0.211 NA
ATOM     16  C   UNL A   1      33.144  24.327  20.356  1.00  0.00     0.117 A 
ATOM     17  C   UNL A   1      32.987  23.415  21.366  1.00  0.00     0.051 A 
BRANCH  13  18
ATOM     18  N   UNL A   1      32.679  27.421  21.960  1.00  0.00    -0.346 N 
ATOM     19  H   UNL A   1      32.956  28.041  21.245  1.00  0.00     0.164 HD
BRANCH  18  20
ATOM     20  C   UNL A   1      32.214  27.921  23.238  1.00  0.00     0.130 C 
ATOM     21  C   UNL A   1      33.387  28.606  23.960  1.00  0.00     0.038 C 
BRANCH  20  22
ATOM     22  C   UNL A   1      31.070  28.893  23.113  1.00  0.00     0.082 A 
ATOM     23  C   UNL A   1      30.577  29.774  24.070  1.00  0.00     0.119 A 
ATOM     24  N   UNL A   1      30.353  28.992  21.922  1.00  0.00    -0.222 NA
ATOM     25  N   UNL A   1      29.540  30.397  23.453  1.00  0.00    -0.297 N 
ATOM     26  C   UNL A   1      29.451  29.890  22.192  1.00  0.00     0.193 A 
ATOM     27  C   UNL A   1      28.614  31.362  23.774  1.00  0.00     0.104 A 
ATOM     28  S   UNL A   1      28.149  30.625  21.312  1.00  0.00    -0.105 S 
ATOM     29  C   UNL A   1      27.787  31.609  22.743  1.00  0.00     0.087 A 
ENDBRANCH  20  22
ENDBRANCH  18  20
ENDBRANCH  13  18
ENDBRANCH   7  12
ENDBRANCH   3   6
ENDBRANCH   1   2
BRANCH   1  30
ATOM     30  C   UNL A   1      37.770  19.887  24.763  1.00  0.00     0.042 C 
BRANCH  30  31
ATOM     31  C   UNL A   1      38.850  20.398  25.711  1.00  0.00     0.118 C 
BRANCH  31  32
ATOM     32  N   UNL A   1      39.940  19.435  25.842  1.00  0.00    -0.352 N 
ATOM     33  C   UNL A   1      41.273  19.632  26.085  1.00  0.00     0.251 C 
ATOM     34  H   UNL A   1      39.674  18.493  25.740  1.00  0.00     0.163 HD
ATOM     35  O   UNL A   1      42.074  18.732  25.867  1.00  0.00    -0.269 OA
BRANCH  33  36
ATOM     36  C   UNL A   1      41.731  20.930  26.608  1.00  0.00     0.039 A 
ATOM     37  C   UNL A   1      42.217  21.885  25.715  1.00  0.00     0.014 A 
ATOM     38  C   UNL A   1      41.689  21.192  27.979  1.00  0.00     0.014 A 
ATOM     39  C   UNL A   1      42.607  23.130  26.199  1.00  0.00     0.010 A 
ATOM     40  C   UNL A   1      41.970  22.468  28.443  1.00  0.00     0.010 A 
ATOM     41  C   UNL A   1      42.442  23.446  27.558  1.00  0.00    -0.014 A 
BRANCH  41  42
ATOM     42  C   UNL A   1      42.744  24.804  28.064  1.00  0.00     0.031 A 
ATOM     43  C   UNL A   1      44.146  25.174  28.453  1.00  0.00     0.074 A 
ATOM     44  C   UNL A   1      41.741  25.689  28.210  1.00  0.00     0.049 A 
ATOM     45  N   UNL A   1      44.589  26.308  28.935  1.00  0.00    -0.248 NA
ATOM     46  C   UNL A   1      45.181  24.139  28.303  1.00  0.00     0.031 C 
ATOM     47  C   UNL A   1      40.334  25.434  27.890  1.00  0.00     0.029 A 
ATOM     48  N   UNL A   1      41.749  26.985  28.659  1.00  0.00    -0.354 N 
ATOM     49  C   UNL A   1      45.948  26.118  29.147  1.00  0.00     0.074 A 
ATOM     50  C   UNL A   1      46.246  24.746  28.804  1.00  0.00     0.031 C 
ATOM     51  C   UNL A   1      39.626  26.552  28.104  1.00  0.00     0.029 A 
ATOM     52  C   UNL A   1      40.510  27.578  28.645  1.00  0.00     0.049 A 
ATOM     53  H   UNL A   1      42.565  27.445  28.963  1.00  0.00     0.167 HD
ATOM     54  C   UNL A   1      46.868  27.016  29.573  1.00  0.00     0.031 A 
ATOM     55  C   UNL A   1      40.124  28.805  29.039  1.00  0.00     0.031 A 
ATOM     56  C   UNL A   1      46.561  28.373  29.935  1.00  0.00     0.049 A 
ATOM     57  C   UNL A   1      41.154  29.754  29.583  1.00  0.00     0.074 A 
ATOM     58  C   UNL A   1      47.429  29.367  30.348  1.00  0.00     0.029 A 
ATOM     59  N   UNL A   1      45.287  28.921  29.950  1.00  0.00    -0.354 N 
ATOM     60  N   UNL A   1      42.448  29.582  29.714  1.00  0.00    -0.248 NA
ATOM     61  C   UNL A   1      40.673  31.069  30.024  1.00  0.00     0.031 C 
ATOM     62  C   UNL A   1      46.673  30.485  30.705  1.00  0.00     0.029 A 
ATOM     63  C   UNL A   1      45.344  30.227  30.411  1.00  0.00     0.049 A 
ATOM     64  H   UNL A   1      44.466  28.454  29.674  1.00  0.00     0.167 HD
ATOM     65  C   UNL A   1      42.938  30.780  30.218  1.00  0.00     0.074 A 
ATOM     66  C   UNL A   1      41.807  31.674  30.347  1.00  0.00     0.031 C 
ATOM     67  C   UNL A   1      44.212  31.108  30.542  1.00  0.00     0.031 A 
BRANCH  54  68
ATOM     68  C   UNL A   1      48.291  26.544  29.703  1.00  0.00    -0.014 A 
ATOM     69  C   UNL A   1      48.759  25.930  30.875  1.00  0.00     0.009 A 
ATOM     70  C   UNL A   1      49.167  26.683  28.615  1.00  0.00     0.009 A 
ATOM     71  C   UNL A   1      50.088  25.511  30.972  1.00  0.00     0.001 A 
ATOM     72  C   UNL A   1      50.480  26.222  28.697  1.00  0.00     0.001 A 
ATOM     73  C   UNL A   1      50.944  25.651  29.881  1.00  0.00     0.000 A 
ENDBRANCH  54  68
BRANCH  55  74
ATOM     74  C   UNL A   1      38.692  29.202  28.958  1.00  0.00    -0.014 A 
ATOM     75  C   UNL A   1      37.837  29.039  30.059  1.00  0.00     0.009 A 
ATOM     76  C   UNL A   1      38.165  29.722  27.764  1.00  0.00     0.009 A 
ATOM     77  C   UNL A   1      36.477  29.342  29.948  1.00  0.00     0.001 A 
ATOM     78  C   UNL A   1      36.818  30.068  27.672  1.00  0.00     0.001 A 
ATOM     79  C   UNL A   1      35.971  29.861  28.759  1.00  0.00     0.000 A 
ENDBRANCH  55  74
BRANCH  67  80
ATOM     80  C   UNL A   1      44.467  32.513  31.020  1.00  0.00    -0.014 A 
ATOM     81  C   UNL A   1      44.371  32.864  32.377  1.00  0.00     0.009 A 
ATOM     82  C   UNL A   1      44.851  33.496  30.093  1.00  0.00     0.009 A 
ATOM     83  C   UNL A   1      44.601  34.179  32.784  1.00  0.00     0.001 A 
ATOM     84  C   UNL A   1      45.130  34.797  30.510  1.00  0.00     0.001 A 
ATOM     85  C   UNL A   1      44.989  35.142  31.852  1.00  0.00     0.000 A 
ENDBRANCH  67  80
ENDBRANCH  41  42
ENDBRANCH  33  36
ENDBRANCH  31  32
ENDBRANCH  30  31
ENDBRANCH   1  30
TORSDOF 14
ENDMDL
MODEL 2
REMARK VINA RESULT:     -12.2      4.729     10.161
REMARK SMILES C[C@H](Nc1nccc(-c2cc(C(=O)NCCCNC(=O)c3ccc(-c4c5nc(c(-c6ccccc6)c6ccc([nH]6)c(-c6ccccc6)c6nc(c(-c7ccccc7)c7ccc4[nH]7)C=C6)C=C5)cc3)ccn2)n1)c1cn2ccsc2n1
REMARK SMILES IDX 15 1 14 2 12 3 13 4 11 6 9 7 10 8 71 9 70 10 69 11 8 12 4 13
REMARK SMILES IDX 5 14 72 15 6 16 7 17 3 18 2 20 1 21 73 22 74 23 80 24 75 25
REMARK SMILES IDX 79 26 76 27 78 28 77 29 16 30 17 31 18 32 19 33 20 35 21 36
REMARK SMILES IDX 22 37 68 38 23 39 67 40 24 41 25 42 26 43 61 44 27 45 66 46
REMARK SMILES IDX 60 47 62 48 28 49 65 50 59 51 58 52 29 54 51 55 36 56 50 57
REMARK SMILES IDX 37 58 40 59 49 60 63 61 38 62 39 63 48 65 64 66 41 67 30 68
REMARK SMILES IDX 31 69 35 70 32 71 34 72 33 73 52 74 53 75 57 76 54 77 56 78
REMARK SMILES IDX 55 79 42 80 43 81 47 82 44 83 46 84 45 85
REMARK H PARENT 14 5 3 19 18 34 62 53 40 64
REMARK Flexibility Score: inf
ROOT
ATOM      1  C   UNL A   1      31.708  30.805  26.667  1.00  0.00     0.118 C 
ENDROOT
BRANCH   1   2
ATOM      2  N   UNL A   1      33.005  30.416  27.190  1.00  0.00    -0.352 N 
ATOM      3  C   UNL A   1      33.866  29.384  26.923  1.00  0.00     0.251 C 
ATOM      4  O   UNL A   1      34.921  29.356  27.554  1.00  0.00    -0.269 OA
ATOM      5  H   UNL A   1      33.338  31.024  27.888  1.00  0.00     0.163 HD
BRANCH   3   6
ATOM      6  C   UNL A   1      33.623  28.353  25.878  1.00  0.00     0.043 A 
ATOM      7  C   UNL A   1      32.778  26.245  25.109  1.00  0.00     0.090 A 
ATOM      8  C   UNL A   1      33.216  27.055  26.147  1.00  0.00     0.044 A 
ATOM      9  N   UNL A   1      32.897  26.609  23.811  1.00  0.00    -0.255 NA
ATOM     10  C   UNL A   1      33.445  27.816  23.557  1.00  0.00     0.112 A 
ATOM     11  C   UNL A   1      33.785  28.726  24.544  1.00  0.00     0.034 A 
BRANCH   7  12
ATOM     12  C   UNL A   1      32.083  24.995  25.430  1.00  0.00     0.094 A 
ATOM     13  C   UNL A   1      32.171  22.707  25.518  1.00  0.00     0.223 A 
ATOM     14  N   UNL A   1      30.997  22.620  26.156  1.00  0.00    -0.222 NA
ATOM     15  N   UNL A   1      32.751  23.859  25.165  1.00  0.00    -0.211 NA
ATOM     16  C   UNL A   1      30.382  23.773  26.460  1.00  0.00     0.117 A 
ATOM     17  C   UNL A   1      30.879  25.001  26.113  1.00  0.00     0.051 A 
BRANCH  13  18
ATOM     18  N   UNL A   1      32.836  21.534  25.306  1.00  0.00    -0.346 N 
ATOM     19  H   UNL A   1      33.736  21.388  25.678  1.00  0.00     0.164 HD
BRANCH  18  20
ATOM     20  C   UNL A   1      32.182  20.509  24.517  1.00  0.00     0.130 C 
ATOM     21  C   UNL A   1      32.258  20.902  23.032  1.00  0.00     0.038 C 
BRANCH  20  22
ATOM     22  C   UNL A   1      32.786  19.142  24.704  1.00  0.00     0.082 A 
ATOM     23  C   UNL A   1      34.114  18.758  24.552  1.00  0.00     0.119 A 
ATOM     24  N   UNL A   1      31.988  18.061  25.076  1.00  0.00    -0.222 NA
ATOM     25  N   UNL A   1      34.112  17.425  24.818  1.00  0.00    -0.297 N 
ATOM     26  C   UNL A   1      32.831  17.070  25.114  1.00  0.00     0.193 A 
ATOM     27  C   UNL A   1      35.038  16.410  24.862  1.00  0.00     0.104 A 
ATOM     28  S   UNL A   1      32.718  15.377  25.473  1.00  0.00    -0.105 S 
ATOM     29  C   UNL A   1      34.465  15.240  25.196  1.00  0.00     0.087 A 
ENDBRANCH  20  22
ENDBRANCH  18  20
ENDBRANCH  13  18
ENDBRANCH   7  12
ENDBRANCH   3   6
ENDBRANCH   1   2
BRANCH   1  30
ATOM     30  C   UNL A   1      31.491  32.307  26.841  1.00  0.00     0.042 C 
BRANCH  30  31
ATOM     31  C   UNL A   1      32.795  33.022  27.179  1.00  0.00     0.118 C 
BRANCH  31  32
ATOM     32  N   UNL A   1      32.545  34.355  27.721  1.00  0.00    -0.352 N 
ATOM     33  C   UNL A   1      33.065  34.974  28.826  1.00  0.00     0.251 C 
ATOM     34  H   UNL A   1      31.898  34.894  27.212  1.00  0.00     0.163 HD
ATOM     35  O   UNL A   1      32.518  35.969  29.284  1.00  0.00    -0.269 OA
BRANCH  33  36
ATOM     36  C   UNL A   1      34.284  34.435  29.453  1.00  0.00     0.039 A 
ATOM     37  C   UNL A   1      34.182  33.798  30.690  1.00  0.00     0.014 A 
ATOM     38  C   UNL A   1      35.522  34.574  28.823  1.00  0.00     0.014 A 
ATOM     39  C   UNL A   1      35.323  33.246  31.265  1.00  0.00     0.010 A 
ATOM     40  C   UNL A   1      36.633  33.926  29.341  1.00  0.00     0.010 A 
ATOM     41  C   UNL A   1      36.545  33.265  30.573  1.00  0.00    -0.014 A 
BRANCH  41  42
ATOM     42  C   UNL A   1      37.739  32.581  31.120  1.00  0.00     0.031 A 
ATOM     43  C   UNL A   1      38.414  33.103  32.354  1.00  0.00     0.074 A 
ATOM     44  C   UNL A   1      38.236  31.509  30.474  1.00  0.00     0.049 A 
ATOM     45  N   UNL A   1      39.480  32.645  32.961  1.00  0.00    -0.248 NA
ATOM     46  C   UNL A   1      37.835  34.303  32.981  1.00  0.00     0.031 C 
ATOM     47  C   UNL A   1      37.681  30.926  29.250  1.00  0.00     0.029 A 
ATOM     48  N   UNL A   1      39.316  30.714  30.760  1.00  0.00    -0.354 N 
ATOM     49  C   UNL A   1      39.697  33.500  34.032  1.00  0.00     0.074 A 
ATOM     50  C   UNL A   1      38.696  34.540  33.958  1.00  0.00     0.031 C 
ATOM     51  C   UNL A   1      38.392  29.839  28.920  1.00  0.00     0.029 A 
ATOM     52  C   UNL A   1      39.495  29.689  29.863  1.00  0.00     0.049 A 
ATOM     53  H   UNL A   1      39.906  30.864  31.534  1.00  0.00     0.167 HD
ATOM     54  C   UNL A   1      40.638  33.415  35.002  1.00  0.00     0.031 A 
ATOM     55  C   UNL A   1      40.451  28.744  29.794  1.00  0.00     0.031 A 
ATOM     56  C   UNL A   1      41.647  32.391  35.057  1.00  0.00     0.049 A 
ATOM     57  C   UNL A   1      41.530  28.722  30.839  1.00  0.00     0.074 A 
ATOM     58  C   UNL A   1      42.625  32.201  36.017  1.00  0.00     0.029 A 
ATOM     59  N   UNL A   1      41.822  31.398  34.104  1.00  0.00    -0.354 N 
ATOM     60  N   UNL A   1      41.683  29.498  31.885  1.00  0.00    -0.248 NA
ATOM     61  C   UNL A   1      42.562  27.687  30.700  1.00  0.00     0.031 C 
ATOM     62  C   UNL A   1      43.449  31.157  35.597  1.00  0.00     0.029 A 
ATOM     63  C   UNL A   1      42.923  30.623  34.432  1.00  0.00     0.049 A 
ATOM     64  H   UNL A   1      41.250  31.264  33.315  1.00  0.00     0.167 HD
ATOM     65  C   UNL A   1      42.808  29.022  32.547  1.00  0.00     0.074 A 
ATOM     66  C   UNL A   1      43.281  27.878  31.797  1.00  0.00     0.031 C 
ATOM     67  C   UNL A   1      43.391  29.490  33.677  1.00  0.00     0.031 A 
BRANCH  54  68
ATOM     68  C   UNL A   1      40.641  34.480  36.064  1.00  0.00    -0.014 A 
ATOM     69  C   UNL A   1      39.950  34.316  37.275  1.00  0.00     0.009 A 
ATOM     70  C   UNL A   1      41.384  35.655  35.863  1.00  0.00     0.009 A 
ATOM     71  C   UNL A   1      39.961  35.326  38.239  1.00  0.00     0.001 A 
ATOM     72  C   UNL A   1      41.432  36.641  36.847  1.00  0.00     0.001 A 
ATOM     73  C   UNL A   1      40.708  36.484  38.027  1.00  0.00     0.000 A 
ENDBRANCH  54  68
BRANCH  55  74
ATOM     74  C   UNL A   1      40.447  27.754  28.683  1.00  0.00    -0.014 A 
ATOM     75  C   UNL A   1      41.069  28.043  27.459  1.00  0.00     0.009 A 
ATOM     76  C   UNL A   1      39.792  26.520  28.833  1.00  0.00     0.009 A 
ATOM     77  C   UNL A   1      40.993  27.139  26.396  1.00  0.00     0.001 A 
ATOM     78  C   UNL A   1      39.760  25.600  27.786  1.00  0.00     0.001 A 
ATOM     79  C   UNL A   1      40.344  25.917  26.563  1.00  0.00     0.000 A 
ENDBRANCH  55  74
BRANCH  67  80
ATOM     80  C   UNL A   1      44.582  28.735  34.207  1.00  0.00    -0.014 A 
ATOM     81  C   UNL A   1      45.898  29.126  33.913  1.00  0.00     0.009 A 
ATOM     82  C   UNL A   1      44.376  27.632  35.051  1.00  0.00     0.009 A 
ATOM     83  C   UNL A   1      46.979  28.396  34.410  1.00  0.00     0.001 A 
ATOM     84  C   UNL A   1      45.459  26.936  35.588  1.00  0.00     0.001 A 
ATOM     85  C   UNL A   1      46.759  27.307  35.254  1.00  0.00     0.000 A 
ENDBRANCH  67  80
ENDBRANCH  41  42
ENDBRANCH  33  36
ENDBRANCH  31  32
ENDBRANCH  30  31
ENDBRANCH   1  30
TORSDOF 14
ENDMDL
MODEL 3
REMARK VINA RESULT:     -12.1      1.651      2.226
REMARK SMILES C[C@H](Nc1nccc(-c2cc(C(=O)NCCCNC(=O)c3ccc(-c4c5nc(c(-c6ccccc6)c6ccc([nH]6)c(-c6ccccc6)c6nc(c(-c7ccccc7)c7ccc4[nH]7)C=C6)C=C5)cc3)ccn2)n1)c1cn2ccsc2n1
REMARK SMILES IDX 15 1 14 2 12 3 13 4 11 6 9 7 10 8 71 9 70 10 69 11 8 12 4 13
REMARK SMILES IDX 5 14 72 15 6 16 7 17 3 18 2 20 1 21 73 22 74 23 80 24 75 25
REMARK SMILES IDX 79 26 76 27 78 28 77 29 16 30 17 31 18 32 19 33 20 35 21 36
REMARK SMILES IDX 22 37 68 38 23 39 67 40 24 41 25 42 26 43 61 44 27 45 66 46
REMARK SMILES IDX 60 47 62 48 28 49 65 50 59 51 58 52 29 54 51 55 36 56 50 57
REMARK SMILES IDX 37 58 40 59 49 60 63 61 38 62 39 63 48 65 64 66 41 67 30 68
REMARK SMILES IDX 31 69 35 70 32 71 34 72 33 73 52 74 53 75 57 76 54 77 56 78
REMARK SMILES IDX 55 79 42 80 43 81 47 82 44 83 46 84 45 85
REMARK H PARENT 14 5 3 19 18 34 62 53 40 64
REMARK Flexibility Score: inf
ROOT
ATOM      1  C   UNL A   1      37.208  20.883  24.737  1.00  0.00     0.118 C 
ENDROOT
BRANCH   1   2
ATOM      2  N   UNL A   1      37.656  22.103  25.383  1.00  0.00    -0.352 N 
ATOM      3  C   UNL A   1      37.016  23.225  25.841  1.00  0.00     0.251 C 
ATOM      4  O   UNL A   1      37.712  24.092  26.368  1.00  0.00    -0.269 OA
ATOM      5  H   UNL A   1      38.630  22.132  25.520  1.00  0.00     0.163 HD
BRANCH   3   6
ATOM      6  C   UNL A   1      35.541  23.413  25.798  1.00  0.00     0.043 A 
ATOM      7  C   UNL A   1      33.504  24.109  24.743  1.00  0.00     0.090 A 
ATOM      8  C   UNL A   1      34.884  24.192  24.858  1.00  0.00     0.044 A 
ATOM      9  N   UNL A   1      32.746  23.427  25.633  1.00  0.00    -0.255 NA
ATOM     10  C   UNL A   1      33.391  22.803  26.641  1.00  0.00     0.112 A 
ATOM     11  C   UNL A   1      34.770  22.737  26.744  1.00  0.00     0.034 A 
BRANCH   7  12
ATOM     12  C   UNL A   1      32.853  24.703  23.571  1.00  0.00     0.094 A 
ATOM     13  C   UNL A   1      31.263  26.146  22.773  1.00  0.00     0.223 A 
ATOM     14  N   UNL A   1      31.688  26.022  21.510  1.00  0.00    -0.222 NA
ATOM     15  N   UNL A   1      31.825  25.532  23.820  1.00  0.00    -0.211 NA
ATOM     16  C   UNL A   1      32.754  25.234  21.301  1.00  0.00     0.117 A 
ATOM     17  C   UNL A   1      33.379  24.539  22.301  1.00  0.00     0.051 A 
BRANCH  13  18
ATOM     18  N   UNL A   1      30.244  27.029  22.987  1.00  0.00    -0.346 N 
ATOM     19  H   UNL A   1      29.358  26.716  23.286  1.00  0.00     0.164 HD
BRANCH  18  20
ATOM     20  C   UNL A   1      30.499  28.437  22.762  1.00  0.00     0.130 C 
ATOM     21  C   UNL A   1      29.159  29.150  22.510  1.00  0.00     0.038 C 
BRANCH  20  22
ATOM     22  C   UNL A   1      31.209  29.102  23.913  1.00  0.00     0.082 A 
ATOM     23  C   UNL A   1      32.446  28.782  24.464  1.00  0.00     0.119 A 
ATOM     24  N   UNL A   1      30.628  30.184  24.572  1.00  0.00    -0.222 NA
ATOM     25  N   UNL A   1      32.602  29.672  25.479  1.00  0.00    -0.297 N 
ATOM     26  C   UNL A   1      31.497  30.467  25.499  1.00  0.00     0.193 A 
ATOM     27  C   UNL A   1      33.553  29.949  26.433  1.00  0.00     0.104 A 
ATOM     28  S   UNL A   1      31.598  31.647  26.767  1.00  0.00    -0.105 S 
ATOM     29  C   UNL A   1      33.179  30.978  27.212  1.00  0.00     0.087 A 
ENDBRANCH  20  22
ENDBRANCH  18  20
ENDBRANCH  13  18
ENDBRANCH   7  12
ENDBRANCH   3   6
ENDBRANCH   1   2
BRANCH   1  30
ATOM     30  C   UNL A   1      38.235  19.769  24.930  1.00  0.00     0.042 C 
BRANCH  30  31
ATOM     31  C   UNL A   1      39.264  20.139  25.992  1.00  0.00     0.118 C 
BRANCH  31  32
ATOM     32  N   UNL A   1      40.428  19.258  25.934  1.00  0.00    -0.352 N 
ATOM     33  C   UNL A   1      41.764  19.551  25.985  1.00  0.00     0.251 C 
ATOM     34  H   UNL A   1      40.218  18.301  25.843  1.00  0.00     0.163 HD
ATOM     35  O   UNL A   1      42.587  18.718  25.625  1.00  0.00    -0.269 OA
BRANCH  33  36
ATOM     36  C   UNL A   1      42.200  20.869  26.475  1.00  0.00     0.039 A 
ATOM     37  C   UNL A   1      42.572  21.845  25.550  1.00  0.00     0.014 A 
ATOM     38  C   UNL A   1      42.252  21.130  27.846  1.00  0.00     0.014 A 
ATOM     39  C   UNL A   1      42.940  23.107  26.007  1.00  0.00     0.010 A 
ATOM     40  C   UNL A   1      42.507  22.418  28.291  1.00  0.00     0.010 A 
ATOM     41  C   UNL A   1      42.865  23.416  27.375  1.00  0.00    -0.014 A 
BRANCH  41  42
ATOM     42  C   UNL A   1      43.141  24.787  27.861  1.00  0.00     0.031 A 
ATOM     43  C   UNL A   1      44.548  25.215  28.164  1.00  0.00     0.074 A 
ATOM     44  C   UNL A   1      42.113  25.631  28.066  1.00  0.00     0.049 A 
ATOM     45  N   UNL A   1      44.973  26.368  28.617  1.00  0.00    -0.248 NA
ATOM     46  C   UNL A   1      45.613  24.222  27.952  1.00  0.00     0.031 C 
ATOM     47  C   UNL A   1      40.701  25.318  27.832  1.00  0.00     0.029 A 
ATOM     48  N   UNL A   1      42.096  26.928  28.513  1.00  0.00    -0.354 N 
ATOM     49  C   UNL A   1      46.348  26.234  28.746  1.00  0.00     0.074 A 
ATOM     50  C   UNL A   1      46.680  24.874  28.388  1.00  0.00     0.031 C 
ATOM     51  C   UNL A   1      39.962  26.408  28.087  1.00  0.00     0.029 A 
ATOM     52  C   UNL A   1      40.835  27.470  28.572  1.00  0.00     0.049 A 
ATOM     53  H   UNL A   1      42.909  27.422  28.766  1.00  0.00     0.167 HD
ATOM     54  C   UNL A   1      47.255  27.170  29.115  1.00  0.00     0.031 A 
ATOM     55  C   UNL A   1      40.424  28.682  28.988  1.00  0.00     0.031 A 
ATOM     56  C   UNL A   1      46.915  28.515  29.494  1.00  0.00     0.049 A 
ATOM     57  C   UNL A   1      41.445  29.674  29.468  1.00  0.00     0.074 A 
ATOM     58  C   UNL A   1      47.766  29.545  29.852  1.00  0.00     0.029 A 
ATOM     59  N   UNL A   1      45.623  29.011  29.584  1.00  0.00    -0.354 N 
ATOM     60  N   UNL A   1      42.750  29.555  29.520  1.00  0.00    -0.248 NA
ATOM     61  C   UNL A   1      40.939  30.970  29.936  1.00  0.00     0.031 C 
ATOM     62  C   UNL A   1      46.987  30.632  30.253  1.00  0.00     0.029 A 
ATOM     63  C   UNL A   1      45.655  30.319  30.040  1.00  0.00     0.049 A 
ATOM     64  H   UNL A   1      44.807  28.510  29.359  1.00  0.00     0.167 HD
ATOM     65  C   UNL A   1      43.221  30.774  29.993  1.00  0.00     0.074 A 
ATOM     66  C   UNL A   1      42.064  31.622  30.189  1.00  0.00     0.031 C 
ATOM     67  C   UNL A   1      44.498  31.155  30.238  1.00  0.00     0.031 A 
BRANCH  54  68
ATOM     68  C   UNL A   1      48.701  26.757  29.159  1.00  0.00    -0.014 A 
ATOM     69  C   UNL A   1      49.544  26.906  28.047  1.00  0.00     0.009 A 
ATOM     70  C   UNL A   1      49.238  26.246  30.351  1.00  0.00     0.009 A 
ATOM     71  C   UNL A   1      50.880  26.505  28.113  1.00  0.00     0.001 A 
ATOM     72  C   UNL A   1      50.583  25.890  30.429  1.00  0.00     0.001 A 
ATOM     73  C   UNL A   1      51.400  26.004  29.306  1.00  0.00     0.000 A 
ENDBRANCH  54  68
BRANCH  55  74
ATOM     74  C   UNL A   1      38.974  29.020  28.993  1.00  0.00    -0.014 A 
ATOM     75  C   UNL A   1      38.357  29.558  27.852  1.00  0.00     0.009 A 
ATOM     76  C   UNL A   1      38.205  28.832  30.153  1.00  0.00     0.009 A 
ATOM     77  C   UNL A   1      37.015  29.945  27.892  1.00  0.00     0.001 A 
ATOM     78  C   UNL A   1      36.853  29.175  30.173  1.00  0.00     0.001 A 
ATOM     79  C   UNL A   1      36.264  29.748  29.048  1.00  0.00     0.000 A 
ENDBRANCH  55  74
BRANCH  67  80
ATOM     80  C   UNL A   1      44.724  32.571  30.699  1.00  0.00    -0.014 A 
ATOM     81  C   UNL A   1      44.777  32.908  32.061  1.00  0.00     0.009 A 
ATOM     82  C   UNL A   1      44.927  33.580  29.743  1.00  0.00     0.009 A 
ATOM     83  C   UNL A   1      44.975  34.233  32.453  1.00  0.00     0.001 A 
ATOM     84  C   UNL A   1      45.176  34.894  30.139  1.00  0.00     0.001 A 
ATOM     85  C   UNL A   1      45.183  35.223  31.492  1.00  0.00     0.000 A 
ENDBRANCH  67  80
ENDBRANCH  41  42
ENDBRANCH  33  36
ENDBRANCH  31  32
ENDBRANCH  30  31
ENDBRANCH   1  30
TORSDOF 14
ENDMDL
