MODEL 1
REMARK VINA RESULT:     -11.4      0.000      0.000
REMARK SMILES CCn1c(=O)n(CC)c2cc(C(=O)NCCCNC(=O)c3ccc(-c4c5nc(c(-c6ccccc6)c6ccc([nH]6)c(-c6ccccc6)c6nc(c(-c7ccccc7)c7ccc4[nH]7)C=C6)C=C5)cc3)ccc21
REMARK SMILES IDX 16 1 15 2 14 3 12 4 13 5 11 7 3 8 4 9 71 10 5 11 6 12 9 13
REMARK SMILES IDX 70 14 10 15 69 16 2 17 1 18 7 19 8 20 17 21 18 22 19 23
REMARK SMILES IDX 20 25 21 26 22 27 68 28 23 29 67 30 24 31 25 32 26 33 61 34
REMARK SMILES IDX 27 35 66 36 60 37 62 38 28 39 65 40 59 41 58 42 29 44 51 45
REMARK SMILES IDX 36 46 50 47 37 48 40 49 49 50 63 51 38 52 39 53 48 55 64 56
REMARK SMILES IDX 41 57 30 58 31 59 35 60 32 61 34 62 33 63 52 64 53 65 57 66
REMARK SMILES IDX 54 67 56 68 55 69 42 70 43 71 47 72 44 73 46 74 45 75
REMARK H PARENT 14 6 18 24 62 43 40 54
REMARK Flexibility Score: inf
ROOT
ATOM      1  C   UNL A   1      39.440  32.660  33.308  1.00  0.00     0.042 C 
ENDROOT
BRANCH   1   2
ATOM      2  C   UNL A   1      38.534  31.825  34.220  1.00  0.00     0.118 C 
BRANCH   2   3
ATOM      3  N   UNL A   1      37.831  30.796  33.474  1.00  0.00    -0.352 N 
ATOM      4  C   UNL A   1      36.722  30.791  32.667  1.00  0.00     0.251 C 
ATOM      5  O   UNL A   1      36.429  29.714  32.142  1.00  0.00    -0.269 OA
ATOM      6  H   UNL A   1      38.241  29.906  33.568  1.00  0.00     0.163 HD
BRANCH   4   7
ATOM      7  C   UNL A   1      35.883  31.987  32.361  1.00  0.00     0.042 A 
ATOM      8  N   UNL A   1      33.700  35.276  30.973  1.00  0.00    -0.292 N 
ATOM      9  C   UNL A   1      33.782  35.040  29.575  1.00  0.00     0.329 A 
ATOM     10  C   UNL A   1      34.382  34.241  31.636  1.00  0.00     0.069 A 
ATOM     11  O   UNL A   1      33.272  35.724  28.691  1.00  0.00    -0.248 OA
ATOM     12  N   UNL A   1      34.532  33.862  29.405  1.00  0.00    -0.292 N 
ATOM     13  C   UNL A   1      34.913  33.385  30.667  1.00  0.00     0.070 A 
ATOM     14  C   UNL A   1      34.552  33.959  32.973  1.00  0.00     0.029 A 
ATOM     15  C   UNL A   1      35.663  32.270  30.999  1.00  0.00     0.042 A 
ATOM     16  C   UNL A   1      35.282  32.812  33.328  1.00  0.00     0.016 A 
BRANCH   8  17
ATOM     17  C   UNL A   1      32.948  36.397  31.478  1.00  0.00     0.124 C 
ATOM     18  C   UNL A   1      33.645  37.440  32.329  1.00  0.00     0.028 C 
ENDBRANCH   8  17
BRANCH  12  19
ATOM     19  C   UNL A   1      34.758  33.211  28.139  1.00  0.00     0.124 C 
ATOM     20  C   UNL A   1      33.931  31.951  27.946  1.00  0.00     0.028 C 
ENDBRANCH  12  19
ENDBRANCH   4   7
ENDBRANCH   2   3
ENDBRANCH   1   2
BRANCH   1  21
ATOM     21  C   UNL A   1      38.905  34.075  33.069  1.00  0.00     0.118 C 
BRANCH  21  22
ATOM     22  N   UNL A   1      39.227  34.598  31.755  1.00  0.00    -0.352 N 
ATOM     23  C   UNL A   1      39.672  34.070  30.575  1.00  0.00     0.251 C 
ATOM     24  H   UNL A   1      39.090  35.571  31.698  1.00  0.00     0.163 HD
ATOM     25  O   UNL A   1      39.806  34.872  29.646  1.00  0.00    -0.269 OA
BRANCH  23  26
ATOM     26  C   UNL A   1      40.049  32.648  30.343  1.00  0.00     0.039 A 
ATOM     27  C   UNL A   1      39.167  31.599  30.094  1.00  0.00     0.014 A 
ATOM     28  C   UNL A   1      41.428  32.359  30.409  1.00  0.00     0.014 A 
ATOM     29  C   UNL A   1      39.639  30.290  30.002  1.00  0.00     0.010 A 
ATOM     30  C   UNL A   1      41.907  31.056  30.299  1.00  0.00     0.010 A 
ATOM     31  C   UNL A   1      41.004  30.012  30.137  1.00  0.00    -0.014 A 
BRANCH  31  32
ATOM     32  C   UNL A   1      41.434  28.620  30.008  1.00  0.00     0.031 A 
ATOM     33  C   UNL A   1      42.155  28.060  31.188  1.00  0.00     0.074 A 
ATOM     34  C   UNL A   1      41.154  27.825  28.957  1.00  0.00     0.049 A 
ATOM     35  N   UNL A   1      43.368  27.614  31.241  1.00  0.00    -0.248 NA
ATOM     36  C   UNL A   1      41.461  28.076  32.484  1.00  0.00     0.031 C 
ATOM     37  C   UNL A   1      40.233  28.071  27.845  1.00  0.00     0.029 A 
ATOM     38  N   UNL A   1      41.590  26.552  28.718  1.00  0.00    -0.354 N 
ATOM     39  C   UNL A   1      43.560  27.163  32.545  1.00  0.00     0.074 A 
ATOM     40  C   UNL A   1      42.390  27.560  33.290  1.00  0.00     0.031 C 
ATOM     41  C   UNL A   1      40.006  26.908  27.187  1.00  0.00     0.029 A 
ATOM     42  C   UNL A   1      40.884  25.884  27.729  1.00  0.00     0.049 A 
ATOM     43  H   UNL A   1      42.341  26.145  29.207  1.00  0.00     0.167 HD
ATOM     44  C   UNL A   1      44.601  26.357  32.895  1.00  0.00     0.031 A 
ATOM     45  C   UNL A   1      40.978  24.569  27.418  1.00  0.00     0.031 A 
ATOM     46  C   UNL A   1      45.649  26.368  31.913  1.00  0.00     0.049 A 
ATOM     47  C   UNL A   1      42.275  24.071  27.926  1.00  0.00     0.074 A 
ATOM     48  C   UNL A   1      46.510  27.327  31.419  1.00  0.00     0.029 A 
ATOM     49  N   UNL A   1      45.706  25.321  31.026  1.00  0.00    -0.354 N 
ATOM     50  N   UNL A   1      43.428  24.420  27.437  1.00  0.00    -0.248 NA
ATOM     51  C   UNL A   1      42.312  23.457  29.242  1.00  0.00     0.031 C 
ATOM     52  C   UNL A   1      46.658  27.014  30.038  1.00  0.00     0.029 A 
ATOM     53  C   UNL A   1      45.922  25.855  29.781  1.00  0.00     0.049 A 
ATOM     54  H   UNL A   1      45.609  24.366  31.243  1.00  0.00     0.167 HD
ATOM     55  C   UNL A   1      44.270  24.481  28.535  1.00  0.00     0.074 A 
ATOM     56  C   UNL A   1      43.564  23.761  29.592  1.00  0.00     0.031 C 
ATOM     57  C   UNL A   1      45.330  25.342  28.564  1.00  0.00     0.031 A 
BRANCH  44  58
ATOM     58  C   UNL A   1      44.534  25.319  33.985  1.00  0.00    -0.014 A 
ATOM     59  C   UNL A   1      43.843  24.101  33.840  1.00  0.00     0.009 A 
ATOM     60  C   UNL A   1      45.390  25.430  35.097  1.00  0.00     0.009 A 
ATOM     61  C   UNL A   1      43.997  23.048  34.746  1.00  0.00     0.001 A 
ATOM     62  C   UNL A   1      45.579  24.362  35.983  1.00  0.00     0.001 A 
ATOM     63  C   UNL A   1      44.884  23.170  35.805  1.00  0.00     0.000 A 
ENDBRANCH  44  58
BRANCH  45  64
ATOM     64  C   UNL A   1      39.902  23.636  27.027  1.00  0.00    -0.014 A 
ATOM     65  C   UNL A   1      40.213  22.304  26.700  1.00  0.00     0.009 A 
ATOM     66  C   UNL A   1      38.637  24.124  26.659  1.00  0.00     0.009 A 
ATOM     67  C   UNL A   1      39.317  21.507  25.982  1.00  0.00     0.001 A 
ATOM     68  C   UNL A   1      37.741  23.326  25.937  1.00  0.00     0.001 A 
ATOM     69  C   UNL A   1      38.089  22.025  25.582  1.00  0.00     0.000 A 
ENDBRANCH  45  64
BRANCH  57  70
ATOM     70  C   UNL A   1      45.729  26.031  27.276  1.00  0.00    -0.014 A 
ATOM     71  C   UNL A   1      45.006  27.165  26.875  1.00  0.00     0.009 A 
ATOM     72  C   UNL A   1      46.683  25.509  26.384  1.00  0.00     0.009 A 
ATOM     73  C   UNL A   1      45.226  27.758  25.629  1.00  0.00     0.001 A 
ATOM     74  C   UNL A   1      46.926  26.119  25.149  1.00  0.00     0.001 A 
ATOM     75  C   UNL A   1      46.191  27.238  24.769  1.00  0.00     0.000 A 
ENDBRANCH  57  70
ENDBRANCH  31  32
ENDBRANCH  23  26
ENDBRANCH  21  22
ENDBRANCH   1  21
TORSDOF 12
ENDMDL
MODEL 2
REMARK VINA RESULT:     -11.2      3.665      6.295
REMARK SMILES CCn1c(=O)n(CC)c2cc(C(=O)NCCCNC(=O)c3ccc(-c4c5nc(c(-c6ccccc6)c6ccc([nH]6)c(-c6ccccc6)c6nc(c(-c7ccccc7)c7ccc4[nH]7)C=C6)C=C5)cc3)ccc21
REMARK SMILES IDX 16 1 15 2 14 3 12 4 13 5 11 7 3 8 4 9 71 10 5 11 6 12 9 13
REMARK SMILES IDX 70 14 10 15 69 16 2 17 1 18 7 19 8 20 17 21 18 22 19 23
REMARK SMILES IDX 20 25 21 26 22 27 68 28 23 29 67 30 24 31 25 32 26 33 61 34
REMARK SMILES IDX 27 35 66 36 60 37 62 38 28 39 65 40 59 41 58 42 29 44 51 45
REMARK SMILES IDX 36 46 50 47 37 48 40 49 49 50 63 51 38 52 39 53 48 55 64 56
REMARK SMILES IDX 41 57 30 58 31 59 35 60 32 61 34 62 33 63 52 64 53 65 57 66
REMARK SMILES IDX 54 67 56 68 55 69 42 70 43 71 47 72 44 73 46 74 45 75
REMARK H PARENT 14 6 18 24 62 43 40 54
REMARK Flexibility Score: inf
ROOT
ATOM      1  C   UNL A   1      34.741  30.679  27.816  1.00  0.00     0.042 C 
ENDROOT
BRANCH   1   2
ATOM      2  C   UNL A   1      33.681  30.157  26.839  1.00  0.00     0.118 C 
BRANCH   2   3
ATOM      3  N   UNL A   1      32.663  29.380  27.525  1.00  0.00    -0.352 N 
ATOM      4  C   UNL A   1      32.013  28.204  27.251  1.00  0.00     0.251 C 
ATOM      5  O   UNL A   1      31.220  27.802  28.105  1.00  0.00    -0.269 OA
ATOM      6  H   UNL A   1      32.376  29.788  28.374  1.00  0.00     0.163 HD
BRANCH   4   7
ATOM      7  C   UNL A   1      32.225  27.376  26.026  1.00  0.00     0.042 A 
ATOM      8  N   UNL A   1      33.315  24.926  22.814  1.00  0.00    -0.292 N 
ATOM      9  C   UNL A   1      34.434  24.268  23.390  1.00  0.00     0.329 A 
ATOM     10  C   UNL A   1      32.783  25.810  23.770  1.00  0.00     0.069 A 
ATOM     11  O   UNL A   1      35.125  23.405  22.854  1.00  0.00    -0.248 OA
ATOM     12  N   UNL A   1      34.578  24.776  24.694  1.00  0.00    -0.292 N 
ATOM     13  C   UNL A   1      33.577  25.732  24.917  1.00  0.00     0.070 A 
ATOM     14  C   UNL A   1      31.678  26.631  23.750  1.00  0.00     0.029 A 
ATOM     15  C   UNL A   1      33.326  26.499  26.042  1.00  0.00     0.042 A 
ATOM     16  C   UNL A   1      31.390  27.392  24.895  1.00  0.00     0.016 A 
BRANCH   8  17
ATOM     17  C   UNL A   1      32.877  24.588  21.483  1.00  0.00     0.124 C 
ATOM     18  C   UNL A   1      32.547  25.695  20.503  1.00  0.00     0.028 C 
ENDBRANCH   8  17
BRANCH  12  19
ATOM     19  C   UNL A   1      35.532  24.292  25.660  1.00  0.00     0.124 C 
ATOM     20  C   UNL A   1      35.022  23.124  26.487  1.00  0.00     0.028 C 
ENDBRANCH  12  19
ENDBRANCH   4   7
ENDBRANCH   2   3
ENDBRANCH   1   2
BRANCH   1  21
ATOM     21  C   UNL A   1      34.584  32.169  28.127  1.00  0.00     0.118 C 
BRANCH  21  22
ATOM     22  N   UNL A   1      34.536  32.459  29.548  1.00  0.00    -0.352 N 
ATOM     23  C   UNL A   1      35.326  32.185  30.628  1.00  0.00     0.251 C 
ATOM     24  H   UNL A   1      33.739  32.983  29.794  1.00  0.00     0.163 HD
ATOM     25  O   UNL A   1      34.939  32.644  31.707  1.00  0.00    -0.269 OA
BRANCH  23  26
ATOM     26  C   UNL A   1      36.561  31.353  30.617  1.00  0.00     0.039 A 
ATOM     27  C   UNL A   1      37.852  31.808  30.356  1.00  0.00     0.014 A 
ATOM     28  C   UNL A   1      36.378  29.977  30.872  1.00  0.00     0.014 A 
ATOM     29  C   UNL A   1      38.912  30.906  30.266  1.00  0.00     0.010 A 
ATOM     30  C   UNL A   1      37.436  29.074  30.802  1.00  0.00     0.010 A 
ATOM     31  C   UNL A   1      38.701  29.535  30.457  1.00  0.00    -0.014 A 
BRANCH  31  32
ATOM     32  C   UNL A   1      39.859  28.647  30.370  1.00  0.00     0.031 A 
ATOM     33  C   UNL A   1      40.603  28.438  31.645  1.00  0.00     0.074 A 
ATOM     34  C   UNL A   1      40.227  27.972  29.263  1.00  0.00     0.049 A 
ATOM     35  N   UNL A   1      41.834  28.739  31.908  1.00  0.00    -0.248 NA
ATOM     36  C   UNL A   1      39.857  27.900  32.793  1.00  0.00     0.031 C 
ATOM     37  C   UNL A   1      39.490  27.803  28.009  1.00  0.00     0.029 A 
ATOM     38  N   UNL A   1      41.338  27.200  29.073  1.00  0.00    -0.354 N 
ATOM     39  C   UNL A   1      42.071  28.309  33.211  1.00  0.00     0.074 A 
ATOM     40  C   UNL A   1      40.796  27.890  33.740  1.00  0.00     0.031 C 
ATOM     41  C   UNL A   1      40.057  26.807  27.288  1.00  0.00     0.029 A 
ATOM     42  C   UNL A   1      41.279  26.385  27.952  1.00  0.00     0.049 A 
ATOM     43  H   UNL A   1      42.113  27.221  29.679  1.00  0.00     0.167 HD
ATOM     44  C   UNL A   1      43.327  28.181  33.723  1.00  0.00     0.031 A 
ATOM     45  C   UNL A   1      42.147  25.396  27.627  1.00  0.00     0.031 A 
ATOM     46  C   UNL A   1      44.303  28.898  32.951  1.00  0.00     0.049 A 
ATOM     47  C   UNL A   1      43.413  25.644  28.350  1.00  0.00     0.074 A 
ATOM     48  C   UNL A   1      44.521  30.227  32.651  1.00  0.00     0.029 A 
ATOM     49  N   UNL A   1      45.064  28.183  32.060  1.00  0.00    -0.354 N 
ATOM     50  N   UNL A   1      44.215  26.633  28.090  1.00  0.00    -0.248 NA
ATOM     51  C   UNL A   1      43.616  24.992  29.632  1.00  0.00     0.031 C 
ATOM     52  C   UNL A   1      45.005  30.228  31.311  1.00  0.00     0.029 A 
ATOM     53  C   UNL A   1      45.104  28.900  30.891  1.00  0.00     0.049 A 
ATOM     54  H   UNL A   1      45.500  27.316  32.229  1.00  0.00     0.167 HD
ATOM     55  C   UNL A   1      44.715  27.011  29.325  1.00  0.00     0.074 A 
ATOM     56  C   UNL A   1      44.409  25.893  30.214  1.00  0.00     0.031 C 
ATOM     57  C   UNL A   1      45.080  28.304  29.572  1.00  0.00     0.031 A 
BRANCH  44  58
ATOM     58  C   UNL A   1      43.716  27.152  34.753  1.00  0.00    -0.014 A 
ATOM     59  C   UNL A   1      43.797  27.438  36.129  1.00  0.00     0.009 A 
ATOM     60  C   UNL A   1      43.757  25.793  34.388  1.00  0.00     0.009 A 
ATOM     61  C   UNL A   1      43.907  26.431  37.091  1.00  0.00     0.001 A 
ATOM     62  C   UNL A   1      43.825  24.779  35.352  1.00  0.00     0.001 A 
ATOM     63  C   UNL A   1      43.897  25.100  36.705  1.00  0.00     0.000 A 
ENDBRANCH  44  58
BRANCH  45  64
ATOM     64  C   UNL A   1      41.858  24.082  27.018  1.00  0.00    -0.014 A 
ATOM     65  C   UNL A   1      40.883  23.244  27.590  1.00  0.00     0.009 A 
ATOM     66  C   UNL A   1      42.749  23.515  26.092  1.00  0.00     0.009 A 
ATOM     67  C   UNL A   1      40.838  21.879  27.292  1.00  0.00     0.001 A 
ATOM     68  C   UNL A   1      42.705  22.147  25.796  1.00  0.00     0.001 A 
ATOM     69  C   UNL A   1      41.762  21.326  26.411  1.00  0.00     0.000 A 
ENDBRANCH  45  64
BRANCH  57  70
ATOM     70  C   UNL A   1      45.185  29.256  28.399  1.00  0.00    -0.014 A 
ATOM     71  C   UNL A   1      46.457  29.530  27.875  1.00  0.00     0.009 A 
ATOM     72  C   UNL A   1      44.095  29.997  27.907  1.00  0.00     0.009 A 
ATOM     73  C   UNL A   1      46.637  30.509  26.893  1.00  0.00     0.001 A 
ATOM     74  C   UNL A   1      44.270  30.956  26.903  1.00  0.00     0.001 A 
ATOM     75  C   UNL A   1      45.542  31.217  26.403  1.00  0.00     0.000 A 
ENDBRANCH  57  70
ENDBRANCH  31  32
ENDBRANCH  23  26
ENDBRANCH  21  22
ENDBRANCH   1  21
TORSDOF 12
ENDMDL
MODEL 3
REMARK VINA RESULT:     -11.2      3.546      8.458
REMARK SMILES CCn1c(=O)n(CC)c2cc(C(=O)NCCCNC(=O)c3ccc(-c4c5nc(c(-c6ccccc6)c6ccc([nH]6)c(-c6ccccc6)c6nc(c(-c7ccccc7)c7ccc4[nH]7)C=C6)C=C5)cc3)ccc21
REMARK SMILES IDX 16 1 15 2 14 3 12 4 13 5 11 7 3 8 4 9 71 10 5 11 6 12 9 13
REMARK SMILES IDX 70 14 10 15 69 16 2 17 1 18 7 19 8 20 17 21 18 22 19 23
REMARK SMILES IDX 20 25 21 26 22 27 68 28 23 29 67 30 24 31 25 32 26 33 61 34
REMARK SMILES IDX 27 35 66 36 60 37 62 38 28 39 65 40 59 41 58 42 29 44 51 45
REMARK SMILES IDX 36 46 50 47 37 48 40 49 49 50 63 51 38 52 39 53 48 55 64 56
REMARK SMILES IDX 41 57 30 58 31 59 35 60 32 61 34 62 33 63 52 64 53 65 57 66
REMARK SMILES IDX 54 67 56 68 55 69 42 70 43 71 47 72 44 73 46 74 45 75
REMARK H PARENT 14 6 18 24 62 43 40 54
REMARK Flexibility Score: inf
ROOT
ATOM      1  C   UNL A   1      33.159  36.513  32.832  1.00  0.00     0.042 C 
ENDROOT
BRANCH   1   2
ATOM      2  C   UNL A   1      34.376  36.092  33.665  1.00  0.00     0.118 C 
BRANCH   2   3
ATOM      3  N   UNL A   1      34.470  34.646  33.774  1.00  0.00    -0.352 N 
ATOM      4  C   UNL A   1      35.498  33.772  34.017  1.00  0.00     0.251 C 
ATOM      5  O   UNL A   1      35.198  32.578  34.092  1.00  0.00    -0.269 OA
ATOM      6  H   UNL A   1      33.604  34.195  33.646  1.00  0.00     0.163 HD
BRANCH   4   7
ATOM      7  C   UNL A   1      36.923  34.166  34.227  1.00  0.00     0.042 A 
ATOM      8  N   UNL A   1      40.777  35.343  35.351  1.00  0.00    -0.292 N 
ATOM      9  C   UNL A   1      40.647  35.256  36.762  1.00  0.00     0.329 A 
ATOM     10  C   UNL A   1      39.554  34.963  34.771  1.00  0.00     0.069 A 
ATOM     11  O   UNL A   1      41.527  35.484  37.589  1.00  0.00    -0.248 OA
ATOM     12  N   UNL A   1      39.331  34.835  37.024  1.00  0.00    -0.292 N 
ATOM     13  C   UNL A   1      38.659  34.673  35.804  1.00  0.00     0.070 A 
ATOM     14  C   UNL A   1      39.164  34.814  33.459  1.00  0.00     0.029 A 
ATOM     15  C   UNL A   1      37.353  34.284  35.562  1.00  0.00     0.042 A 
ATOM     16  C   UNL A   1      37.852  34.387  33.195  1.00  0.00     0.016 A 
BRANCH   8  17
ATOM     17  C   UNL A   1      42.039  35.710  34.758  1.00  0.00     0.124 C 
ATOM     18  C   UNL A   1      43.065  34.635  34.463  1.00  0.00     0.028 C 
ENDBRANCH   8  17
BRANCH  12  19
ATOM     19  C   UNL A   1      38.819  34.517  38.334  1.00  0.00     0.124 C 
ATOM     20  C   UNL A   1      39.324  33.192  38.880  1.00  0.00     0.028 C 
ENDBRANCH  12  19
ENDBRANCH   4   7
ENDBRANCH   2   3
ENDBRANCH   1   2
BRANCH   1  21
ATOM     21  C   UNL A   1      33.536  37.000  31.430  1.00  0.00     0.118 C 
BRANCH  21  22
ATOM     22  N   UNL A   1      32.852  36.284  30.370  1.00  0.00    -0.352 N 
ATOM     23  C   UNL A   1      33.121  35.189  29.598  1.00  0.00     0.251 C 
ATOM     24  H   UNL A   1      31.979  36.685  30.152  1.00  0.00     0.163 HD
ATOM     25  O   UNL A   1      32.243  34.871  28.791  1.00  0.00    -0.269 OA
BRANCH  23  26
ATOM     26  C   UNL A   1      34.383  34.397  29.618  1.00  0.00     0.039 A 
ATOM     27  C   UNL A   1      34.707  33.397  30.532  1.00  0.00     0.014 A 
ATOM     28  C   UNL A   1      35.330  34.726  28.626  1.00  0.00     0.014 A 
ATOM     29  C   UNL A   1      35.969  32.805  30.510  1.00  0.00     0.010 A 
ATOM     30  C   UNL A   1      36.586  34.125  28.588  1.00  0.00     0.010 A 
ATOM     31  C   UNL A   1      36.922  33.190  29.559  1.00  0.00    -0.014 A 
BRANCH  31  32
ATOM     32  C   UNL A   1      38.218  32.514  29.579  1.00  0.00     0.031 A 
ATOM     33  C   UNL A   1      38.201  31.082  29.164  1.00  0.00     0.074 A 
ATOM     34  C   UNL A   1      39.391  33.114  29.863  1.00  0.00     0.049 A 
ATOM     35  N   UNL A   1      38.526  30.045  29.866  1.00  0.00    -0.248 NA
ATOM     36  C   UNL A   1      37.680  30.764  27.826  1.00  0.00     0.031 C 
ATOM     37  C   UNL A   1      39.675  34.543  30.009  1.00  0.00     0.029 A 
ATOM     38  N   UNL A   1      40.625  32.541  29.991  1.00  0.00    -0.354 N 
ATOM     39  C   UNL A   1      38.384  28.945  29.025  1.00  0.00     0.074 A 
ATOM     40  C   UNL A   1      37.768  29.433  27.815  1.00  0.00     0.031 C 
ATOM     41  C   UNL A   1      41.015  34.739  29.975  1.00  0.00     0.029 A 
ATOM     42  C   UNL A   1      41.677  33.445  29.967  1.00  0.00     0.049 A 
ATOM     43  H   UNL A   1      40.756  31.571  30.092  1.00  0.00     0.167 HD
ATOM     44  C   UNL A   1      38.919  27.727  29.316  1.00  0.00     0.031 A 
ATOM     45  C   UNL A   1      42.997  33.146  29.890  1.00  0.00     0.031 A 
ATOM     46  C   UNL A   1      39.268  27.606  30.704  1.00  0.00     0.049 A 
ATOM     47  C   UNL A   1      43.175  31.748  30.339  1.00  0.00     0.074 A 
ATOM     48  C   UNL A   1      38.561  27.618  31.890  1.00  0.00     0.029 A 
ATOM     49  N   UNL A   1      40.585  27.782  31.051  1.00  0.00    -0.354 N 
ATOM     50  N   UNL A   1      43.007  31.353  31.566  1.00  0.00    -0.248 NA
ATOM     51  C   UNL A   1      43.183  30.695  29.337  1.00  0.00     0.031 C 
ATOM     52  C   UNL A   1      39.414  28.279  32.820  1.00  0.00     0.029 A 
ATOM     53  C   UNL A   1      40.608  28.584  32.163  1.00  0.00     0.049 A 
ATOM     54  H   UNL A   1      41.367  27.403  30.586  1.00  0.00     0.167 HD
ATOM     55  C   UNL A   1      42.454  30.087  31.454  1.00  0.00     0.074 A 
ATOM     56  C   UNL A   1      42.701  29.690  30.070  1.00  0.00     0.031 C 
ATOM     57  C   UNL A   1      41.610  29.600  32.410  1.00  0.00     0.031 A 
BRANCH  44  58
ATOM     58  C   UNL A   1      39.411  26.752  28.277  1.00  0.00    -0.014 A 
ATOM     59  C   UNL A   1      40.336  27.104  27.275  1.00  0.00     0.009 A 
ATOM     60  C   UNL A   1      39.154  25.379  28.443  1.00  0.00     0.009 A 
ATOM     61  C   UNL A   1      40.974  26.144  26.485  1.00  0.00     0.001 A 
ATOM     62  C   UNL A   1      39.822  24.412  27.681  1.00  0.00     0.001 A 
ATOM     63  C   UNL A   1      40.735  24.796  26.704  1.00  0.00     0.000 A 
ENDBRANCH  44  58
BRANCH  45  64
ATOM     64  C   UNL A   1      44.058  33.849  29.142  1.00  0.00    -0.014 A 
ATOM     65  C   UNL A   1      44.848  34.817  29.789  1.00  0.00     0.009 A 
ATOM     66  C   UNL A   1      44.080  33.815  27.738  1.00  0.00     0.009 A 
ATOM     67  C   UNL A   1      45.587  35.752  29.059  1.00  0.00     0.001 A 
ATOM     68  C   UNL A   1      44.819  34.755  27.007  1.00  0.00     0.001 A 
ATOM     69  C   UNL A   1      45.556  35.735  27.668  1.00  0.00     0.000 A 
ENDBRANCH  45  64
BRANCH  57  70
ATOM     70  C   UNL A   1      41.501  30.350  33.721  1.00  0.00    -0.014 A 
ATOM     71  C   UNL A   1      42.468  30.110  34.709  1.00  0.00     0.009 A 
ATOM     72  C   UNL A   1      40.400  31.159  34.058  1.00  0.00     0.009 A 
ATOM     73  C   UNL A   1      42.342  30.655  35.990  1.00  0.00     0.001 A 
ATOM     74  C   UNL A   1      40.289  31.730  35.331  1.00  0.00     0.001 A 
ATOM     75  C   UNL A   1      41.256  31.471  36.298  1.00  0.00     0.000 A 
ENDBRANCH  57  70
ENDBRANCH  31  32
ENDBRANCH  23  26
ENDBRANCH  21  22
ENDBRANCH   1  21
TORSDOF 12
ENDMDL
