MODEL 1
REMARK VINA RESULT:     -14.1      0.000      0.000
REMARK SMILES C[C@H]1c2ccc(O)cc2OC(=O)[C@@H]1CC(=O)N[C@@H](CC1=c2ccccc2=NC1)C(=O)NCCCNC(=O)c1ccc(-c2c3nc(c(-c4ccccc4)c4ccc([nH]4)c(-c4ccccc4)c4nc(c(-c5ccccc5)c5ccc2[nH]5)C=C4)C=C3)cc1
REMARK SMILES IDX 32 1 31 2 29 3 30 4 18 6 17 7 15 8 16 9 14 11 13 12 1 13
REMARK SMILES IDX 2 14 3 15 4 16 9 17 11 18 5 19 8 20 10 21 12 22 6 23 7 24
REMARK SMILES IDX 19 26 20 27 21 28 28 29 22 30 26 31 27 32 23 33 25 34 24 35
REMARK SMILES IDX 33 36 34 37 35 38 36 39 37 41 38 42 39 43 85 44 40 45 84 46
REMARK SMILES IDX 41 47 42 48 43 49 78 50 44 51 83 52 77 53 79 54 45 55 82 56
REMARK SMILES IDX 76 57 75 58 46 60 68 61 53 62 67 63 54 64 57 65 66 66 80 67
REMARK SMILES IDX 55 68 56 69 65 71 81 72 58 73 47 74 48 75 52 76 49 77 51 78
REMARK SMILES IDX 50 79 69 80 70 81 74 82 71 83 73 84 72 85 59 86 60 87 64 88
REMARK SMILES IDX 61 89 63 90 62 91
REMARK H PARENT 31 5 17 10 7 25 35 40 79 59 57 70
REMARK Flexibility Score: inf
ROOT
ATOM      1  C   UNL A   1      37.627  23.673  25.762  1.00  0.00     0.117 C 
ENDROOT
BRANCH   1   2
ATOM      2  N   UNL A   1      37.569  23.525  24.336  1.00  0.00    -0.354 N 
ATOM      3  C   UNL A   1      36.514  23.034  23.628  1.00  0.00     0.242 C 
ATOM      4  O   UNL A   1      36.619  22.999  22.399  1.00  0.00    -0.273 OA
ATOM      5  H   UNL A   1      38.362  23.802  23.824  1.00  0.00     0.163 HD
BRANCH   3   6
ATOM      6  C   UNL A   1      35.231  22.533  24.341  1.00  0.00     0.175 C 
BRANCH   6   7
ATOM      7  N   UNL A   1      34.022  22.577  23.499  1.00  0.00    -0.344 N 
ATOM      8  C   UNL A   1      32.891  23.330  23.588  1.00  0.00     0.221 C 
ATOM      9  O   UNL A   1      32.010  23.162  22.744  1.00  0.00    -0.275 OA
ATOM     10  H   UNL A   1      34.034  21.953  22.739  1.00  0.00     0.164 HD
BRANCH   8  11
ATOM     11  C   UNL A   1      32.712  24.358  24.687  1.00  0.00     0.116 C 
BRANCH  11  12
ATOM     12  C   UNL A   1      31.238  24.753  24.911  1.00  0.00     0.116 C 
ATOM     13  C   UNL A   1      29.317  26.320  24.296  1.00  0.00     0.014 C 
ATOM     14  C   UNL A   1      30.821  26.042  24.169  1.00  0.00     0.034 C 
ATOM     15  C   UNL A   1      31.613  27.195  24.732  1.00  0.00    -0.001 A 
ATOM     16  C   UNL A   1      31.995  28.291  23.956  1.00  0.00     0.011 A 
ATOM     17  C   UNL A   1      32.019  27.145  26.069  1.00  0.00     0.138 A 
ATOM     18  C   UNL A   1      30.972  24.989  26.375  1.00  0.00     0.315 C 
ATOM     19  C   UNL A   1      32.819  29.280  24.503  1.00  0.00     0.047 A 
ATOM     20  C   UNL A   1      32.863  28.102  26.616  1.00  0.00     0.093 A 
ATOM     21  O   UNL A   1      31.563  26.122  26.917  1.00  0.00    -0.426 OA
ATOM     22  O   UNL A   1      30.341  24.206  27.073  1.00  0.00    -0.251 OA
ATOM     23  C   UNL A   1      33.265  29.163  25.820  1.00  0.00     0.119 A 
BRANCH  23  24
ATOM     24  O   UNL A   1      34.100  30.089  26.371  1.00  0.00    -0.508 OA
ATOM     25  H   UNL A   1      34.931  30.266  25.974  1.00  0.00     0.293 HD
ENDBRANCH  23  24
ENDBRANCH  11  12
ENDBRANCH   8  11
ENDBRANCH   6   7
BRANCH   6  26
ATOM     26  C   UNL A   1      35.441  21.204  25.157  1.00  0.00     0.068 C 
BRANCH  26  27
ATOM     27  C   UNL A   1      34.313  20.198  25.178  1.00  0.00    -0.037 C 
ATOM     28  C   UNL A   1      34.138  18.971  24.683  1.00  0.00     0.001 A 
ATOM     29  C   UNL A   1      33.015  20.566  25.853  1.00  0.00     0.174 C 
ATOM     30  C   UNL A   1      34.879  17.839  24.232  1.00  0.00     0.010 A 
ATOM     31  C   UNL A   1      32.687  19.051  24.379  1.00  0.00     0.065 A 
ATOM     32  N   UNL A   1      31.976  19.916  25.033  1.00  0.00    -0.280 NA
ATOM     33  C   UNL A   1      34.320  16.989  23.356  1.00  0.00     0.001 A 
ATOM     34  C   UNL A   1      32.223  18.234  23.236  1.00  0.00     0.028 A 
ATOM     35  C   UNL A   1      33.039  17.289  22.746  1.00  0.00     0.002 A 
ENDBRANCH  26  27
ENDBRANCH   6  26
ENDBRANCH   3   6
ENDBRANCH   1   2
BRANCH   1  36
ATOM     36  C   UNL A   1      38.562  22.710  26.458  1.00  0.00     0.042 C 
BRANCH  36  37
ATOM     37  C   UNL A   1      39.738  23.427  27.094  1.00  0.00     0.118 C 
BRANCH  37  38
ATOM     38  N   UNL A   1      40.596  24.107  26.123  1.00  0.00    -0.352 N 
ATOM     39  C   UNL A   1      40.969  25.429  25.953  1.00  0.00     0.251 C 
ATOM     40  H   UNL A   1      40.989  23.501  25.454  1.00  0.00     0.163 HD
ATOM     41  O   UNL A   1      41.577  25.751  24.951  1.00  0.00    -0.269 OA
BRANCH  39  42
ATOM     42  C   UNL A   1      40.576  26.464  26.942  1.00  0.00     0.039 A 
ATOM     43  C   UNL A   1      41.005  27.773  26.811  1.00  0.00     0.014 A 
ATOM     44  C   UNL A   1      39.771  26.122  28.036  1.00  0.00     0.014 A 
ATOM     45  C   UNL A   1      40.932  28.632  27.893  1.00  0.00     0.010 A 
ATOM     46  C   UNL A   1      39.519  27.066  29.044  1.00  0.00     0.010 A 
ATOM     47  C   UNL A   1      40.167  28.309  29.023  1.00  0.00    -0.014 A 
BRANCH  47  48
ATOM     48  C   UNL A   1      40.086  29.303  30.132  1.00  0.00     0.031 A 
ATOM     49  C   UNL A   1      38.998  30.348  30.171  1.00  0.00     0.074 A 
ATOM     50  C   UNL A   1      40.931  29.183  31.180  1.00  0.00     0.049 A 
ATOM     51  N   UNL A   1      38.752  31.240  31.100  1.00  0.00    -0.248 NA
ATOM     52  C   UNL A   1      38.074  30.417  29.027  1.00  0.00     0.031 C 
ATOM     53  C   UNL A   1      42.021  28.206  31.274  1.00  0.00     0.029 A 
ATOM     54  N   UNL A   1      40.962  29.821  32.394  1.00  0.00    -0.354 N 
ATOM     55  C   UNL A   1      37.686  31.999  30.631  1.00  0.00     0.074 A 
ATOM     56  C   UNL A   1      37.337  31.477  29.329  1.00  0.00     0.031 C 
ATOM     57  C   UNL A   1      42.513  28.212  32.519  1.00  0.00     0.029 A 
ATOM     58  C   UNL A   1      41.869  29.277  33.275  1.00  0.00     0.049 A 
ATOM     59  H   UNL A   1      40.392  30.593  32.615  1.00  0.00     0.167 HD
ATOM     60  C   UNL A   1      37.053  33.033  31.233  1.00  0.00     0.031 A 
ATOM     61  C   UNL A   1      42.171  29.598  34.547  1.00  0.00     0.031 A 
ATOM     62  C   UNL A   1      37.376  33.524  32.546  1.00  0.00     0.049 A 
ATOM     63  C   UNL A   1      41.462  30.753  35.187  1.00  0.00     0.074 A 
ATOM     64  C   UNL A   1      36.783  34.562  33.243  1.00  0.00     0.029 A 
ATOM     65  N   UNL A   1      38.363  33.002  33.368  1.00  0.00    -0.354 N 
ATOM     66  N   UNL A   1      40.484  31.481  34.708  1.00  0.00    -0.248 NA
ATOM     67  C   UNL A   1      41.914  31.149  36.527  1.00  0.00     0.031 C 
ATOM     68  C   UNL A   1      37.446  34.703  34.465  1.00  0.00     0.029 A 
ATOM     69  C   UNL A   1      38.409  33.712  34.556  1.00  0.00     0.049 A 
ATOM     70  H   UNL A   1      38.944  32.241  33.140  1.00  0.00     0.167 HD
ATOM     71  C   UNL A   1      40.207  32.428  35.682  1.00  0.00     0.074 A 
ATOM     72  C   UNL A   1      41.095  32.159  36.795  1.00  0.00     0.031 C 
ATOM     73  C   UNL A   1      39.306  33.439  35.649  1.00  0.00     0.031 A 
BRANCH  60  74
ATOM     74  C   UNL A   1      35.957  33.732  30.475  1.00  0.00    -0.014 A 
ATOM     75  C   UNL A   1      34.749  34.032  31.126  1.00  0.00     0.009 A 
ATOM     76  C   UNL A   1      36.076  34.013  29.106  1.00  0.00     0.009 A 
ATOM     77  C   UNL A   1      33.679  34.585  30.421  1.00  0.00     0.001 A 
ATOM     78  C   UNL A   1      35.012  34.593  28.409  1.00  0.00     0.001 A 
ATOM     79  C   UNL A   1      33.812  34.869  29.064  1.00  0.00     0.000 A 
ENDBRANCH  60  74
BRANCH  61  80
ATOM     80  C   UNL A   1      43.209  28.820  35.274  1.00  0.00    -0.014 A 
ATOM     81  C   UNL A   1      42.844  27.739  36.096  1.00  0.00     0.009 A 
ATOM     82  C   UNL A   1      44.559  29.193  35.210  1.00  0.00     0.009 A 
ATOM     83  C   UNL A   1      43.799  27.079  36.870  1.00  0.00     0.001 A 
ATOM     84  C   UNL A   1      45.520  28.505  35.957  1.00  0.00     0.001 A 
ATOM     85  C   UNL A   1      45.138  27.460  36.797  1.00  0.00     0.000 A 
ENDBRANCH  61  80
BRANCH  73  86
ATOM     86  C   UNL A   1      39.228  34.338  36.849  1.00  0.00    -0.014 A 
ATOM     87  C   UNL A   1      39.864  35.588  36.828  1.00  0.00     0.009 A 
ATOM     88  C   UNL A   1      38.602  33.909  38.028  1.00  0.00     0.009 A 
ATOM     89  C   UNL A   1      39.884  36.390  37.969  1.00  0.00     0.001 A 
ATOM     90  C   UNL A   1      38.600  34.725  39.161  1.00  0.00     0.001 A 
ATOM     91  C   UNL A   1      39.248  35.960  39.133  1.00  0.00     0.000 A 
ENDBRANCH  73  86
ENDBRANCH  47  48
ENDBRANCH  39  42
ENDBRANCH  37  38
ENDBRANCH  36  37
ENDBRANCH   1  36
TORSDOF 16
ENDMDL
MODEL 2
REMARK VINA RESULT:     -13.9      0.388      5.553
REMARK SMILES C[C@H]1c2ccc(O)cc2OC(=O)[C@@H]1CC(=O)N[C@@H](CC1=c2ccccc2=NC1)C(=O)NCCCNC(=O)c1ccc(-c2c3nc(c(-c4ccccc4)c4ccc([nH]4)c(-c4ccccc4)c4nc(c(-c5ccccc5)c5ccc2[nH]5)C=C4)C=C3)cc1
REMARK SMILES IDX 32 1 31 2 29 3 30 4 18 6 17 7 15 8 16 9 14 11 13 12 1 13
REMARK SMILES IDX 2 14 3 15 4 16 9 17 11 18 5 19 8 20 10 21 12 22 6 23 7 24
REMARK SMILES IDX 19 26 20 27 21 28 28 29 22 30 26 31 27 32 23 33 25 34 24 35
REMARK SMILES IDX 33 36 34 37 35 38 36 39 37 41 38 42 39 43 85 44 40 45 84 46
REMARK SMILES IDX 41 47 42 48 43 49 78 50 44 51 83 52 77 53 79 54 45 55 82 56
REMARK SMILES IDX 76 57 75 58 46 60 68 61 53 62 67 63 54 64 57 65 66 66 80 67
REMARK SMILES IDX 55 68 56 69 65 71 81 72 58 73 47 74 48 75 52 76 49 77 51 78
REMARK SMILES IDX 50 79 69 80 70 81 74 82 71 83 73 84 72 85 59 86 60 87 64 88
REMARK SMILES IDX 61 89 63 90 62 91
REMARK H PARENT 31 5 17 10 7 25 35 40 79 59 57 70
REMARK Flexibility Score: inf
ROOT
ATOM      1  C   UNL A   1      37.772  23.386  25.772  1.00  0.00     0.117 C 
ENDROOT
BRANCH   1   2
ATOM      2  N   UNL A   1      37.685  23.325  24.342  1.00  0.00    -0.354 N 
ATOM      3  C   UNL A   1      36.587  22.956  23.625  1.00  0.00     0.242 C 
ATOM      4  O   UNL A   1      36.674  22.984  22.394  1.00  0.00    -0.273 OA
ATOM      5  H   UNL A   1      38.490  23.571  23.833  1.00  0.00     0.163 HD
BRANCH   3   6
ATOM      6  C   UNL A   1      35.279  22.512  24.330  1.00  0.00     0.175 C 
BRANCH   6   7
ATOM      7  N   UNL A   1      34.083  22.581  23.472  1.00  0.00    -0.344 N 
ATOM      8  C   UNL A   1      32.979  23.376  23.531  1.00  0.00     0.221 C 
ATOM      9  O   UNL A   1      32.102  23.221  22.679  1.00  0.00    -0.275 OA
ATOM     10  H   UNL A   1      34.081  21.941  22.725  1.00  0.00     0.164 HD
BRANCH   8  11
ATOM     11  C   UNL A   1      32.823  24.433  24.606  1.00  0.00     0.116 C 
BRANCH  11  12
ATOM     12  C   UNL A   1      31.350  24.752  24.931  1.00  0.00     0.116 C 
ATOM     13  C   UNL A   1      29.329  26.251  24.491  1.00  0.00     0.014 C 
ATOM     14  C   UNL A   1      30.833  26.047  24.265  1.00  0.00     0.034 C 
ATOM     15  C   UNL A   1      31.608  27.214  24.824  1.00  0.00    -0.001 A 
ATOM     16  C   UNL A   1      31.894  28.353  24.069  1.00  0.00     0.011 A 
ATOM     17  C   UNL A   1      32.096  27.135  26.131  1.00  0.00     0.138 A 
ATOM     18  C   UNL A   1      31.163  24.924  26.416  1.00  0.00     0.315 C 
ATOM     19  C   UNL A   1      32.706  29.358  24.604  1.00  0.00     0.047 A 
ATOM     20  C   UNL A   1      32.929  28.109  26.665  1.00  0.00     0.093 A 
ATOM     21  O   UNL A   1      31.737  26.063  26.966  1.00  0.00    -0.426 OA
ATOM     22  O   UNL A   1      30.610  24.088  27.120  1.00  0.00    -0.251 OA
ATOM     23  C   UNL A   1      33.235  29.215  25.887  1.00  0.00     0.119 A 
BRANCH  23  24
ATOM     24  O   UNL A   1      34.062  30.158  26.423  1.00  0.00    -0.508 OA
ATOM     25  H   UNL A   1      33.864  31.068  26.322  1.00  0.00     0.293 HD
ENDBRANCH  23  24
ENDBRANCH  11  12
ENDBRANCH   8  11
ENDBRANCH   6   7
BRANCH   6  26
ATOM     26  C   UNL A   1      35.434  21.192  25.173  1.00  0.00     0.068 C 
BRANCH  26  27
ATOM     27  C   UNL A   1      34.289  20.205  25.163  1.00  0.00    -0.037 C 
ATOM     28  C   UNL A   1      34.107  18.981  24.664  1.00  0.00     0.001 A 
ATOM     29  C   UNL A   1      32.979  20.595  25.801  1.00  0.00     0.174 C 
ATOM     30  C   UNL A   1      34.841  17.837  24.234  1.00  0.00     0.010 A 
ATOM     31  C   UNL A   1      32.667  19.085  24.320  1.00  0.00     0.065 A 
ATOM     32  N   UNL A   1      31.952  19.962  24.954  1.00  0.00    -0.280 NA
ATOM     33  C   UNL A   1      34.293  16.995  23.343  1.00  0.00     0.001 A 
ATOM     34  C   UNL A   1      32.221  18.275  23.164  1.00  0.00     0.028 A 
ATOM     35  C   UNL A   1      33.034  17.316  22.697  1.00  0.00     0.002 A 
ENDBRANCH  26  27
ENDBRANCH   6  26
ENDBRANCH   3   6
ENDBRANCH   1   2
BRANCH   1  36
ATOM     36  C   UNL A   1      38.793  22.452  26.382  1.00  0.00     0.042 C 
BRANCH  36  37
ATOM     37  C   UNL A   1      39.937  23.211  27.026  1.00  0.00     0.118 C 
BRANCH  37  38
ATOM     38  N   UNL A   1      40.695  24.030  26.080  1.00  0.00    -0.352 N 
ATOM     39  C   UNL A   1      40.946  25.389  25.994  1.00  0.00     0.251 C 
ATOM     40  H   UNL A   1      41.112  23.510  25.356  1.00  0.00     0.163 HD
ATOM     41  O   UNL A   1      41.485  25.832  24.999  1.00  0.00    -0.269 OA
BRANCH  39  42
ATOM     42  C   UNL A   1      40.505  26.314  27.069  1.00  0.00     0.039 A 
ATOM     43  C   UNL A   1      40.874  27.647  27.056  1.00  0.00     0.014 A 
ATOM     44  C   UNL A   1      39.715  25.841  28.123  1.00  0.00     0.014 A 
ATOM     45  C   UNL A   1      40.761  28.403  28.208  1.00  0.00     0.010 A 
ATOM     46  C   UNL A   1      39.419  26.680  29.210  1.00  0.00     0.010 A 
ATOM     47  C   UNL A   1      40.010  27.948  29.301  1.00  0.00    -0.014 A 
BRANCH  47  48
ATOM     48  C   UNL A   1      39.882  28.836  30.493  1.00  0.00     0.031 A 
ATOM     49  C   UNL A   1      40.917  28.828  31.591  1.00  0.00     0.074 A 
ATOM     50  C   UNL A   1      38.885  29.748  30.524  1.00  0.00     0.049 A 
ATOM     51  N   UNL A   1      40.983  29.587  32.658  1.00  0.00    -0.248 NA
ATOM     52  C   UNL A   1      42.009  27.846  31.496  1.00  0.00     0.031 C 
ATOM     53  C   UNL A   1      37.824  29.869  29.518  1.00  0.00     0.029 A 
ATOM     54  N   UNL A   1      38.640  30.791  31.381  1.00  0.00    -0.354 N 
ATOM     55  C   UNL A   1      42.086  29.142  33.378  1.00  0.00     0.074 A 
ATOM     56  C   UNL A   1      42.656  28.038  32.638  1.00  0.00     0.031 C 
ATOM     57  C   UNL A   1      37.140  30.999  29.733  1.00  0.00     0.029 A 
ATOM     58  C   UNL A   1      37.622  31.616  30.961  1.00  0.00     0.049 A 
ATOM     59  H   UNL A   1      39.144  30.936  32.215  1.00  0.00     0.167 HD
ATOM     60  C   UNL A   1      42.582  29.614  34.546  1.00  0.00     0.031 A 
ATOM     61  C   UNL A   1      37.111  32.738  31.502  1.00  0.00     0.031 A 
ATOM     62  C   UNL A   1      42.039  30.739  35.259  1.00  0.00     0.049 A 
ATOM     63  C   UNL A   1      37.671  33.234  32.800  1.00  0.00     0.074 A 
ATOM     64  C   UNL A   1      42.481  31.296  36.446  1.00  0.00     0.029 A 
ATOM     65  N   UNL A   1      40.950  31.490  34.844  1.00  0.00    -0.354 N 
ATOM     66  N   UNL A   1      38.691  32.772  33.481  1.00  0.00    -0.248 NA
ATOM     67  C   UNL A   1      36.999  34.384  33.417  1.00  0.00     0.031 C 
ATOM     68  C   UNL A   1      41.627  32.351  36.778  1.00  0.00     0.029 A 
ATOM     69  C   UNL A   1      40.693  32.492  35.765  1.00  0.00     0.049 A 
ATOM     70  H   UNL A   1      40.437  31.334  34.019  1.00  0.00     0.167 HD
ATOM     71  C   UNL A   1      38.779  33.568  34.613  1.00  0.00     0.074 A 
ATOM     72  C   UNL A   1      37.733  34.566  34.508  1.00  0.00     0.031 C 
ATOM     73  C   UNL A   1      39.642  33.469  35.652  1.00  0.00     0.031 A 
BRANCH  60  74
ATOM     74  C   UNL A   1      43.764  28.906  35.153  1.00  0.00    -0.014 A 
ATOM     75  C   UNL A   1      43.548  27.839  36.041  1.00  0.00     0.009 A 
ATOM     76  C   UNL A   1      45.077  29.344  34.925  1.00  0.00     0.009 A 
ATOM     77  C   UNL A   1      44.620  27.233  36.698  1.00  0.00     0.001 A 
ATOM     78  C   UNL A   1      46.151  28.716  35.563  1.00  0.00     0.001 A 
ATOM     79  C   UNL A   1      45.921  27.669  36.456  1.00  0.00     0.000 A 
ENDBRANCH  60  74
BRANCH  61  80
ATOM     80  C   UNL A   1      35.994  33.441  30.814  1.00  0.00    -0.014 A 
ATOM     81  C   UNL A   1      36.183  34.002  29.539  1.00  0.00     0.009 A 
ATOM     82  C   UNL A   1      34.760  33.619  31.454  1.00  0.00     0.009 A 
ATOM     83  C   UNL A   1      35.177  34.761  28.939  1.00  0.00     0.001 A 
ATOM     84  C   UNL A   1      33.740  34.349  30.835  1.00  0.00     0.001 A 
ATOM     85  C   UNL A   1      33.955  34.931  29.586  1.00  0.00     0.000 A 
ENDBRANCH  61  80
BRANCH  73  86
ATOM     86  C   UNL A   1      39.499  34.464  36.768  1.00  0.00    -0.014 A 
ATOM     87  C   UNL A   1      40.146  35.706  36.684  1.00  0.00     0.009 A 
ATOM     88  C   UNL A   1      38.797  34.137  37.938  1.00  0.00     0.009 A 
ATOM     89  C   UNL A   1      40.104  36.599  37.755  1.00  0.00     0.001 A 
ATOM     90  C   UNL A   1      38.733  35.043  38.997  1.00  0.00     0.001 A 
ATOM     91  C   UNL A   1      39.394  36.269  38.908  1.00  0.00     0.000 A 
ENDBRANCH  73  86
ENDBRANCH  47  48
ENDBRANCH  39  42
ENDBRANCH  37  38
ENDBRANCH  36  37
ENDBRANCH   1  36
TORSDOF 16
ENDMDL
MODEL 3
REMARK VINA RESULT:     -13.9      1.145      1.886
REMARK SMILES C[C@H]1c2ccc(O)cc2OC(=O)[C@@H]1CC(=O)N[C@@H](CC1=c2ccccc2=NC1)C(=O)NCCCNC(=O)c1ccc(-c2c3nc(c(-c4ccccc4)c4ccc([nH]4)c(-c4ccccc4)c4nc(c(-c5ccccc5)c5ccc2[nH]5)C=C4)C=C3)cc1
REMARK SMILES IDX 32 1 31 2 29 3 30 4 18 6 17 7 15 8 16 9 14 11 13 12 1 13
REMARK SMILES IDX 2 14 3 15 4 16 9 17 11 18 5 19 8 20 10 21 12 22 6 23 7 24
REMARK SMILES IDX 19 26 20 27 21 28 28 29 22 30 26 31 27 32 23 33 25 34 24 35
REMARK SMILES IDX 33 36 34 37 35 38 36 39 37 41 38 42 39 43 85 44 40 45 84 46
REMARK SMILES IDX 41 47 42 48 43 49 78 50 44 51 83 52 77 53 79 54 45 55 82 56
REMARK SMILES IDX 76 57 75 58 46 60 68 61 53 62 67 63 54 64 57 65 66 66 80 67
REMARK SMILES IDX 55 68 56 69 65 71 81 72 58 73 47 74 48 75 52 76 49 77 51 78
REMARK SMILES IDX 50 79 69 80 70 81 74 82 71 83 73 84 72 85 59 86 60 87 64 88
REMARK SMILES IDX 61 89 63 90 62 91
REMARK H PARENT 31 5 17 10 7 25 35 40 79 59 57 70
REMARK Flexibility Score: inf
ROOT
ATOM      1  C   UNL A   1      35.756  24.127  25.311  1.00  0.00     0.117 C 
ENDROOT
BRANCH   1   2
ATOM      2  N   UNL A   1      34.816  23.763  24.291  1.00  0.00    -0.354 N 
ATOM      3  C   UNL A   1      33.608  23.168  24.495  1.00  0.00     0.242 C 
ATOM      4  O   UNL A   1      32.907  22.946  23.504  1.00  0.00    -0.273 OA
ATOM      5  H   UNL A   1      35.068  23.959  23.360  1.00  0.00     0.163 HD
BRANCH   3   6
ATOM      6  C   UNL A   1      33.134  22.781  25.920  1.00  0.00     0.175 C 
BRANCH   6   7
ATOM      7  N   UNL A   1      31.743  23.171  26.215  1.00  0.00    -0.344 N 
ATOM      8  C   UNL A   1      31.179  24.390  26.437  1.00  0.00     0.221 C 
ATOM      9  O   UNL A   1      29.971  24.439  26.675  1.00  0.00    -0.275 OA
ATOM     10  H   UNL A   1      31.112  22.418  26.259  1.00  0.00     0.164 HD
BRANCH   8  11
ATOM     11  C   UNL A   1      32.002  25.662  26.389  1.00  0.00     0.116 C 
BRANCH  11  12
ATOM     12  C   UNL A   1      32.100  26.264  24.972  1.00  0.00     0.116 C 
ATOM     13  C   UNL A   1      33.563  27.418  23.225  1.00  0.00     0.014 C 
ATOM     14  C   UNL A   1      33.447  26.964  24.687  1.00  0.00     0.034 C 
ATOM     15  C   UNL A   1      33.578  28.146  25.613  1.00  0.00    -0.001 A 
ATOM     16  C   UNL A   1      34.811  28.585  26.099  1.00  0.00     0.011 A 
ATOM     17  C   UNL A   1      32.418  28.802  26.036  1.00  0.00     0.138 A 
ATOM     18  C   UNL A   1      31.022  27.296  24.762  1.00  0.00     0.315 C 
ATOM     19  C   UNL A   1      34.862  29.620  27.038  1.00  0.00     0.047 A 
ATOM     20  C   UNL A   1      32.450  29.808  26.992  1.00  0.00     0.093 A 
ATOM     21  O   UNL A   1      31.168  28.472  25.486  1.00  0.00    -0.426 OA
ATOM     22  O   UNL A   1      30.037  27.098  24.062  1.00  0.00    -0.251 OA
ATOM     23  C   UNL A   1      33.680  30.205  27.493  1.00  0.00     0.119 A 
BRANCH  23  24
ATOM     24  O   UNL A   1      33.693  31.189  28.437  1.00  0.00    -0.508 OA
ATOM     25  H   UNL A   1      34.375  31.212  29.081  1.00  0.00     0.293 HD
ENDBRANCH  23  24
ENDBRANCH  11  12
ENDBRANCH   8  11
ENDBRANCH   6   7
BRANCH   6  26
ATOM     26  C   UNL A   1      33.532  21.318  26.341  1.00  0.00     0.068 C 
BRANCH  26  27
ATOM     27  C   UNL A   1      34.183  20.433  25.303  1.00  0.00    -0.037 C 
ATOM     28  C   UNL A   1      33.736  19.571  24.388  1.00  0.00     0.001 A 
ATOM     29  C   UNL A   1      35.689  20.401  25.207  1.00  0.00     0.174 C 
ATOM     30  C   UNL A   1      32.563  19.253  23.641  1.00  0.00     0.010 A 
ATOM     31  C   UNL A   1      34.852  18.593  24.428  1.00  0.00     0.065 A 
ATOM     32  N   UNL A   1      36.006  19.006  24.853  1.00  0.00    -0.280 NA
ATOM     33  C   UNL A   1      32.389  18.003  23.183  1.00  0.00     0.001 A 
ATOM     34  C   UNL A   1      34.491  17.191  24.124  1.00  0.00     0.028 A 
ATOM     35  C   UNL A   1      33.296  16.939  23.569  1.00  0.00     0.002 A 
ENDBRANCH  26  27
ENDBRANCH   6  26
ENDBRANCH   3   6
ENDBRANCH   1   2
BRANCH   1  36
ATOM     36  C   UNL A   1      37.181  23.700  25.037  1.00  0.00     0.042 C 
BRANCH  36  37
ATOM     37  C   UNL A   1      38.027  23.720  26.296  1.00  0.00     0.118 C 
BRANCH  37  38
ATOM     38  N   UNL A   1      39.462  23.822  26.028  1.00  0.00    -0.352 N 
ATOM     39  C   UNL A   1      40.428  24.746  26.387  1.00  0.00     0.251 C 
ATOM     40  H   UNL A   1      39.812  23.083  25.481  1.00  0.00     0.163 HD
ATOM     41  O   UNL A   1      41.535  24.674  25.889  1.00  0.00    -0.269 OA
BRANCH  39  42
ATOM     42  C   UNL A   1      40.109  25.859  27.317  1.00  0.00     0.039 A 
ATOM     43  C   UNL A   1      40.520  27.152  27.047  1.00  0.00     0.014 A 
ATOM     44  C   UNL A   1      39.394  25.608  28.494  1.00  0.00     0.014 A 
ATOM     45  C   UNL A   1      40.529  28.096  28.058  1.00  0.00     0.010 A 
ATOM     46  C   UNL A   1      39.218  26.631  29.440  1.00  0.00     0.010 A 
ATOM     47  C   UNL A   1      39.856  27.867  29.267  1.00  0.00    -0.014 A 
BRANCH  47  48
ATOM     48  C   UNL A   1      39.858  28.948  30.295  1.00  0.00     0.031 A 
ATOM     49  C   UNL A   1      38.805  30.029  30.297  1.00  0.00     0.074 A 
ATOM     50  C   UNL A   1      40.747  28.882  31.310  1.00  0.00     0.049 A 
ATOM     51  N   UNL A   1      38.631  31.000  31.161  1.00  0.00    -0.248 NA
ATOM     52  C   UNL A   1      37.831  30.039  29.194  1.00  0.00     0.031 C 
ATOM     53  C   UNL A   1      41.810  27.880  31.434  1.00  0.00     0.029 A 
ATOM     54  N   UNL A   1      40.855  29.614  32.466  1.00  0.00    -0.354 N 
ATOM     55  C   UNL A   1      37.567  31.755  30.681  1.00  0.00     0.074 A 
ATOM     56  C   UNL A   1      37.141  31.144  29.442  1.00  0.00     0.031 C 
ATOM     57  C   UNL A   1      42.360  27.968  32.651  1.00  0.00     0.029 A 
ATOM     58  C   UNL A   1      41.785  29.110  33.347  1.00  0.00     0.049 A 
ATOM     59  H   UNL A   1      40.319  30.420  32.649  1.00  0.00     0.167 HD
ATOM     60  C   UNL A   1      36.995  32.855  31.225  1.00  0.00     0.031 A 
ATOM     61  C   UNL A   1      42.156  29.521  34.574  1.00  0.00     0.031 A 
ATOM     62  C   UNL A   1      37.394  33.437  32.479  1.00  0.00     0.049 A 
ATOM     63  C   UNL A   1      41.514  30.747  35.150  1.00  0.00     0.074 A 
ATOM     64  C   UNL A   1      36.866  34.546  33.116  1.00  0.00     0.029 A 
ATOM     65  N   UNL A   1      38.402  32.948  33.295  1.00  0.00    -0.354 N 
ATOM     66  N   UNL A   1      40.537  31.467  34.657  1.00  0.00    -0.248 NA
ATOM     67  C   UNL A   1      42.041  31.232  36.432  1.00  0.00     0.031 C 
ATOM     68  C   UNL A   1      37.590  34.761  34.291  1.00  0.00     0.029 A 
ATOM     69  C   UNL A   1      38.526  33.748  34.418  1.00  0.00     0.049 A 
ATOM     70  H   UNL A   1      38.949  32.152  33.103  1.00  0.00     0.167 HD
ATOM     71  C   UNL A   1      40.336  32.497  35.564  1.00  0.00     0.074 A 
ATOM     72  C   UNL A   1      41.266  32.287  36.654  1.00  0.00     0.031 C 
ATOM     73  C   UNL A   1      39.465  33.532  35.489  1.00  0.00     0.031 A 
BRANCH  60  74
ATOM     74  C   UNL A   1      35.886  33.529  30.463  1.00  0.00    -0.014 A 
ATOM     75  C   UNL A   1      36.115  33.960  29.147  1.00  0.00     0.009 A 
ATOM     76  C   UNL A   1      34.653  33.820  31.067  1.00  0.00     0.009 A 
ATOM     77  C   UNL A   1      35.140  34.680  28.454  1.00  0.00     0.001 A 
ATOM     78  C   UNL A   1      33.668  34.516  30.360  1.00  0.00     0.001 A 
ATOM     79  C   UNL A   1      33.915  34.954  29.060  1.00  0.00     0.000 A 
ENDBRANCH  60  74
BRANCH  61  80
ATOM     80  C   UNL A   1      43.204  28.768  35.315  1.00  0.00    -0.014 A 
ATOM     81  C   UNL A   1      42.846  27.748  36.215  1.00  0.00     0.009 A 
ATOM     82  C   UNL A   1      44.557  29.107  35.183  1.00  0.00     0.009 A 
ATOM     83  C   UNL A   1      43.815  27.118  36.997  1.00  0.00     0.001 A 
ATOM     84  C   UNL A   1      45.530  28.448  35.940  1.00  0.00     0.001 A 
ATOM     85  C   UNL A   1      45.157  27.466  36.857  1.00  0.00     0.000 A 
ENDBRANCH  61  80
BRANCH  73  86
ATOM     86  C   UNL A   1      39.471  34.525  36.615  1.00  0.00    -0.014 A 
ATOM     87  C   UNL A   1      40.260  35.682  36.522  1.00  0.00     0.009 A 
ATOM     88  C   UNL A   1      38.767  34.271  37.801  1.00  0.00     0.009 A 
ATOM     89  C   UNL A   1      40.352  36.563  37.600  1.00  0.00     0.001 A 
ATOM     90  C   UNL A   1      38.839  35.168  38.868  1.00  0.00     0.001 A 
ATOM     91  C   UNL A   1      39.638  36.307  38.770  1.00  0.00     0.000 A 
ENDBRANCH  73  86
ENDBRANCH  47  48
ENDBRANCH  39  42
ENDBRANCH  37  38
ENDBRANCH  36  37
ENDBRANCH   1  36
TORSDOF 16
ENDMDL
