MODEL 1
REMARK VINA RESULT:     -11.6      0.000      0.000
REMARK SMILES Cc1c(Cl)ccc2c1C=C(C(=O)NCCCNC(=O)c1ccc(-c3c4nc(c(-c5ccccc5)c5ccc([nH]5)c(-c5ccccc5)c5nc(c(-c6ccccc6)c6ccc3[nH]6)C=C5)C=C4)cc1)[C@@H](C(F)(F)F)O2
REMARK SMILES IDX 15 1 14 2 13 3 11 4 12 5 10 7 1 8 2 9 3 10 8 11 4 12 5 13
REMARK SMILES IDX 7 14 9 15 6 16 73 17 68 18 69 19 70 20 71 21 72 22 16 23
REMARK SMILES IDX 17 24 18 25 19 27 20 28 21 29 67 30 22 31 66 32 23 33 24 34
REMARK SMILES IDX 25 35 60 36 26 37 65 38 59 39 61 40 27 41 64 42 58 43 57 44
REMARK SMILES IDX 28 46 50 47 35 48 49 49 36 50 39 51 48 52 62 53 37 54 38 55
REMARK SMILES IDX 47 57 63 58 40 59 29 60 30 61 34 62 31 63 33 64 32 65 51 66
REMARK SMILES IDX 52 67 56 68 53 69 55 70 54 71 41 72 42 73 46 74 43 75 45 76
REMARK SMILES IDX 44 77
REMARK H PARENT 13 6 17 26 61 45 39 56
REMARK Flexibility Score: inf
ROOT
ATOM      1  C   UNL A   1      33.736  28.554  24.686  1.00  0.00     0.042 C 
ENDROOT
BRANCH   1   2
ATOM      2  C   UNL A   1      33.103  27.213  24.344  1.00  0.00     0.118 C 
BRANCH   2   3
ATOM      3  N   UNL A   1      32.243  26.738  25.417  1.00  0.00    -0.352 N 
ATOM      4  C   UNL A   1      31.949  25.560  26.013  1.00  0.00     0.251 C 
ATOM      5  O   UNL A   1      31.101  25.630  26.910  1.00  0.00    -0.270 OA
ATOM      6  H   UNL A   1      31.734  27.478  25.821  1.00  0.00     0.163 HD
BRANCH   4   7
ATOM      7  C   UNL A   1      32.558  24.242  25.670  1.00  0.00     0.067 C 
ATOM      8  C   UNL A   1      36.890  23.873  26.028  1.00  0.00     0.047 C 
ATOM      9  C   UNL A   1      35.979  22.720  25.680  1.00  0.00    -0.021 A 
ATOM     10  C   UNL A   1      36.535  21.470  25.327  1.00  0.00     0.044 A 
ATOM     11  C   UNL A   1      34.572  22.868  25.623  1.00  0.00     0.022 A 
ATOM     12  Cl  UNL A   1      38.245  21.199  25.287  1.00  0.00    -0.084 Cl
ATOM     13  C   UNL A   1      35.724  20.385  24.982  1.00  0.00     0.024 A 
ATOM     14  C   UNL A   1      33.778  21.766  25.262  1.00  0.00     0.128 A 
ATOM     15  C   UNL A   1      33.870  24.113  25.950  1.00  0.00     0.026 C 
ATOM     16  C   UNL A   1      34.343  20.531  24.962  1.00  0.00     0.048 A 
ATOM     17  O   UNL A   1      32.414  21.807  25.219  1.00  0.00    -0.475 OA
ATOM     18  C   UNL A   1      31.816  23.114  25.026  1.00  0.00     0.314 C 
BRANCH  18  19
ATOM     19  C   UNL A   1      31.555  23.347  23.525  1.00  0.00     0.429 C 
ATOM     20  F   UNL A   1      32.528  24.129  22.994  1.00  0.00    -0.167 F 
ATOM     21  F   UNL A   1      31.559  22.196  22.812  1.00  0.00    -0.167 F 
ATOM     22  F   UNL A   1      30.371  23.954  23.287  1.00  0.00    -0.167 F 
ENDBRANCH  18  19
ENDBRANCH   4   7
ENDBRANCH   2   3
ENDBRANCH   1   2
BRANCH   1  23
ATOM     23  C   UNL A   1      34.026  28.684  26.177  1.00  0.00     0.118 C 
BRANCH  23  24
ATOM     24  N   UNL A   1      33.854  30.059  26.637  1.00  0.00    -0.352 N 
ATOM     25  C   UNL A   1      34.537  30.743  27.610  1.00  0.00     0.251 C 
ATOM     26  H   UNL A   1      33.145  30.570  26.183  1.00  0.00     0.163 HD
ATOM     27  O   UNL A   1      34.077  31.781  28.079  1.00  0.00    -0.269 OA
BRANCH  25  28
ATOM     28  C   UNL A   1      35.831  30.226  28.086  1.00  0.00     0.039 A 
ATOM     29  C   UNL A   1      35.920  29.655  29.359  1.00  0.00     0.014 A 
ATOM     30  C   UNL A   1      36.963  30.334  27.275  1.00  0.00     0.014 A 
ATOM     31  C   UNL A   1      37.142  29.139  29.794  1.00  0.00     0.010 A 
ATOM     32  C   UNL A   1      38.159  29.756  27.677  1.00  0.00     0.010 A 
ATOM     33  C   UNL A   1      38.260  29.169  28.945  1.00  0.00    -0.014 A 
BRANCH  33  34
ATOM     34  C   UNL A   1      39.573  28.645  29.380  1.00  0.00     0.031 A 
ATOM     35  C   UNL A   1      40.416  29.459  30.320  1.00  0.00     0.074 A 
ATOM     36  C   UNL A   1      40.024  27.473  28.895  1.00  0.00     0.049 A 
ATOM     37  N   UNL A   1      41.622  29.217  30.762  1.00  0.00    -0.248 NA
ATOM     38  C   UNL A   1      39.837  30.722  30.813  1.00  0.00     0.031 C 
ATOM     39  C   UNL A   1      39.298  26.602  27.970  1.00  0.00     0.029 A 
ATOM     40  N   UNL A   1      41.204  26.812  29.119  1.00  0.00    -0.354 N 
ATOM     41  C   UNL A   1      41.946  30.296  31.574  1.00  0.00     0.074 A 
ATOM     42  C   UNL A   1      40.835  31.218  31.529  1.00  0.00     0.031 C 
ATOM     43  C   UNL A   1      40.033  25.502  27.735  1.00  0.00     0.029 A 
ATOM     44  C   UNL A   1      41.294  25.610  28.462  1.00  0.00     0.049 A 
ATOM     45  H   UNL A   1      41.920  27.167  29.695  1.00  0.00     0.167 HD
ATOM     46  C   UNL A   1      43.060  30.485  32.314  1.00  0.00     0.031 A 
ATOM     47  C   UNL A   1      42.282  24.694  28.454  1.00  0.00     0.031 A 
ATOM     48  C   UNL A   1      44.150  29.554  32.381  1.00  0.00     0.049 A 
ATOM     49  C   UNL A   1      43.526  24.947  29.257  1.00  0.00     0.074 A 
ATOM     50  C   UNL A   1      45.305  29.642  33.137  1.00  0.00     0.029 A 
ATOM     51  N   UNL A   1      44.212  28.364  31.677  1.00  0.00    -0.354 N 
ATOM     52  N   UNL A   1      43.808  25.962  30.037  1.00  0.00    -0.248 NA
ATOM     53  C   UNL A   1      44.585  23.931  29.182  1.00  0.00     0.031 C 
ATOM     54  C   UNL A   1      46.087  28.517  32.863  1.00  0.00     0.029 A 
ATOM     55  C   UNL A   1      45.396  27.711  31.971  1.00  0.00     0.049 A 
ATOM     56  H   UNL A   1      43.520  28.031  31.062  1.00  0.00     0.167 HD
ATOM     57  C   UNL A   1      45.065  25.698  30.563  1.00  0.00     0.074 A 
ATOM     58  C   UNL A   1      45.491  24.426  30.017  1.00  0.00     0.031 C 
ATOM     59  C   UNL A   1      45.798  26.444  31.423  1.00  0.00     0.031 A 
BRANCH  46  60
ATOM     60  C   UNL A   1      43.154  31.735  33.136  1.00  0.00    -0.014 A 
ATOM     61  C   UNL A   1      43.689  32.910  32.589  1.00  0.00     0.009 A 
ATOM     62  C   UNL A   1      42.615  31.764  34.431  1.00  0.00     0.009 A 
ATOM     63  C   UNL A   1      43.687  34.094  33.328  1.00  0.00     0.001 A 
ATOM     64  C   UNL A   1      42.596  32.954  35.160  1.00  0.00     0.001 A 
ATOM     65  C   UNL A   1      43.132  34.117  34.608  1.00  0.00     0.000 A 
ENDBRANCH  46  60
BRANCH  47  66
ATOM     66  C   UNL A   1      42.108  23.433  27.692  1.00  0.00    -0.014 A 
ATOM     67  C   UNL A   1      41.417  22.356  28.269  1.00  0.00     0.009 A 
ATOM     68  C   UNL A   1      42.593  23.307  26.381  1.00  0.00     0.009 A 
ATOM     69  C   UNL A   1      41.222  21.175  27.551  1.00  0.00     0.001 A 
ATOM     70  C   UNL A   1      42.379  22.131  25.659  1.00  0.00     0.001 A 
ATOM     71  C   UNL A   1      41.697  21.065  26.245  1.00  0.00     0.000 A 
ENDBRANCH  47  66
BRANCH  59  72
ATOM     72  C   UNL A   1      47.130  25.913  31.857  1.00  0.00    -0.014 A 
ATOM     73  C   UNL A   1      48.283  26.163  31.101  1.00  0.00     0.009 A 
ATOM     74  C   UNL A   1      47.251  25.276  33.103  1.00  0.00     0.009 A 
ATOM     75  C   UNL A   1      49.536  25.785  31.585  1.00  0.00     0.001 A 
ATOM     76  C   UNL A   1      48.507  24.918  33.593  1.00  0.00     0.001 A 
ATOM     77  C   UNL A   1      49.647  25.172  32.833  1.00  0.00     0.000 A 
ENDBRANCH  59  72
ENDBRANCH  33  34
ENDBRANCH  25  28
ENDBRANCH  23  24
ENDBRANCH   1  23
TORSDOF 11
ENDMDL
MODEL 2
REMARK VINA RESULT:     -11.6      2.665      7.285
REMARK SMILES Cc1c(Cl)ccc2c1C=C(C(=O)NCCCNC(=O)c1ccc(-c3c4nc(c(-c5ccccc5)c5ccc([nH]5)c(-c5ccccc5)c5nc(c(-c6ccccc6)c6ccc3[nH]6)C=C5)C=C4)cc1)[C@@H](C(F)(F)F)O2
REMARK SMILES IDX 15 1 14 2 13 3 11 4 12 5 10 7 1 8 2 9 3 10 8 11 4 12 5 13
REMARK SMILES IDX 7 14 9 15 6 16 73 17 68 18 69 19 70 20 71 21 72 22 16 23
REMARK SMILES IDX 17 24 18 25 19 27 20 28 21 29 67 30 22 31 66 32 23 33 24 34
REMARK SMILES IDX 25 35 60 36 26 37 65 38 59 39 61 40 27 41 64 42 58 43 57 44
REMARK SMILES IDX 28 46 50 47 35 48 49 49 36 50 39 51 48 52 62 53 37 54 38 55
REMARK SMILES IDX 47 57 63 58 40 59 29 60 30 61 34 62 31 63 33 64 32 65 51 66
REMARK SMILES IDX 52 67 56 68 53 69 55 70 54 71 41 72 42 73 46 74 43 75 45 76
REMARK SMILES IDX 44 77
REMARK H PARENT 13 6 17 26 61 45 39 56
REMARK Flexibility Score: inf
ROOT
ATOM      1  C   UNL A   1      37.836  19.621  24.994  1.00  0.00     0.042 C 
ENDROOT
BRANCH   1   2
ATOM      2  C   UNL A   1      36.818  20.662  24.550  1.00  0.00     0.118 C 
BRANCH   2   3
ATOM      3  N   UNL A   1      36.005  21.125  25.664  1.00  0.00    -0.352 N 
ATOM      4  C   UNL A   1      35.097  22.099  25.901  1.00  0.00     0.251 C 
ATOM      5  O   UNL A   1      34.663  22.133  27.056  1.00  0.00    -0.270 OA
ATOM      6  H   UNL A   1      36.157  20.577  26.468  1.00  0.00     0.163 HD
BRANCH   4   7
ATOM      7  C   UNL A   1      34.612  23.090  24.896  1.00  0.00     0.067 C 
ATOM      8  C   UNL A   1      33.837  27.153  26.283  1.00  0.00     0.047 C 
ATOM      9  C   UNL A   1      33.740  26.730  24.836  1.00  0.00    -0.021 A 
ATOM     10  C   UNL A   1      33.259  27.643  23.871  1.00  0.00     0.044 A 
ATOM     11  C   UNL A   1      34.049  25.414  24.417  1.00  0.00     0.022 A 
ATOM     12  Cl  UNL A   1      32.778  29.255  24.284  1.00  0.00    -0.084 Cl
ATOM     13  C   UNL A   1      33.139  27.283  22.526  1.00  0.00     0.024 A 
ATOM     14  C   UNL A   1      33.910  25.072  23.062  1.00  0.00     0.128 A 
ATOM     15  C   UNL A   1      34.543  24.367  25.318  1.00  0.00     0.026 C 
ATOM     16  C   UNL A   1      33.477  25.999  22.119  1.00  0.00     0.048 A 
ATOM     17  O   UNL A   1      34.221  23.838  22.564  1.00  0.00    -0.475 OA
ATOM     18  C   UNL A   1      34.185  22.737  23.506  1.00  0.00     0.314 C 
BRANCH  18  19
ATOM     19  C   UNL A   1      32.802  22.058  23.457  1.00  0.00     0.429 C 
ATOM     20  F   UNL A   1      32.295  22.112  22.200  1.00  0.00    -0.167 F 
ATOM     21  F   UNL A   1      32.855  20.747  23.791  1.00  0.00    -0.167 F 
ATOM     22  F   UNL A   1      31.905  22.639  24.283  1.00  0.00    -0.167 F 
ENDBRANCH  18  19
ENDBRANCH   4   7
ENDBRANCH   2   3
ENDBRANCH   1   2
BRANCH   1  23
ATOM     23  C   UNL A   1      38.986  20.244  25.774  1.00  0.00     0.118 C 
BRANCH  23  24
ATOM     24  N   UNL A   1      40.132  19.342  25.850  1.00  0.00    -0.352 N 
ATOM     25  C   UNL A   1      41.458  19.634  26.043  1.00  0.00     0.251 C 
ATOM     26  H   UNL A   1      39.922  18.385  25.748  1.00  0.00     0.163 HD
ATOM     27  O   UNL A   1      42.322  18.800  25.783  1.00  0.00    -0.269 OA
BRANCH  25  28
ATOM     28  C   UNL A   1      41.840  20.956  26.569  1.00  0.00     0.039 A 
ATOM     29  C   UNL A   1      42.248  21.958  25.685  1.00  0.00     0.014 A 
ATOM     30  C   UNL A   1      41.817  21.187  27.946  1.00  0.00     0.014 A 
ATOM     31  C   UNL A   1      42.581  23.218  26.185  1.00  0.00     0.010 A 
ATOM     32  C   UNL A   1      42.076  22.460  28.436  1.00  0.00     0.010 A 
ATOM     33  C   UNL A   1      42.475  23.479  27.561  1.00  0.00    -0.014 A 
BRANCH  33  34
ATOM     34  C   UNL A   1      42.833  24.798  28.126  1.00  0.00     0.031 A 
ATOM     35  C   UNL A   1      41.761  25.834  28.314  1.00  0.00     0.074 A 
ATOM     36  C   UNL A   1      44.116  25.078  28.420  1.00  0.00     0.049 A 
ATOM     37  N   UNL A   1      41.876  27.070  28.722  1.00  0.00    -0.248 NA
ATOM     38  C   UNL A   1      40.381  25.436  27.981  1.00  0.00     0.031 C 
ATOM     39  C   UNL A   1      45.242  24.155  28.270  1.00  0.00     0.029 A 
ATOM     40  N   UNL A   1      44.687  26.224  28.911  1.00  0.00    -0.354 N 
ATOM     41  C   UNL A   1      40.591  27.596  28.686  1.00  0.00     0.074 A 
ATOM     42  C   UNL A   1      39.718  26.566  28.173  1.00  0.00     0.031 C 
ATOM     43  C   UNL A   1      46.364  24.758  28.696  1.00  0.00     0.029 A 
ATOM     44  C   UNL A   1      46.041  26.120  29.114  1.00  0.00     0.049 A 
ATOM     45  H   UNL A   1      44.175  27.043  29.099  1.00  0.00     0.167 HD
ATOM     46  C   UNL A   1      40.174  28.821  29.075  1.00  0.00     0.031 A 
ATOM     47  C   UNL A   1      46.921  27.021  29.591  1.00  0.00     0.031 A 
ATOM     48  C   UNL A   1      41.037  29.832  29.613  1.00  0.00     0.049 A 
ATOM     49  C   UNL A   1      46.436  28.388  29.981  1.00  0.00     0.074 A 
ATOM     50  C   UNL A   1      40.698  31.092  30.073  1.00  0.00     0.029 A 
ATOM     51  N   UNL A   1      42.405  29.695  29.774  1.00  0.00    -0.354 N 
ATOM     52  N   UNL A   1      45.215  28.863  29.962  1.00  0.00    -0.248 NA
ATOM     53  C   UNL A   1      47.447  29.341  30.461  1.00  0.00     0.031 C 
ATOM     54  C   UNL A   1      41.869  31.733  30.481  1.00  0.00     0.029 A 
ATOM     55  C   UNL A   1      42.929  30.855  30.314  1.00  0.00     0.049 A 
ATOM     56  H   UNL A   1      42.927  28.894  29.539  1.00  0.00     0.167 HD
ATOM     57  C   UNL A   1      45.305  30.160  30.446  1.00  0.00     0.074 A 
ATOM     58  C   UNL A   1      46.700  30.398  30.755  1.00  0.00     0.031 C 
ATOM     59  C   UNL A   1      44.318  31.071  30.621  1.00  0.00     0.031 A 
BRANCH  46  60
ATOM     60  C   UNL A   1      38.713  29.134  28.961  1.00  0.00    -0.014 A 
ATOM     61  C   UNL A   1      37.866  29.003  30.072  1.00  0.00     0.009 A 
ATOM     62  C   UNL A   1      38.198  29.655  27.764  1.00  0.00     0.009 A 
ATOM     63  C   UNL A   1      36.527  29.386  29.984  1.00  0.00     0.001 A 
ATOM     64  C   UNL A   1      36.863  30.056  27.686  1.00  0.00     0.001 A 
ATOM     65  C   UNL A   1      36.030  29.920  28.796  1.00  0.00     0.000 A 
ENDBRANCH  46  60
BRANCH  47  66
ATOM     66  C   UNL A   1      48.344  26.636  29.766  1.00  0.00    -0.014 A 
ATOM     67  C   UNL A   1      48.759  26.008  30.951  1.00  0.00     0.009 A 
ATOM     68  C   UNL A   1      49.283  26.856  28.746  1.00  0.00     0.009 A 
ATOM     69  C   UNL A   1      50.089  25.616  31.115  1.00  0.00     0.001 A 
ATOM     70  C   UNL A   1      50.608  26.444  28.907  1.00  0.00     0.001 A 
ATOM     71  C   UNL A   1      51.011  25.828  30.091  1.00  0.00     0.000 A 
ENDBRANCH  47  66
BRANCH  59  72
ATOM     72  C   UNL A   1      44.685  32.407  31.188  1.00  0.00    -0.014 A 
ATOM     73  C   UNL A   1      44.970  33.490  30.346  1.00  0.00     0.009 A 
ATOM     74  C   UNL A   1      44.610  32.617  32.575  1.00  0.00     0.009 A 
ATOM     75  C   UNL A   1      45.173  34.763  30.882  1.00  0.00     0.001 A 
ATOM     76  C   UNL A   1      44.792  33.894  33.106  1.00  0.00     0.001 A 
ATOM     77  C   UNL A   1      45.075  34.964  32.259  1.00  0.00     0.000 A 
ENDBRANCH  59  72
ENDBRANCH  33  34
ENDBRANCH  25  28
ENDBRANCH  23  24
ENDBRANCH   1  23
TORSDOF 11
ENDMDL
MODEL 3
REMARK VINA RESULT:     -11.6      2.388      7.026
REMARK SMILES Cc1c(Cl)ccc2c1C=C(C(=O)NCCCNC(=O)c1ccc(-c3c4nc(c(-c5ccccc5)c5ccc([nH]5)c(-c5ccccc5)c5nc(c(-c6ccccc6)c6ccc3[nH]6)C=C5)C=C4)cc1)[C@@H](C(F)(F)F)O2
REMARK SMILES IDX 15 1 14 2 13 3 11 4 12 5 10 7 1 8 2 9 3 10 8 11 4 12 5 13
REMARK SMILES IDX 7 14 9 15 6 16 73 17 68 18 69 19 70 20 71 21 72 22 16 23
REMARK SMILES IDX 17 24 18 25 19 27 20 28 21 29 67 30 22 31 66 32 23 33 24 34
REMARK SMILES IDX 25 35 60 36 26 37 65 38 59 39 61 40 27 41 64 42 58 43 57 44
REMARK SMILES IDX 28 46 50 47 35 48 49 49 36 50 39 51 48 52 62 53 37 54 38 55
REMARK SMILES IDX 47 57 63 58 40 59 29 60 30 61 34 62 31 63 33 64 32 65 51 66
REMARK SMILES IDX 52 67 56 68 53 69 55 70 54 71 41 72 42 73 46 74 43 75 45 76
REMARK SMILES IDX 44 77
REMARK H PARENT 13 6 17 26 61 45 39 56
REMARK Flexibility Score: inf
ROOT
ATOM      1  C   UNL A   1      31.408  31.977  26.489  1.00  0.00     0.042 C 
ENDROOT
BRANCH   1   2
ATOM      2  C   UNL A   1      31.403  30.463  26.335  1.00  0.00     0.118 C 
BRANCH   2   3
ATOM      3  N   UNL A   1      32.306  30.029  25.280  1.00  0.00    -0.352 N 
ATOM      4  C   UNL A   1      32.792  28.863  24.799  1.00  0.00     0.251 C 
ATOM      5  O   UNL A   1      33.589  28.980  23.862  1.00  0.00    -0.270 OA
ATOM      6  H   UNL A   1      32.662  30.798  24.777  1.00  0.00     0.163 HD
BRANCH   4   7
ATOM      7  C   UNL A   1      32.440  27.505  25.308  1.00  0.00     0.067 C 
ATOM      8  C   UNL A   1      35.584  24.481  25.325  1.00  0.00     0.047 C 
ATOM      9  C   UNL A   1      34.205  24.256  25.897  1.00  0.00    -0.021 A 
ATOM     10  C   UNL A   1      33.840  22.973  26.362  1.00  0.00     0.044 A 
ATOM     11  C   UNL A   1      33.227  25.279  25.919  1.00  0.00     0.022 A 
ATOM     12  Cl  UNL A   1      34.931  21.628  26.310  1.00  0.00    -0.084 Cl
ATOM     13  C   UNL A   1      32.567  22.723  26.882  1.00  0.00     0.024 A 
ATOM     14  C   UNL A   1      31.950  25.001  26.436  1.00  0.00     0.128 A 
ATOM     15  C   UNL A   1      33.469  26.649  25.454  1.00  0.00     0.026 C 
ATOM     16  C   UNL A   1      31.625  23.741  26.930  1.00  0.00     0.048 A 
ATOM     17  O   UNL A   1      30.959  25.936  26.531  1.00  0.00    -0.475 OA
ATOM     18  C   UNL A   1      31.045  27.060  25.619  1.00  0.00     0.314 C 
BRANCH  18  19
ATOM     19  C   UNL A   1      30.213  26.766  24.355  1.00  0.00     0.429 C 
ATOM     20  F   UNL A   1      29.731  27.920  23.831  1.00  0.00    -0.167 F 
ATOM     21  F   UNL A   1      30.943  26.178  23.378  1.00  0.00    -0.167 F 
ATOM     22  F   UNL A   1      29.159  25.958  24.599  1.00  0.00    -0.167 F 
ENDBRANCH  18  19
ENDBRANCH   4   7
ENDBRANCH   2   3
ENDBRANCH   1   2
BRANCH   1  23
ATOM     23  C   UNL A   1      32.697  32.483  27.124  1.00  0.00     0.118 C 
BRANCH  23  24
ATOM     24  N   UNL A   1      32.544  33.841  27.639  1.00  0.00    -0.352 N 
ATOM     25  C   UNL A   1      33.224  34.470  28.649  1.00  0.00     0.251 C 
ATOM     26  H   UNL A   1      31.851  34.383  27.196  1.00  0.00     0.163 HD
ATOM     27  O   UNL A   1      32.776  35.496  29.155  1.00  0.00    -0.269 OA
BRANCH  25  28
ATOM     28  C   UNL A   1      34.501  33.908  29.123  1.00  0.00     0.039 A 
ATOM     29  C   UNL A   1      34.519  33.101  30.263  1.00  0.00     0.014 A 
ATOM     30  C   UNL A   1      35.685  34.209  28.445  1.00  0.00     0.014 A 
ATOM     31  C   UNL A   1      35.726  32.546  30.691  1.00  0.00     0.010 A 
ATOM     32  C   UNL A   1      36.872  33.599  28.827  1.00  0.00     0.010 A 
ATOM     33  C   UNL A   1      36.904  32.777  29.960  1.00  0.00    -0.014 A 
BRANCH  33  34
ATOM     34  C   UNL A   1      38.202  32.217  30.393  1.00  0.00     0.031 A 
ATOM     35  C   UNL A   1      38.667  30.908  29.821  1.00  0.00     0.074 A 
ATOM     36  C   UNL A   1      38.931  32.854  31.329  1.00  0.00     0.049 A 
ATOM     37  N   UNL A   1      39.733  30.213  30.120  1.00  0.00    -0.248 NA
ATOM     38  C   UNL A   1      37.814  30.289  28.791  1.00  0.00     0.031 C 
ATOM     39  C   UNL A   1      38.575  34.125  31.962  1.00  0.00     0.029 A 
ATOM     40  N   UNL A   1      40.128  32.517  31.906  1.00  0.00    -0.354 N 
ATOM     41  C   UNL A   1      39.672  29.076  29.325  1.00  0.00     0.074 A 
ATOM     42  C   UNL A   1      38.446  29.146  28.565  1.00  0.00     0.031 C 
ATOM     43  C   UNL A   1      39.552  34.479  32.813  1.00  0.00     0.029 A 
ATOM     44  C   UNL A   1      40.582  33.444  32.812  1.00  0.00     0.049 A 
ATOM     45  H   UNL A   1      40.615  31.688  31.692  1.00  0.00     0.167 HD
ATOM     46  C   UNL A   1      40.575  28.077  29.219  1.00  0.00     0.031 A 
ATOM     47  C   UNL A   1      41.707  33.459  33.552  1.00  0.00     0.031 A 
ATOM     48  C   UNL A   1      41.807  28.023  29.952  1.00  0.00     0.049 A 
ATOM     49  C   UNL A   1      42.676  32.317  33.441  1.00  0.00     0.074 A 
ATOM     50  C   UNL A   1      42.805  27.069  29.879  1.00  0.00     0.029 A 
ATOM     51  N   UNL A   1      42.213  28.967  30.879  1.00  0.00    -0.354 N 
ATOM     52  N   UNL A   1      42.615  31.260  32.669  1.00  0.00    -0.248 NA
ATOM     53  C   UNL A   1      43.869  32.370  34.299  1.00  0.00     0.031 C 
ATOM     54  C   UNL A   1      43.803  27.417  30.792  1.00  0.00     0.029 A 
ATOM     55  C   UNL A   1      43.444  28.611  31.398  1.00  0.00     0.049 A 
ATOM     56  H   UNL A   1      41.703  29.771  31.131  1.00  0.00     0.167 HD
ATOM     57  C   UNL A   1      43.768  30.534  32.930  1.00  0.00     0.074 A 
ATOM     58  C   UNL A   1      44.513  31.270  33.929  1.00  0.00     0.031 C 
ATOM     59  C   UNL A   1      44.172  29.360  32.386  1.00  0.00     0.031 A 
BRANCH  46  60
ATOM     60  C   UNL A   1      40.283  26.966  28.255  1.00  0.00    -0.014 A 
ATOM     61  C   UNL A   1      40.797  27.000  26.950  1.00  0.00     0.009 A 
ATOM     62  C   UNL A   1      39.573  25.835  28.683  1.00  0.00     0.009 A 
ATOM     63  C   UNL A   1      40.601  25.920  26.089  1.00  0.00     0.001 A 
ATOM     64  C   UNL A   1      39.396  24.748  27.825  1.00  0.00     0.001 A 
ATOM     65  C   UNL A   1      39.910  24.792  26.530  1.00  0.00     0.000 A 
ENDBRANCH  46  60
BRANCH  47  66
ATOM     66  C   UNL A   1      41.993  34.622  34.429  1.00  0.00    -0.014 A 
ATOM     67  C   UNL A   1      41.591  34.601  35.773  1.00  0.00     0.009 A 
ATOM     68  C   UNL A   1      42.697  35.736  33.946  1.00  0.00     0.009 A 
ATOM     69  C   UNL A   1      41.880  35.677  36.615  1.00  0.00     0.001 A 
ATOM     70  C   UNL A   1      43.002  36.802  34.796  1.00  0.00     0.001 A 
ATOM     71  C   UNL A   1      42.591  36.774  36.128  1.00  0.00     0.000 A 
ENDBRANCH  47  66
BRANCH  59  72
ATOM     72  C   UNL A   1      45.485  28.794  32.832  1.00  0.00    -0.014 A 
ATOM     73  C   UNL A   1      45.547  27.863  33.877  1.00  0.00     0.009 A 
ATOM     74  C   UNL A   1      46.651  29.090  32.106  1.00  0.00     0.009 A 
ATOM     75  C   UNL A   1      46.755  27.238  34.190  1.00  0.00     0.001 A 
ATOM     76  C   UNL A   1      47.852  28.448  32.407  1.00  0.00     0.001 A 
ATOM     77  C   UNL A   1      47.902  27.523  33.449  1.00  0.00     0.000 A 
ENDBRANCH  59  72
ENDBRANCH  33  34
ENDBRANCH  25  28
ENDBRANCH  23  24
ENDBRANCH   1  23
TORSDOF 11
ENDMDL
