MODEL 1
REMARK VINA RESULT:     -11.6      0.000      0.000
REMARK SMILES CC(C)N1C[C@@H](C(=O)N2CCC(C(=O)NCCCNC(=O)c3ccc(-c4c5nc(c(-c6ccccc6)c6ccc([nH]6)c(-c6ccccc6)c6nc(c(-c7ccccc7)c7ccc4[nH]7)C=C6)C=C5)cc3)CC2)CC1=O
REMARK SMILES IDX 17 1 16 2 15 3 13 4 14 5 12 7 7 8 8 9 9 10 10 11 71 12 11 13
REMARK SMILES IDX 70 14 6 15 4 16 5 17 73 18 72 19 74 20 2 21 1 22 3 23 18 24
REMARK SMILES IDX 19 25 20 26 21 28 22 29 23 30 69 31 24 32 68 33 25 34 26 35
REMARK SMILES IDX 27 36 62 37 28 38 67 39 61 40 63 41 29 42 66 43 60 44 59 45
REMARK SMILES IDX 30 47 52 48 37 49 51 50 38 51 41 52 50 53 64 54 39 55 40 56
REMARK SMILES IDX 49 58 65 59 42 60 31 61 32 62 36 63 33 64 35 65 34 66 53 67
REMARK SMILES IDX 54 68 58 69 55 70 57 71 56 72 43 73 44 74 48 75 45 76 47 77
REMARK SMILES IDX 46 78
REMARK H PARENT 15 6 19 27 63 46 41 57
REMARK Flexibility Score: inf
ROOT
ATOM      1  C   UNL A   1      37.730  19.904  24.903  1.00  0.00     0.042 C 
ENDROOT
BRANCH   1   2
ATOM      2  C   UNL A   1      36.589  20.909  24.838  1.00  0.00     0.117 C 
BRANCH   2   3
ATOM      3  N   UNL A   1      35.679  20.777  25.968  1.00  0.00    -0.356 N 
ATOM      4  C   UNL A   1      34.585  21.501  26.327  1.00  0.00     0.223 C 
ATOM      5  O   UNL A   1      34.009  21.193  27.373  1.00  0.00    -0.275 OA
ATOM      6  H   UNL A   1      35.896  20.035  26.579  1.00  0.00     0.163 HD
BRANCH   4   7
ATOM      7  C   UNL A   1      34.063  22.641  25.467  1.00  0.00     0.082 C 
ATOM      8  C   UNL A   1      31.266  25.438  26.120  1.00  0.00     0.227 C 
ATOM      9  O   UNL A   1      30.437  24.709  26.674  1.00  0.00    -0.274 OA
ATOM     10  N   UNL A   1      32.271  24.890  25.345  1.00  0.00    -0.342 N 
ATOM     11  C   UNL A   1      31.968  23.713  24.544  1.00  0.00     0.120 C 
ATOM     12  C   UNL A   1      33.689  25.182  25.489  1.00  0.00     0.120 C 
ATOM     13  C   UNL A   1      32.578  22.459  25.137  1.00  0.00     0.035 C 
ATOM     14  C   UNL A   1      34.449  23.997  26.077  1.00  0.00     0.035 C 
BRANCH   8  15
ATOM     15  C   UNL A   1      31.003  26.940  26.051  1.00  0.00     0.107 C 
ATOM     16  N   UNL A   1      30.912  28.694  24.492  1.00  0.00    -0.339 N 
ATOM     17  C   UNL A   1      30.553  27.306  24.643  1.00  0.00     0.133 C 
ATOM     18  C   UNL A   1      31.798  29.115  25.467  1.00  0.00     0.223 C 
ATOM     19  C   UNL A   1      32.078  27.960  26.395  1.00  0.00     0.115 C 
ATOM     20  O   UNL A   1      32.325  30.214  25.551  1.00  0.00    -0.275 OA
BRANCH  16  21
ATOM     21  C   UNL A   1      30.519  29.508  23.341  1.00  0.00     0.078 C 
ATOM     22  C   UNL A   1      30.050  28.635  22.177  1.00  0.00     0.031 C 
ATOM     23  C   UNL A   1      29.458  30.539  23.718  1.00  0.00     0.031 C 
ENDBRANCH  16  21
ENDBRANCH   8  15
ENDBRANCH   4   7
ENDBRANCH   2   3
ENDBRANCH   1   2
BRANCH   1  24
ATOM     24  C   UNL A   1      38.916  20.392  25.717  1.00  0.00     0.118 C 
BRANCH  24  25
ATOM     25  N   UNL A   1      39.993  19.411  25.783  1.00  0.00    -0.352 N 
ATOM     26  C   UNL A   1      41.325  19.597  26.065  1.00  0.00     0.251 C 
ATOM     27  H   UNL A   1      39.728  18.482  25.599  1.00  0.00     0.163 HD
ATOM     28  O   UNL A   1      42.129  18.688  25.888  1.00  0.00    -0.269 OA
BRANCH  26  29
ATOM     29  C   UNL A   1      41.787  20.909  26.560  1.00  0.00     0.039 A 
ATOM     30  C   UNL A   1      42.289  21.846  25.655  1.00  0.00     0.014 A 
ATOM     31  C   UNL A   1      41.695  21.219  27.919  1.00  0.00     0.014 A 
ATOM     32  C   UNL A   1      42.626  23.126  26.104  1.00  0.00     0.010 A 
ATOM     33  C   UNL A   1      41.934  22.518  28.344  1.00  0.00     0.010 A 
ATOM     34  C   UNL A   1      42.409  23.484  27.444  1.00  0.00    -0.014 A 
BRANCH  34  35
ATOM     35  C   UNL A   1      42.682  24.851  27.950  1.00  0.00     0.031 A 
ATOM     36  C   UNL A   1      44.066  25.202  28.425  1.00  0.00     0.074 A 
ATOM     37  C   UNL A   1      41.677  25.738  28.080  1.00  0.00     0.049 A 
ATOM     38  N   UNL A   1      44.480  26.278  29.043  1.00  0.00    -0.248 NA
ATOM     39  C   UNL A   1      45.116  24.193  28.206  1.00  0.00     0.031 C 
ATOM     40  C   UNL A   1      40.286  25.513  27.681  1.00  0.00     0.029 A 
ATOM     41  N   UNL A   1      41.670  27.006  28.605  1.00  0.00    -0.354 N 
ATOM     42  C   UNL A   1      45.827  26.061  29.311  1.00  0.00     0.074 A 
ATOM     43  C   UNL A   1      46.146  24.733  28.837  1.00  0.00     0.031 C 
ATOM     44  C   UNL A   1      39.566  26.613  27.958  1.00  0.00     0.029 A 
ATOM     45  C   UNL A   1      40.429  27.597  28.603  1.00  0.00     0.049 A 
ATOM     46  H   UNL A   1      42.478  27.451  28.951  1.00  0.00     0.167 HD
ATOM     47  C   UNL A   1      46.722  26.899  29.885  1.00  0.00     0.031 A 
ATOM     48  C   UNL A   1      40.027  28.788  29.085  1.00  0.00     0.031 A 
ATOM     49  C   UNL A   1      46.404  28.223  30.345  1.00  0.00     0.049 A 
ATOM     50  C   UNL A   1      41.034  29.690  29.745  1.00  0.00     0.074 A 
ATOM     51  C   UNL A   1      47.250  29.170  30.894  1.00  0.00     0.029 A 
ATOM     52  N   UNL A   1      45.138  28.788  30.309  1.00  0.00    -0.354 N 
ATOM     53  N   UNL A   1      42.315  29.493  29.946  1.00  0.00    -0.248 NA
ATOM     54  C   UNL A   1      40.541  30.983  30.239  1.00  0.00     0.031 C 
ATOM     55  C   UNL A   1      46.485  30.286  31.246  1.00  0.00     0.029 A 
ATOM     56  C   UNL A   1      45.176  30.063  30.848  1.00  0.00     0.049 A 
ATOM     57  H   UNL A   1      44.332  28.348  29.953  1.00  0.00     0.167 HD
ATOM     58  C   UNL A   1      42.788  30.652  30.549  1.00  0.00     0.074 A 
ATOM     59  C   UNL A   1      41.658  31.548  30.676  1.00  0.00     0.031 C 
ATOM     60  C   UNL A   1      44.046  30.948  30.955  1.00  0.00     0.031 A 
BRANCH  47  61
ATOM     61  C   UNL A   1      48.129  26.397  30.059  1.00  0.00    -0.014 A 
ATOM     62  C   UNL A   1      49.096  26.571  29.056  1.00  0.00     0.009 A 
ATOM     63  C   UNL A   1      48.502  25.766  31.256  1.00  0.00     0.009 A 
ATOM     64  C   UNL A   1      50.394  26.087  29.230  1.00  0.00     0.001 A 
ATOM     65  C   UNL A   1      49.809  25.315  31.443  1.00  0.00     0.001 A 
ATOM     66  C   UNL A   1      50.751  25.465  30.426  1.00  0.00     0.000 A 
ENDBRANCH  47  61
BRANCH  48  67
ATOM     67  C   UNL A   1      38.605  29.206  28.956  1.00  0.00    -0.014 A 
ATOM     68  C   UNL A   1      38.130  29.753  27.754  1.00  0.00     0.009 A 
ATOM     69  C   UNL A   1      37.719  29.074  30.036  1.00  0.00     0.009 A 
ATOM     70  C   UNL A   1      36.807  30.187  27.647  1.00  0.00     0.001 A 
ATOM     71  C   UNL A   1      36.387  29.478  29.916  1.00  0.00     0.001 A 
ATOM     72  C   UNL A   1      35.935  30.045  28.725  1.00  0.00     0.000 A 
ENDBRANCH  48  67
BRANCH  60  73
ATOM     73  C   UNL A   1      44.290  32.320  31.517  1.00  0.00    -0.014 A 
ATOM     74  C   UNL A   1      44.208  32.579  32.893  1.00  0.00     0.009 A 
ATOM     75  C   UNL A   1      44.668  33.360  30.651  1.00  0.00     0.009 A 
ATOM     76  C   UNL A   1      44.476  33.858  33.387  1.00  0.00     0.001 A 
ATOM     77  C   UNL A   1      44.965  34.627  31.151  1.00  0.00     0.001 A 
ATOM     78  C   UNL A   1      44.861  34.878  32.518  1.00  0.00     0.000 A 
ENDBRANCH  60  73
ENDBRANCH  34  35
ENDBRANCH  26  29
ENDBRANCH  24  25
ENDBRANCH   1  24
TORSDOF 12
ENDMDL
MODEL 2
REMARK VINA RESULT:     -11.6      1.432      6.173
REMARK SMILES CC(C)N1C[C@@H](C(=O)N2CCC(C(=O)NCCCNC(=O)c3ccc(-c4c5nc(c(-c6ccccc6)c6ccc([nH]6)c(-c6ccccc6)c6nc(c(-c7ccccc7)c7ccc4[nH]7)C=C6)C=C5)cc3)CC2)CC1=O
REMARK SMILES IDX 17 1 16 2 15 3 13 4 14 5 12 7 7 8 8 9 9 10 10 11 71 12 11 13
REMARK SMILES IDX 70 14 6 15 4 16 5 17 73 18 72 19 74 20 2 21 1 22 3 23 18 24
REMARK SMILES IDX 19 25 20 26 21 28 22 29 23 30 69 31 24 32 68 33 25 34 26 35
REMARK SMILES IDX 27 36 62 37 28 38 67 39 61 40 63 41 29 42 66 43 60 44 59 45
REMARK SMILES IDX 30 47 52 48 37 49 51 50 38 51 41 52 50 53 64 54 39 55 40 56
REMARK SMILES IDX 49 58 65 59 42 60 31 61 32 62 36 63 33 64 35 65 34 66 53 67
REMARK SMILES IDX 54 68 58 69 55 70 57 71 56 72 43 73 44 74 48 75 45 76 47 77
REMARK SMILES IDX 46 78
REMARK H PARENT 15 6 19 27 63 46 41 57
REMARK Flexibility Score: inf
ROOT
ATOM      1  C   UNL A   1      37.803  20.324  24.738  1.00  0.00     0.042 C 
ENDROOT
BRANCH   1   2
ATOM      2  C   UNL A   1      36.919  21.543  24.524  1.00  0.00     0.117 C 
BRANCH   2   3
ATOM      3  N   UNL A   1      36.027  21.776  25.652  1.00  0.00    -0.356 N 
ATOM      4  C   UNL A   1      35.037  22.690  25.838  1.00  0.00     0.223 C 
ATOM      5  O   UNL A   1      34.453  22.693  26.924  1.00  0.00    -0.275 OA
ATOM      6  H   UNL A   1      36.167  21.166  26.413  1.00  0.00     0.163 HD
BRANCH   4   7
ATOM      7  C   UNL A   1      34.637  23.669  24.745  1.00  0.00     0.082 C 
ATOM      8  C   UNL A   1      31.361  25.920  24.222  1.00  0.00     0.227 C 
ATOM      9  O   UNL A   1      30.529  25.077  24.573  1.00  0.00    -0.274 OA
ATOM     10  N   UNL A   1      32.635  25.533  23.850  1.00  0.00    -0.342 N 
ATOM     11  C   UNL A   1      32.796  24.282  23.123  1.00  0.00     0.120 C 
ATOM     12  C   UNL A   1      33.867  26.092  24.385  1.00  0.00     0.120 C 
ATOM     13  C   UNL A   1      33.383  23.195  24.003  1.00  0.00     0.035 C 
ATOM     14  C   UNL A   1      34.584  25.101  25.297  1.00  0.00     0.035 C 
BRANCH   8  15
ATOM     15  C   UNL A   1      30.893  27.341  23.919  1.00  0.00     0.107 C 
ATOM     16  N   UNL A   1      29.038  28.492  23.051  1.00  0.00    -0.339 N 
ATOM     17  C   UNL A   1      29.370  27.374  23.898  1.00  0.00     0.133 C 
ATOM     18  C   UNL A   1      30.121  28.923  22.304  1.00  0.00     0.223 C 
ATOM     19  C   UNL A   1      31.316  28.074  22.655  1.00  0.00     0.115 C 
ATOM     20  O   UNL A   1      30.120  29.802  21.456  1.00  0.00    -0.275 OA
BRANCH  16  21
ATOM     21  C   UNL A   1      27.675  28.995  22.876  1.00  0.00     0.078 C 
ATOM     22  C   UNL A   1      26.670  28.166  23.675  1.00  0.00     0.031 C 
ATOM     23  C   UNL A   1      27.573  30.476  23.230  1.00  0.00     0.031 C 
ENDBRANCH  16  21
ENDBRANCH   8  15
ENDBRANCH   4   7
ENDBRANCH   2   3
ENDBRANCH   1   2
BRANCH   1  24
ATOM     24  C   UNL A   1      38.851  20.522  25.820  1.00  0.00     0.118 C 
BRANCH  24  25
ATOM     25  N   UNL A   1      39.814  19.429  25.878  1.00  0.00    -0.352 N 
ATOM     26  C   UNL A   1      41.166  19.470  26.117  1.00  0.00     0.251 C 
ATOM     27  H   UNL A   1      39.441  18.532  25.724  1.00  0.00     0.163 HD
ATOM     28  O   UNL A   1      41.858  18.472  25.938  1.00  0.00    -0.269 OA
BRANCH  26  29
ATOM     29  C   UNL A   1      41.786  20.732  26.568  1.00  0.00     0.039 A 
ATOM     30  C   UNL A   1      42.216  21.662  25.620  1.00  0.00     0.014 A 
ATOM     31  C   UNL A   1      41.916  21.002  27.932  1.00  0.00     0.014 A 
ATOM     32  C   UNL A   1      42.704  22.901  26.043  1.00  0.00     0.010 A 
ATOM     33  C   UNL A   1      42.306  22.268  28.346  1.00  0.00     0.010 A 
ATOM     34  C   UNL A   1      42.711  23.229  27.407  1.00  0.00    -0.014 A 
BRANCH  34  35
ATOM     35  C   UNL A   1      43.151  24.558  27.898  1.00  0.00     0.031 A 
ATOM     36  C   UNL A   1      42.121  25.604  28.227  1.00  0.00     0.074 A 
ATOM     37  C   UNL A   1      44.463  24.859  27.951  1.00  0.00     0.049 A 
ATOM     38  N   UNL A   1      42.290  26.868  28.519  1.00  0.00    -0.248 NA
ATOM     39  C   UNL A   1      40.712  25.179  28.188  1.00  0.00     0.031 C 
ATOM     40  C   UNL A   1      45.561  23.944  27.634  1.00  0.00     0.029 A 
ATOM     41  N   UNL A   1      45.094  26.034  28.273  1.00  0.00    -0.354 N 
ATOM     42  C   UNL A   1      41.011  27.392  28.668  1.00  0.00     0.074 A 
ATOM     43  C   UNL A   1      40.078  26.325  28.383  1.00  0.00     0.031 C 
ATOM     44  C   UNL A   1      46.729  24.585  27.796  1.00  0.00     0.029 A 
ATOM     45  C   UNL A   1      46.464  25.970  28.174  1.00  0.00     0.049 A 
ATOM     46  H   UNL A   1      44.612  26.848  28.550  1.00  0.00     0.167 HD
ATOM     47  C   UNL A   1      40.646  28.645  29.027  1.00  0.00     0.031 A 
ATOM     48  C   UNL A   1      47.399  26.923  28.347  1.00  0.00     0.031 A 
ATOM     49  C   UNL A   1      41.576  29.701  29.321  1.00  0.00     0.049 A 
ATOM     50  C   UNL A   1      46.967  28.316  28.716  1.00  0.00     0.074 A 
ATOM     51  C   UNL A   1      41.308  30.991  29.743  1.00  0.00     0.029 A 
ATOM     52  N   UNL A   1      42.954  29.587  29.224  1.00  0.00    -0.354 N 
ATOM     53  N   UNL A   1      45.756  28.784  28.904  1.00  0.00    -0.248 NA
ATOM     54  C   UNL A   1      48.032  29.311  28.906  1.00  0.00     0.031 C 
ATOM     55  C   UNL A   1      42.522  31.677  29.843  1.00  0.00     0.029 A 
ATOM     56  C   UNL A   1      43.550  30.793  29.555  1.00  0.00     0.049 A 
ATOM     57  H   UNL A   1      43.438  28.772  28.958  1.00  0.00     0.167 HD
ATOM     58  C   UNL A   1      45.917  30.114  29.275  1.00  0.00     0.074 A 
ATOM     59  C   UNL A   1      47.341  30.375  29.291  1.00  0.00     0.031 C 
ATOM     60  C   UNL A   1      44.969  31.033  29.580  1.00  0.00     0.031 A 
BRANCH  47  61
ATOM     61  C   UNL A   1      39.174  28.942  29.106  1.00  0.00    -0.014 A 
ATOM     62  C   UNL A   1      38.454  28.760  30.298  1.00  0.00     0.009 A 
ATOM     63  C   UNL A   1      38.501  29.439  27.979  1.00  0.00     0.009 A 
ATOM     64  C   UNL A   1      37.085  29.030  30.349  1.00  0.00     0.001 A 
ATOM     65  C   UNL A   1      37.140  29.742  28.042  1.00  0.00     0.001 A 
ATOM     66  C   UNL A   1      36.431  29.526  29.223  1.00  0.00     0.000 A 
ENDBRANCH  47  61
BRANCH  48  67
ATOM     67  C   UNL A   1      48.840  26.596  28.181  1.00  0.00    -0.014 A 
ATOM     68  C   UNL A   1      49.616  26.215  29.287  1.00  0.00     0.009 A 
ATOM     69  C   UNL A   1      49.453  26.675  26.921  1.00  0.00     0.009 A 
ATOM     70  C   UNL A   1      50.979  25.951  29.141  1.00  0.00     0.001 A 
ATOM     71  C   UNL A   1      50.810  26.378  26.771  1.00  0.00     0.001 A 
ATOM     72  C   UNL A   1      51.574  26.028  27.883  1.00  0.00     0.000 A 
ENDBRANCH  48  67
BRANCH  60  73
ATOM     73  C   UNL A   1      45.436  32.391  30.022  1.00  0.00    -0.014 A 
ATOM     74  C   UNL A   1      45.653  33.431  29.105  1.00  0.00     0.009 A 
ATOM     75  C   UNL A   1      45.601  32.649  31.393  1.00  0.00     0.009 A 
ATOM     76  C   UNL A   1      46.053  34.693  29.552  1.00  0.00     0.001 A 
ATOM     77  C   UNL A   1      45.969  33.918  31.838  1.00  0.00     0.001 A 
ATOM     78  C   UNL A   1      46.202  34.937  30.917  1.00  0.00     0.000 A 
ENDBRANCH  60  73
ENDBRANCH  34  35
ENDBRANCH  26  29
ENDBRANCH  24  25
ENDBRANCH   1  24
TORSDOF 12
ENDMDL
MODEL 3
REMARK VINA RESULT:     -11.5      2.826      8.992
REMARK SMILES CC(C)N1C[C@@H](C(=O)N2CCC(C(=O)NCCCNC(=O)c3ccc(-c4c5nc(c(-c6ccccc6)c6ccc([nH]6)c(-c6ccccc6)c6nc(c(-c7ccccc7)c7ccc4[nH]7)C=C6)C=C5)cc3)CC2)CC1=O
REMARK SMILES IDX 17 1 16 2 15 3 13 4 14 5 12 7 7 8 8 9 9 10 10 11 71 12 11 13
REMARK SMILES IDX 70 14 6 15 4 16 5 17 73 18 72 19 74 20 2 21 1 22 3 23 18 24
REMARK SMILES IDX 19 25 20 26 21 28 22 29 23 30 69 31 24 32 68 33 25 34 26 35
REMARK SMILES IDX 27 36 62 37 28 38 67 39 61 40 63 41 29 42 66 43 60 44 59 45
REMARK SMILES IDX 30 47 52 48 37 49 51 50 38 51 41 52 50 53 64 54 39 55 40 56
REMARK SMILES IDX 49 58 65 59 42 60 31 61 32 62 36 63 33 64 35 65 34 66 53 67
REMARK SMILES IDX 54 68 58 69 55 70 57 71 56 72 43 73 44 74 48 75 45 76 47 77
REMARK SMILES IDX 46 78
REMARK H PARENT 15 6 19 27 63 46 41 57
REMARK Flexibility Score: inf
ROOT
ATOM      1  C   UNL A   1      31.764  30.866  26.226  1.00  0.00     0.042 C 
ENDROOT
BRANCH   1   2
ATOM      2  C   UNL A   1      32.352  29.727  25.408  1.00  0.00     0.117 C 
BRANCH   2   3
ATOM      3  N   UNL A   1      31.318  28.900  24.800  1.00  0.00    -0.356 N 
ATOM      4  C   UNL A   1      31.291  27.574  24.499  1.00  0.00     0.223 C 
ATOM      5  O   UNL A   1      30.285  27.130  23.941  1.00  0.00    -0.275 OA
ATOM      6  H   UNL A   1      30.494  29.388  24.565  1.00  0.00     0.163 HD
BRANCH   4   7
ATOM      7  C   UNL A   1      32.447  26.651  24.851  1.00  0.00     0.082 C 
ATOM      8  C   UNL A   1      32.827  22.661  24.752  1.00  0.00     0.227 C 
ATOM      9  O   UNL A   1      31.711  22.383  25.202  1.00  0.00    -0.274 OA
ATOM     10  N   UNL A   1      33.361  23.923  24.938  1.00  0.00    -0.342 N 
ATOM     11  C   UNL A   1      33.099  24.610  26.194  1.00  0.00     0.120 C 
ATOM     12  C   UNL A   1      33.897  24.766  23.881  1.00  0.00     0.120 C 
ATOM     13  C   UNL A   1      32.090  25.729  26.021  1.00  0.00     0.035 C 
ATOM     14  C   UNL A   1      32.984  25.954  23.592  1.00  0.00     0.035 C 
BRANCH   8  15
ATOM     15  C   UNL A   1      33.729  21.534  24.258  1.00  0.00     0.107 C 
ATOM     16  N   UNL A   1      34.121  19.243  24.601  1.00  0.00    -0.339 N 
ATOM     17  C   UNL A   1      33.044  20.196  24.509  1.00  0.00     0.133 C 
ATOM     18  C   UNL A   1      35.350  19.856  24.772  1.00  0.00     0.223 C 
ATOM     19  C   UNL A   1      35.146  21.350  24.780  1.00  0.00     0.115 C 
ATOM     20  O   UNL A   1      36.425  19.303  24.948  1.00  0.00    -0.275 OA
BRANCH  16  21
ATOM     21  C   UNL A   1      33.914  17.797  24.680  1.00  0.00     0.078 C 
ATOM     22  C   UNL A   1      32.677  17.457  25.510  1.00  0.00     0.031 C 
ATOM     23  C   UNL A   1      33.837  17.164  23.292  1.00  0.00     0.031 C 
ENDBRANCH  16  21
ENDBRANCH   8  15
ENDBRANCH   4   7
ENDBRANCH   2   3
ENDBRANCH   1   2
BRANCH   1  24
ATOM     24  C   UNL A   1      32.775  31.535  27.142  1.00  0.00     0.118 C 
BRANCH  24  25
ATOM     25  N   UNL A   1      32.455  32.932  27.408  1.00  0.00    -0.352 N 
ATOM     26  C   UNL A   1      33.114  33.842  28.200  1.00  0.00     0.251 C 
ATOM     27  H   UNL A   1      31.652  33.273  26.954  1.00  0.00     0.163 HD
ATOM     28  O   UNL A   1      32.598  34.923  28.462  1.00  0.00    -0.269 OA
BRANCH  26  29
ATOM     29  C   UNL A   1      34.440  33.499  28.752  1.00  0.00     0.039 A 
ATOM     30  C   UNL A   1      34.519  32.748  29.927  1.00  0.00     0.014 A 
ATOM     31  C   UNL A   1      35.602  33.898  28.089  1.00  0.00     0.014 A 
ATOM     32  C   UNL A   1      35.768  32.330  30.394  1.00  0.00     0.010 A 
ATOM     33  C   UNL A   1      36.831  33.399  28.498  1.00  0.00     0.010 A 
ATOM     34  C   UNL A   1      36.929  32.616  29.658  1.00  0.00    -0.014 A 
BRANCH  34  35
ATOM     35  C   UNL A   1      38.268  32.132  30.075  1.00  0.00     0.031 A 
ATOM     36  C   UNL A   1      38.775  30.816  29.552  1.00  0.00     0.074 A 
ATOM     37  C   UNL A   1      38.978  32.814  30.994  1.00  0.00     0.049 A 
ATOM     38  N   UNL A   1      39.837  30.139  29.905  1.00  0.00    -0.248 NA
ATOM     39  C   UNL A   1      37.959  30.157  28.518  1.00  0.00     0.031 C 
ATOM     40  C   UNL A   1      38.587  34.089  31.599  1.00  0.00     0.029 A 
ATOM     41  N   UNL A   1      40.175  32.516  31.595  1.00  0.00    -0.354 N 
ATOM     42  C   UNL A   1      39.799  28.966  29.160  1.00  0.00     0.074 A 
ATOM     43  C   UNL A   1      38.585  28.999  28.376  1.00  0.00     0.031 C 
ATOM     44  C   UNL A   1      39.535  34.472  32.469  1.00  0.00     0.029 A 
ATOM     45  C   UNL A   1      40.572  33.447  32.525  1.00  0.00     0.049 A 
ATOM     46  H   UNL A   1      40.701  31.711  31.380  1.00  0.00     0.167 HD
ATOM     47  C   UNL A   1      40.703  27.959  29.119  1.00  0.00     0.031 A 
ATOM     48  C   UNL A   1      41.639  33.462  33.347  1.00  0.00     0.031 A 
ATOM     49  C   UNL A   1      41.916  27.935  29.891  1.00  0.00     0.049 A 
ATOM     50  C   UNL A   1      42.614  32.317  33.304  1.00  0.00     0.074 A 
ATOM     51  C   UNL A   1      42.922  26.985  29.883  1.00  0.00     0.029 A 
ATOM     52  N   UNL A   1      42.286  28.905  30.809  1.00  0.00    -0.354 N 
ATOM     53  N   UNL A   1      42.592  31.240  32.558  1.00  0.00    -0.248 NA
ATOM     54  C   UNL A   1      43.767  32.395  34.213  1.00  0.00     0.031 C 
ATOM     55  C   UNL A   1      43.873  27.351  30.840  1.00  0.00     0.029 A 
ATOM     56  C   UNL A   1      43.495  28.565  31.391  1.00  0.00     0.049 A 
ATOM     57  H   UNL A   1      41.767  29.716  31.016  1.00  0.00     0.167 HD
ATOM     58  C   UNL A   1      43.746  30.534  32.875  1.00  0.00     0.074 A 
ATOM     59  C   UNL A   1      44.448  31.309  33.877  1.00  0.00     0.031 C 
ATOM     60  C   UNL A   1      44.188  29.354  32.377  1.00  0.00     0.031 A 
BRANCH  47  61
ATOM     61  C   UNL A   1      40.403  26.795  28.216  1.00  0.00    -0.014 A 
ATOM     62  C   UNL A   1      39.621  25.714  28.653  1.00  0.00     0.009 A 
ATOM     63  C   UNL A   1      40.885  26.792  26.898  1.00  0.00     0.009 A 
ATOM     64  C   UNL A   1      39.363  24.635  27.803  1.00  0.00     0.001 A 
ATOM     65  C   UNL A   1      40.597  25.730  26.039  1.00  0.00     0.001 A 
ATOM     66  C   UNL A   1      39.846  24.648  26.496  1.00  0.00     0.000 A 
ENDBRANCH  47  61
BRANCH  48  67
ATOM     67  C   UNL A   1      41.850  34.603  34.277  1.00  0.00    -0.014 A 
ATOM     68  C   UNL A   1      41.461  34.506  35.622  1.00  0.00     0.009 A 
ATOM     69  C   UNL A   1      42.429  35.799  33.826  1.00  0.00     0.009 A 
ATOM     70  C   UNL A   1      41.619  35.592  36.487  1.00  0.00     0.001 A 
ATOM     71  C   UNL A   1      42.616  36.873  34.700  1.00  0.00     0.001 A 
ATOM     72  C   UNL A   1      42.200  36.772  36.026  1.00  0.00     0.000 A 
ENDBRANCH  48  67
BRANCH  60  73
ATOM     73  C   UNL A   1      45.522  28.853  32.854  1.00  0.00    -0.014 A 
ATOM     74  C   UNL A   1      45.634  27.987  33.952  1.00  0.00     0.009 A 
ATOM     75  C   UNL A   1      46.682  29.211  32.149  1.00  0.00     0.009 A 
ATOM     76  C   UNL A   1      46.887  27.511  34.349  1.00  0.00     0.001 A 
ATOM     77  C   UNL A   1      47.927  28.709  32.528  1.00  0.00     0.001 A 
ATOM     78  C   UNL A   1      48.029  27.866  33.633  1.00  0.00     0.000 A 
ENDBRANCH  60  73
ENDBRANCH  34  35
ENDBRANCH  26  29
ENDBRANCH  24  25
ENDBRANCH   1  24
TORSDOF 12
ENDMDL
