MODEL 1
REMARK VINA RESULT:     -10.2      0.000      0.000
REMARK SMILES CCOc1cc(/C=C/C(=O)NCCCNC(=O)c2ccc(-c3c4nc(c(-c5ccccc5)c5ccc([nH]5)c(-c5ccccc5)c5nc(c(-c6ccccc6)c6ccc3[nH]6)C=C5)C=C4)cc2)c(Br)cc1OCC#N
REMARK SMILES IDX 12 1 11 2 9 3 10 4 8 6 7 7 6 8 4 9 5 10 69 11 68 12 66 13
REMARK SMILES IDX 67 14 3 15 2 16 1 17 70 18 71 19 72 20 73 21 13 22 14 23
REMARK SMILES IDX 15 24 16 25 17 27 18 28 19 29 65 30 20 31 64 32 21 33 22 34
REMARK SMILES IDX 23 35 58 36 24 37 63 38 57 39 59 40 25 41 62 42 56 43 55 44
REMARK SMILES IDX 26 46 48 47 33 48 47 49 34 50 37 51 46 52 60 53 35 54 36 55
REMARK SMILES IDX 45 57 61 58 38 59 27 60 28 61 32 62 29 63 31 64 30 65 49 66
REMARK SMILES IDX 50 67 54 68 51 69 53 70 52 71 39 72 40 73 44 74 41 75 43 76
REMARK SMILES IDX 42 77
REMARK H PARENT 11 5 15 26 59 45 37 56
REMARK Flexibility Score: inf
ROOT
ATOM      1  C   UNL A   1      32.884  28.816  24.984  1.00  0.00     0.118 C 
ENDROOT
BRANCH   1   2
ATOM      2  N   UNL A   1      33.333  28.825  23.603  1.00  0.00    -0.352 N 
ATOM      3  C   UNL A   1      33.778  27.798  22.833  1.00  0.00     0.244 C 
ATOM      4  O   UNL A   1      34.051  27.982  21.651  1.00  0.00    -0.270 OA
ATOM      5  H   UNL A   1      33.313  29.704  23.161  1.00  0.00     0.163 HD
BRANCH   3   6
ATOM      6  C   UNL A   1      33.856  26.439  23.400  1.00  0.00     0.072 C 
ATOM      7  C   UNL A   1      33.672  25.325  22.673  1.00  0.00     0.015 C 
BRANCH   7   8
ATOM      8  C   UNL A   1      33.652  23.978  23.258  1.00  0.00    -0.007 A 
ATOM      9  C   UNL A   1      34.982  22.119  24.129  1.00  0.00     0.161 A 
ATOM     10  C   UNL A   1      34.884  23.367  23.515  1.00  0.00     0.059 A 
ATOM     11  C   UNL A   1      33.809  21.419  24.436  1.00  0.00     0.163 A 
ATOM     12  C   UNL A   1      32.567  22.032  24.207  1.00  0.00     0.066 A 
ATOM     13  C   UNL A   1      32.486  23.304  23.634  1.00  0.00     0.029 A 
ATOM     14  Br  UNL A   1      30.752  24.032  23.355  1.00  0.00    -0.050 Br
BRANCH   9  15
ATOM     15  O   UNL A   1      36.208  21.547  24.316  1.00  0.00    -0.490 OA
BRANCH  15  16
ATOM     16  C   UNL A   1      36.815  21.661  25.607  1.00  0.00     0.226 C 
ATOM     17  C   UNL A   1      37.818  22.803  25.704  1.00  0.00     0.049 C 
ENDBRANCH  15  16
ENDBRANCH   9  15
BRANCH  11  18
ATOM     18  O   UNL A   1      33.676  20.155  24.949  1.00  0.00    -0.475 OA
BRANCH  18  19
ATOM     19  C   UNL A   1      32.523  19.374  24.623  1.00  0.00     0.349 C 
BRANCH  19  20
ATOM     20  C   UNL A   1      32.809  18.301  23.584  1.00  0.00     0.104 C 
ATOM     21  N   UNL A   1      33.048  17.412  22.722  1.00  0.00    -0.195 NA
ENDBRANCH  19  20
ENDBRANCH  18  19
ENDBRANCH  11  18
ENDBRANCH   7   8
ENDBRANCH   3   6
ENDBRANCH   1   2
BRANCH   1  22
ATOM     22  C   UNL A   1      34.021  28.441  25.930  1.00  0.00     0.042 C 
BRANCH  22  23
ATOM     23  C   UNL A   1      33.674  28.667  27.395  1.00  0.00     0.118 C 
BRANCH  23  24
ATOM     24  N   UNL A   1      33.621  30.083  27.721  1.00  0.00    -0.352 N 
ATOM     25  C   UNL A   1      34.539  30.865  28.373  1.00  0.00     0.251 C 
ATOM     26  H   UNL A   1      32.804  30.550  27.431  1.00  0.00     0.163 HD
ATOM     27  O   UNL A   1      34.214  31.971  28.789  1.00  0.00    -0.269 OA
BRANCH  25  28
ATOM     28  C   UNL A   1      35.918  30.375  28.576  1.00  0.00     0.039 A 
ATOM     29  C   UNL A   1      36.271  29.851  29.822  1.00  0.00     0.014 A 
ATOM     30  C   UNL A   1      36.874  30.477  27.560  1.00  0.00     0.014 A 
ATOM     31  C   UNL A   1      37.570  29.392  30.037  1.00  0.00     0.010 A 
ATOM     32  C   UNL A   1      38.147  29.950  27.751  1.00  0.00     0.010 A 
ATOM     33  C   UNL A   1      38.511  29.417  28.995  1.00  0.00    -0.014 A 
BRANCH  33  34
ATOM     34  C   UNL A   1      39.889  28.908  29.193  1.00  0.00     0.031 A 
ATOM     35  C   UNL A   1      40.950  29.809  29.762  1.00  0.00     0.074 A 
ATOM     36  C   UNL A   1      40.197  27.657  28.800  1.00  0.00     0.049 A 
ATOM     37  N   UNL A   1      42.225  29.570  29.943  1.00  0.00    -0.248 NA
ATOM     38  C   UNL A   1      40.532  31.165  30.155  1.00  0.00     0.031 C 
ATOM     39  C   UNL A   1      39.264  26.703  28.199  1.00  0.00     0.029 A 
ATOM     40  N   UNL A   1      41.388  26.976  28.842  1.00  0.00    -0.354 N 
ATOM     41  C   UNL A   1      42.761  30.749  30.448  1.00  0.00     0.074 A 
ATOM     42  C   UNL A   1      41.685  31.715  30.504  1.00  0.00     0.031 C 
ATOM     43  C   UNL A   1      39.911  25.553  27.948  1.00  0.00     0.029 A 
ATOM     44  C   UNL A   1      41.311  25.703  28.333  1.00  0.00     0.049 A 
ATOM     45  H   UNL A   1      42.218  27.364  29.202  1.00  0.00     0.167 HD
ATOM     46  C   UNL A   1      44.030  30.999  30.847  1.00  0.00     0.031 A 
ATOM     47  C   UNL A   1      42.265  24.765  28.186  1.00  0.00     0.031 A 
ATOM     48  C   UNL A   1      45.092  30.029  30.810  1.00  0.00     0.049 A 
ATOM     49  C   UNL A   1      43.666  25.068  28.637  1.00  0.00     0.074 A 
ATOM     50  C   UNL A   1      46.397  30.165  31.248  1.00  0.00     0.029 A 
ATOM     51  N   UNL A   1      44.967  28.744  30.307  1.00  0.00    -0.354 N 
ATOM     52  N   UNL A   1      44.140  26.166  29.176  1.00  0.00    -0.248 NA
ATOM     53  C   UNL A   1      44.659  23.999  28.472  1.00  0.00     0.031 C 
ATOM     54  C   UNL A   1      47.077  28.975  30.967  1.00  0.00     0.029 A 
ATOM     55  C   UNL A   1      46.179  28.082  30.404  1.00  0.00     0.049 A 
ATOM     56  H   UNL A   1      44.141  28.359  29.937  1.00  0.00     0.167 HD
ATOM     57  C   UNL A   1      45.478  25.908  29.440  1.00  0.00     0.074 A 
ATOM     58  C   UNL A   1      45.735  24.548  29.018  1.00  0.00     0.031 C 
ATOM     59  C   UNL A   1      46.412  26.725  29.985  1.00  0.00     0.031 A 
BRANCH  46  60
ATOM     60  C   UNL A   1      44.344  32.378  31.354  1.00  0.00    -0.014 A 
ATOM     61  C   UNL A   1      44.232  32.695  32.718  1.00  0.00     0.009 A 
ATOM     62  C   UNL A   1      44.806  33.361  30.465  1.00  0.00     0.009 A 
ATOM     63  C   UNL A   1      44.548  33.976  33.175  1.00  0.00     0.001 A 
ATOM     64  C   UNL A   1      45.149  34.633  30.929  1.00  0.00     0.001 A 
ATOM     65  C   UNL A   1      45.011  34.941  32.282  1.00  0.00     0.000 A 
ENDBRANCH  46  60
BRANCH  47  66
ATOM     66  C   UNL A   1      41.928  23.444  27.593  1.00  0.00    -0.014 A 
ATOM     67  C   UNL A   1      41.364  22.431  28.384  1.00  0.00     0.009 A 
ATOM     68  C   UNL A   1      42.184  23.184  26.237  1.00  0.00     0.009 A 
ATOM     69  C   UNL A   1      41.094  21.175  27.837  1.00  0.00     0.001 A 
ATOM     70  C   UNL A   1      41.885  21.936  25.687  1.00  0.00     0.001 A 
ATOM     71  C   UNL A   1      41.352  20.929  26.489  1.00  0.00     0.000 A 
ENDBRANCH  47  66
BRANCH  59  72
ATOM     72  C   UNL A   1      47.786  26.154  30.190  1.00  0.00    -0.014 A 
ATOM     73  C   UNL A   1      48.701  26.056  29.132  1.00  0.00     0.009 A 
ATOM     74  C   UNL A   1      48.181  25.750  31.475  1.00  0.00     0.009 A 
ATOM     75  C   UNL A   1      49.975  25.530  29.349  1.00  0.00     0.001 A 
ATOM     76  C   UNL A   1      49.466  25.252  31.695  1.00  0.00     0.001 A 
ATOM     77  C   UNL A   1      50.359  25.134  30.631  1.00  0.00     0.000 A 
ENDBRANCH  59  72
ENDBRANCH  33  34
ENDBRANCH  25  28
ENDBRANCH  23  24
ENDBRANCH  22  23
ENDBRANCH   1  22
TORSDOF 16
ENDMDL
MODEL 2
REMARK VINA RESULT:      -9.6      3.081      7.213
REMARK SMILES CCOc1cc(/C=C/C(=O)NCCCNC(=O)c2ccc(-c3c4nc(c(-c5ccccc5)c5ccc([nH]5)c(-c5ccccc5)c5nc(c(-c6ccccc6)c6ccc3[nH]6)C=C5)C=C4)cc2)c(Br)cc1OCC#N
REMARK SMILES IDX 12 1 11 2 9 3 10 4 8 6 7 7 6 8 4 9 5 10 69 11 68 12 66 13
REMARK SMILES IDX 67 14 3 15 2 16 1 17 70 18 71 19 72 20 73 21 13 22 14 23
REMARK SMILES IDX 15 24 16 25 17 27 18 28 19 29 65 30 20 31 64 32 21 33 22 34
REMARK SMILES IDX 23 35 58 36 24 37 63 38 57 39 59 40 25 41 62 42 56 43 55 44
REMARK SMILES IDX 26 46 48 47 33 48 47 49 34 50 37 51 46 52 60 53 35 54 36 55
REMARK SMILES IDX 45 57 61 58 38 59 27 60 28 61 32 62 29 63 31 64 30 65 49 66
REMARK SMILES IDX 50 67 54 68 51 69 53 70 52 71 39 72 40 73 44 74 41 75 43 76
REMARK SMILES IDX 42 77
REMARK H PARENT 11 5 15 26 59 45 37 56
REMARK Flexibility Score: inf
ROOT
ATOM      1  C   UNL A   1      31.584  30.486  25.792  1.00  0.00     0.118 C 
ENDROOT
BRANCH   1   2
ATOM      2  N   UNL A   1      30.690  30.372  24.653  1.00  0.00    -0.352 N 
ATOM      3  C   UNL A   1      30.635  29.413  23.693  1.00  0.00     0.244 C 
ATOM      4  O   UNL A   1      29.756  29.442  22.837  1.00  0.00    -0.270 OA
ATOM      5  H   UNL A   1      30.029  31.095  24.564  1.00  0.00     0.163 HD
BRANCH   3   6
ATOM      6  C   UNL A   1      31.587  28.287  23.727  1.00  0.00     0.072 C 
ATOM      7  C   UNL A   1      31.271  27.042  23.336  1.00  0.00     0.015 C 
BRANCH   7   8
ATOM      8  C   UNL A   1      32.188  25.902  23.463  1.00  0.00    -0.007 A 
ATOM      9  C   UNL A   1      33.319  24.363  24.990  1.00  0.00     0.161 A 
ATOM     10  C   UNL A   1      32.512  25.474  24.755  1.00  0.00     0.059 A 
ATOM     11  C   UNL A   1      33.885  23.691  23.899  1.00  0.00     0.163 A 
ATOM     12  C   UNL A   1      33.548  24.095  22.598  1.00  0.00     0.066 A 
ATOM     13  C   UNL A   1      32.699  25.183  22.378  1.00  0.00     0.029 A 
ATOM     14  Br  UNL A   1      32.322  25.652  20.575  1.00  0.00    -0.050 Br
BRANCH   9  15
ATOM     15  O   UNL A   1      33.641  24.013  26.270  1.00  0.00    -0.490 OA
BRANCH  15  16
ATOM     16  C   UNL A   1      32.724  23.187  26.994  1.00  0.00     0.226 C 
ATOM     17  C   UNL A   1      33.399  22.038  27.731  1.00  0.00     0.049 C 
ENDBRANCH  15  16
ENDBRANCH   9  15
BRANCH  11  18
ATOM     18  O   UNL A   1      34.771  22.646  23.904  1.00  0.00    -0.475 OA
BRANCH  18  19
ATOM     19  C   UNL A   1      36.131  22.866  23.518  1.00  0.00     0.349 C 
BRANCH  19  20
ATOM     20  C   UNL A   1      37.125  22.139  24.409  1.00  0.00     0.104 C 
ATOM     21  N   UNL A   1      37.950  21.537  25.150  1.00  0.00    -0.195 NA
ENDBRANCH  19  20
ENDBRANCH  18  19
ENDBRANCH  11  18
ENDBRANCH   7   8
ENDBRANCH   3   6
ENDBRANCH   1   2
BRANCH   1  22
ATOM     22  C   UNL A   1      31.385  31.815  26.517  1.00  0.00     0.042 C 
BRANCH  22  23
ATOM     23  C   UNL A   1      32.684  32.402  27.049  1.00  0.00     0.118 C 
BRANCH  23  24
ATOM     24  N   UNL A   1      32.490  33.743  27.578  1.00  0.00    -0.352 N 
ATOM     25  C   UNL A   1      33.162  34.391  28.582  1.00  0.00     0.251 C 
ATOM     26  H   UNL A   1      31.770  34.261  27.152  1.00  0.00     0.163 HD
ATOM     27  O   UNL A   1      32.693  35.414  29.067  1.00  0.00    -0.269 OA
BRANCH  25  28
ATOM     28  C   UNL A   1      34.447  33.859  29.079  1.00  0.00     0.039 A 
ATOM     29  C   UNL A   1      34.446  33.052  30.220  1.00  0.00     0.014 A 
ATOM     30  C   UNL A   1      35.653  34.192  28.455  1.00  0.00     0.014 A 
ATOM     31  C   UNL A   1      35.650  32.547  30.711  1.00  0.00     0.010 A 
ATOM     32  C   UNL A   1      36.843  33.627  28.900  1.00  0.00     0.010 A 
ATOM     33  C   UNL A   1      36.854  32.812  30.041  1.00  0.00    -0.014 A 
BRANCH  33  34
ATOM     34  C   UNL A   1      38.141  32.261  30.528  1.00  0.00     0.031 A 
ATOM     35  C   UNL A   1      38.683  30.985  29.944  1.00  0.00     0.074 A 
ATOM     36  C   UNL A   1      38.786  32.876  31.538  1.00  0.00     0.049 A 
ATOM     37  N   UNL A   1      39.752  30.311  30.286  1.00  0.00    -0.248 NA
ATOM     38  C   UNL A   1      37.911  30.372  28.851  1.00  0.00     0.031 C 
ATOM     39  C   UNL A   1      38.339  34.096  32.212  1.00  0.00     0.029 A 
ATOM     40  N   UNL A   1      39.954  32.550  32.180  1.00  0.00    -0.354 N 
ATOM     41  C   UNL A   1      39.766  29.187  29.468  1.00  0.00     0.074 A 
ATOM     42  C   UNL A   1      38.579  29.247  28.644  1.00  0.00     0.031 C 
ATOM     43  C   UNL A   1      39.233  34.429  33.157  1.00  0.00     0.029 A 
ATOM     44  C   UNL A   1      40.293  33.425  33.183  1.00  0.00     0.049 A 
ATOM     45  H   UNL A   1      40.497  31.763  31.945  1.00  0.00     0.167 HD
ATOM     46  C   UNL A   1      40.693  28.204  29.397  1.00  0.00     0.031 A 
ATOM     47  C   UNL A   1      41.336  33.414  34.033  1.00  0.00     0.031 A 
ATOM     48  C   UNL A   1      41.884  28.159  30.203  1.00  0.00     0.049 A 
ATOM     49  C   UNL A   1      42.351  32.311  33.932  1.00  0.00     0.074 A 
ATOM     50  C   UNL A   1      42.916  27.238  30.163  1.00  0.00     0.029 A 
ATOM     51  N   UNL A   1      42.200  29.076  31.192  1.00  0.00    -0.354 N 
ATOM     52  N   UNL A   1      42.384  31.294  33.106  1.00  0.00    -0.248 NA
ATOM     53  C   UNL A   1      43.479  32.363  34.872  1.00  0.00     0.031 C 
ATOM     54  C   UNL A   1      43.836  27.573  31.163  1.00  0.00     0.029 A 
ATOM     55  C   UNL A   1      43.402  28.732  31.785  1.00  0.00     0.049 A 
ATOM     56  H   UNL A   1      41.652  29.857  31.435  1.00  0.00     0.167 HD
ATOM     57  C   UNL A   1      43.550  30.602  33.407  1.00  0.00     0.074 A 
ATOM     58  C   UNL A   1      44.202  31.324  34.479  1.00  0.00     0.031 C 
ATOM     59  C   UNL A   1      44.038  29.469  32.846  1.00  0.00     0.031 A 
BRANCH  46  60
ATOM     60  C   UNL A   1      40.457  27.091  28.415  1.00  0.00    -0.014 A 
ATOM     61  C   UNL A   1      39.693  25.964  28.763  1.00  0.00     0.009 A 
ATOM     62  C   UNL A   1      40.959  27.192  27.109  1.00  0.00     0.009 A 
ATOM     63  C   UNL A   1      39.465  24.949  27.832  1.00  0.00     0.001 A 
ATOM     64  C   UNL A   1      40.706  26.189  26.172  1.00  0.00     0.001 A 
ATOM     65  C   UNL A   1      39.966  25.065  26.536  1.00  0.00     0.000 A 
ENDBRANCH  46  60
BRANCH  47  66
ATOM     66  C   UNL A   1      41.481  34.488  35.051  1.00  0.00    -0.014 A 
ATOM     67  C   UNL A   1      40.903  34.349  36.321  1.00  0.00     0.009 A 
ATOM     68  C   UNL A   1      42.187  35.665  34.751  1.00  0.00     0.009 A 
ATOM     69  C   UNL A   1      40.999  35.379  37.259  1.00  0.00     0.001 A 
ATOM     70  C   UNL A   1      42.307  36.680  35.701  1.00  0.00     0.001 A 
ATOM     71  C   UNL A   1      41.703  36.542  36.950  1.00  0.00     0.000 A 
ENDBRANCH  47  66
BRANCH  59  72
ATOM     72  C   UNL A   1      45.359  28.966  33.355  1.00  0.00    -0.014 A 
ATOM     73  C   UNL A   1      46.563  29.316  32.728  1.00  0.00     0.009 A 
ATOM     74  C   UNL A   1      45.395  28.164  34.506  1.00  0.00     0.009 A 
ATOM     75  C   UNL A   1      47.779  28.843  33.225  1.00  0.00     0.001 A 
ATOM     76  C   UNL A   1      46.614  27.717  35.018  1.00  0.00     0.001 A 
ATOM     77  C   UNL A   1      47.803  28.049  34.373  1.00  0.00     0.000 A 
ENDBRANCH  59  72
ENDBRANCH  33  34
ENDBRANCH  25  28
ENDBRANCH  23  24
ENDBRANCH  22  23
ENDBRANCH   1  22
TORSDOF 16
ENDMDL
MODEL 3
REMARK VINA RESULT:      -9.4      2.355      7.746
REMARK SMILES CCOc1cc(/C=C/C(=O)NCCCNC(=O)c2ccc(-c3c4nc(c(-c5ccccc5)c5ccc([nH]5)c(-c5ccccc5)c5nc(c(-c6ccccc6)c6ccc3[nH]6)C=C5)C=C4)cc2)c(Br)cc1OCC#N
REMARK SMILES IDX 12 1 11 2 9 3 10 4 8 6 7 7 6 8 4 9 5 10 69 11 68 12 66 13
REMARK SMILES IDX 67 14 3 15 2 16 1 17 70 18 71 19 72 20 73 21 13 22 14 23
REMARK SMILES IDX 15 24 16 25 17 27 18 28 19 29 65 30 20 31 64 32 21 33 22 34
REMARK SMILES IDX 23 35 58 36 24 37 63 38 57 39 59 40 25 41 62 42 56 43 55 44
REMARK SMILES IDX 26 46 48 47 33 48 47 49 34 50 37 51 46 52 60 53 35 54 36 55
REMARK SMILES IDX 45 57 61 58 38 59 27 60 28 61 32 62 29 63 31 64 30 65 49 66
REMARK SMILES IDX 50 67 54 68 51 69 53 70 52 71 39 72 40 73 44 74 41 75 43 76
REMARK SMILES IDX 42 77
REMARK H PARENT 11 5 15 26 59 45 37 56
REMARK Flexibility Score: inf
ROOT
ATOM      1  C   UNL A   1      37.761  20.957  24.874  1.00  0.00     0.118 C 
ENDROOT
BRANCH   1   2
ATOM      2  N   UNL A   1      38.365  22.099  25.536  1.00  0.00    -0.352 N 
ATOM      3  C   UNL A   1      37.929  23.383  25.610  1.00  0.00     0.244 C 
ATOM      4  O   UNL A   1      38.541  24.209  26.281  1.00  0.00    -0.270 OA
ATOM      5  H   UNL A   1      39.215  21.917  25.997  1.00  0.00     0.163 HD
BRANCH   3   6
ATOM      6  C   UNL A   1      36.669  23.768  24.947  1.00  0.00     0.072 C 
ATOM      7  C   UNL A   1      35.576  24.168  25.616  1.00  0.00     0.015 C 
BRANCH   7   8
ATOM      8  C   UNL A   1      34.294  24.456  24.961  1.00  0.00    -0.007 A 
ATOM      9  C   UNL A   1      32.820  26.179  24.044  1.00  0.00     0.161 A 
ATOM     10  C   UNL A   1      33.978  25.797  24.718  1.00  0.00     0.059 A 
ATOM     11  C   UNL A   1      31.903  25.193  23.657  1.00  0.00     0.163 A 
ATOM     12  C   UNL A   1      32.220  23.843  23.871  1.00  0.00     0.066 A 
ATOM     13  C   UNL A   1      33.408  23.473  24.506  1.00  0.00     0.029 A 
ATOM     14  Br  UNL A   1      33.728  21.617  24.759  1.00  0.00    -0.050 Br
BRANCH   9  15
ATOM     15  O   UNL A   1      32.536  27.504  23.873  1.00  0.00    -0.490 OA
BRANCH  15  16
ATOM     16  C   UNL A   1      32.867  28.406  24.932  1.00  0.00     0.226 C 
ATOM     17  C   UNL A   1      31.758  29.399  25.250  1.00  0.00     0.049 C 
ENDBRANCH  15  16
ENDBRANCH   9  15
BRANCH  11  18
ATOM     18  O   UNL A   1      30.673  25.351  23.073  1.00  0.00    -0.475 OA
BRANCH  18  19
ATOM     19  C   UNL A   1      29.634  26.035  23.780  1.00  0.00     0.349 C 
BRANCH  19  20
ATOM     20  C   UNL A   1      29.685  25.798  25.281  1.00  0.00     0.104 C 
ATOM     21  N   UNL A   1      29.728  25.602  26.527  1.00  0.00    -0.195 NA
ENDBRANCH  19  20
ENDBRANCH  18  19
ENDBRANCH  11  18
ENDBRANCH   7   8
ENDBRANCH   3   6
ENDBRANCH   1   2
BRANCH   1  22
ATOM     22  C   UNL A   1      38.530  19.674  25.179  1.00  0.00     0.042 C 
BRANCH  22  23
ATOM     23  C   UNL A   1      39.581  19.855  26.264  1.00  0.00     0.118 C 
BRANCH  23  24
ATOM     24  N   UNL A   1      40.816  19.159  25.936  1.00  0.00    -0.352 N 
ATOM     25  C   UNL A   1      42.094  19.646  25.837  1.00  0.00     0.251 C 
ATOM     26  H   UNL A   1      40.720  18.195  25.760  1.00  0.00     0.163 HD
ATOM     27  O   UNL A   1      42.963  18.972  25.298  1.00  0.00    -0.269 OA
BRANCH  25  28
ATOM     28  C   UNL A   1      42.423  20.981  26.378  1.00  0.00     0.039 A 
ATOM     29  C   UNL A   1      42.476  21.151  27.763  1.00  0.00     0.014 A 
ATOM     30  C   UNL A   1      42.629  22.071  25.527  1.00  0.00     0.014 A 
ATOM     31  C   UNL A   1      42.776  22.406  28.295  1.00  0.00     0.010 A 
ATOM     32  C   UNL A   1      43.002  23.302  26.055  1.00  0.00     0.010 A 
ATOM     33  C   UNL A   1      43.064  23.485  27.444  1.00  0.00    -0.014 A 
BRANCH  33  34
ATOM     34  C   UNL A   1      43.414  24.819  27.987  1.00  0.00     0.031 A 
ATOM     35  C   UNL A   1      42.331  25.823  28.270  1.00  0.00     0.074 A 
ATOM     36  C   UNL A   1      44.709  25.145  28.164  1.00  0.00     0.049 A 
ATOM     37  N   UNL A   1      42.442  27.063  28.678  1.00  0.00    -0.248 NA
ATOM     38  C   UNL A   1      40.943  25.390  28.038  1.00  0.00     0.031 C 
ATOM     39  C   UNL A   1      45.849  24.269  27.888  1.00  0.00     0.029 A 
ATOM     40  N   UNL A   1      45.282  26.308  28.612  1.00  0.00    -0.354 N 
ATOM     41  C   UNL A   1      41.145  27.559  28.730  1.00  0.00     0.074 A 
ATOM     42  C   UNL A   1      40.267  26.505  28.271  1.00  0.00     0.031 C 
ATOM     43  C   UNL A   1      46.985  24.918  28.193  1.00  0.00     0.029 A 
ATOM     44  C   UNL A   1      46.655  26.265  28.648  1.00  0.00     0.049 A 
ATOM     45  H   UNL A   1      44.760  27.098  28.882  1.00  0.00     0.167 HD
ATOM     46  C   UNL A   1      40.721  28.778  29.141  1.00  0.00     0.031 A 
ATOM     47  C   UNL A   1      47.546  27.210  28.998  1.00  0.00     0.031 A 
ATOM     48  C   UNL A   1      41.596  29.816  29.617  1.00  0.00     0.049 A 
ATOM     49  C   UNL A   1      47.049  28.554  29.451  1.00  0.00     0.074 A 
ATOM     50  C   UNL A   1      41.260  31.063  30.113  1.00  0.00     0.029 A 
ATOM     51  N   UNL A   1      42.977  29.725  29.657  1.00  0.00    -0.354 N 
ATOM     52  N   UNL A   1      45.815  28.984  29.559  1.00  0.00    -0.248 NA
ATOM     53  C   UNL A   1      48.068  29.538  29.842  1.00  0.00     0.031 C 
ATOM     54  C   UNL A   1      42.444  31.746  30.411  1.00  0.00     0.029 A 
ATOM     55  C   UNL A   1      43.512  30.903  30.151  1.00  0.00     0.049 A 
ATOM     56  H   UNL A   1      43.501  28.940  29.378  1.00  0.00     0.167 HD
ATOM     57  C   UNL A   1      45.909  30.276  30.058  1.00  0.00     0.074 A 
ATOM     58  C   UNL A   1      47.317  30.553  30.246  1.00  0.00     0.031 C 
ATOM     59  C   UNL A   1      44.916  31.156  30.336  1.00  0.00     0.031 A 
BRANCH  46  60
ATOM     60  C   UNL A   1      39.246  29.058  29.089  1.00  0.00    -0.014 A 
ATOM     61  C   UNL A   1      38.428  28.860  30.214  1.00  0.00     0.009 A 
ATOM     62  C   UNL A   1      38.674  29.575  27.917  1.00  0.00     0.009 A 
ATOM     63  C   UNL A   1      37.062  29.146  30.155  1.00  0.00     0.001 A 
ATOM     64  C   UNL A   1      37.313  29.887  27.869  1.00  0.00     0.001 A 
ATOM     65  C   UNL A   1      36.508  29.664  28.985  1.00  0.00     0.000 A 
ENDBRANCH  46  60
BRANCH  47  66
ATOM     66  C   UNL A   1      49.003  26.919  28.946  1.00  0.00    -0.014 A 
ATOM     67  C   UNL A   1      49.660  26.369  30.057  1.00  0.00     0.009 A 
ATOM     68  C   UNL A   1      49.747  27.204  27.789  1.00  0.00     0.009 A 
ATOM     69  C   UNL A   1      51.037  26.142  30.024  1.00  0.00     0.001 A 
ATOM     70  C   UNL A   1      51.119  26.947  27.749  1.00  0.00     0.001 A 
ATOM     71  C   UNL A   1      51.765  26.428  28.869  1.00  0.00     0.000 A 
ENDBRANCH  47  66
BRANCH  59  72
ATOM     72  C   UNL A   1      45.319  32.484  30.911  1.00  0.00    -0.014 A 
ATOM     73  C   UNL A   1      45.571  33.589  30.086  1.00  0.00     0.009 A 
ATOM     74  C   UNL A   1      45.405  32.638  32.303  1.00  0.00     0.009 A 
ATOM     75  C   UNL A   1      45.936  34.816  30.643  1.00  0.00     0.001 A 
ATOM     76  C   UNL A   1      45.740  33.872  32.859  1.00  0.00     0.001 A 
ATOM     77  C   UNL A   1      46.014  34.958  32.030  1.00  0.00     0.000 A 
ENDBRANCH  59  72
ENDBRANCH  33  34
ENDBRANCH  25  28
ENDBRANCH  23  24
ENDBRANCH  22  23
ENDBRANCH   1  22
TORSDOF 16
ENDMDL
