MODEL 1
REMARK VINA RESULT:     -12.3      0.000      0.000
REMARK SMILES Cc1ccn2c([C@@H]3CCCC[C@@H]3C(=O)NCCCNC(=O)c3ccc(-c4c5nc(c(-c6ccccc6)c6ccc([nH]6)c(-c6ccccc6)c6nc(c(-c7ccccc7)c7ccc4[nH]7)C=C6)C=C5)cc3)nnc2c1
REMARK SMILES IDX 17 1 16 2 15 3 13 4 14 5 12 7 7 8 8 9 9 10 11 11 10 12 6 13
REMARK SMILES IDX 1 14 2 15 3 16 73 17 4 18 72 19 5 20 71 21 70 22 18 23 19 24
REMARK SMILES IDX 20 25 21 27 22 28 23 29 69 30 24 31 68 32 25 33 26 34 27 35
REMARK SMILES IDX 62 36 28 37 67 38 61 39 63 40 29 41 66 42 60 43 59 44 30 46
REMARK SMILES IDX 52 47 37 48 51 49 38 50 41 51 50 52 64 53 39 54 40 55 49 57
REMARK SMILES IDX 65 58 42 59 31 60 32 61 36 62 33 63 35 64 34 65 53 66 54 67
REMARK SMILES IDX 58 68 55 69 57 70 56 71 43 72 44 73 48 74 45 75 47 76 46 77
REMARK H PARENT 15 6 19 26 63 45 41 56
REMARK Flexibility Score: inf
ROOT
ATOM      1  C   UNL A   1      33.804  30.200  27.322  1.00  0.00     0.042 C 
ENDROOT
BRANCH   1   2
ATOM      2  C   UNL A   1      32.386  30.015  26.771  1.00  0.00     0.117 C 
BRANCH   2   3
ATOM      3  N   UNL A   1      31.775  28.737  27.122  1.00  0.00    -0.356 N 
ATOM      4  C   UNL A   1      31.790  27.503  26.554  1.00  0.00     0.223 C 
ATOM      5  O   UNL A   1      31.201  26.609  27.168  1.00  0.00    -0.275 OA
ATOM      6  H   UNL A   1      31.238  28.778  27.945  1.00  0.00     0.163 HD
BRANCH   4   7
ATOM      7  C   UNL A   1      32.475  27.230  25.221  1.00  0.00     0.089 C 
ATOM      8  C   UNL A   1      31.663  26.367  24.224  1.00  0.00     0.071 C 
ATOM      9  C   UNL A   1      31.702  24.851  24.456  1.00  0.00     0.012 C 
ATOM     10  C   UNL A   1      33.124  24.339  24.639  1.00  0.00     0.001 C 
ATOM     11  C   UNL A   1      33.858  26.593  25.508  1.00  0.00     0.014 C 
ATOM     12  C   UNL A   1      33.823  25.084  25.765  1.00  0.00     0.001 C 
BRANCH   8  13
ATOM     13  C   UNL A   1      30.273  26.854  23.923  1.00  0.00     0.141 A 
ATOM     14  C   UNL A   1      27.947  30.906  20.886  1.00  0.00     0.044 C 
ATOM     15  C   UNL A   1      28.558  29.959  21.873  1.00  0.00    -0.046 A 
ATOM     16  C   UNL A   1      30.004  30.042  22.051  1.00  0.00     0.022 A 
ATOM     17  C   UNL A   1      27.843  29.013  22.521  1.00  0.00     0.053 A 
ATOM     18  C   UNL A   1      30.634  29.093  22.762  1.00  0.00     0.095 A 
ATOM     19  C   UNL A   1      28.517  27.993  23.249  1.00  0.00     0.161 A 
ATOM     20  N   UNL A   1      29.905  28.040  23.309  1.00  0.00    -0.286 N 
ATOM     21  N   UNL A   1      28.085  26.891  23.816  1.00  0.00    -0.130 NA
ATOM     22  N   UNL A   1      29.180  26.178  24.233  1.00  0.00    -0.134 NA
ENDBRANCH   8  13
ENDBRANCH   4   7
ENDBRANCH   2   3
ENDBRANCH   1   2
BRANCH   1  23
ATOM     23  C   UNL A   1      34.154  31.627  27.733  1.00  0.00     0.118 C 
BRANCH  23  24
ATOM     24  N   UNL A   1      34.398  31.850  29.140  1.00  0.00    -0.352 N 
ATOM     25  C   UNL A   1      35.587  31.872  29.831  1.00  0.00     0.251 C 
ATOM     26  H   UNL A   1      33.594  32.009  29.685  1.00  0.00     0.163 HD
ATOM     27  O   UNL A   1      35.680  32.646  30.787  1.00  0.00    -0.269 OA
BRANCH  25  28
ATOM     28  C   UNL A   1      36.673  30.880  29.609  1.00  0.00     0.039 A 
ATOM     29  C   UNL A   1      36.555  29.492  29.685  1.00  0.00     0.014 A 
ATOM     30  C   UNL A   1      37.942  31.435  29.370  1.00  0.00     0.014 A 
ATOM     31  C   UNL A   1      37.693  28.688  29.691  1.00  0.00     0.010 A 
ATOM     32  C   UNL A   1      39.078  30.633  29.339  1.00  0.00     0.010 A 
ATOM     33  C   UNL A   1      38.958  29.266  29.583  1.00  0.00    -0.014 A 
BRANCH  33  34
ATOM     34  C   UNL A   1      40.127  28.404  29.762  1.00  0.00     0.031 A 
ATOM     35  C   UNL A   1      40.710  28.297  31.131  1.00  0.00     0.074 A 
ATOM     36  C   UNL A   1      40.614  27.637  28.764  1.00  0.00     0.049 A 
ATOM     37  N   UNL A   1      41.939  28.477  31.500  1.00  0.00    -0.248 NA
ATOM     38  C   UNL A   1      39.798  27.960  32.233  1.00  0.00     0.031 C 
ATOM     39  C   UNL A   1      40.009  27.368  27.455  1.00  0.00     0.029 A 
ATOM     40  N   UNL A   1      41.706  26.821  28.772  1.00  0.00    -0.354 N 
ATOM     41  C   UNL A   1      41.993  28.165  32.858  1.00  0.00     0.074 A 
ATOM     42  C   UNL A   1      40.633  27.916  33.273  1.00  0.00     0.031 C 
ATOM     43  C   UNL A   1      40.586  26.271  26.919  1.00  0.00     0.029 A 
ATOM     44  C   UNL A   1      41.694  25.867  27.767  1.00  0.00     0.049 A 
ATOM     45  H   UNL A   1      42.435  26.901  29.430  1.00  0.00     0.167 HD
ATOM     46  C   UNL A   1      43.161  28.004  33.541  1.00  0.00     0.031 A 
ATOM     47  C   UNL A   1      42.482  24.771  27.684  1.00  0.00     0.031 A 
ATOM     48  C   UNL A   1      44.286  28.564  32.848  1.00  0.00     0.049 A 
ATOM     49  C   UNL A   1      43.664  24.981  28.548  1.00  0.00     0.074 A 
ATOM     50  C   UNL A   1      44.653  29.835  32.460  1.00  0.00     0.029 A 
ATOM     51  N   UNL A   1      45.128  27.710  32.180  1.00  0.00    -0.354 N 
ATOM     52  N   UNL A   1      44.606  25.844  28.300  1.00  0.00    -0.248 NA
ATOM     53  C   UNL A   1      43.631  24.464  29.905  1.00  0.00     0.031 C 
ATOM     54  C   UNL A   1      45.353  29.658  31.232  1.00  0.00     0.029 A 
ATOM     55  C   UNL A   1      45.397  28.288  30.967  1.00  0.00     0.049 A 
ATOM     56  H   UNL A   1      45.472  26.849  32.509  1.00  0.00     0.167 HD
ATOM     57  C   UNL A   1      45.008  26.294  29.547  1.00  0.00     0.074 A 
ATOM     58  C   UNL A   1      44.471  25.319  30.490  1.00  0.00     0.031 C 
ATOM     59  C   UNL A   1      45.496  27.557  29.721  1.00  0.00     0.031 A 
BRANCH  46  60
ATOM     60  C   UNL A   1      43.334  27.108  34.740  1.00  0.00    -0.014 A 
ATOM     61  C   UNL A   1      43.385  27.598  36.057  1.00  0.00     0.009 A 
ATOM     62  C   UNL A   1      43.195  25.715  34.588  1.00  0.00     0.009 A 
ATOM     63  C   UNL A   1      43.312  26.750  37.166  1.00  0.00     0.001 A 
ATOM     64  C   UNL A   1      43.079  24.865  35.697  1.00  0.00     0.001 A 
ATOM     65  C   UNL A   1      43.138  25.385  36.986  1.00  0.00     0.000 A 
ENDBRANCH  46  60
BRANCH  47  66
ATOM     66  C   UNL A   1      42.105  23.429  27.194  1.00  0.00    -0.014 A 
ATOM     67  C   UNL A   1      41.120  22.681  27.867  1.00  0.00     0.009 A 
ATOM     68  C   UNL A   1      42.906  22.766  26.254  1.00  0.00     0.009 A 
ATOM     69  C   UNL A   1      40.972  21.310  27.641  1.00  0.00     0.001 A 
ATOM     70  C   UNL A   1      42.762  21.391  26.033  1.00  0.00     0.001 A 
ATOM     71  C   UNL A   1      41.806  20.662  26.737  1.00  0.00     0.000 A 
ENDBRANCH  47  66
BRANCH  59  72
ATOM     72  C   UNL A   1      45.851  28.372  28.498  1.00  0.00    -0.014 A 
ATOM     73  C   UNL A   1      47.206  28.505  28.153  1.00  0.00     0.009 A 
ATOM     74  C   UNL A   1      44.911  29.148  27.798  1.00  0.00     0.009 A 
ATOM     75  C   UNL A   1      47.609  29.387  27.148  1.00  0.00     0.001 A 
ATOM     76  C   UNL A   1      45.311  30.009  26.772  1.00  0.00     0.001 A 
ATOM     77  C   UNL A   1      46.661  30.136  26.454  1.00  0.00     0.000 A 
ENDBRANCH  59  72
ENDBRANCH  33  34
ENDBRANCH  25  28
ENDBRANCH  23  24
ENDBRANCH   1  23
TORSDOF 11
ENDMDL
MODEL 2
REMARK VINA RESULT:     -12.2      1.441      3.185
REMARK SMILES Cc1ccn2c([C@@H]3CCCC[C@@H]3C(=O)NCCCNC(=O)c3ccc(-c4c5nc(c(-c6ccccc6)c6ccc([nH]6)c(-c6ccccc6)c6nc(c(-c7ccccc7)c7ccc4[nH]7)C=C6)C=C5)cc3)nnc2c1
REMARK SMILES IDX 17 1 16 2 15 3 13 4 14 5 12 7 7 8 8 9 9 10 11 11 10 12 6 13
REMARK SMILES IDX 1 14 2 15 3 16 73 17 4 18 72 19 5 20 71 21 70 22 18 23 19 24
REMARK SMILES IDX 20 25 21 27 22 28 23 29 69 30 24 31 68 32 25 33 26 34 27 35
REMARK SMILES IDX 62 36 28 37 67 38 61 39 63 40 29 41 66 42 60 43 59 44 30 46
REMARK SMILES IDX 52 47 37 48 51 49 38 50 41 51 50 52 64 53 39 54 40 55 49 57
REMARK SMILES IDX 65 58 42 59 31 60 32 61 36 62 33 63 35 64 34 65 53 66 54 67
REMARK SMILES IDX 58 68 55 69 57 70 56 71 43 72 44 73 48 74 45 75 47 76 46 77
REMARK H PARENT 15 6 19 26 63 45 41 56
REMARK Flexibility Score: inf
ROOT
ATOM      1  C   UNL A   1      33.268  30.707  27.268  1.00  0.00     0.042 C 
ENDROOT
BRANCH   1   2
ATOM      2  C   UNL A   1      33.975  29.438  26.780  1.00  0.00     0.117 C 
BRANCH   2   3
ATOM      3  N   UNL A   1      34.098  29.349  25.328  1.00  0.00    -0.356 N 
ATOM      4  C   UNL A   1      33.305  28.837  24.349  1.00  0.00     0.223 C 
ATOM      5  O   UNL A   1      33.696  28.994  23.189  1.00  0.00    -0.275 OA
ATOM      6  H   UNL A   1      34.932  29.742  24.985  1.00  0.00     0.163 HD
BRANCH   4   7
ATOM      7  C   UNL A   1      32.013  28.092  24.656  1.00  0.00     0.089 C 
ATOM      8  C   UNL A   1      31.655  26.954  23.668  1.00  0.00     0.071 C 
ATOM      9  C   UNL A   1      30.992  27.385  22.354  1.00  0.00     0.012 C 
ATOM     10  C   UNL A   1      29.826  28.336  22.589  1.00  0.00     0.001 C 
ATOM     11  C   UNL A   1      30.864  29.128  24.749  1.00  0.00     0.014 C 
ATOM     12  C   UNL A   1      30.271  29.543  23.400  1.00  0.00     0.001 C 
BRANCH   8  13
ATOM     13  C   UNL A   1      32.726  25.923  23.447  1.00  0.00     0.141 A 
ATOM     14  C   UNL A   1      35.085  21.807  26.371  1.00  0.00     0.044 C 
ATOM     15  C   UNL A   1      34.622  23.039  25.655  1.00  0.00    -0.046 A 
ATOM     16  C   UNL A   1      33.767  23.951  26.408  1.00  0.00     0.022 A 
ATOM     17  C   UNL A   1      34.898  23.279  24.354  1.00  0.00     0.053 A 
ATOM     18  C   UNL A   1      33.156  24.961  25.766  1.00  0.00     0.095 A 
ATOM     19  C   UNL A   1      34.227  24.332  23.671  1.00  0.00     0.161 A 
ATOM     20  N   UNL A   1      33.336  25.117  24.394  1.00  0.00    -0.286 N 
ATOM     21  N   UNL A   1      34.187  24.668  22.403  1.00  0.00    -0.130 NA
ATOM     22  N   UNL A   1      33.248  25.657  22.262  1.00  0.00    -0.134 NA
ENDBRANCH   8  13
ENDBRANCH   4   7
ENDBRANCH   2   3
ENDBRANCH   1   2
BRANCH   1  23
ATOM     23  C   UNL A   1      34.197  31.811  27.764  1.00  0.00     0.118 C 
BRANCH  23  24
ATOM     24  N   UNL A   1      34.380  31.902  29.195  1.00  0.00    -0.352 N 
ATOM     25  C   UNL A   1      35.541  31.906  29.932  1.00  0.00     0.251 C 
ATOM     26  H   UNL A   1      33.551  31.972  29.720  1.00  0.00     0.163 HD
ATOM     27  O   UNL A   1      35.564  32.584  30.963  1.00  0.00    -0.269 OA
BRANCH  25  28
ATOM     28  C   UNL A   1      36.680  30.988  29.658  1.00  0.00     0.039 A 
ATOM     29  C   UNL A   1      36.595  29.625  29.372  1.00  0.00     0.014 A 
ATOM     30  C   UNL A   1      37.953  31.573  29.775  1.00  0.00     0.014 A 
ATOM     31  C   UNL A   1      37.740  28.833  29.371  1.00  0.00     0.010 A 
ATOM     32  C   UNL A   1      39.103  30.792  29.738  1.00  0.00     0.010 A 
ATOM     33  C   UNL A   1      38.988  29.408  29.617  1.00  0.00    -0.014 A 
BRANCH  33  34
ATOM     34  C   UNL A   1      40.138  28.517  29.771  1.00  0.00     0.031 A 
ATOM     35  C   UNL A   1      40.722  28.363  31.136  1.00  0.00     0.074 A 
ATOM     36  C   UNL A   1      40.607  27.766  28.753  1.00  0.00     0.049 A 
ATOM     37  N   UNL A   1      41.955  28.507  31.508  1.00  0.00    -0.248 NA
ATOM     38  C   UNL A   1      39.805  28.017  32.231  1.00  0.00     0.031 C 
ATOM     39  C   UNL A   1      39.994  27.544  27.439  1.00  0.00     0.029 A 
ATOM     40  N   UNL A   1      41.682  26.927  28.739  1.00  0.00    -0.354 N 
ATOM     41  C   UNL A   1      42.004  28.159  32.857  1.00  0.00     0.074 A 
ATOM     42  C   UNL A   1      40.641  27.929  33.268  1.00  0.00     0.031 C 
ATOM     43  C   UNL A   1      40.548  26.449  26.874  1.00  0.00     0.029 A 
ATOM     44  C   UNL A   1      41.648  26.000  27.709  1.00  0.00     0.049 A 
ATOM     45  H   UNL A   1      42.414  26.975  29.396  1.00  0.00     0.167 HD
ATOM     46  C   UNL A   1      43.170  27.956  33.532  1.00  0.00     0.031 A 
ATOM     47  C   UNL A   1      42.413  24.890  27.597  1.00  0.00     0.031 A 
ATOM     48  C   UNL A   1      44.305  28.510  32.852  1.00  0.00     0.049 A 
ATOM     49  C   UNL A   1      43.600  25.053  28.463  1.00  0.00     0.074 A 
ATOM     50  C   UNL A   1      44.699  29.783  32.495  1.00  0.00     0.029 A 
ATOM     51  N   UNL A   1      45.128  27.656  32.160  1.00  0.00    -0.354 N 
ATOM     52  N   UNL A   1      44.560  25.901  28.234  1.00  0.00    -0.248 NA
ATOM     53  C   UNL A   1      43.559  24.502  29.806  1.00  0.00     0.031 C 
ATOM     54  C   UNL A   1      45.392  29.623  31.262  1.00  0.00     0.029 A 
ATOM     55  C   UNL A   1      45.407  28.259  30.962  1.00  0.00     0.049 A 
ATOM     56  H   UNL A   1      45.455  26.780  32.467  1.00  0.00     0.167 HD
ATOM     57  C   UNL A   1      44.974  26.311  29.492  1.00  0.00     0.074 A 
ATOM     58  C   UNL A   1      44.418  25.323  30.411  1.00  0.00     0.031 C 
ATOM     59  C   UNL A   1      45.488  27.559  29.697  1.00  0.00     0.031 A 
BRANCH  46  60
ATOM     60  C   UNL A   1      43.326  27.027  34.708  1.00  0.00    -0.014 A 
ATOM     61  C   UNL A   1      43.275  27.468  36.042  1.00  0.00     0.009 A 
ATOM     62  C   UNL A   1      43.276  25.635  34.500  1.00  0.00     0.009 A 
ATOM     63  C   UNL A   1      43.188  26.576  37.115  1.00  0.00     0.001 A 
ATOM     64  C   UNL A   1      43.146  24.739  35.570  1.00  0.00     0.001 A 
ATOM     65  C   UNL A   1      43.102  25.212  36.878  1.00  0.00     0.000 A 
ENDBRANCH  46  60
BRANCH  47  66
ATOM     66  C   UNL A   1      42.007  23.569  27.073  1.00  0.00    -0.014 A 
ATOM     67  C   UNL A   1      40.833  22.951  27.545  1.00  0.00     0.009 A 
ATOM     68  C   UNL A   1      42.910  22.790  26.338  1.00  0.00     0.009 A 
ATOM     69  C   UNL A   1      40.592  21.592  27.328  1.00  0.00     0.001 A 
ATOM     70  C   UNL A   1      42.672  21.426  26.126  1.00  0.00     0.001 A 
ATOM     71  C   UNL A   1      41.522  20.826  26.635  1.00  0.00     0.000 A 
ENDBRANCH  47  66
BRANCH  59  72
ATOM     72  C   UNL A   1      45.859  28.397  28.495  1.00  0.00    -0.014 A 
ATOM     73  C   UNL A   1      47.212  28.481  28.129  1.00  0.00     0.009 A 
ATOM     74  C   UNL A   1      44.942  29.237  27.838  1.00  0.00     0.009 A 
ATOM     75  C   UNL A   1      47.637  29.377  27.145  1.00  0.00     0.001 A 
ATOM     76  C   UNL A   1      45.363  30.113  26.833  1.00  0.00     0.001 A 
ATOM     77  C   UNL A   1      46.711  30.190  26.494  1.00  0.00     0.000 A 
ENDBRANCH  59  72
ENDBRANCH  33  34
ENDBRANCH  25  28
ENDBRANCH  23  24
ENDBRANCH   1  23
TORSDOF 11
ENDMDL
MODEL 3
REMARK VINA RESULT:     -12.0      1.544      2.189
REMARK SMILES Cc1ccn2c([C@@H]3CCCC[C@@H]3C(=O)NCCCNC(=O)c3ccc(-c4c5nc(c(-c6ccccc6)c6ccc([nH]6)c(-c6ccccc6)c6nc(c(-c7ccccc7)c7ccc4[nH]7)C=C6)C=C5)cc3)nnc2c1
REMARK SMILES IDX 17 1 16 2 15 3 13 4 14 5 12 7 7 8 8 9 9 10 11 11 10 12 6 13
REMARK SMILES IDX 1 14 2 15 3 16 73 17 4 18 72 19 5 20 71 21 70 22 18 23 19 24
REMARK SMILES IDX 20 25 21 27 22 28 23 29 69 30 24 31 68 32 25 33 26 34 27 35
REMARK SMILES IDX 62 36 28 37 67 38 61 39 63 40 29 41 66 42 60 43 59 44 30 46
REMARK SMILES IDX 52 47 37 48 51 49 38 50 41 51 50 52 64 53 39 54 40 55 49 57
REMARK SMILES IDX 65 58 42 59 31 60 32 61 36 62 33 63 35 64 34 65 53 66 54 67
REMARK SMILES IDX 58 68 55 69 57 70 56 71 43 72 44 73 48 74 45 75 47 76 46 77
REMARK H PARENT 15 6 19 26 63 45 41 56
REMARK Flexibility Score: inf
ROOT
ATOM      1  C   UNL A   1      32.123  29.509  26.652  1.00  0.00     0.042 C 
ENDROOT
BRANCH   1   2
ATOM      2  C   UNL A   1      32.365  28.114  27.238  1.00  0.00     0.117 C 
BRANCH   2   3
ATOM      3  N   UNL A   1      31.244  27.195  27.063  1.00  0.00    -0.356 N 
ATOM      4  C   UNL A   1      31.103  25.995  26.441  1.00  0.00     0.223 C 
ATOM      5  O   UNL A   1      30.002  25.448  26.547  1.00  0.00    -0.275 OA
ATOM      6  H   UNL A   1      30.414  27.512  27.485  1.00  0.00     0.163 HD
BRANCH   4   7
ATOM      7  C   UNL A   1      32.230  25.359  25.638  1.00  0.00     0.089 C 
ATOM      8  C   UNL A   1      32.091  25.473  24.099  1.00  0.00     0.071 C 
ATOM      9  C   UNL A   1      31.157  24.457  23.429  1.00  0.00     0.012 C 
ATOM     10  C   UNL A   1      31.448  23.032  23.880  1.00  0.00     0.001 C 
ATOM     11  C   UNL A   1      32.364  23.878  26.074  1.00  0.00     0.014 C 
ATOM     12  C   UNL A   1      31.379  22.923  25.395  1.00  0.00     0.001 C 
BRANCH   8  13
ATOM     13  C   UNL A   1      31.887  26.863  23.564  1.00  0.00     0.141 A 
ATOM     14  C   UNL A   1      27.644  30.434  23.014  1.00  0.00     0.044 C 
ATOM     15  C   UNL A   1      28.740  29.414  22.952  1.00  0.00    -0.046 A 
ATOM     16  C   UNL A   1      28.383  28.047  23.318  1.00  0.00     0.022 A 
ATOM     17  C   UNL A   1      30.020  29.729  22.653  1.00  0.00     0.053 A 
ATOM     18  C   UNL A   1      29.355  27.134  23.479  1.00  0.00     0.095 A 
ATOM     19  C   UNL A   1      31.050  28.768  22.852  1.00  0.00     0.161 A 
ATOM     20  N   UNL A   1      30.686  27.505  23.307  1.00  0.00    -0.286 N 
ATOM     21  N   UNL A   1      32.357  28.862  22.801  1.00  0.00    -0.130 NA
ATOM     22  N   UNL A   1      32.880  27.676  23.248  1.00  0.00    -0.134 NA
ENDBRANCH   8  13
ENDBRANCH   4   7
ENDBRANCH   2   3
ENDBRANCH   1   2
BRANCH   1  23
ATOM     23  C   UNL A   1      33.300  30.472  26.779  1.00  0.00     0.118 C 
BRANCH  23  24
ATOM     24  N   UNL A   1      33.501  31.072  28.079  1.00  0.00    -0.352 N 
ATOM     25  C   UNL A   1      34.633  31.634  28.620  1.00  0.00     0.251 C 
ATOM     26  H   UNL A   1      32.710  31.079  28.665  1.00  0.00     0.163 HD
ATOM     27  O   UNL A   1      34.490  32.590  29.386  1.00  0.00    -0.269 OA
BRANCH  25  28
ATOM     28  C   UNL A   1      35.985  31.027  28.485  1.00  0.00     0.039 A 
ATOM     29  C   UNL A   1      36.277  29.760  27.979  1.00  0.00     0.014 A 
ATOM     30  C   UNL A   1      37.039  31.809  28.989  1.00  0.00     0.014 A 
ATOM     31  C   UNL A   1      37.552  29.219  28.126  1.00  0.00     0.010 A 
ATOM     32  C   UNL A   1      38.323  31.287  29.105  1.00  0.00     0.010 A 
ATOM     33  C   UNL A   1      38.558  29.960  28.748  1.00  0.00    -0.014 A 
BRANCH  33  34
ATOM     34  C   UNL A   1      39.830  29.295  29.030  1.00  0.00     0.031 A 
ATOM     35  C   UNL A   1      40.149  28.977  30.453  1.00  0.00     0.074 A 
ATOM     36  C   UNL A   1      40.654  28.873  28.048  1.00  0.00     0.049 A 
ATOM     37  N   UNL A   1      41.215  29.275  31.126  1.00  0.00    -0.248 NA
ATOM     38  C   UNL A   1      39.139  28.244  31.228  1.00  0.00     0.031 C 
ATOM     39  C   UNL A   1      40.385  28.813  26.608  1.00  0.00     0.029 A 
ATOM     40  N   UNL A   1      41.876  28.277  28.159  1.00  0.00    -0.354 N 
ATOM     41  C   UNL A   1      41.074  28.673  32.376  1.00  0.00     0.074 A 
ATOM     42  C   UNL A   1      39.748  28.106  32.407  1.00  0.00     0.031 C 
ATOM     43  C   UNL A   1      41.279  27.985  26.026  1.00  0.00     0.029 A 
ATOM     44  C   UNL A   1      42.265  27.593  27.018  1.00  0.00     0.049 A 
ATOM     45  H   UNL A   1      42.430  28.328  28.972  1.00  0.00     0.167 HD
ATOM     46  C   UNL A   1      42.096  28.562  33.270  1.00  0.00     0.031 A 
ATOM     47  C   UNL A   1      43.273  26.697  26.919  1.00  0.00     0.031 A 
ATOM     48  C   UNL A   1      43.183  29.451  32.977  1.00  0.00     0.049 A 
ATOM     49  C   UNL A   1      44.192  26.903  28.058  1.00  0.00     0.074 A 
ATOM     50  C   UNL A   1      43.333  30.822  32.931  1.00  0.00     0.029 A 
ATOM     51  N   UNL A   1      44.303  28.932  32.377  1.00  0.00    -0.354 N 
ATOM     52  N   UNL A   1      44.954  27.948  28.203  1.00  0.00    -0.248 NA
ATOM     53  C   UNL A   1      44.014  26.089  29.248  1.00  0.00     0.031 C 
ATOM     54  C   UNL A   1      44.276  31.055  31.889  1.00  0.00     0.029 A 
ATOM     55  C   UNL A   1      44.667  29.811  31.390  1.00  0.00     0.049 A 
ATOM     56  H   UNL A   1      44.757  28.091  32.610  1.00  0.00     0.167 HD
ATOM     57  C   UNL A   1      45.002  28.161  29.571  1.00  0.00     0.074 A 
ATOM     58  C   UNL A   1      44.519  26.918  30.163  1.00  0.00     0.031 C 
ATOM     59  C   UNL A   1      45.160  29.415  30.088  1.00  0.00     0.031 A 
BRANCH  46  60
ATOM     60  C   UNL A   1      42.227  27.458  34.287  1.00  0.00    -0.014 A 
ATOM     61  C   UNL A   1      42.985  26.296  34.058  1.00  0.00     0.009 A 
ATOM     62  C   UNL A   1      41.791  27.678  35.607  1.00  0.00     0.009 A 
ATOM     63  C   UNL A   1      43.288  25.395  35.083  1.00  0.00     0.001 A 
ATOM     64  C   UNL A   1      42.127  26.799  36.646  1.00  0.00     0.001 A 
ATOM     65  C   UNL A   1      42.876  25.657  36.382  1.00  0.00     0.000 A 
ENDBRANCH  46  60
BRANCH  47  66
ATOM     66  C   UNL A   1      43.299  25.460  26.111  1.00  0.00    -0.014 A 
ATOM     67  C   UNL A   1      42.405  24.409  26.398  1.00  0.00     0.009 A 
ATOM     68  C   UNL A   1      44.379  25.190  25.260  1.00  0.00     0.009 A 
ATOM     69  C   UNL A   1      42.610  23.125  25.888  1.00  0.00     0.001 A 
ATOM     70  C   UNL A   1      44.588  23.901  24.755  1.00  0.00     0.001 A 
ATOM     71  C   UNL A   1      43.713  22.867  25.081  1.00  0.00     0.000 A 
ENDBRANCH  47  66
BRANCH  59  72
ATOM     72  C   UNL A   1      45.557  30.538  29.157  1.00  0.00    -0.014 A 
ATOM     73  C   UNL A   1      44.563  31.134  28.365  1.00  0.00     0.009 A 
ATOM     74  C   UNL A   1      46.896  30.889  28.913  1.00  0.00     0.009 A 
ATOM     75  C   UNL A   1      44.894  32.046  27.360  1.00  0.00     0.001 A 
ATOM     76  C   UNL A   1      47.227  31.824  27.926  1.00  0.00     0.001 A 
ATOM     77  C   UNL A   1      46.226  32.394  27.143  1.00  0.00     0.000 A 
ENDBRANCH  59  72
ENDBRANCH  33  34
ENDBRANCH  25  28
ENDBRANCH  23  24
ENDBRANCH   1  23
TORSDOF 11
ENDMDL
