MODEL 1
REMARK VINA RESULT:     -11.6      0.000      0.000
REMARK SMILES C[C@H]1[C@@H](C(=O)NCCCNC(=O)c2ccc(-c3c4nc(c(-c5ccccc5)c5ccc([nH]5)c(-c5ccccc5)c5nc(c(-c6ccccc6)c6ccc3[nH]6)C=C5)C=C4)cc2)CC[N@@H+]1Cc1ccn(-c2ccccc2)n1
REMARK SMILES IDX 7 1 6 2 4 3 5 4 3 6 1 7 2 8 63 9 61 10 62 11 64 13 65 14
REMARK SMILES IDX 66 15 75 16 67 17 68 18 69 19 70 20 74 21 71 22 73 23 72 24
REMARK SMILES IDX 8 25 9 26 10 27 11 28 12 30 13 31 14 32 60 33 15 34 59 35
REMARK SMILES IDX 16 36 17 37 18 38 53 39 19 40 58 41 52 42 54 43 20 44 57 45
REMARK SMILES IDX 51 46 50 47 21 49 43 50 28 51 42 52 29 53 32 54 41 55 55 56
REMARK SMILES IDX 30 57 31 58 40 60 56 61 33 62 22 63 23 64 27 65 24 66 26 67
REMARK SMILES IDX 25 68 44 69 45 70 49 71 46 72 48 73 47 74 34 75 35 76 39 77
REMARK SMILES IDX 36 78 38 79 37 80
REMARK H PARENT 6 5 63 12 10 29 54 48 32 59
REMARK Flexibility Score: inf
ROOT
ATOM      1  C   UNL A   1      31.277  30.398  25.263  1.00  0.00     0.117 C 
ENDROOT
BRANCH   1   2
ATOM      2  N   UNL A   1      32.671  30.004  25.319  1.00  0.00    -0.356 N 
ATOM      3  C   UNL A   1      33.251  28.779  25.203  1.00  0.00     0.229 C 
ATOM      4  O   UNL A   1      34.387  28.673  25.673  1.00  0.00    -0.275 OA
ATOM      5  H   UNL A   1      33.302  30.745  25.466  1.00  0.00     0.163 HD
BRANCH   3   6
ATOM      6  C   UNL A   1      32.583  27.663  24.397  1.00  0.00     0.142 C 
ATOM      7  C   UNL A   1      31.177  26.847  26.482  1.00  0.00     0.076 C 
ATOM      8  C   UNL A   1      31.729  26.585  25.095  1.00  0.00     0.194 C 
ATOM      9  N   UNL A   1      32.560  25.373  25.205  1.00  0.00    -0.327 N 
ATOM     10  C   UNL A   1      33.675  26.820  23.720  1.00  0.00     0.081 C 
ATOM     11  C   UNL A   1      33.891  25.682  24.701  1.00  0.00     0.263 C 
ATOM     12  H   UNL A   1      32.670  25.109  26.185  1.00  0.00     0.348 HD
BRANCH   9  13
ATOM     13  C   UNL A   1      31.918  24.160  24.679  1.00  0.00     0.321 C 
BRANCH  13  14
ATOM     14  C   UNL A   1      32.573  22.861  25.061  1.00  0.00     0.117 A 
ATOM     15  C   UNL A   1      32.954  22.470  26.364  1.00  0.00     0.052 A 
ATOM     16  N   UNL A   1      32.828  21.893  24.164  1.00  0.00    -0.167 NA
ATOM     17  C   UNL A   1      33.406  21.184  26.231  1.00  0.00     0.115 A 
ATOM     18  N   UNL A   1      33.242  20.832  24.910  1.00  0.00    -0.241 N 
BRANCH  18  19
ATOM     19  C   UNL A   1      33.415  19.540  24.346  1.00  0.00     0.065 A 
ATOM     20  C   UNL A   1      32.512  19.064  23.382  1.00  0.00     0.028 A 
ATOM     21  C   UNL A   1      34.504  18.743  24.725  1.00  0.00     0.028 A 
ATOM     22  C   UNL A   1      32.699  17.808  22.803  1.00  0.00     0.002 A 
ATOM     23  C   UNL A   1      34.668  17.474  24.161  1.00  0.00     0.002 A 
ATOM     24  C   UNL A   1      33.770  17.011  23.198  1.00  0.00     0.000 A 
ENDBRANCH  18  19
ENDBRANCH  13  14
ENDBRANCH   9  13
ENDBRANCH   3   6
ENDBRANCH   1   2
BRANCH   1  25
ATOM     25  C   UNL A   1      31.058  31.635  26.138  1.00  0.00     0.042 C 
BRANCH  25  26
ATOM     26  C   UNL A   1      32.276  32.036  26.962  1.00  0.00     0.118 C 
BRANCH  26  27
ATOM     27  N   UNL A   1      32.209  33.421  27.388  1.00  0.00    -0.352 N 
ATOM     28  C   UNL A   1      33.008  34.109  28.261  1.00  0.00     0.251 C 
ATOM     29  H   UNL A   1      31.478  33.945  26.987  1.00  0.00     0.163 HD
ATOM     30  O   UNL A   1      32.631  35.214  28.668  1.00  0.00    -0.269 OA
BRANCH  28  31
ATOM     31  C   UNL A   1      34.301  33.564  28.741  1.00  0.00     0.039 A 
ATOM     32  C   UNL A   1      35.452  33.818  27.984  1.00  0.00     0.014 A 
ATOM     33  C   UNL A   1      34.395  32.745  29.870  1.00  0.00     0.014 A 
ATOM     34  C   UNL A   1      36.682  33.278  28.369  1.00  0.00     0.010 A 
ATOM     35  C   UNL A   1      35.638  32.280  30.304  1.00  0.00     0.010 A 
ATOM     36  C   UNL A   1      36.792  32.515  29.543  1.00  0.00    -0.014 A 
BRANCH  36  37
ATOM     37  C   UNL A   1      38.092  31.918  29.948  1.00  0.00     0.031 A 
ATOM     38  C   UNL A   1      38.993  32.639  30.917  1.00  0.00     0.074 A 
ATOM     39  C   UNL A   1      38.482  30.737  29.430  1.00  0.00     0.049 A 
ATOM     40  N   UNL A   1      40.166  32.282  31.378  1.00  0.00    -0.248 NA
ATOM     41  C   UNL A   1      38.526  33.944  31.416  1.00  0.00     0.031 C 
ATOM     42  C   UNL A   1      37.731  29.950  28.449  1.00  0.00     0.029 A 
ATOM     43  N   UNL A   1      39.611  29.991  29.660  1.00  0.00    -0.354 N 
ATOM     44  C   UNL A   1      40.583  33.324  32.200  1.00  0.00     0.074 A 
ATOM     45  C   UNL A   1      39.562  34.346  32.136  1.00  0.00     0.031 C 
ATOM     46  C   UNL A   1      38.405  28.818  28.187  1.00  0.00     0.029 A 
ATOM     47  C   UNL A   1      39.646  28.813  28.954  1.00  0.00     0.049 A 
ATOM     48  H   UNL A   1      40.328  30.274  30.273  1.00  0.00     0.167 HD
ATOM     49  C   UNL A   1      41.700  33.416  32.960  1.00  0.00     0.031 A 
ATOM     50  C   UNL A   1      40.571  27.835  28.929  1.00  0.00     0.031 A 
ATOM     51  C   UNL A   1      42.711  32.396  33.048  1.00  0.00     0.049 A 
ATOM     52  C   UNL A   1      41.794  27.950  29.793  1.00  0.00     0.074 A 
ATOM     53  C   UNL A   1      43.853  32.376  33.830  1.00  0.00     0.029 A 
ATOM     54  N   UNL A   1      42.698  31.211  32.329  1.00  0.00    -0.354 N 
ATOM     55  N   UNL A   1      42.140  28.915  30.610  1.00  0.00    -0.248 NA
ATOM     56  C   UNL A   1      42.745  26.830  29.743  1.00  0.00     0.031 C 
ATOM     57  C   UNL A   1      44.550  31.194  33.556  1.00  0.00     0.029 A 
ATOM     58  C   UNL A   1      43.818  30.459  32.637  1.00  0.00     0.049 A 
ATOM     59  H   UNL A   1      41.995  30.945  31.692  1.00  0.00     0.167 HD
ATOM     60  C   UNL A   1      43.339  28.512  31.184  1.00  0.00     0.074 A 
ATOM     61  C   UNL A   1      43.650  27.206  30.638  1.00  0.00     0.031 C 
ATOM     62  C   UNL A   1      44.116  29.166  32.082  1.00  0.00     0.031 A 
BRANCH  49  63
ATOM     63  C   UNL A   1      41.886  34.676  33.761  1.00  0.00    -0.014 A 
ATOM     64  C   UNL A   1      42.589  35.771  33.235  1.00  0.00     0.009 A 
ATOM     65  C   UNL A   1      41.334  34.775  35.047  1.00  0.00     0.009 A 
ATOM     66  C   UNL A   1      42.768  36.928  33.998  1.00  0.00     0.001 A 
ATOM     67  C   UNL A   1      41.493  35.943  35.796  1.00  0.00     0.001 A 
ATOM     68  C   UNL A   1      42.218  37.014  35.276  1.00  0.00     0.000 A 
ENDBRANCH  49  63
BRANCH  50  69
ATOM     69  C   UNL A   1      40.361  26.643  28.068  1.00  0.00    -0.014 A 
ATOM     70  C   UNL A   1      39.665  25.527  28.556  1.00  0.00     0.009 A 
ATOM     71  C   UNL A   1      40.854  26.616  26.754  1.00  0.00     0.009 A 
ATOM     72  C   UNL A   1      39.485  24.399  27.751  1.00  0.00     0.001 A 
ATOM     73  C   UNL A   1      40.650  25.497  25.944  1.00  0.00     0.001 A 
ATOM     74  C   UNL A   1      39.972  24.387  26.446  1.00  0.00     0.000 A 
ENDBRANCH  50  69
BRANCH  62  75
ATOM     75  C   UNL A   1      45.363  28.468  32.543  1.00  0.00    -0.014 A 
ATOM     76  C   UNL A   1      45.343  27.600  33.646  1.00  0.00     0.009 A 
ATOM     77  C   UNL A   1      46.566  28.660  31.848  1.00  0.00     0.009 A 
ATOM     78  C   UNL A   1      46.513  26.964  34.064  1.00  0.00     0.001 A 
ATOM     79  C   UNL A   1      47.729  28.003  32.253  1.00  0.00     0.001 A 
ATOM     80  C   UNL A   1      47.704  27.164  33.367  1.00  0.00     0.000 A 
ENDBRANCH  62  75
ENDBRANCH  36  37
ENDBRANCH  28  31
ENDBRANCH  26  27
ENDBRANCH  25  26
ENDBRANCH   1  25
TORSDOF 13
ENDMDL
MODEL 2
REMARK VINA RESULT:     -11.6      3.372      9.248
REMARK SMILES C[C@H]1[C@@H](C(=O)NCCCNC(=O)c2ccc(-c3c4nc(c(-c5ccccc5)c5ccc([nH]5)c(-c5ccccc5)c5nc(c(-c6ccccc6)c6ccc3[nH]6)C=C5)C=C4)cc2)CC[N@@H+]1Cc1ccn(-c2ccccc2)n1
REMARK SMILES IDX 7 1 6 2 4 3 5 4 3 6 1 7 2 8 63 9 61 10 62 11 64 13 65 14
REMARK SMILES IDX 66 15 75 16 67 17 68 18 69 19 70 20 74 21 71 22 73 23 72 24
REMARK SMILES IDX 8 25 9 26 10 27 11 28 12 30 13 31 14 32 60 33 15 34 59 35
REMARK SMILES IDX 16 36 17 37 18 38 53 39 19 40 58 41 52 42 54 43 20 44 57 45
REMARK SMILES IDX 51 46 50 47 21 49 43 50 28 51 42 52 29 53 32 54 41 55 55 56
REMARK SMILES IDX 30 57 31 58 40 60 56 61 33 62 22 63 23 64 27 65 24 66 26 67
REMARK SMILES IDX 25 68 44 69 45 70 49 71 46 72 48 73 47 74 34 75 35 76 39 77
REMARK SMILES IDX 36 78 38 79 37 80
REMARK H PARENT 6 5 63 12 10 29 54 48 32 59
REMARK Flexibility Score: inf
ROOT
ATOM      1  C   UNL A   1      37.106  20.713  24.663  1.00  0.00     0.117 C 
ENDROOT
BRANCH   1   2
ATOM      2  N   UNL A   1      35.922  20.544  25.482  1.00  0.00    -0.356 N 
ATOM      3  C   UNL A   1      34.711  21.161  25.428  1.00  0.00     0.229 C 
ATOM      4  O   UNL A   1      34.037  21.117  26.461  1.00  0.00    -0.275 OA
ATOM      5  H   UNL A   1      36.009  19.871  26.196  1.00  0.00     0.163 HD
BRANCH   3   6
ATOM      6  C   UNL A   1      34.174  21.729  24.113  1.00  0.00     0.142 C 
ATOM      7  C   UNL A   1      35.157  24.130  24.620  1.00  0.00     0.076 C 
ATOM      8  C   UNL A   1      34.213  23.245  23.832  1.00  0.00     0.194 C 
ATOM      9  N   UNL A   1      32.857  23.770  24.074  1.00  0.00    -0.327 N 
ATOM     10  C   UNL A   1      32.670  21.424  24.020  1.00  0.00     0.081 C 
ATOM     11  C   UNL A   1      32.026  22.683  24.573  1.00  0.00     0.263 C 
ATOM     12  H   UNL A   1      32.881  24.482  24.804  1.00  0.00     0.348 HD
BRANCH   9  13
ATOM     13  C   UNL A   1      32.315  24.559  22.958  1.00  0.00     0.321 C 
BRANCH  13  14
ATOM     14  C   UNL A   1      31.998  25.995  23.274  1.00  0.00     0.117 A 
ATOM     15  C   UNL A   1      32.936  27.037  23.453  1.00  0.00     0.052 A 
ATOM     16  N   UNL A   1      30.737  26.448  23.374  1.00  0.00    -0.167 NA
ATOM     17  C   UNL A   1      32.182  28.168  23.614  1.00  0.00     0.115 A 
ATOM     18  N   UNL A   1      30.863  27.799  23.479  1.00  0.00    -0.241 N 
BRANCH  18  19
ATOM     19  C   UNL A   1      29.740  28.667  23.401  1.00  0.00     0.065 A 
ATOM     20  C   UNL A   1      29.903  30.049  23.588  1.00  0.00     0.028 A 
ATOM     21  C   UNL A   1      28.470  28.154  23.105  1.00  0.00     0.028 A 
ATOM     22  C   UNL A   1      28.806  30.906  23.478  1.00  0.00     0.002 A 
ATOM     23  C   UNL A   1      27.372  29.016  23.025  1.00  0.00     0.002 A 
ATOM     24  C   UNL A   1      27.542  30.390  23.206  1.00  0.00     0.000 A 
ENDBRANCH  18  19
ENDBRANCH  13  14
ENDBRANCH   9  13
ENDBRANCH   3   6
ENDBRANCH   1   2
BRANCH   1  25
ATOM     25  C   UNL A   1      38.097  19.582  24.953  1.00  0.00     0.042 C 
BRANCH  25  26
ATOM     26  C   UNL A   1      39.100  19.904  26.054  1.00  0.00     0.118 C 
BRANCH  26  27
ATOM     27  N   UNL A   1      40.345  19.180  25.880  1.00  0.00    -0.352 N 
ATOM     28  C   UNL A   1      41.637  19.629  25.940  1.00  0.00     0.251 C 
ATOM     29  H   UNL A   1      40.245  18.219  25.691  1.00  0.00     0.163 HD
ATOM     30  O   UNL A   1      42.541  18.897  25.523  1.00  0.00    -0.269 OA
BRANCH  28  31
ATOM     31  C   UNL A   1      41.981  20.968  26.478  1.00  0.00     0.039 A 
ATOM     32  C   UNL A   1      41.907  21.168  27.862  1.00  0.00     0.014 A 
ATOM     33  C   UNL A   1      42.293  22.049  25.649  1.00  0.00     0.014 A 
ATOM     34  C   UNL A   1      42.168  22.428  28.407  1.00  0.00     0.010 A 
ATOM     35  C   UNL A   1      42.641  23.284  26.200  1.00  0.00     0.010 A 
ATOM     36  C   UNL A   1      42.553  23.497  27.583  1.00  0.00    -0.014 A 
BRANCH  36  37
ATOM     37  C   UNL A   1      42.811  24.847  28.152  1.00  0.00     0.031 A 
ATOM     38  C   UNL A   1      44.204  25.246  28.568  1.00  0.00     0.074 A 
ATOM     39  C   UNL A   1      41.793  25.713  28.321  1.00  0.00     0.049 A 
ATOM     40  N   UNL A   1      44.620  26.372  29.092  1.00  0.00    -0.248 NA
ATOM     41  C   UNL A   1      45.264  24.239  28.393  1.00  0.00     0.031 C 
ATOM     42  C   UNL A   1      40.389  25.446  28.004  1.00  0.00     0.029 A 
ATOM     43  N   UNL A   1      41.785  26.999  28.802  1.00  0.00    -0.354 N 
ATOM     44  C   UNL A   1      45.980  26.200  29.328  1.00  0.00     0.074 A 
ATOM     45  C   UNL A   1      46.308  24.847  28.936  1.00  0.00     0.031 C 
ATOM     46  C   UNL A   1      39.662  26.543  28.268  1.00  0.00     0.029 A 
ATOM     47  C   UNL A   1      40.541  27.580  28.801  1.00  0.00     0.049 A 
ATOM     48  H   UNL A   1      42.596  27.461  29.117  1.00  0.00     0.167 HD
ATOM     49  C   UNL A   1      46.881  27.091  29.804  1.00  0.00     0.031 A 
ATOM     50  C   UNL A   1      40.149  28.810  29.183  1.00  0.00     0.031 A 
ATOM     51  C   UNL A   1      46.570  28.445  30.176  1.00  0.00     0.049 A 
ATOM     52  C   UNL A   1      41.169  29.788  29.691  1.00  0.00     0.074 A 
ATOM     53  C   UNL A   1      47.426  29.438  30.620  1.00  0.00     0.029 A 
ATOM     54  N   UNL A   1      45.299  28.997  30.144  1.00  0.00    -0.354 N 
ATOM     55  N   UNL A   1      42.460  29.626  29.850  1.00  0.00    -0.248 NA
ATOM     56  C   UNL A   1      40.678  31.124  30.058  1.00  0.00     0.031 C 
ATOM     57  C   UNL A   1      46.666  30.581  30.892  1.00  0.00     0.029 A 
ATOM     58  C   UNL A   1      45.344  30.312  30.573  1.00  0.00     0.049 A 
ATOM     59  H   UNL A   1      44.484  28.523  29.858  1.00  0.00     0.167 HD
ATOM     60  C   UNL A   1      42.939  30.844  30.317  1.00  0.00     0.074 A 
ATOM     61  C   UNL A   1      41.803  31.740  30.397  1.00  0.00     0.031 C 
ATOM     62  C   UNL A   1      44.206  31.188  30.653  1.00  0.00     0.031 A 
BRANCH  49  63
ATOM     63  C   UNL A   1      48.303  26.620  29.951  1.00  0.00    -0.014 A 
ATOM     64  C   UNL A   1      49.225  26.764  28.903  1.00  0.00     0.009 A 
ATOM     65  C   UNL A   1      48.729  26.044  31.157  1.00  0.00     0.009 A 
ATOM     66  C   UNL A   1      50.537  26.305  29.047  1.00  0.00     0.001 A 
ATOM     67  C   UNL A   1      50.048  25.611  31.308  1.00  0.00     0.001 A 
ATOM     68  C   UNL A   1      50.947  25.732  30.249  1.00  0.00     0.000 A 
ENDBRANCH  49  63
BRANCH  50  69
ATOM     69  C   UNL A   1      38.718  29.196  29.075  1.00  0.00    -0.014 A 
ATOM     70  C   UNL A   1      37.865  29.079  30.182  1.00  0.00     0.009 A 
ATOM     71  C   UNL A   1      38.201  29.684  27.865  1.00  0.00     0.009 A 
ATOM     72  C   UNL A   1      36.515  29.424  30.073  1.00  0.00     0.001 A 
ATOM     73  C   UNL A   1      36.858  30.052  27.768  1.00  0.00     0.001 A 
ATOM     74  C   UNL A   1      36.015  29.914  28.869  1.00  0.00     0.000 A 
ENDBRANCH  50  69
BRANCH  62  75
ATOM     75  C   UNL A   1      44.430  32.600  31.115  1.00  0.00    -0.014 A 
ATOM     76  C   UNL A   1      44.715  33.626  30.201  1.00  0.00     0.009 A 
ATOM     77  C   UNL A   1      44.328  32.910  32.479  1.00  0.00     0.009 A 
ATOM     78  C   UNL A   1      44.926  34.931  30.650  1.00  0.00     0.001 A 
ATOM     79  C   UNL A   1      44.515  34.220  32.923  1.00  0.00     0.001 A 
ATOM     80  C   UNL A   1      44.824  35.227  32.009  1.00  0.00     0.000 A 
ENDBRANCH  62  75
ENDBRANCH  36  37
ENDBRANCH  28  31
ENDBRANCH  26  27
ENDBRANCH  25  26
ENDBRANCH   1  25
TORSDOF 13
ENDMDL
MODEL 3
REMARK VINA RESULT:     -11.6      3.570      9.111
REMARK SMILES C[C@H]1[C@@H](C(=O)NCCCNC(=O)c2ccc(-c3c4nc(c(-c5ccccc5)c5ccc([nH]5)c(-c5ccccc5)c5nc(c(-c6ccccc6)c6ccc3[nH]6)C=C5)C=C4)cc2)CC[N@@H+]1Cc1ccn(-c2ccccc2)n1
REMARK SMILES IDX 7 1 6 2 4 3 5 4 3 6 1 7 2 8 63 9 61 10 62 11 64 13 65 14
REMARK SMILES IDX 66 15 75 16 67 17 68 18 69 19 70 20 74 21 71 22 73 23 72 24
REMARK SMILES IDX 8 25 9 26 10 27 11 28 12 30 13 31 14 32 60 33 15 34 59 35
REMARK SMILES IDX 16 36 17 37 18 38 53 39 19 40 58 41 52 42 54 43 20 44 57 45
REMARK SMILES IDX 51 46 50 47 21 49 43 50 28 51 42 52 29 53 32 54 41 55 55 56
REMARK SMILES IDX 30 57 31 58 40 60 56 61 33 62 22 63 23 64 27 65 24 66 26 67
REMARK SMILES IDX 25 68 44 69 45 70 49 71 46 72 48 73 47 74 34 75 35 76 39 77
REMARK SMILES IDX 36 78 38 79 37 80
REMARK H PARENT 6 5 63 12 10 29 54 48 32 59
REMARK Flexibility Score: inf
ROOT
ATOM      1  C   UNL A   1      36.655  20.972  24.594  1.00  0.00     0.117 C 
ENDROOT
BRANCH   1   2
ATOM      2  N   UNL A   1      35.789  20.948  25.757  1.00  0.00    -0.356 N 
ATOM      3  C   UNL A   1      34.522  21.413  25.928  1.00  0.00     0.229 C 
ATOM      4  O   UNL A   1      34.176  21.615  27.095  1.00  0.00    -0.275 OA
ATOM      5  H   UNL A   1      36.183  20.525  26.554  1.00  0.00     0.163 HD
BRANCH   3   6
ATOM      6  C   UNL A   1      33.554  21.519  24.748  1.00  0.00     0.142 C 
ATOM      7  C   UNL A   1      34.291  24.003  24.225  1.00  0.00     0.076 C 
ATOM      8  C   UNL A   1      33.296  22.873  24.056  1.00  0.00     0.194 C 
ATOM      9  N   UNL A   1      32.007  23.381  24.559  1.00  0.00    -0.327 N 
ATOM     10  C   UNL A   1      32.146  21.128  25.226  1.00  0.00     0.081 C 
ATOM     11  C   UNL A   1      31.517  22.464  25.578  1.00  0.00     0.263 C 
ATOM     12  H   UNL A   1      32.138  24.285  25.014  1.00  0.00     0.348 HD
BRANCH   9  13
ATOM     13  C   UNL A   1      31.061  23.759  23.499  1.00  0.00     0.321 C 
BRANCH  13  14
ATOM     14  C   UNL A   1      31.051  25.217  23.128  1.00  0.00     0.117 A 
ATOM     15  C   UNL A   1      31.861  25.835  22.150  1.00  0.00     0.052 A 
ATOM     16  N   UNL A   1      30.201  26.095  23.688  1.00  0.00    -0.167 NA
ATOM     17  C   UNL A   1      31.426  27.131  22.096  1.00  0.00     0.115 A 
ATOM     18  N   UNL A   1      30.370  27.242  22.973  1.00  0.00    -0.241 N 
BRANCH  18  19
ATOM     19  C   UNL A   1      29.501  28.355  23.123  1.00  0.00     0.065 A 
ATOM     20  C   UNL A   1      30.027  29.630  23.386  1.00  0.00     0.028 A 
ATOM     21  C   UNL A   1      28.116  28.195  22.980  1.00  0.00     0.028 A 
ATOM     22  C   UNL A   1      29.177  30.731  23.501  1.00  0.00     0.002 A 
ATOM     23  C   UNL A   1      27.269  29.299  23.124  1.00  0.00     0.002 A 
ATOM     24  C   UNL A   1      27.800  30.564  23.379  1.00  0.00     0.000 A 
ENDBRANCH  18  19
ENDBRANCH  13  14
ENDBRANCH   9  13
ENDBRANCH   3   6
ENDBRANCH   1   2
BRANCH   1  25
ATOM     25  C   UNL A   1      37.776  19.945  24.768  1.00  0.00     0.042 C 
BRANCH  25  26
ATOM     26  C   UNL A   1      38.749  20.273  25.894  1.00  0.00     0.118 C 
BRANCH  26  27
ATOM     27  N   UNL A   1      39.894  19.381  25.897  1.00  0.00    -0.352 N 
ATOM     28  C   UNL A   1      41.224  19.662  26.058  1.00  0.00     0.251 C 
ATOM     29  H   UNL A   1      39.681  18.429  25.764  1.00  0.00     0.163 HD
ATOM     30  O   UNL A   1      42.054  18.788  25.785  1.00  0.00    -0.269 OA
BRANCH  28  31
ATOM     31  C   UNL A   1      41.696  20.985  26.536  1.00  0.00     0.039 A 
ATOM     32  C   UNL A   1      41.662  21.246  27.911  1.00  0.00     0.014 A 
ATOM     33  C   UNL A   1      42.094  21.998  25.659  1.00  0.00     0.014 A 
ATOM     34  C   UNL A   1      42.045  22.498  28.400  1.00  0.00     0.010 A 
ATOM     35  C   UNL A   1      42.562  23.217  26.154  1.00  0.00     0.010 A 
ATOM     36  C   UNL A   1      42.515  23.493  27.528  1.00  0.00    -0.014 A 
BRANCH  36  37
ATOM     37  C   UNL A   1      42.903  24.835  28.037  1.00  0.00     0.031 A 
ATOM     38  C   UNL A   1      41.854  25.888  28.289  1.00  0.00     0.074 A 
ATOM     39  C   UNL A   1      44.201  25.123  28.255  1.00  0.00     0.049 A 
ATOM     40  N   UNL A   1      42.002  27.116  28.721  1.00  0.00    -0.248 NA
ATOM     41  C   UNL A   1      40.459  25.522  27.994  1.00  0.00     0.031 C 
ATOM     42  C   UNL A   1      45.325  24.216  28.015  1.00  0.00     0.029 A 
ATOM     43  N   UNL A   1      44.793  26.267  28.732  1.00  0.00    -0.354 N 
ATOM     44  C   UNL A   1      40.727  27.671  28.728  1.00  0.00     0.074 A 
ATOM     45  C   UNL A   1      39.826  26.665  28.212  1.00  0.00     0.031 C 
ATOM     46  C   UNL A   1      46.466  24.826  28.374  1.00  0.00     0.029 A 
ATOM     47  C   UNL A   1      46.159  26.174  28.841  1.00  0.00     0.049 A 
ATOM     48  H   UNL A   1      44.287  27.076  28.972  1.00  0.00     0.167 HD
ATOM     49  C   UNL A   1      40.333  28.897  29.148  1.00  0.00     0.031 A 
ATOM     50  C   UNL A   1      47.066  27.073  29.272  1.00  0.00     0.031 A 
ATOM     51  C   UNL A   1      41.217  29.897  29.682  1.00  0.00     0.049 A 
ATOM     52  C   UNL A   1      46.604  28.420  29.749  1.00  0.00     0.074 A 
ATOM     53  C   UNL A   1      40.904  31.150  30.182  1.00  0.00     0.029 A 
ATOM     54  N   UNL A   1      42.592  29.755  29.791  1.00  0.00    -0.354 N 
ATOM     55  N   UNL A   1      45.388  28.903  29.805  1.00  0.00    -0.248 NA
ATOM     56  C   UNL A   1      47.643  29.338  30.238  1.00  0.00     0.031 C 
ATOM     57  C   UNL A   1      42.095  31.780  30.559  1.00  0.00     0.029 A 
ATOM     58  C   UNL A   1      43.144  30.902  30.335  1.00  0.00     0.049 A 
ATOM     59  H   UNL A   1      43.101  28.957  29.520  1.00  0.00     0.167 HD
ATOM     60  C   UNL A   1      45.511  30.175  30.351  1.00  0.00     0.074 A 
ATOM     61  C   UNL A   1      46.919  30.379  30.628  1.00  0.00     0.031 C 
ATOM     62  C   UNL A   1      44.545  31.092  30.599  1.00  0.00     0.031 A 
BRANCH  49  63
ATOM     63  C   UNL A   1      38.869  29.223  29.040  1.00  0.00    -0.014 A 
ATOM     64  C   UNL A   1      38.317  29.692  27.838  1.00  0.00     0.009 A 
ATOM     65  C   UNL A   1      38.027  29.039  30.148  1.00  0.00     0.009 A 
ATOM     66  C   UNL A   1      36.959  30.008  27.758  1.00  0.00     0.001 A 
ATOM     67  C   UNL A   1      36.664  29.330  30.057  1.00  0.00     0.001 A 
ATOM     68  C   UNL A   1      36.134  29.824  28.867  1.00  0.00     0.000 A 
ENDBRANCH  49  63
BRANCH  50  69
ATOM     69  C   UNL A   1      48.507  26.714  29.294  1.00  0.00    -0.014 A 
ATOM     70  C   UNL A   1      49.057  26.051  30.401  1.00  0.00     0.009 A 
ATOM     71  C   UNL A   1      49.338  27.031  28.208  1.00  0.00     0.009 A 
ATOM     72  C   UNL A   1      50.417  25.731  30.429  1.00  0.00     0.001 A 
ATOM     73  C   UNL A   1      50.691  26.686  28.229  1.00  0.00     0.001 A 
ATOM     74  C   UNL A   1      51.231  26.044  29.342  1.00  0.00     0.000 A 
ENDBRANCH  50  69
BRANCH  62  75
ATOM     75  C   UNL A   1      44.978  32.390  31.220  1.00  0.00    -0.014 A 
ATOM     76  C   UNL A   1      44.966  32.569  32.612  1.00  0.00     0.009 A 
ATOM     77  C   UNL A   1      45.432  33.436  30.402  1.00  0.00     0.009 A 
ATOM     78  C   UNL A   1      45.366  33.783  33.170  1.00  0.00     0.001 A 
ATOM     79  C   UNL A   1      45.856  34.640  30.965  1.00  0.00     0.001 A 
ATOM     80  C   UNL A   1      45.813  34.817  32.347  1.00  0.00     0.000 A 
ENDBRANCH  62  75
ENDBRANCH  36  37
ENDBRANCH  28  31
ENDBRANCH  26  27
ENDBRANCH  25  26
ENDBRANCH   1  25
TORSDOF 13
ENDMDL
