MODEL 1
REMARK VINA RESULT:     -10.7      0.000      0.000
REMARK SMILES Cc1cc(Br)cnc1Sc1nc(CC(=O)NCCCNC(=O)c2ccc(-c3c4nc(c(-c5ccccc5)c5ccc([nH]5)c(-c5ccccc5)c5nc(c(-c6ccccc6)c6ccc3[nH]6)C=C5)C=C4)cc2)cs1
REMARK SMILES IDX 17 1 16 2 14 3 15 4 13 6 12 7 10 8 11 9 72 10 71 11 9 12
REMARK SMILES IDX 8 13 1 14 2 15 3 16 4 17 7 18 5 19 6 20 18 21 19 22 20 23
REMARK SMILES IDX 21 24 22 26 23 27 24 28 70 29 25 30 69 31 26 32 27 33 28 34
REMARK SMILES IDX 63 35 29 36 68 37 62 38 64 39 30 40 67 41 61 42 60 43 31 45
REMARK SMILES IDX 53 46 38 47 52 48 39 49 42 50 51 51 65 52 40 53 41 54 50 56
REMARK SMILES IDX 66 57 43 58 32 59 33 60 37 61 34 62 36 63 35 64 54 65 55 66
REMARK SMILES IDX 59 67 56 68 58 69 57 70 44 71 45 72 49 73 46 74 48 75 47 76
REMARK H PARENT 16 5 20 25 64 44 42 55
REMARK Flexibility Score: inf
ROOT
ATOM      1  C   UNL A   1      37.099  20.798  25.006  1.00  0.00     0.117 C 
ENDROOT
BRANCH   1   2
ATOM      2  N   UNL A   1      37.377  21.907  25.903  1.00  0.00    -0.356 N 
ATOM      3  C   UNL A   1      37.206  23.243  25.678  1.00  0.00     0.226 C 
ATOM      4  O   UNL A   1      37.607  24.041  26.529  1.00  0.00    -0.275 OA
ATOM      5  H   UNL A   1      37.735  21.664  26.787  1.00  0.00     0.163 HD
BRANCH   3   6
ATOM      6  C   UNL A   1      36.518  23.716  24.415  1.00  0.00     0.157 C 
BRANCH   6   7
ATOM      7  C   UNL A   1      35.066  23.972  24.628  1.00  0.00     0.062 A 
ATOM      8  C   UNL A   1      32.998  23.299  25.070  1.00  0.00     0.156 A 
ATOM      9  N   UNL A   1      34.218  22.884  24.813  1.00  0.00    -0.234 NA
ATOM     10  S   UNL A   1      32.768  25.000  24.983  1.00  0.00    -0.116 S 
ATOM     11  C   UNL A   1      34.441  25.204  24.686  1.00  0.00     0.092 A 
BRANCH   8  12
ATOM     12  S   UNL A   1      31.671  22.228  25.376  1.00  0.00    -0.039 SA
BRANCH  12  13
ATOM     13  C   UNL A   1      32.105  20.638  24.708  1.00  0.00     0.106 A 
ATOM     14  C   UNL A   1      31.951  21.011  22.149  1.00  0.00     0.047 C 
ATOM     15  C   UNL A   1      32.240  20.205  23.379  1.00  0.00    -0.017 A 
ATOM     16  C   UNL A   1      32.665  18.875  23.151  1.00  0.00     0.023 A 
ATOM     17  C   UNL A   1      32.985  18.040  24.208  1.00  0.00     0.036 A 
ATOM     18  N   UNL A   1      32.419  19.798  25.739  1.00  0.00    -0.248 NA
ATOM     19  Br  UNL A   1      33.598  16.286  23.907  1.00  0.00    -0.049 Br
ATOM     20  C   UNL A   1      32.851  18.543  25.480  1.00  0.00     0.128 A 
ENDBRANCH  12  13
ENDBRANCH   8  12
ENDBRANCH   6   7
ENDBRANCH   3   6
ENDBRANCH   1   2
BRANCH   1  21
ATOM     21  C   UNL A   1      38.254  19.802  24.947  1.00  0.00     0.042 C 
BRANCH  21  22
ATOM     22  C   UNL A   1      39.234  19.903  26.111  1.00  0.00     0.118 C 
BRANCH  22  23
ATOM     23  N   UNL A   1      40.480  19.198  25.859  1.00  0.00    -0.352 N 
ATOM     24  C   UNL A   1      41.773  19.646  25.901  1.00  0.00     0.251 C 
ATOM     25  H   UNL A   1      40.378  18.248  25.620  1.00  0.00     0.163 HD
ATOM     26  O   UNL A   1      42.673  18.914  25.481  1.00  0.00    -0.269 OA
BRANCH  24  27
ATOM     27  C   UNL A   1      42.113  20.984  26.433  1.00  0.00     0.039 A 
ATOM     28  C   UNL A   1      42.063  21.182  27.818  1.00  0.00     0.014 A 
ATOM     29  C   UNL A   1      42.406  22.061  25.591  1.00  0.00     0.014 A 
ATOM     30  C   UNL A   1      42.324  22.443  28.356  1.00  0.00     0.010 A 
ATOM     31  C   UNL A   1      42.735  23.303  26.133  1.00  0.00     0.010 A 
ATOM     32  C   UNL A   1      42.674  23.513  27.518  1.00  0.00    -0.014 A 
BRANCH  32  33
ATOM     33  C   UNL A   1      42.920  24.870  28.071  1.00  0.00     0.031 A 
ATOM     34  C   UNL A   1      44.313  25.276  28.474  1.00  0.00     0.074 A 
ATOM     35  C   UNL A   1      41.895  25.726  28.242  1.00  0.00     0.049 A 
ATOM     36  N   UNL A   1      44.725  26.395  29.015  1.00  0.00    -0.248 NA
ATOM     37  C   UNL A   1      45.381  24.285  28.259  1.00  0.00     0.031 C 
ATOM     38  C   UNL A   1      40.495  25.449  27.916  1.00  0.00     0.029 A 
ATOM     39  N   UNL A   1      41.876  27.006  28.737  1.00  0.00    -0.354 N 
ATOM     40  C   UNL A   1      46.089  26.233  29.225  1.00  0.00     0.074 A 
ATOM     41  C   UNL A   1      46.428  24.894  28.795  1.00  0.00     0.031 C 
ATOM     42  C   UNL A   1      39.758  26.538  28.193  1.00  0.00     0.029 A 
ATOM     43  C   UNL A   1      40.626  27.573  28.748  1.00  0.00     0.049 A 
ATOM     44  H   UNL A   1      42.682  27.472  29.054  1.00  0.00     0.167 HD
ATOM     45  C   UNL A   1      46.986  27.124  29.712  1.00  0.00     0.031 A 
ATOM     46  C   UNL A   1      40.223  28.791  29.156  1.00  0.00     0.031 A 
ATOM     47  C   UNL A   1      46.658  28.463  30.121  1.00  0.00     0.049 A 
ATOM     48  C   UNL A   1      41.239  29.762  29.690  1.00  0.00     0.074 A 
ATOM     49  C   UNL A   1      47.505  29.453  30.592  1.00  0.00     0.029 A 
ATOM     50  N   UNL A   1      45.382  29.002  30.099  1.00  0.00    -0.354 N 
ATOM     51  N   UNL A   1      42.532  29.608  29.840  1.00  0.00    -0.248 NA
ATOM     52  C   UNL A   1      40.738  31.084  30.096  1.00  0.00     0.031 C 
ATOM     53  C   UNL A   1      46.733  30.582  30.887  1.00  0.00     0.029 A 
ATOM     54  C   UNL A   1      45.415  30.309  30.554  1.00  0.00     0.049 A 
ATOM     55  H   UNL A   1      44.573  28.526  29.803  1.00  0.00     0.167 HD
ATOM     56  C   UNL A   1      43.004  30.822  30.324  1.00  0.00     0.074 A 
ATOM     57  C   UNL A   1      41.860  31.704  30.432  1.00  0.00     0.031 C 
ATOM     58  C   UNL A   1      44.271  31.177  30.644  1.00  0.00     0.031 A 
BRANCH  45  59
ATOM     59  C   UNL A   1      48.414  26.669  29.830  1.00  0.00    -0.014 A 
ATOM     60  C   UNL A   1      48.864  25.976  30.966  1.00  0.00     0.009 A 
ATOM     61  C   UNL A   1      49.316  26.915  28.783  1.00  0.00     0.009 A 
ATOM     62  C   UNL A   1      50.197  25.572  31.066  1.00  0.00     0.001 A 
ATOM     63  C   UNL A   1      50.640  26.485  28.874  1.00  0.00     0.001 A 
ATOM     64  C   UNL A   1      51.083  25.823  30.018  1.00  0.00     0.000 A 
ENDBRANCH  45  59
BRANCH  46  65
ATOM     65  C   UNL A   1      38.793  29.178  29.049  1.00  0.00    -0.014 A 
ATOM     66  C   UNL A   1      37.939  29.047  30.155  1.00  0.00     0.009 A 
ATOM     67  C   UNL A   1      38.273  29.667  27.842  1.00  0.00     0.009 A 
ATOM     68  C   UNL A   1      36.585  29.371  30.046  1.00  0.00     0.001 A 
ATOM     69  C   UNL A   1      36.923  30.015  27.743  1.00  0.00     0.001 A 
ATOM     70  C   UNL A   1      36.079  29.857  28.842  1.00  0.00     0.000 A 
ENDBRANCH  46  65
BRANCH  58  71
ATOM     71  C   UNL A   1      44.497  32.593  31.091  1.00  0.00    -0.014 A 
ATOM     72  C   UNL A   1      44.373  32.963  32.439  1.00  0.00     0.009 A 
ATOM     73  C   UNL A   1      44.874  33.562  30.149  1.00  0.00     0.009 A 
ATOM     74  C   UNL A   1      44.589  34.286  32.828  1.00  0.00     0.001 A 
ATOM     75  C   UNL A   1      45.116  34.878  30.546  1.00  0.00     0.001 A 
ATOM     76  C   UNL A   1      44.964  35.240  31.883  1.00  0.00     0.000 A 
ENDBRANCH  58  71
ENDBRANCH  32  33
ENDBRANCH  24  27
ENDBRANCH  22  23
ENDBRANCH  21  22
ENDBRANCH   1  21
TORSDOF 13
ENDMDL
MODEL 2
REMARK VINA RESULT:     -10.7      2.317      3.407
REMARK SMILES Cc1cc(Br)cnc1Sc1nc(CC(=O)NCCCNC(=O)c2ccc(-c3c4nc(c(-c5ccccc5)c5ccc([nH]5)c(-c5ccccc5)c5nc(c(-c6ccccc6)c6ccc3[nH]6)C=C5)C=C4)cc2)cs1
REMARK SMILES IDX 17 1 16 2 14 3 15 4 13 6 12 7 10 8 11 9 72 10 71 11 9 12
REMARK SMILES IDX 8 13 1 14 2 15 3 16 4 17 7 18 5 19 6 20 18 21 19 22 20 23
REMARK SMILES IDX 21 24 22 26 23 27 24 28 70 29 25 30 69 31 26 32 27 33 28 34
REMARK SMILES IDX 63 35 29 36 68 37 62 38 64 39 30 40 67 41 61 42 60 43 31 45
REMARK SMILES IDX 53 46 38 47 52 48 39 49 42 50 51 51 65 52 40 53 41 54 50 56
REMARK SMILES IDX 66 57 43 58 32 59 33 60 37 61 34 62 36 63 35 64 54 65 55 66
REMARK SMILES IDX 59 67 56 68 58 69 57 70 44 71 45 72 49 73 46 74 48 75 47 76
REMARK H PARENT 16 5 20 25 64 44 42 55
REMARK Flexibility Score: inf
ROOT
ATOM      1  C   UNL A   1      36.358  20.263  24.964  1.00  0.00     0.117 C 
ENDROOT
BRANCH   1   2
ATOM      2  N   UNL A   1      36.558  21.602  25.493  1.00  0.00    -0.356 N 
ATOM      3  C   UNL A   1      36.522  22.792  24.824  1.00  0.00     0.226 C 
ATOM      4  O   UNL A   1      36.829  23.819  25.431  1.00  0.00    -0.275 OA
ATOM      5  H   UNL A   1      36.742  21.658  26.458  1.00  0.00     0.163 HD
BRANCH   3   6
ATOM      6  C   UNL A   1      36.093  22.831  23.372  1.00  0.00     0.157 C 
BRANCH   6   7
ATOM      7  C   UNL A   1      34.656  23.195  23.220  1.00  0.00     0.062 A 
ATOM      8  C   UNL A   1      33.035  24.562  22.565  1.00  0.00     0.156 A 
ATOM      9  N   UNL A   1      34.337  24.449  22.709  1.00  0.00    -0.234 NA
ATOM     10  S   UNL A   1      32.115  23.233  23.148  1.00  0.00    -0.116 S 
ATOM     11  C   UNL A   1      33.564  22.401  23.519  1.00  0.00     0.092 A 
BRANCH   8  12
ATOM     12  S   UNL A   1      32.265  25.979  21.935  1.00  0.00    -0.039 SA
BRANCH  12  13
ATOM     13  C   UNL A   1      32.051  27.115  23.286  1.00  0.00     0.106 A 
ATOM     14  C   UNL A   1      29.979  26.174  24.524  1.00  0.00     0.047 C 
ATOM     15  C   UNL A   1      31.121  27.127  24.339  1.00  0.00    -0.017 A 
ATOM     16  C   UNL A   1      31.236  28.141  25.318  1.00  0.00     0.023 A 
ATOM     17  C   UNL A   1      32.265  29.066  25.267  1.00  0.00     0.036 A 
ATOM     18  N   UNL A   1      33.057  28.040  23.249  1.00  0.00    -0.248 NA
ATOM     19  Br  UNL A   1      32.449  30.386  26.596  1.00  0.00    -0.049 Br
ATOM     20  C   UNL A   1      33.151  28.975  24.221  1.00  0.00     0.128 A 
ENDBRANCH  12  13
ENDBRANCH   8  12
ENDBRANCH   6   7
ENDBRANCH   3   6
ENDBRANCH   1   2
BRANCH   1  21
ATOM     21  C   UNL A   1      37.659  19.465  24.911  1.00  0.00     0.042 C 
BRANCH  21  22
ATOM     22  C   UNL A   1      38.849  20.156  25.567  1.00  0.00     0.118 C 
BRANCH  22  23
ATOM     23  N   UNL A   1      39.999  19.278  25.708  1.00  0.00    -0.352 N 
ATOM     24  C   UNL A   1      41.290  19.563  26.067  1.00  0.00     0.251 C 
ATOM     25  H   UNL A   1      39.823  18.329  25.515  1.00  0.00     0.163 HD
ATOM     26  O   UNL A   1      42.149  18.685  25.956  1.00  0.00    -0.269 OA
BRANCH  24  27
ATOM     27  C   UNL A   1      41.676  20.896  26.579  1.00  0.00     0.039 A 
ATOM     28  C   UNL A   1      41.533  21.149  27.949  1.00  0.00     0.014 A 
ATOM     29  C   UNL A   1      42.101  21.920  25.728  1.00  0.00     0.014 A 
ATOM     30  C   UNL A   1      41.835  22.411  28.464  1.00  0.00     0.010 A 
ATOM     31  C   UNL A   1      42.470  23.158  26.253  1.00  0.00     0.010 A 
ATOM     32  C   UNL A   1      42.317  23.424  27.622  1.00  0.00    -0.014 A 
BRANCH  32  33
ATOM     33  C   UNL A   1      42.609  24.782  28.147  1.00  0.00     0.031 A 
ATOM     34  C   UNL A   1      44.016  25.150  28.539  1.00  0.00     0.074 A 
ATOM     35  C   UNL A   1      41.614  25.675  28.302  1.00  0.00     0.049 A 
ATOM     36  N   UNL A   1      44.466  26.265  29.058  1.00  0.00    -0.248 NA
ATOM     37  C   UNL A   1      45.050  24.120  28.343  1.00  0.00     0.031 C 
ATOM     38  C   UNL A   1      40.205  25.439  27.984  1.00  0.00     0.029 A 
ATOM     39  N   UNL A   1      41.638  26.965  28.772  1.00  0.00    -0.354 N 
ATOM     40  C   UNL A   1      45.825  26.062  29.268  1.00  0.00     0.074 A 
ATOM     41  C   UNL A   1      46.118  24.705  28.865  1.00  0.00     0.031 C 
ATOM     42  C   UNL A   1      39.504  26.557  28.240  1.00  0.00     0.029 A 
ATOM     43  C   UNL A   1      40.407  27.573  28.773  1.00  0.00     0.049 A 
ATOM     44  H   UNL A   1      42.460  27.411  29.079  1.00  0.00     0.167 HD
ATOM     45  C   UNL A   1      46.752  26.932  29.737  1.00  0.00     0.031 A 
ATOM     46  C   UNL A   1      40.046  28.811  29.158  1.00  0.00     0.031 A 
ATOM     47  C   UNL A   1      46.469  28.290  30.119  1.00  0.00     0.049 A 
ATOM     48  C   UNL A   1      41.095  29.759  29.671  1.00  0.00     0.074 A 
ATOM     49  C   UNL A   1      47.349  29.260  30.569  1.00  0.00     0.029 A 
ATOM     50  N   UNL A   1      45.212  28.870  30.088  1.00  0.00    -0.354 N 
ATOM     51  N   UNL A   1      42.382  29.565  29.822  1.00  0.00    -0.248 NA
ATOM     52  C   UNL A   1      40.639  31.105  30.051  1.00  0.00     0.031 C 
ATOM     53  C   UNL A   1      46.615  30.420  30.843  1.00  0.00     0.029 A 
ATOM     54  C   UNL A   1      45.289  30.184  30.517  1.00  0.00     0.049 A 
ATOM     55  H   UNL A   1      44.386  28.416  29.803  1.00  0.00     0.167 HD
ATOM     56  C   UNL A   1      42.895  30.773  30.280  1.00  0.00     0.074 A 
ATOM     57  C   UNL A   1      41.781  31.694  30.373  1.00  0.00     0.031 C 
ATOM     58  C   UNL A   1      44.174  31.091  30.592  1.00  0.00     0.031 A 
BRANCH  45  59
ATOM     59  C   UNL A   1      48.164  26.433  29.861  1.00  0.00    -0.014 A 
ATOM     60  C   UNL A   1      49.083  26.588  28.811  1.00  0.00     0.009 A 
ATOM     61  C   UNL A   1      48.589  25.822  31.052  1.00  0.00     0.009 A 
ATOM     62  C   UNL A   1      50.389  26.106  28.937  1.00  0.00     0.001 A 
ATOM     63  C   UNL A   1      49.901  25.368  31.185  1.00  0.00     0.001 A 
ATOM     64  C   UNL A   1      50.797  25.500  30.125  1.00  0.00     0.000 A 
ENDBRANCH  45  59
BRANCH  46  65
ATOM     65  C   UNL A   1      38.630  29.244  29.045  1.00  0.00    -0.014 A 
ATOM     66  C   UNL A   1      37.766  29.134  30.146  1.00  0.00     0.009 A 
ATOM     67  C   UNL A   1      38.131  29.755  27.838  1.00  0.00     0.009 A 
ATOM     68  C   UNL A   1      36.423  29.500  30.031  1.00  0.00     0.001 A 
ATOM     69  C   UNL A   1      36.794  30.146  27.734  1.00  0.00     0.001 A 
ATOM     70  C   UNL A   1      35.940  30.009  28.827  1.00  0.00     0.000 A 
ENDBRANCH  46  65
BRANCH  58  71
ATOM     71  C   UNL A   1      44.448  32.507  31.010  1.00  0.00    -0.014 A 
ATOM     72  C   UNL A   1      44.412  32.891  32.360  1.00  0.00     0.009 A 
ATOM     73  C   UNL A   1      44.780  33.463  30.037  1.00  0.00     0.009 A 
ATOM     74  C   UNL A   1      44.672  34.214  32.722  1.00  0.00     0.001 A 
ATOM     75  C   UNL A   1      45.066  34.778  30.406  1.00  0.00     0.001 A 
ATOM     76  C   UNL A   1      45.002  35.154  31.746  1.00  0.00     0.000 A 
ENDBRANCH  58  71
ENDBRANCH  32  33
ENDBRANCH  24  27
ENDBRANCH  22  23
ENDBRANCH  21  22
ENDBRANCH   1  21
TORSDOF 13
ENDMDL
MODEL 3
REMARK VINA RESULT:     -10.6      0.388      6.079
REMARK SMILES Cc1cc(Br)cnc1Sc1nc(CC(=O)NCCCNC(=O)c2ccc(-c3c4nc(c(-c5ccccc5)c5ccc([nH]5)c(-c5ccccc5)c5nc(c(-c6ccccc6)c6ccc3[nH]6)C=C5)C=C4)cc2)cs1
REMARK SMILES IDX 17 1 16 2 14 3 15 4 13 6 12 7 10 8 11 9 72 10 71 11 9 12
REMARK SMILES IDX 8 13 1 14 2 15 3 16 4 17 7 18 5 19 6 20 18 21 19 22 20 23
REMARK SMILES IDX 21 24 22 26 23 27 24 28 70 29 25 30 69 31 26 32 27 33 28 34
REMARK SMILES IDX 63 35 29 36 68 37 62 38 64 39 30 40 67 41 61 42 60 43 31 45
REMARK SMILES IDX 53 46 38 47 52 48 39 49 42 50 51 51 65 52 40 53 41 54 50 56
REMARK SMILES IDX 66 57 43 58 32 59 33 60 37 61 34 62 36 63 35 64 54 65 55 66
REMARK SMILES IDX 59 67 56 68 58 69 57 70 44 71 45 72 49 73 46 74 48 75 47 76
REMARK H PARENT 16 5 20 25 64 44 42 55
REMARK Flexibility Score: inf
ROOT
ATOM      1  C   UNL A   1      37.100  20.789  24.955  1.00  0.00     0.117 C 
ENDROOT
BRANCH   1   2
ATOM      2  N   UNL A   1      37.378  21.883  25.871  1.00  0.00    -0.356 N 
ATOM      3  C   UNL A   1      37.224  23.224  25.661  1.00  0.00     0.226 C 
ATOM      4  O   UNL A   1      37.622  24.006  26.527  1.00  0.00    -0.275 OA
ATOM      5  H   UNL A   1      37.720  21.624  26.756  1.00  0.00     0.163 HD
BRANCH   3   6
ATOM      6  C   UNL A   1      36.560  23.721  24.395  1.00  0.00     0.157 C 
BRANCH   6   7
ATOM      7  C   UNL A   1      35.102  23.965  24.584  1.00  0.00     0.062 A 
ATOM      8  C   UNL A   1      33.043  23.287  25.060  1.00  0.00     0.156 A 
ATOM      9  N   UNL A   1      34.272  22.877  24.837  1.00  0.00    -0.234 NA
ATOM     10  S   UNL A   1      32.785  24.974  24.858  1.00  0.00    -0.116 S 
ATOM     11  C   UNL A   1      34.456  25.187  24.556  1.00  0.00     0.092 A 
BRANCH   8  12
ATOM     12  S   UNL A   1      31.734  22.216  25.431  1.00  0.00    -0.039 SA
BRANCH  12  13
ATOM     13  C   UNL A   1      32.135  20.626  24.744  1.00  0.00     0.106 A 
ATOM     14  C   UNL A   1      31.952  21.023  22.191  1.00  0.00     0.047 C 
ATOM     15  C   UNL A   1      32.246  20.202  23.410  1.00  0.00    -0.017 A 
ATOM     16  C   UNL A   1      32.648  18.868  23.166  1.00  0.00     0.023 A 
ATOM     17  C   UNL A   1      32.970  18.020  24.211  1.00  0.00     0.036 A 
ATOM     18  N   UNL A   1      32.451  19.772  25.764  1.00  0.00    -0.248 NA
ATOM     19  Br  UNL A   1      33.553  16.259  23.887  1.00  0.00    -0.049 Br
ATOM     20  C   UNL A   1      32.861  18.514  25.489  1.00  0.00     0.128 A 
ENDBRANCH  12  13
ENDBRANCH   8  12
ENDBRANCH   6   7
ENDBRANCH   3   6
ENDBRANCH   1   2
BRANCH   1  21
ATOM     21  C   UNL A   1      38.241  19.775  24.906  1.00  0.00     0.042 C 
BRANCH  21  22
ATOM     22  C   UNL A   1      39.165  19.808  26.119  1.00  0.00     0.118 C 
BRANCH  22  23
ATOM     23  N   UNL A   1      40.434  19.143  25.875  1.00  0.00    -0.352 N 
ATOM     24  C   UNL A   1      41.713  19.628  25.944  1.00  0.00     0.251 C 
ATOM     25  H   UNL A   1      40.364  18.195  25.619  1.00  0.00     0.163 HD
ATOM     26  O   UNL A   1      42.641  18.929  25.527  1.00  0.00    -0.269 OA
BRANCH  24  27
ATOM     27  C   UNL A   1      42.007  20.966  26.503  1.00  0.00     0.039 A 
ATOM     28  C   UNL A   1      42.296  22.008  25.615  1.00  0.00     0.014 A 
ATOM     29  C   UNL A   1      42.077  21.191  27.881  1.00  0.00     0.014 A 
ATOM     30  C   UNL A   1      42.632  23.273  26.103  1.00  0.00     0.010 A 
ATOM     31  C   UNL A   1      42.342  22.471  28.367  1.00  0.00     0.010 A 
ATOM     32  C   UNL A   1      42.647  23.518  27.485  1.00  0.00    -0.014 A 
BRANCH  32  33
ATOM     33  C   UNL A   1      43.036  24.847  28.022  1.00  0.00     0.031 A 
ATOM     34  C   UNL A   1      41.982  25.890  28.285  1.00  0.00     0.074 A 
ATOM     35  C   UNL A   1      44.333  25.132  28.245  1.00  0.00     0.049 A 
ATOM     36  N   UNL A   1      42.123  27.120  28.709  1.00  0.00    -0.248 NA
ATOM     37  C   UNL A   1      40.586  25.505  28.015  1.00  0.00     0.031 C 
ATOM     38  C   UNL A   1      45.455  24.221  28.011  1.00  0.00     0.029 A 
ATOM     39  N   UNL A   1      44.925  26.276  28.719  1.00  0.00    -0.354 N 
ATOM     40  C   UNL A   1      40.842  27.660  28.735  1.00  0.00     0.074 A 
ATOM     41  C   UNL A   1      39.943  26.640  28.241  1.00  0.00     0.031 C 
ATOM     42  C   UNL A   1      46.597  24.832  28.369  1.00  0.00     0.029 A 
ATOM     43  C   UNL A   1      46.291  26.186  28.823  1.00  0.00     0.049 A 
ATOM     44  H   UNL A   1      44.418  27.084  28.962  1.00  0.00     0.167 HD
ATOM     45  C   UNL A   1      40.444  28.887  29.150  1.00  0.00     0.031 A 
ATOM     46  C   UNL A   1      47.196  27.090  29.240  1.00  0.00     0.031 A 
ATOM     47  C   UNL A   1      41.331  29.896  29.662  1.00  0.00     0.049 A 
ATOM     48  C   UNL A   1      46.729  28.444  29.699  1.00  0.00     0.074 A 
ATOM     49  C   UNL A   1      41.018  31.156  30.143  1.00  0.00     0.029 A 
ATOM     50  N   UNL A   1      42.706  29.757  29.766  1.00  0.00    -0.354 N 
ATOM     51  N   UNL A   1      45.510  28.922  29.758  1.00  0.00    -0.248 NA
ATOM     52  C   UNL A   1      47.766  29.377  30.165  1.00  0.00     0.031 C 
ATOM     53  C   UNL A   1      42.210  31.792  30.508  1.00  0.00     0.029 A 
ATOM     54  C   UNL A   1      43.258  30.910  30.297  1.00  0.00     0.049 A 
ATOM     55  H   UNL A   1      43.214  28.956  29.501  1.00  0.00     0.167 HD
ATOM     56  C   UNL A   1      45.629  30.196  30.299  1.00  0.00     0.074 A 
ATOM     57  C   UNL A   1      47.037  30.411  30.560  1.00  0.00     0.031 C 
ATOM     58  C   UNL A   1      44.659  31.103  30.561  1.00  0.00     0.031 A 
BRANCH  45  59
ATOM     59  C   UNL A   1      38.977  29.201  29.064  1.00  0.00    -0.014 A 
ATOM     60  C   UNL A   1      38.404  29.667  27.869  1.00  0.00     0.009 A 
ATOM     61  C   UNL A   1      38.152  29.005  30.182  1.00  0.00     0.009 A 
ATOM     62  C   UNL A   1      37.041  29.967  27.809  1.00  0.00     0.001 A 
ATOM     63  C   UNL A   1      36.786  29.279  30.110  1.00  0.00     0.001 A 
ATOM     64  C   UNL A   1      36.233  29.769  28.928  1.00  0.00     0.000 A 
ENDBRANCH  45  59
BRANCH  46  65
ATOM     65  C   UNL A   1      48.640  26.740  29.274  1.00  0.00    -0.014 A 
ATOM     66  C   UNL A   1      49.197  26.142  30.416  1.00  0.00     0.009 A 
ATOM     67  C   UNL A   1      49.468  27.012  28.176  1.00  0.00     0.009 A 
ATOM     68  C   UNL A   1      50.561  25.850  30.466  1.00  0.00     0.001 A 
ATOM     69  C   UNL A   1      50.828  26.695  28.220  1.00  0.00     0.001 A 
ATOM     70  C   UNL A   1      51.375  26.124  29.369  1.00  0.00     0.000 A 
ENDBRANCH  46  65
BRANCH  58  71
ATOM     71  C   UNL A   1      45.079  32.391  31.211  1.00  0.00    -0.014 A 
ATOM     72  C   UNL A   1      45.426  33.516  30.447  1.00  0.00     0.009 A 
ATOM     73  C   UNL A   1      45.094  32.486  32.611  1.00  0.00     0.009 A 
ATOM     74  C   UNL A   1      45.812  34.701  31.075  1.00  0.00     0.001 A 
ATOM     75  C   UNL A   1      45.454  33.680  33.235  1.00  0.00     0.001 A 
ATOM     76  C   UNL A   1      45.822  34.784  32.467  1.00  0.00     0.000 A 
ENDBRANCH  58  71
ENDBRANCH  32  33
ENDBRANCH  24  27
ENDBRANCH  22  23
ENDBRANCH  21  22
ENDBRANCH   1  21
TORSDOF 13
ENDMDL
