MODEL 1
REMARK VINA RESULT:     -12.0      0.000      0.000
REMARK SMILES O=C(CCCN1C(=O)C(=O)/C(=C(/[O-])c2ccc(Cl)cc2)[C@@H]1c1ccccc1[N+](=O)[O-])NCCCNC(=O)c1ccc(-c2c3nc(c(-c4ccccc4)c4ccc([nH]4)c(-c4ccccc4)c4nc(c(-c5ccccc5)c5ccc2[nH]5)C=C4)C=C3)cc1
REMARK SMILES IDX 1 1 2 2 31 3 3 5 4 6 5 7 6 8 7 9 21 10 8 11 9 12 11 13 10 14
REMARK SMILES IDX 12 15 13 16 22 17 23 18 27 19 24 20 26 21 25 22 28 23 29 24
REMARK SMILES IDX 30 25 14 26 15 27 20 28 16 29 19 30 17 31 18 32 32 33 33 34
REMARK SMILES IDX 34 35 35 36 36 37 37 39 38 40 39 41 85 42 40 43 84 44 41 45
REMARK SMILES IDX 42 46 43 47 78 48 44 49 83 50 77 51 79 52 45 53 82 54 76 55
REMARK SMILES IDX 75 56 46 58 68 59 53 60 67 61 54 62 57 63 66 64 80 65 55 66
REMARK SMILES IDX 56 67 65 69 81 70 58 71 47 72 48 73 52 74 49 75 51 76 50 77
REMARK SMILES IDX 69 78 70 79 74 80 71 81 73 82 72 83 59 84 60 85 64 86 61 87
REMARK SMILES IDX 63 88 62 89
REMARK H PARENT 31 4 35 38 79 57 57 68
REMARK Flexibility Score: inf
ROOT
ATOM      1  O   UNL A   1      31.049  28.444  23.404  1.00  0.00    -0.275 OA
ATOM      2  C   UNL A   1      32.162  28.948  23.505  1.00  0.00     0.220 C 
ATOM      3  N   UNL A   1      32.552  29.739  24.579  1.00  0.00    -0.356 N 
ATOM      4  H   UNL A   1      33.508  29.943  24.701  1.00  0.00     0.163 HD
ENDROOT
BRANCH   2   5
ATOM      5  C   UNL A   1      33.260  28.734  22.463  1.00  0.00     0.102 C 
BRANCH   5   6
ATOM      6  C   UNL A   1      33.919  27.331  22.398  1.00  0.00     0.031 C 
BRANCH   6   7
ATOM      7  C   UNL A   1      33.237  26.102  21.693  1.00  0.00     0.121 C 
BRANCH   7   8
ATOM      8  N   UNL A   1      33.184  24.848  22.439  1.00  0.00    -0.324 N 
ATOM      9  C   UNL A   1      33.255  23.651  21.746  1.00  0.00     0.295 C 
ATOM     10  C   UNL A   1      33.492  24.648  23.891  1.00  0.00     0.157 C 
ATOM     11  O   UNL A   1      33.502  23.441  20.583  1.00  0.00    -0.265 OA
ATOM     12  C   UNL A   1      32.955  22.573  22.759  1.00  0.00     0.248 C 
ATOM     13  C   UNL A   1      33.401  23.122  24.060  1.00  0.00     0.025 C 
ATOM     14  O   UNL A   1      32.396  21.533  22.505  1.00  0.00    -0.283 OA
ATOM     15  C   UNL A   1      33.848  22.289  25.015  1.00  0.00    -0.092 C 
ATOM     16  O   UNL A   1      34.536  22.757  26.112  1.00  0.00    -0.872 OA
BRANCH  10  17
ATOM     17  C   UNL A   1      32.748  25.470  24.967  1.00  0.00     0.057 A 
ATOM     18  C   UNL A   1      33.486  26.322  25.816  1.00  0.00     0.013 A 
ATOM     19  C   UNL A   1      31.370  25.478  25.233  1.00  0.00     0.275 A 
ATOM     20  C   UNL A   1      32.895  27.060  26.861  1.00  0.00     0.001 A 
ATOM     21  C   UNL A   1      30.745  26.280  26.208  1.00  0.00     0.086 A 
ATOM     22  C   UNL A   1      31.521  27.054  27.047  1.00  0.00     0.007 A 
BRANCH  19  23
ATOM     23  N   UNL A   1      30.522  24.506  24.629  1.00  0.00     0.063 N 
ATOM     24  O   UNL A   1      30.011  24.787  23.539  1.00  0.00    -0.258 OA
ATOM     25  O   UNL A   1      30.370  23.466  25.280  1.00  0.00    -0.258 OA
ENDBRANCH  19  23
ENDBRANCH  10  17
BRANCH  15  26
ATOM     26  C   UNL A   1      33.759  20.816  24.956  1.00  0.00    -0.033 A 
ATOM     27  C   UNL A   1      32.550  20.162  25.231  1.00  0.00     0.009 A 
ATOM     28  C   UNL A   1      34.890  20.058  24.620  1.00  0.00     0.009 A 
ATOM     29  C   UNL A   1      32.480  18.767  25.197  1.00  0.00     0.021 A 
ATOM     30  C   UNL A   1      34.817  18.661  24.579  1.00  0.00     0.021 A 
ATOM     31  C   UNL A   1      33.612  18.022  24.873  1.00  0.00     0.041 A 
ATOM     32  Cl  UNL A   1      33.521  16.305  24.832  1.00  0.00    -0.084 Cl
ENDBRANCH  15  26
ENDBRANCH   7   8
ENDBRANCH   6   7
ENDBRANCH   5   6
ENDBRANCH   2   5
BRANCH   3  33
ATOM     33  C   UNL A   1      31.591  30.274  25.528  1.00  0.00     0.117 C 
BRANCH  33  34
ATOM     34  C   UNL A   1      32.127  30.460  26.958  1.00  0.00     0.042 C 
BRANCH  34  35
ATOM     35  C   UNL A   1      33.206  31.525  27.207  1.00  0.00     0.118 C 
BRANCH  35  36
ATOM     36  N   UNL A   1      32.703  32.860  27.512  1.00  0.00    -0.352 N 
ATOM     37  C   UNL A   1      33.252  33.841  28.313  1.00  0.00     0.251 C 
ATOM     38  H   UNL A   1      31.847  33.096  27.084  1.00  0.00     0.163 HD
ATOM     39  O   UNL A   1      32.631  34.882  28.517  1.00  0.00    -0.269 OA
BRANCH  37  40
ATOM     40  C   UNL A   1      34.561  33.639  28.980  1.00  0.00     0.039 A 
ATOM     41  C   UNL A   1      34.573  33.067  30.260  1.00  0.00     0.014 A 
ATOM     42  C   UNL A   1      35.769  33.971  28.363  1.00  0.00     0.014 A 
ATOM     43  C   UNL A   1      35.784  32.696  30.852  1.00  0.00     0.010 A 
ATOM     44  C   UNL A   1      36.977  33.560  28.933  1.00  0.00     0.010 A 
ATOM     45  C   UNL A   1      36.991  32.869  30.155  1.00  0.00    -0.014 A 
BRANCH  45  46
ATOM     46  C   UNL A   1      38.238  32.192  30.602  1.00  0.00     0.031 A 
ATOM     47  C   UNL A   1      39.191  32.845  31.558  1.00  0.00     0.074 A 
ATOM     48  C   UNL A   1      38.558  31.006  30.043  1.00  0.00     0.049 A 
ATOM     49  N   UNL A   1      40.363  32.426  31.966  1.00  0.00    -0.248 NA
ATOM     50  C   UNL A   1      38.785  34.142  32.118  1.00  0.00     0.031 C 
ATOM     51  C   UNL A   1      37.735  30.280  29.072  1.00  0.00     0.029 A 
ATOM     52  N   UNL A   1      39.667  30.211  30.196  1.00  0.00    -0.354 N 
ATOM     53  C   UNL A   1      40.840  33.407  32.824  1.00  0.00     0.074 A 
ATOM     54  C   UNL A   1      39.843  34.458  32.854  1.00  0.00     0.031 C 
ATOM     55  C   UNL A   1      38.361  29.146  28.724  1.00  0.00     0.029 A 
ATOM     56  C   UNL A   1      39.646  29.082  29.411  1.00  0.00     0.049 A 
ATOM     57  H   UNL A   1      40.407  30.428  30.808  1.00  0.00     0.167 HD
ATOM     58  C   UNL A   1      41.999  33.426  33.528  1.00  0.00     0.031 A 
ATOM     59  C   UNL A   1      40.562  28.109  29.245  1.00  0.00     0.031 A 
ATOM     60  C   UNL A   1      42.996  32.387  33.490  1.00  0.00     0.049 A 
ATOM     61  C   UNL A   1      41.851  28.172  30.011  1.00  0.00     0.074 A 
ATOM     62  C   UNL A   1      44.184  32.306  34.198  1.00  0.00     0.029 A 
ATOM     63  N   UNL A   1      42.930  31.254  32.695  1.00  0.00    -0.354 N 
ATOM     64  N   UNL A   1      42.256  29.077  30.867  1.00  0.00    -0.248 NA
ATOM     65  C   UNL A   1      42.804  27.073  29.796  1.00  0.00     0.031 C 
ATOM     66  C   UNL A   1      44.856  31.146  33.798  1.00  0.00     0.029 A 
ATOM     67  C   UNL A   1      44.063  30.479  32.878  1.00  0.00     0.049 A 
ATOM     68  H   UNL A   1      42.186  31.032  32.089  1.00  0.00     0.167 HD
ATOM     69  C   UNL A   1      43.495  28.642  31.317  1.00  0.00     0.074 A 
ATOM     70  C   UNL A   1      43.772  27.390  30.645  1.00  0.00     0.031 C 
ATOM     71  C   UNL A   1      44.324  29.229  32.213  1.00  0.00     0.031 A 
BRANCH  58  72
ATOM     72  C   UNL A   1      42.261  34.625  34.396  1.00  0.00    -0.014 A 
ATOM     73  C   UNL A   1      42.852  35.785  33.870  1.00  0.00     0.009 A 
ATOM     74  C   UNL A   1      41.868  34.615  35.743  1.00  0.00     0.009 A 
ATOM     75  C   UNL A   1      43.078  36.896  34.687  1.00  0.00     0.001 A 
ATOM     76  C   UNL A   1      42.071  35.735  36.550  1.00  0.00     0.001 A 
ATOM     77  C   UNL A   1      42.684  36.872  36.024  1.00  0.00     0.000 A 
ENDBRANCH  58  72
BRANCH  59  78
ATOM     78  C   UNL A   1      40.284  26.982  28.316  1.00  0.00    -0.014 A 
ATOM     79  C   UNL A   1      40.807  26.989  27.015  1.00  0.00     0.009 A 
ATOM     80  C   UNL A   1      39.501  25.892  28.729  1.00  0.00     0.009 A 
ATOM     81  C   UNL A   1      40.535  25.937  26.137  1.00  0.00     0.001 A 
ATOM     82  C   UNL A   1      39.253  24.829  27.858  1.00  0.00     0.001 A 
ATOM     83  C   UNL A   1      39.763  24.856  26.561  1.00  0.00     0.000 A 
ENDBRANCH  59  78
BRANCH  71  84
ATOM     84  C   UNL A   1      45.590  28.499  32.561  1.00  0.00    -0.014 A 
ATOM     85  C   UNL A   1      46.788  28.746  31.875  1.00  0.00     0.009 A 
ATOM     86  C   UNL A   1      45.590  27.585  33.627  1.00  0.00     0.009 A 
ATOM     87  C   UNL A   1      47.959  28.074  32.237  1.00  0.00     0.001 A 
ATOM     88  C   UNL A   1      46.766  26.934  34.001  1.00  0.00     0.001 A 
ATOM     89  C   UNL A   1      47.948  27.174  33.302  1.00  0.00     0.000 A 
ENDBRANCH  71  84
ENDBRANCH  45  46
ENDBRANCH  37  40
ENDBRANCH  35  36
ENDBRANCH  34  35
ENDBRANCH  33  34
ENDBRANCH   3  33
TORSDOF 16
ENDMDL
MODEL 2
REMARK VINA RESULT:     -12.0      0.463      5.581
REMARK SMILES O=C(CCCN1C(=O)C(=O)/C(=C(/[O-])c2ccc(Cl)cc2)[C@@H]1c1ccccc1[N+](=O)[O-])NCCCNC(=O)c1ccc(-c2c3nc(c(-c4ccccc4)c4ccc([nH]4)c(-c4ccccc4)c4nc(c(-c5ccccc5)c5ccc2[nH]5)C=C4)C=C3)cc1
REMARK SMILES IDX 1 1 2 2 31 3 3 5 4 6 5 7 6 8 7 9 21 10 8 11 9 12 11 13 10 14
REMARK SMILES IDX 12 15 13 16 22 17 23 18 27 19 24 20 26 21 25 22 28 23 29 24
REMARK SMILES IDX 30 25 14 26 15 27 20 28 16 29 19 30 17 31 18 32 32 33 33 34
REMARK SMILES IDX 34 35 35 36 36 37 37 39 38 40 39 41 85 42 40 43 84 44 41 45
REMARK SMILES IDX 42 46 43 47 78 48 44 49 83 50 77 51 79 52 45 53 82 54 76 55
REMARK SMILES IDX 75 56 46 58 68 59 53 60 67 61 54 62 57 63 66 64 80 65 55 66
REMARK SMILES IDX 56 67 65 69 81 70 58 71 47 72 48 73 52 74 49 75 51 76 50 77
REMARK SMILES IDX 69 78 70 79 74 80 71 81 73 82 72 83 59 84 60 85 64 86 61 87
REMARK SMILES IDX 63 88 62 89
REMARK H PARENT 31 4 35 38 79 57 57 68
REMARK Flexibility Score: inf
ROOT
ATOM      1  O   UNL A   1      31.043  28.452  23.400  1.00  0.00    -0.275 OA
ATOM      2  C   UNL A   1      32.157  28.953  23.513  1.00  0.00     0.220 C 
ATOM      3  N   UNL A   1      32.545  29.721  24.604  1.00  0.00    -0.356 N 
ATOM      4  H   UNL A   1      33.501  29.921  24.732  1.00  0.00     0.163 HD
ENDROOT
BRANCH   2   5
ATOM      5  C   UNL A   1      33.257  28.758  22.470  1.00  0.00     0.102 C 
BRANCH   5   6
ATOM      6  C   UNL A   1      33.916  27.357  22.379  1.00  0.00     0.031 C 
BRANCH   6   7
ATOM      7  C   UNL A   1      33.220  26.133  21.677  1.00  0.00     0.121 C 
BRANCH   7   8
ATOM      8  N   UNL A   1      33.171  24.877  22.418  1.00  0.00    -0.324 N 
ATOM      9  C   UNL A   1      33.217  23.683  21.718  1.00  0.00     0.295 C 
ATOM     10  C   UNL A   1      33.508  24.667  23.862  1.00  0.00     0.157 C 
ATOM     11  O   UNL A   1      33.437  23.476  20.549  1.00  0.00    -0.265 OA
ATOM     12  C   UNL A   1      32.928  22.602  22.732  1.00  0.00     0.248 C 
ATOM     13  C   UNL A   1      33.406  23.141  24.026  1.00  0.00     0.025 C 
ATOM     14  O   UNL A   1      32.354  21.569  22.486  1.00  0.00    -0.283 OA
ATOM     15  C   UNL A   1      33.867  22.298  24.968  1.00  0.00    -0.092 C 
ATOM     16  O   UNL A   1      34.582  22.756  26.052  1.00  0.00    -0.872 OA
BRANCH  10  17
ATOM     17  C   UNL A   1      32.796  25.491  24.958  1.00  0.00     0.057 A 
ATOM     18  C   UNL A   1      33.557  26.342  25.786  1.00  0.00     0.013 A 
ATOM     19  C   UNL A   1      31.425  25.500  25.262  1.00  0.00     0.275 A 
ATOM     20  C   UNL A   1      32.997  27.081  26.846  1.00  0.00     0.001 A 
ATOM     21  C   UNL A   1      30.828  26.304  26.252  1.00  0.00     0.086 A 
ATOM     22  C   UNL A   1      31.628  27.077  27.070  1.00  0.00     0.007 A 
BRANCH  19  23
ATOM     23  N   UNL A   1      30.560  24.529  24.682  1.00  0.00     0.063 N 
ATOM     24  O   UNL A   1      30.380  23.476  25.302  1.00  0.00    -0.258 OA
ATOM     25  O   UNL A   1      30.081  24.842  23.585  1.00  0.00    -0.258 OA
ENDBRANCH  19  23
ENDBRANCH  10  17
BRANCH  15  26
ATOM     26  C   UNL A   1      33.762  20.828  24.904  1.00  0.00    -0.033 A 
ATOM     27  C   UNL A   1      34.900  20.039  24.674  1.00  0.00     0.009 A 
ATOM     28  C   UNL A   1      32.518  20.205  25.076  1.00  0.00     0.009 A 
ATOM     29  C   UNL A   1      34.789  18.649  24.591  1.00  0.00     0.021 A 
ATOM     30  C   UNL A   1      32.410  18.811  25.000  1.00  0.00     0.021 A 
ATOM     31  C   UNL A   1      33.545  18.041  24.753  1.00  0.00     0.041 A 
ATOM     32  Cl  UNL A   1      33.414  16.329  24.650  1.00  0.00    -0.084 Cl
ENDBRANCH  15  26
ENDBRANCH   7   8
ENDBRANCH   6   7
ENDBRANCH   5   6
ENDBRANCH   2   5
BRANCH   3  33
ATOM     33  C   UNL A   1      31.582  30.238  25.561  1.00  0.00     0.117 C 
BRANCH  33  34
ATOM     34  C   UNL A   1      32.128  30.438  26.986  1.00  0.00     0.042 C 
BRANCH  34  35
ATOM     35  C   UNL A   1      33.184  31.529  27.223  1.00  0.00     0.118 C 
BRANCH  35  36
ATOM     36  N   UNL A   1      32.652  32.857  27.509  1.00  0.00    -0.352 N 
ATOM     37  C   UNL A   1      33.179  33.861  28.297  1.00  0.00     0.251 C 
ATOM     38  H   UNL A   1      31.792  33.068  27.077  1.00  0.00     0.163 HD
ATOM     39  O   UNL A   1      32.535  34.891  28.486  1.00  0.00    -0.269 OA
BRANCH  37  40
ATOM     40  C   UNL A   1      34.492  33.695  28.968  1.00  0.00     0.039 A 
ATOM     41  C   UNL A   1      34.531  33.008  30.189  1.00  0.00     0.014 A 
ATOM     42  C   UNL A   1      35.677  34.175  28.408  1.00  0.00     0.014 A 
ATOM     43  C   UNL A   1      35.760  32.675  30.768  1.00  0.00     0.010 A 
ATOM     44  C   UNL A   1      36.907  33.803  28.961  1.00  0.00     0.010 A 
ATOM     45  C   UNL A   1      36.958  33.003  30.114  1.00  0.00    -0.014 A 
BRANCH  45  46
ATOM     46  C   UNL A   1      38.248  32.383  30.520  1.00  0.00     0.031 A 
ATOM     47  C   UNL A   1      38.715  31.082  29.939  1.00  0.00     0.074 A 
ATOM     48  C   UNL A   1      38.952  32.963  31.514  1.00  0.00     0.049 A 
ATOM     49  N   UNL A   1      39.764  30.367  30.261  1.00  0.00    -0.248 NA
ATOM     50  C   UNL A   1      37.893  30.500  28.869  1.00  0.00     0.031 C 
ATOM     51  C   UNL A   1      38.588  34.211  32.191  1.00  0.00     0.029 A 
ATOM     52  N   UNL A   1      40.109  32.572  32.143  1.00  0.00    -0.354 N 
ATOM     53  C   UNL A   1      39.728  29.248  29.441  1.00  0.00     0.074 A 
ATOM     54  C   UNL A   1      38.534  29.363  28.628  1.00  0.00     0.031 C 
ATOM     55  C   UNL A   1      39.506  34.488  33.129  1.00  0.00     0.029 A 
ATOM     56  C   UNL A   1      40.498  33.419  33.153  1.00  0.00     0.049 A 
ATOM     57  H   UNL A   1      40.612  31.763  31.894  1.00  0.00     0.167 HD
ATOM     58  C   UNL A   1      40.612  28.222  29.368  1.00  0.00     0.031 A 
ATOM     59  C   UNL A   1      41.527  33.341  34.019  1.00  0.00     0.031 A 
ATOM     60  C   UNL A   1      41.793  28.101  30.184  1.00  0.00     0.049 A 
ATOM     61  C   UNL A   1      42.472  32.178  33.938  1.00  0.00     0.074 A 
ATOM     62  C   UNL A   1      42.764  27.113  30.153  1.00  0.00     0.029 A 
ATOM     63  N   UNL A   1      42.159  28.987  31.185  1.00  0.00    -0.354 N 
ATOM     64  N   UNL A   1      42.455  31.161  33.113  1.00  0.00    -0.248 NA
ATOM     65  C   UNL A   1      43.582  32.158  34.901  1.00  0.00     0.031 C 
ATOM     66  C   UNL A   1      43.693  27.379  31.164  1.00  0.00     0.029 A 
ATOM     67  C   UNL A   1      43.328  28.559  31.792  1.00  0.00     0.049 A 
ATOM     68  H   UNL A   1      41.661  29.801  31.428  1.00  0.00     0.167 HD
ATOM     69  C   UNL A   1      43.569  30.397  33.434  1.00  0.00     0.074 A 
ATOM     70  C   UNL A   1      44.242  31.071  34.525  1.00  0.00     0.031 C 
ATOM     71  C   UNL A   1      43.996  29.242  32.869  1.00  0.00     0.031 A 
BRANCH  58  72
ATOM     72  C   UNL A   1      40.325  27.133  28.373  1.00  0.00    -0.014 A 
ATOM     73  C   UNL A   1      40.882  27.164  27.084  1.00  0.00     0.009 A 
ATOM     74  C   UNL A   1      39.529  26.037  28.741  1.00  0.00     0.009 A 
ATOM     75  C   UNL A   1      40.617  26.137  26.174  1.00  0.00     0.001 A 
ATOM     76  C   UNL A   1      39.287  25.000  27.839  1.00  0.00     0.001 A 
ATOM     77  C   UNL A   1      39.824  25.055  26.553  1.00  0.00     0.000 A 
ENDBRANCH  58  72
BRANCH  59  78
ATOM     78  C   UNL A   1      41.723  34.410  35.034  1.00  0.00    -0.014 A 
ATOM     79  C   UNL A   1      41.130  34.302  36.301  1.00  0.00     0.009 A 
ATOM     80  C   UNL A   1      42.507  35.537  34.744  1.00  0.00     0.009 A 
ATOM     81  C   UNL A   1      41.302  35.312  37.251  1.00  0.00     0.001 A 
ATOM     82  C   UNL A   1      42.698  36.533  35.704  1.00  0.00     0.001 A 
ATOM     83  C   UNL A   1      42.090  36.424  36.953  1.00  0.00     0.000 A 
ENDBRANCH  59  78
BRANCH  71  84
ATOM     84  C   UNL A   1      45.280  28.656  33.384  1.00  0.00    -0.014 A 
ATOM     85  C   UNL A   1      46.520  29.032  32.850  1.00  0.00     0.009 A 
ATOM     86  C   UNL A   1      45.244  27.750  34.456  1.00  0.00     0.009 A 
ATOM     87  C   UNL A   1      47.702  28.493  33.366  1.00  0.00     0.001 A 
ATOM     88  C   UNL A   1      46.426  27.233  34.985  1.00  0.00     0.001 A 
ATOM     89  C   UNL A   1      47.654  27.599  34.436  1.00  0.00     0.000 A 
ENDBRANCH  71  84
ENDBRANCH  45  46
ENDBRANCH  37  40
ENDBRANCH  35  36
ENDBRANCH  34  35
ENDBRANCH  33  34
ENDBRANCH   3  33
TORSDOF 16
ENDMDL
MODEL 3
REMARK VINA RESULT:     -11.4      2.424      3.393
REMARK SMILES O=C(CCCN1C(=O)C(=O)/C(=C(/[O-])c2ccc(Cl)cc2)[C@@H]1c1ccccc1[N+](=O)[O-])NCCCNC(=O)c1ccc(-c2c3nc(c(-c4ccccc4)c4ccc([nH]4)c(-c4ccccc4)c4nc(c(-c5ccccc5)c5ccc2[nH]5)C=C4)C=C3)cc1
REMARK SMILES IDX 1 1 2 2 31 3 3 5 4 6 5 7 6 8 7 9 21 10 8 11 9 12 11 13 10 14
REMARK SMILES IDX 12 15 13 16 22 17 23 18 27 19 24 20 26 21 25 22 28 23 29 24
REMARK SMILES IDX 30 25 14 26 15 27 20 28 16 29 19 30 17 31 18 32 32 33 33 34
REMARK SMILES IDX 34 35 35 36 36 37 37 39 38 40 39 41 85 42 40 43 84 44 41 45
REMARK SMILES IDX 42 46 43 47 78 48 44 49 83 50 77 51 79 52 45 53 82 54 76 55
REMARK SMILES IDX 75 56 46 58 68 59 53 60 67 61 54 62 57 63 66 64 80 65 55 66
REMARK SMILES IDX 56 67 65 69 81 70 58 71 47 72 48 73 52 74 49 75 51 76 50 77
REMARK SMILES IDX 69 78 70 79 74 80 71 81 73 82 72 83 59 84 60 85 64 86 61 87
REMARK SMILES IDX 63 88 62 89
REMARK H PARENT 31 4 35 38 79 57 57 68
REMARK Flexibility Score: inf
ROOT
ATOM      1  O   UNL A   1      32.785  30.602  26.288  1.00  0.00    -0.275 OA
ATOM      2  C   UNL A   1      33.486  30.092  27.156  1.00  0.00     0.220 C 
ATOM      3  N   UNL A   1      34.173  30.825  28.115  1.00  0.00    -0.356 N 
ATOM      4  H   UNL A   1      34.549  30.357  28.896  1.00  0.00     0.163 HD
ENDROOT
BRANCH   2   5
ATOM      5  C   UNL A   1      33.657  28.579  27.292  1.00  0.00     0.102 C 
BRANCH   5   6
ATOM      6  C   UNL A   1      33.689  27.743  25.985  1.00  0.00     0.031 C 
BRANCH   6   7
ATOM      7  C   UNL A   1      34.749  26.611  25.724  1.00  0.00     0.121 C 
BRANCH   7   8
ATOM      8  N   UNL A   1      34.248  25.317  25.273  1.00  0.00    -0.324 N 
ATOM      9  C   UNL A   1      35.102  24.227  25.282  1.00  0.00     0.295 C 
ATOM     10  C   UNL A   1      32.818  24.880  25.198  1.00  0.00     0.157 C 
ATOM     11  O   UNL A   1      36.210  24.112  25.747  1.00  0.00    -0.265 OA
ATOM     12  C   UNL A   1      34.363  23.122  24.565  1.00  0.00     0.248 C 
ATOM     13  C   UNL A   1      32.926  23.400  24.792  1.00  0.00     0.025 C 
ATOM     14  O   UNL A   1      34.892  22.266  23.898  1.00  0.00    -0.283 OA
ATOM     15  C   UNL A   1      32.053  22.379  24.849  1.00  0.00    -0.092 C 
ATOM     16  O   UNL A   1      30.778  22.552  25.340  1.00  0.00    -0.872 OA
BRANCH  10  17
ATOM     17  C   UNL A   1      31.791  25.705  24.390  1.00  0.00     0.057 A 
ATOM     18  C   UNL A   1      32.092  26.071  23.062  1.00  0.00     0.013 A 
ATOM     19  C   UNL A   1      30.539  26.170  24.825  1.00  0.00     0.275 A 
ATOM     20  C   UNL A   1      31.240  26.872  22.276  1.00  0.00     0.001 A 
ATOM     21  C   UNL A   1      29.629  26.889  24.027  1.00  0.00     0.086 A 
ATOM     22  C   UNL A   1      29.999  27.267  22.751  1.00  0.00     0.007 A 
BRANCH  19  23
ATOM     23  N   UNL A   1      30.188  26.089  26.203  1.00  0.00     0.063 N 
ATOM     24  O   UNL A   1      30.652  26.943  26.965  1.00  0.00    -0.258 OA
ATOM     25  O   UNL A   1      29.453  25.140  26.502  1.00  0.00    -0.258 OA
ENDBRANCH  19  23
ENDBRANCH  10  17
BRANCH  15  26
ATOM     26  C   UNL A   1      32.372  20.979  24.508  1.00  0.00    -0.033 A 
ATOM     27  C   UNL A   1      32.157  20.493  23.210  1.00  0.00     0.009 A 
ATOM     28  C   UNL A   1      32.897  20.122  25.485  1.00  0.00     0.009 A 
ATOM     29  C   UNL A   1      32.439  19.159  22.901  1.00  0.00     0.021 A 
ATOM     30  C   UNL A   1      33.186  18.788  25.172  1.00  0.00     0.021 A 
ATOM     31  C   UNL A   1      32.951  18.313  23.883  1.00  0.00     0.041 A 
ATOM     32  Cl  UNL A   1      33.296  16.672  23.499  1.00  0.00    -0.084 Cl
ENDBRANCH  15  26
ENDBRANCH   7   8
ENDBRANCH   6   7
ENDBRANCH   5   6
ENDBRANCH   2   5
BRANCH   3  33
ATOM     33  C   UNL A   1      34.355  32.261  28.001  1.00  0.00     0.117 C 
BRANCH  33  34
ATOM     34  C   UNL A   1      34.028  33.060  29.275  1.00  0.00     0.042 C 
BRANCH  34  35
ATOM     35  C   UNL A   1      33.867  34.584  29.166  1.00  0.00     0.118 C 
BRANCH  35  36
ATOM     36  N   UNL A   1      32.903  35.175  30.089  1.00  0.00    -0.352 N 
ATOM     37  C   UNL A   1      32.946  35.256  31.466  1.00  0.00     0.251 C 
ATOM     38  H   UNL A   1      32.107  35.573  29.667  1.00  0.00     0.163 HD
ATOM     39  O   UNL A   1      31.987  35.721  32.080  1.00  0.00    -0.269 OA
BRANCH  37  40
ATOM     40  C   UNL A   1      34.109  34.739  32.227  1.00  0.00     0.039 A 
ATOM     41  C   UNL A   1      33.941  33.574  32.988  1.00  0.00     0.014 A 
ATOM     42  C   UNL A   1      35.360  35.358  32.182  1.00  0.00     0.014 A 
ATOM     43  C   UNL A   1      35.047  32.954  33.576  1.00  0.00     0.010 A 
ATOM     44  C   UNL A   1      36.473  34.715  32.731  1.00  0.00     0.010 A 
ATOM     45  C   UNL A   1      36.335  33.480  33.384  1.00  0.00    -0.014 A 
BRANCH  45  46
ATOM     46  C   UNL A   1      37.546  32.678  33.704  1.00  0.00     0.031 A 
ATOM     47  C   UNL A   1      38.353  32.928  34.943  1.00  0.00     0.074 A 
ATOM     48  C   UNL A   1      37.976  31.778  32.795  1.00  0.00     0.049 A 
ATOM     49  N   UNL A   1      39.484  32.381  35.312  1.00  0.00    -0.248 NA
ATOM     50  C   UNL A   1      37.832  33.931  35.883  1.00  0.00     0.031 C 
ATOM     51  C   UNL A   1      37.304  31.465  31.531  1.00  0.00     0.029 A 
ATOM     52  N   UNL A   1      39.091  30.976  32.783  1.00  0.00    -0.354 N 
ATOM     53  C   UNL A   1      39.817  32.975  36.521  1.00  0.00     0.074 A 
ATOM     54  C   UNL A   1      38.783  33.948  36.808  1.00  0.00     0.031 C 
ATOM     55  C   UNL A   1      38.011  30.534  30.874  1.00  0.00     0.029 A 
ATOM     56  C   UNL A   1      39.207  30.214  31.645  1.00  0.00     0.049 A 
ATOM     57  H   UNL A   1      39.744  30.948  33.519  1.00  0.00     0.167 HD
ATOM     58  C   UNL A   1      40.883  32.727  37.321  1.00  0.00     0.031 A 
ATOM     59  C   UNL A   1      40.174  29.364  31.250  1.00  0.00     0.031 A 
ATOM     60  C   UNL A   1      41.918  31.768  37.031  1.00  0.00     0.049 A 
ATOM     61  C   UNL A   1      41.360  29.133  32.140  1.00  0.00     0.074 A 
ATOM     62  C   UNL A   1      43.017  31.425  37.803  1.00  0.00     0.029 A 
ATOM     63  N   UNL A   1      41.991  31.006  35.875  1.00  0.00    -0.354 N 
ATOM     64  N   UNL A   1      41.625  29.658  33.310  1.00  0.00    -0.248 NA
ATOM     65  C   UNL A   1      42.375  28.184  31.659  1.00  0.00     0.031 C 
ATOM     66  C   UNL A   1      43.777  30.488  37.093  1.00  0.00     0.029 A 
ATOM     67  C   UNL A   1      43.125  30.211  35.902  1.00  0.00     0.049 A 
ATOM     68  H   UNL A   1      41.334  31.028  35.143  1.00  0.00     0.167 HD
ATOM     69  C   UNL A   1      42.819  29.080  33.721  1.00  0.00     0.074 A 
ATOM     70  C   UNL A   1      43.223  28.160  32.678  1.00  0.00     0.031 C 
ATOM     71  C   UNL A   1      43.513  29.292  34.865  1.00  0.00     0.031 A 
BRANCH  58  72
ATOM     72  C   UNL A   1      40.993  33.521  38.593  1.00  0.00    -0.014 A 
ATOM     73  C   UNL A   1      40.387  33.077  39.779  1.00  0.00     0.009 A 
ATOM     74  C   UNL A   1      41.750  34.702  38.618  1.00  0.00     0.009 A 
ATOM     75  C   UNL A   1      40.509  33.821  40.957  1.00  0.00     0.001 A 
ATOM     76  C   UNL A   1      41.892  35.430  39.802  1.00  0.00     0.001 A 
ATOM     77  C   UNL A   1      41.264  34.993  40.968  1.00  0.00     0.000 A 
ENDBRANCH  58  72
BRANCH  59  78
ATOM     78  C   UNL A   1      40.053  28.659  29.947  1.00  0.00    -0.014 A 
ATOM     79  C   UNL A   1      40.575  29.232  28.778  1.00  0.00     0.009 A 
ATOM     80  C   UNL A   1      39.421  27.408  29.867  1.00  0.00     0.009 A 
ATOM     81  C   UNL A   1      40.449  28.576  27.551  1.00  0.00     0.001 A 
ATOM     82  C   UNL A   1      39.320  26.742  28.644  1.00  0.00     0.001 A 
ATOM     83  C   UNL A   1      39.827  27.330  27.486  1.00  0.00     0.000 A 
ENDBRANCH  59  78
BRANCH  71  84
ATOM     84  C   UNL A   1      44.757  28.477  35.077  1.00  0.00    -0.014 A 
ATOM     85  C   UNL A   1      44.704  27.195  35.642  1.00  0.00     0.009 A 
ATOM     86  C   UNL A   1      45.996  28.986  34.655  1.00  0.00     0.009 A 
ATOM     87  C   UNL A   1      45.873  26.447  35.802  1.00  0.00     0.001 A 
ATOM     88  C   UNL A   1      47.157  28.227  34.794  1.00  0.00     0.001 A 
ATOM     89  C   UNL A   1      47.097  26.960  35.373  1.00  0.00     0.000 A 
ENDBRANCH  71  84
ENDBRANCH  45  46
ENDBRANCH  37  40
ENDBRANCH  35  36
ENDBRANCH  34  35
ENDBRANCH  33  34
ENDBRANCH   3  33
TORSDOF 16
ENDMDL
