MODEL 1
REMARK VINA RESULT:      -9.2      0.000      0.000
REMARK SMILES Cc1ccnc(NC2(CC(=O)NCCCNC(=O)c3ccc(-c4c5nc(c(-c6ccccc6)c6ccc([nH]6)c(-c6ccccc6)c6nc(c(-c7ccccc7)c7ccc4[nH]7)C=C6)C=C5)cc3)CCC2)n1
REMARK SMILES IDX 13 1 12 2 10 3 11 4 9 6 8 7 67 8 69 9 68 10 7 11 6 13 1 14
REMARK SMILES IDX 2 15 3 16 70 17 4 18 5 19 14 20 15 21 16 22 17 23 18 25
REMARK SMILES IDX 19 26 20 27 66 28 21 29 65 30 22 31 23 32 24 33 59 34 25 35
REMARK SMILES IDX 64 36 58 37 60 38 26 39 63 40 57 41 56 42 27 44 49 45 34 46
REMARK SMILES IDX 48 47 35 48 38 49 47 50 61 51 36 52 37 53 46 55 62 56 39 57
REMARK SMILES IDX 28 58 29 59 33 60 30 61 32 62 31 63 50 64 51 65 55 66 52 67
REMARK SMILES IDX 54 68 53 69 40 70 41 71 45 72 42 73 44 74 43 75
REMARK H PARENT 12 5 7 12 16 24 60 43 38 54
REMARK Flexibility Score: inf
ROOT
ATOM      1  C   UNL A   1      32.925  29.575  24.996  1.00  0.00     0.117 C 
ENDROOT
BRANCH   1   2
ATOM      2  N   UNL A   1      33.270  29.332  23.610  1.00  0.00    -0.356 N 
ATOM      3  C   UNL A   1      33.315  28.159  22.925  1.00  0.00     0.222 C 
ATOM      4  O   UNL A   1      33.799  28.165  21.791  1.00  0.00    -0.275 OA
ATOM      5  H   UNL A   1      33.505  30.134  23.088  1.00  0.00     0.163 HD
BRANCH   3   6
ATOM      6  C   UNL A   1      32.795  26.871  23.529  1.00  0.00     0.128 C 
BRANCH   6   7
ATOM      7  C   UNL A   1      31.267  26.687  23.508  1.00  0.00     0.049 C 
ATOM      8  C   UNL A   1      30.625  26.658  24.933  1.00  0.00     0.029 C 
ATOM      9  C   UNL A   1      30.782  25.215  23.352  1.00  0.00     0.029 C 
ATOM     10  C   UNL A   1      30.681  25.123  24.884  1.00  0.00     0.005 C 
BRANCH   7  11
ATOM     11  N   UNL A   1      30.635  27.655  22.666  1.00  0.00    -0.348 N 
ATOM     12  H   UNL A   1      31.002  27.688  21.754  1.00  0.00     0.164 HD
BRANCH  11  13
ATOM     13  C   UNL A   1      29.604  28.560  22.888  1.00  0.00     0.223 A 
ATOM     14  C   UNL A   1      29.123  32.117  23.575  1.00  0.00     0.067 C 
ATOM     15  C   UNL A   1      28.802  30.680  23.307  1.00  0.00     0.043 A 
ATOM     16  C   UNL A   1      27.502  30.229  23.285  1.00  0.00     0.044 A 
ATOM     17  N   UNL A   1      29.852  29.858  23.104  1.00  0.00    -0.218 NA
ATOM     18  C   UNL A   1      27.343  28.886  23.052  1.00  0.00     0.117 A 
ATOM     19  N   UNL A   1      28.370  28.038  22.861  1.00  0.00    -0.222 NA
ENDBRANCH  11  13
ENDBRANCH   7  11
ENDBRANCH   6   7
ENDBRANCH   3   6
ENDBRANCH   1   2
BRANCH   1  20
ATOM     20  C   UNL A   1      33.839  28.804  25.945  1.00  0.00     0.042 C 
BRANCH  20  21
ATOM     21  C   UNL A   1      33.448  28.907  27.414  1.00  0.00     0.118 C 
BRANCH  21  22
ATOM     22  N   UNL A   1      33.586  30.260  27.925  1.00  0.00    -0.352 N 
ATOM     23  C   UNL A   1      34.625  30.876  28.574  1.00  0.00     0.251 C 
ATOM     24  H   UNL A   1      32.798  30.833  27.781  1.00  0.00     0.163 HD
ATOM     25  O   UNL A   1      34.426  31.965  29.107  1.00  0.00    -0.269 OA
BRANCH  23  26
ATOM     26  C   UNL A   1      35.978  30.271  28.645  1.00  0.00     0.039 A 
ATOM     27  C   UNL A   1      36.386  29.702  29.859  1.00  0.00     0.014 A 
ATOM     28  C   UNL A   1      36.886  30.345  27.586  1.00  0.00     0.014 A 
ATOM     29  C   UNL A   1      37.683  29.200  30.003  1.00  0.00     0.010 A 
ATOM     30  C   UNL A   1      38.153  29.772  27.702  1.00  0.00     0.010 A 
ATOM     31  C   UNL A   1      38.576  29.225  28.922  1.00  0.00    -0.014 A 
BRANCH  31  32
ATOM     32  C   UNL A   1      39.978  28.758  29.073  1.00  0.00     0.031 A 
ATOM     33  C   UNL A   1      41.021  29.683  29.645  1.00  0.00     0.074 A 
ATOM     34  C   UNL A   1      40.329  27.522  28.670  1.00  0.00     0.049 A 
ATOM     35  N   UNL A   1      42.305  29.483  29.813  1.00  0.00    -0.248 NA
ATOM     36  C   UNL A   1      40.564  31.020  30.062  1.00  0.00     0.031 C 
ATOM     37  C   UNL A   1      39.428  26.536  28.073  1.00  0.00     0.029 A 
ATOM     38  N   UNL A   1      41.546  26.886  28.703  1.00  0.00    -0.354 N 
ATOM     39  C   UNL A   1      42.810  30.674  30.321  1.00  0.00     0.074 A 
ATOM     40  C   UNL A   1      41.705  31.604  30.398  1.00  0.00     0.031 C 
ATOM     41  C   UNL A   1      40.116  25.410  27.820  1.00  0.00     0.029 A 
ATOM     42  C   UNL A   1      41.510  25.606  28.208  1.00  0.00     0.049 A 
ATOM     43  H   UNL A   1      42.365  27.309  29.048  1.00  0.00     0.167 HD
ATOM     44  C   UNL A   1      44.074  30.966  30.709  1.00  0.00     0.031 A 
ATOM     45  C   UNL A   1      42.490  24.691  28.085  1.00  0.00     0.031 A 
ATOM     46  C   UNL A   1      45.171  30.038  30.666  1.00  0.00     0.049 A 
ATOM     47  C   UNL A   1      43.878  25.027  28.553  1.00  0.00     0.074 A 
ATOM     48  C   UNL A   1      46.479  30.226  31.076  1.00  0.00     0.029 A 
ATOM     49  N   UNL A   1      45.082  28.739  30.192  1.00  0.00    -0.354 N 
ATOM     50  N   UNL A   1      44.328  26.143  29.070  1.00  0.00    -0.248 NA
ATOM     51  C   UNL A   1      44.887  23.964  28.439  1.00  0.00     0.031 C 
ATOM     52  C   UNL A   1      47.189  29.046  30.825  1.00  0.00     0.029 A 
ATOM     53  C   UNL A   1      46.311  28.113  30.298  1.00  0.00     0.049 A 
ATOM     54  H   UNL A   1      44.265  28.323  29.833  1.00  0.00     0.167 HD
ATOM     55  C   UNL A   1      45.664  25.908  29.374  1.00  0.00     0.074 A 
ATOM     56  C   UNL A   1      45.946  24.539  28.991  1.00  0.00     0.031 C 
ATOM     57  C   UNL A   1      46.573  26.749  29.923  1.00  0.00     0.031 A 
BRANCH  44  58
ATOM     58  C   UNL A   1      44.334  32.359  31.213  1.00  0.00    -0.014 A 
ATOM     59  C   UNL A   1      44.705  33.391  30.336  1.00  0.00     0.009 A 
ATOM     60  C   UNL A   1      44.191  32.646  32.579  1.00  0.00     0.009 A 
ATOM     61  C   UNL A   1      44.968  34.674  30.823  1.00  0.00     0.001 A 
ATOM     62  C   UNL A   1      44.426  33.937  33.059  1.00  0.00     0.001 A 
ATOM     63  C   UNL A   1      44.825  34.945  32.183  1.00  0.00     0.000 A 
ENDBRANCH  44  58
BRANCH  45  64
ATOM     64  C   UNL A   1      42.185  23.348  27.528  1.00  0.00    -0.014 A 
ATOM     65  C   UNL A   1      42.480  23.055  26.187  1.00  0.00     0.009 A 
ATOM     66  C   UNL A   1      41.597  22.358  28.328  1.00  0.00     0.009 A 
ATOM     67  C   UNL A   1      42.166  21.804  25.652  1.00  0.00     0.001 A 
ATOM     68  C   UNL A   1      41.307  21.099  27.796  1.00  0.00     0.001 A 
ATOM     69  C   UNL A   1      41.583  20.827  26.457  1.00  0.00     0.000 A 
ENDBRANCH  45  64
BRANCH  57  70
ATOM     70  C   UNL A   1      47.942  26.195  30.191  1.00  0.00    -0.014 A 
ATOM     71  C   UNL A   1      48.895  26.075  29.168  1.00  0.00     0.009 A 
ATOM     72  C   UNL A   1      48.289  25.811  31.495  1.00  0.00     0.009 A 
ATOM     73  C   UNL A   1      50.158  25.546  29.441  1.00  0.00     0.001 A 
ATOM     74  C   UNL A   1      49.561  25.307  31.770  1.00  0.00     0.001 A 
ATOM     75  C   UNL A   1      50.491  25.166  30.741  1.00  0.00     0.000 A 
ENDBRANCH  57  70
ENDBRANCH  31  32
ENDBRANCH  23  26
ENDBRANCH  21  22
ENDBRANCH  20  21
ENDBRANCH   1  20
TORSDOF 13
ENDMDL
MODEL 2
REMARK VINA RESULT:      -9.2      5.225     10.494
REMARK SMILES Cc1ccnc(NC2(CC(=O)NCCCNC(=O)c3ccc(-c4c5nc(c(-c6ccccc6)c6ccc([nH]6)c(-c6ccccc6)c6nc(c(-c7ccccc7)c7ccc4[nH]7)C=C6)C=C5)cc3)CCC2)n1
REMARK SMILES IDX 13 1 12 2 10 3 11 4 9 6 8 7 67 8 69 9 68 10 7 11 6 13 1 14
REMARK SMILES IDX 2 15 3 16 70 17 4 18 5 19 14 20 15 21 16 22 17 23 18 25
REMARK SMILES IDX 19 26 20 27 66 28 21 29 65 30 22 31 23 32 24 33 59 34 25 35
REMARK SMILES IDX 64 36 58 37 60 38 26 39 63 40 57 41 56 42 27 44 49 45 34 46
REMARK SMILES IDX 48 47 35 48 38 49 47 50 61 51 36 52 37 53 46 55 62 56 39 57
REMARK SMILES IDX 28 58 29 59 33 60 30 61 32 62 31 63 50 64 51 65 55 66 52 67
REMARK SMILES IDX 54 68 53 69 40 70 41 71 45 72 42 73 44 74 43 75
REMARK H PARENT 12 5 7 12 16 24 60 43 38 54
REMARK Flexibility Score: inf
ROOT
ATOM      1  C   UNL A   1      45.723  21.535  25.352  1.00  0.00     0.117 C 
ENDROOT
BRANCH   1   2
ATOM      2  N   UNL A   1      46.452  22.373  24.422  1.00  0.00    -0.356 N 
ATOM      3  C   UNL A   1      46.720  23.704  24.487  1.00  0.00     0.222 C 
ATOM      4  O   UNL A   1      47.215  24.247  23.497  1.00  0.00    -0.275 OA
ATOM      5  H   UNL A   1      46.804  21.911  23.626  1.00  0.00     0.163 HD
BRANCH   3   6
ATOM      6  C   UNL A   1      46.420  24.510  25.733  1.00  0.00     0.128 C 
BRANCH   6   7
ATOM      7  C   UNL A   1      46.525  26.039  25.588  1.00  0.00     0.049 C 
ATOM      8  C   UNL A   1      47.885  26.513  24.983  1.00  0.00     0.029 C 
ATOM      9  C   UNL A   1      46.933  26.798  26.886  1.00  0.00     0.029 C 
ATOM     10  C   UNL A   1      48.395  26.744  26.415  1.00  0.00     0.005 C 
BRANCH   7  11
ATOM     11  N   UNL A   1      45.412  26.572  24.864  1.00  0.00    -0.348 N 
ATOM     12  H   UNL A   1      45.467  26.430  23.892  1.00  0.00     0.164 HD
BRANCH  11  13
ATOM     13  C   UNL A   1      44.270  27.253  25.268  1.00  0.00     0.223 A 
ATOM     14  C   UNL A   1      43.335  30.290  27.073  1.00  0.00     0.067 C 
ATOM     15  C   UNL A   1      43.201  29.017  26.297  1.00  0.00     0.043 A 
ATOM     16  C   UNL A   1      41.967  28.497  25.981  1.00  0.00     0.044 A 
ATOM     17  N   UNL A   1      44.351  28.408  25.940  1.00  0.00    -0.218 NA
ATOM     18  C   UNL A   1      41.981  27.313  25.288  1.00  0.00     0.117 A 
ATOM     19  N   UNL A   1      43.110  26.674  24.931  1.00  0.00    -0.222 NA
ENDBRANCH  11  13
ENDBRANCH   7  11
ENDBRANCH   6   7
ENDBRANCH   3   6
ENDBRANCH   1   2
BRANCH   1  20
ATOM     20  C   UNL A   1      44.983  20.410  24.633  1.00  0.00     0.042 C 
BRANCH  20  21
ATOM     21  C   UNL A   1      44.452  19.320  25.555  1.00  0.00     0.118 C 
BRANCH  21  22
ATOM     22  N   UNL A   1      43.042  19.048  25.328  1.00  0.00    -0.352 N 
ATOM     23  C   UNL A   1      41.918  19.670  25.805  1.00  0.00     0.251 C 
ATOM     24  H   UNL A   1      42.864  18.287  24.729  1.00  0.00     0.163 HD
ATOM     25  O   UNL A   1      40.828  19.123  25.649  1.00  0.00    -0.269 OA
BRANCH  23  26
ATOM     26  C   UNL A   1      41.977  20.982  26.496  1.00  0.00     0.039 A 
ATOM     27  C   UNL A   1      42.084  22.139  25.714  1.00  0.00     0.014 A 
ATOM     28  C   UNL A   1      42.035  21.090  27.888  1.00  0.00     0.014 A 
ATOM     29  C   UNL A   1      42.234  23.390  26.320  1.00  0.00     0.010 A 
ATOM     30  C   UNL A   1      42.103  22.345  28.495  1.00  0.00     0.010 A 
ATOM     31  C   UNL A   1      42.238  23.504  27.717  1.00  0.00    -0.014 A 
BRANCH  31  32
ATOM     32  C   UNL A   1      42.461  24.815  28.381  1.00  0.00     0.031 A 
ATOM     33  C   UNL A   1      43.806  25.132  28.983  1.00  0.00     0.074 A 
ATOM     34  C   UNL A   1      41.458  25.707  28.475  1.00  0.00     0.049 A 
ATOM     35  N   UNL A   1      44.187  26.196  29.646  1.00  0.00    -0.248 NA
ATOM     36  C   UNL A   1      44.854  24.107  28.843  1.00  0.00     0.031 C 
ATOM     37  C   UNL A   1      40.101  25.517  27.962  1.00  0.00     0.029 A 
ATOM     38  N   UNL A   1      41.429  26.958  29.041  1.00  0.00    -0.354 N 
ATOM     39  C   UNL A   1      45.501  25.953  30.027  1.00  0.00     0.074 A 
ATOM     40  C   UNL A   1      45.840  24.628  29.557  1.00  0.00     0.031 C 
ATOM     41  C   UNL A   1      39.379  26.622  28.213  1.00  0.00     0.029 A 
ATOM     42  C   UNL A   1      40.212  27.584  28.929  1.00  0.00     0.049 A 
ATOM     43  H   UNL A   1      42.207  27.367  29.484  1.00  0.00     0.167 HD
ATOM     44  C   UNL A   1      46.360  26.764  30.690  1.00  0.00     0.031 A 
ATOM     45  C   UNL A   1      39.813  28.797  29.353  1.00  0.00     0.031 A 
ATOM     46  C   UNL A   1      46.040  28.094  31.132  1.00  0.00     0.049 A 
ATOM     47  C   UNL A   1      40.793  29.693  30.058  1.00  0.00     0.074 A 
ATOM     48  C   UNL A   1      46.855  29.010  31.775  1.00  0.00     0.029 A 
ATOM     49  N   UNL A   1      44.807  28.702  30.965  1.00  0.00    -0.354 N 
ATOM     50  N   UNL A   1      42.044  29.464  30.372  1.00  0.00    -0.248 NA
ATOM     51  C   UNL A   1      40.307  31.024  30.446  1.00  0.00     0.031 C 
ATOM     52  C   UNL A   1      46.104  30.165  32.021  1.00  0.00     0.029 A 
ATOM     53  C   UNL A   1      44.836  29.981  31.494  1.00  0.00     0.049 A 
ATOM     54  H   UNL A   1      44.025  28.286  30.535  1.00  0.00     0.167 HD
ATOM     55  C   UNL A   1      42.505  30.633  30.965  1.00  0.00     0.074 A 
ATOM     56  C   UNL A   1      41.401  31.571  30.957  1.00  0.00     0.031 C 
ATOM     57  C   UNL A   1      43.733  30.905  31.468  1.00  0.00     0.031 A 
BRANCH  44  58
ATOM     58  C   UNL A   1      47.732  26.223  30.980  1.00  0.00    -0.014 A 
ATOM     59  C   UNL A   1      48.776  26.355  30.051  1.00  0.00     0.009 A 
ATOM     60  C   UNL A   1      47.988  25.586  32.204  1.00  0.00     0.009 A 
ATOM     61  C   UNL A   1      50.039  25.824  30.325  1.00  0.00     0.001 A 
ATOM     62  C   UNL A   1      49.259  25.081  32.487  1.00  0.00     0.001 A 
ATOM     63  C   UNL A   1      50.279  25.190  31.544  1.00  0.00     0.000 A 
ENDBRANCH  44  58
BRANCH  45  64
ATOM     64  C   UNL A   1      38.426  29.258  29.087  1.00  0.00    -0.014 A 
ATOM     65  C   UNL A   1      38.080  29.772  27.828  1.00  0.00     0.009 A 
ATOM     66  C   UNL A   1      37.446  29.190  30.087  1.00  0.00     0.009 A 
ATOM     67  C   UNL A   1      36.786  30.235  27.585  1.00  0.00     0.001 A 
ATOM     68  C   UNL A   1      36.145  29.631  29.834  1.00  0.00     0.001 A 
ATOM     69  C   UNL A   1      35.819  30.161  28.586  1.00  0.00     0.000 A 
ENDBRANCH  45  64
BRANCH  57  70
ATOM     70  C   UNL A   1      43.962  32.290  32.002  1.00  0.00    -0.014 A 
ATOM     71  C   UNL A   1      43.634  32.626  33.323  1.00  0.00     0.009 A 
ATOM     72  C   UNL A   1      44.539  33.263  31.172  1.00  0.00     0.009 A 
ATOM     73  C   UNL A   1      43.847  33.924  33.792  1.00  0.00     0.001 A 
ATOM     74  C   UNL A   1      44.774  34.552  31.651  1.00  0.00     0.001 A 
ATOM     75  C   UNL A   1      44.419  34.885  32.958  1.00  0.00     0.000 A 
ENDBRANCH  57  70
ENDBRANCH  31  32
ENDBRANCH  23  26
ENDBRANCH  21  22
ENDBRANCH  20  21
ENDBRANCH   1  20
TORSDOF 13
ENDMDL
MODEL 3
REMARK VINA RESULT:      -9.1      2.298      4.127
REMARK SMILES Cc1ccnc(NC2(CC(=O)NCCCNC(=O)c3ccc(-c4c5nc(c(-c6ccccc6)c6ccc([nH]6)c(-c6ccccc6)c6nc(c(-c7ccccc7)c7ccc4[nH]7)C=C6)C=C5)cc3)CCC2)n1
REMARK SMILES IDX 13 1 12 2 10 3 11 4 9 6 8 7 67 8 69 9 68 10 7 11 6 13 1 14
REMARK SMILES IDX 2 15 3 16 70 17 4 18 5 19 14 20 15 21 16 22 17 23 18 25
REMARK SMILES IDX 19 26 20 27 66 28 21 29 65 30 22 31 23 32 24 33 59 34 25 35
REMARK SMILES IDX 64 36 58 37 60 38 26 39 63 40 57 41 56 42 27 44 49 45 34 46
REMARK SMILES IDX 48 47 35 48 38 49 47 50 61 51 36 52 37 53 46 55 62 56 39 57
REMARK SMILES IDX 28 58 29 59 33 60 30 61 32 62 31 63 50 64 51 65 55 66 52 67
REMARK SMILES IDX 54 68 53 69 40 70 41 71 45 72 42 73 44 74 43 75
REMARK H PARENT 12 5 7 12 16 24 60 43 38 54
REMARK Flexibility Score: inf
ROOT
ATOM      1  C   UNL A   1      33.324  27.102  25.246  1.00  0.00     0.117 C 
ENDROOT
BRANCH   1   2
ATOM      2  N   UNL A   1      32.869  26.139  26.228  1.00  0.00    -0.356 N 
ATOM      3  C   UNL A   1      32.224  24.957  26.042  1.00  0.00     0.222 C 
ATOM      4  O   UNL A   1      31.780  24.374  27.034  1.00  0.00    -0.275 OA
ATOM      5  H   UNL A   1      33.054  26.375  27.166  1.00  0.00     0.163 HD
BRANCH   3   6
ATOM      6  C   UNL A   1      32.044  24.364  24.660  1.00  0.00     0.128 C 
BRANCH   6   7
ATOM      7  C   UNL A   1      33.102  23.333  24.227  1.00  0.00     0.049 C 
ATOM      8  C   UNL A   1      33.960  23.800  23.007  1.00  0.00     0.029 C 
ATOM      9  C   UNL A   1      32.572  22.191  23.309  1.00  0.00     0.029 C 
ATOM     10  C   UNL A   1      33.009  23.017  22.088  1.00  0.00     0.005 C 
BRANCH   7  11
ATOM     11  N   UNL A   1      33.924  22.933  25.327  1.00  0.00    -0.348 N 
ATOM     12  H   UNL A   1      33.420  22.749  26.152  1.00  0.00     0.164 HD
BRANCH  11  13
ATOM     13  C   UNL A   1      35.296  22.754  25.456  1.00  0.00     0.223 A 
ATOM     14  C   UNL A   1      37.821  20.158  24.963  1.00  0.00     0.067 C 
ATOM     15  C   UNL A   1      37.214  21.487  25.290  1.00  0.00     0.043 A 
ATOM     16  C   UNL A   1      37.987  22.538  25.728  1.00  0.00     0.044 A 
ATOM     17  N   UNL A   1      35.877  21.588  25.146  1.00  0.00    -0.218 NA
ATOM     18  C   UNL A   1      37.306  23.694  26.018  1.00  0.00     0.117 A 
ATOM     19  N   UNL A   1      35.973  23.822  25.898  1.00  0.00    -0.222 NA
ENDBRANCH  11  13
ENDBRANCH   7  11
ENDBRANCH   6   7
ENDBRANCH   3   6
ENDBRANCH   1   2
BRANCH   1  20
ATOM     20  C   UNL A   1      33.176  28.534  25.754  1.00  0.00     0.042 C 
BRANCH  20  21
ATOM     21  C   UNL A   1      33.344  28.686  27.260  1.00  0.00     0.118 C 
BRANCH  21  22
ATOM     22  N   UNL A   1      33.468  30.078  27.661  1.00  0.00    -0.352 N 
ATOM     23  C   UNL A   1      34.495  30.749  28.274  1.00  0.00     0.251 C 
ATOM     24  H   UNL A   1      32.682  30.634  27.457  1.00  0.00     0.163 HD
ATOM     25  O   UNL A   1      34.284  31.877  28.713  1.00  0.00    -0.269 OA
BRANCH  23  26
ATOM     26  C   UNL A   1      35.848  30.158  28.418  1.00  0.00     0.039 A 
ATOM     27  C   UNL A   1      36.214  29.635  29.664  1.00  0.00     0.014 A 
ATOM     28  C   UNL A   1      36.794  30.202  27.391  1.00  0.00     0.014 A 
ATOM     29  C   UNL A   1      37.508  29.149  29.875  1.00  0.00     0.010 A 
ATOM     30  C   UNL A   1      38.060  29.644  27.575  1.00  0.00     0.010 A 
ATOM     31  C   UNL A   1      38.441  29.143  28.828  1.00  0.00    -0.014 A 
BRANCH  31  32
ATOM     32  C   UNL A   1      39.840  28.693  29.047  1.00  0.00     0.031 A 
ATOM     33  C   UNL A   1      40.836  29.622  29.690  1.00  0.00     0.074 A 
ATOM     34  C   UNL A   1      40.229  27.469  28.644  1.00  0.00     0.049 A 
ATOM     35  N   UNL A   1      42.112  29.438  29.925  1.00  0.00    -0.248 NA
ATOM     36  C   UNL A   1      40.338  30.946  30.103  1.00  0.00     0.031 C 
ATOM     37  C   UNL A   1      39.376  26.480  27.983  1.00  0.00     0.029 A 
ATOM     38  N   UNL A   1      41.452  26.850  28.733  1.00  0.00    -0.354 N 
ATOM     39  C   UNL A   1      42.571  30.626  30.478  1.00  0.00     0.074 A 
ATOM     40  C   UNL A   1      41.450  31.539  30.510  1.00  0.00     0.031 C 
ATOM     41  C   UNL A   1      40.094  25.369  27.749  1.00  0.00     0.029 A 
ATOM     42  C   UNL A   1      41.462  25.577  28.217  1.00  0.00     0.049 A 
ATOM     43  H   UNL A   1      42.245  27.277  29.129  1.00  0.00     0.167 HD
ATOM     44  C   UNL A   1      43.808  30.929  30.940  1.00  0.00     0.031 A 
ATOM     45  C   UNL A   1      42.460  24.678  28.132  1.00  0.00     0.031 A 
ATOM     46  C   UNL A   1      44.918  30.017  30.941  1.00  0.00     0.049 A 
ATOM     47  C   UNL A   1      43.816  25.025  28.681  1.00  0.00     0.074 A 
ATOM     48  C   UNL A   1      46.200  30.216  31.425  1.00  0.00     0.029 A 
ATOM     49  N   UNL A   1      44.874  28.725  30.442  1.00  0.00    -0.354 N 
ATOM     50  N   UNL A   1      44.221  26.138  29.239  1.00  0.00    -0.248 NA
ATOM     51  C   UNL A   1      44.845  23.979  28.604  1.00  0.00     0.031 C 
ATOM     52  C   UNL A   1      46.940  29.051  31.194  1.00  0.00     0.029 A 
ATOM     53  C   UNL A   1      46.105  28.115  30.605  1.00  0.00     0.049 A 
ATOM     54  H   UNL A   1      44.085  28.304  30.032  1.00  0.00     0.167 HD
ATOM     55  C   UNL A   1      45.541  25.916  29.611  1.00  0.00     0.074 A 
ATOM     56  C   UNL A   1      45.864  24.558  29.223  1.00  0.00     0.031 C 
ATOM     57  C   UNL A   1      46.407  26.760  30.222  1.00  0.00     0.031 A 
BRANCH  44  58
ATOM     58  C   UNL A   1      44.019  32.317  31.479  1.00  0.00    -0.014 A 
ATOM     59  C   UNL A   1      44.425  33.368  30.641  1.00  0.00     0.009 A 
ATOM     60  C   UNL A   1      43.796  32.580  32.839  1.00  0.00     0.009 A 
ATOM     61  C   UNL A   1      44.641  34.645  31.162  1.00  0.00     0.001 A 
ATOM     62  C   UNL A   1      43.986  33.865  33.352  1.00  0.00     0.001 A 
ATOM     63  C   UNL A   1      44.419  34.893  32.517  1.00  0.00     0.000 A 
ENDBRANCH  44  58
BRANCH  45  64
ATOM     64  C   UNL A   1      42.206  23.341  27.537  1.00  0.00    -0.014 A 
ATOM     65  C   UNL A   1      42.592  23.069  26.216  1.00  0.00     0.009 A 
ATOM     66  C   UNL A   1      41.575  22.334  28.283  1.00  0.00     0.009 A 
ATOM     67  C   UNL A   1      42.327  21.824  25.644  1.00  0.00     0.001 A 
ATOM     68  C   UNL A   1      41.332  21.081  27.716  1.00  0.00     0.001 A 
ATOM     69  C   UNL A   1      41.700  20.830  26.395  1.00  0.00     0.000 A 
ENDBRANCH  45  64
BRANCH  57  70
ATOM     70  C   UNL A   1      47.768  26.221  30.555  1.00  0.00    -0.014 A 
ATOM     71  C   UNL A   1      48.070  25.745  31.840  1.00  0.00     0.009 A 
ATOM     72  C   UNL A   1      48.753  26.166  29.557  1.00  0.00     0.009 A 
ATOM     73  C   UNL A   1      49.347  25.257  32.127  1.00  0.00     0.001 A 
ATOM     74  C   UNL A   1      50.019  25.654  29.840  1.00  0.00     0.001 A 
ATOM     75  C   UNL A   1      50.318  25.209  31.127  1.00  0.00     0.000 A 
ENDBRANCH  57  70
ENDBRANCH  31  32
ENDBRANCH  23  26
ENDBRANCH  21  22
ENDBRANCH  20  21
ENDBRANCH   1  20
TORSDOF 13
ENDMDL
