MODEL 1
REMARK VINA RESULT:     -10.5      0.000      0.000
REMARK SMILES COc1cc(S(=O)(=O)CCO)cc(C(=O)NCCCNC(=O)c2ccc(-c3c4nc(c(-c5ccccc5)c5ccc([nH]5)c(-c5ccccc5)c5nc(c(-c6ccccc6)c6ccc3[nH]6)C=C5)C=C4)cc2)c1OC
REMARK SMILES IDX 17 1 16 2 14 3 15 4 13 6 3 7 4 8 71 9 5 10 12 11 2 12 1 13
REMARK SMILES IDX 72 14 73 15 6 16 7 17 8 18 9 19 10 20 11 21 18 23 19 24
REMARK SMILES IDX 20 25 21 26 22 28 23 29 24 30 70 31 25 32 69 33 26 34 27 35
REMARK SMILES IDX 28 36 63 37 29 38 68 39 62 40 64 41 30 42 67 43 61 44 60 45
REMARK SMILES IDX 31 47 53 48 38 49 52 50 39 51 42 52 51 53 65 54 40 55 41 56
REMARK SMILES IDX 50 58 66 59 43 60 32 61 33 62 37 63 34 64 36 65 35 66 54 67
REMARK SMILES IDX 55 68 59 69 56 70 58 71 57 72 44 73 45 74 49 75 46 76 48 77
REMARK SMILES IDX 47 78
REMARK H PARENT 16 5 11 22 20 27 64 46 42 57
REMARK Flexibility Score: inf
ROOT
ATOM      1  C   UNL A   1      32.250  30.052  26.745  1.00  0.00     0.118 C 
ENDROOT
BRANCH   1   2
ATOM      2  N   UNL A   1      33.104  29.821  25.604  1.00  0.00    -0.352 N 
ATOM      3  C   UNL A   1      32.777  29.297  24.378  1.00  0.00     0.255 C 
ATOM      4  O   UNL A   1      33.612  29.367  23.477  1.00  0.00    -0.269 OA
ATOM      5  H   UNL A   1      34.048  30.071  25.721  1.00  0.00     0.163 HD
BRANCH   3   6
ATOM      6  C   UNL A   1      31.530  28.518  24.149  1.00  0.00     0.086 A 
ATOM      7  C   UNL A   1      30.104  26.563  24.137  1.00  0.00     0.162 A 
ATOM      8  C   UNL A   1      29.082  27.339  23.560  1.00  0.00     0.070 A 
ATOM      9  C   UNL A   1      31.328  27.161  24.493  1.00  0.00     0.173 A 
ATOM     10  C   UNL A   1      29.264  28.701  23.311  1.00  0.00     0.072 A 
ATOM     11  C   UNL A   1      30.502  29.274  23.550  1.00  0.00     0.038 A 
BRANCH   7  12
ATOM     12  O   UNL A   1      29.823  25.224  24.145  1.00  0.00    -0.493 OA
ATOM     13  C   UNL A   1      30.534  24.400  23.233  1.00  0.00     0.278 C 
ENDBRANCH   7  12
BRANCH   9  14
ATOM     14  O   UNL A   1      32.302  26.571  25.257  1.00  0.00    -0.492 OA
ATOM     15  C   UNL A   1      32.022  26.324  26.632  1.00  0.00     0.278 C 
ENDBRANCH   9  14
BRANCH  10  16
ATOM     16  S   UNL A   1      27.877  29.625  22.689  1.00  0.00     0.180 S 
ATOM     17  O   UNL A   1      28.150  29.812  21.274  1.00  0.00    -0.224 OA
ATOM     18  O   UNL A   1      26.687  28.908  23.109  1.00  0.00    -0.224 OA
BRANCH  16  19
ATOM     19  C   UNL A   1      27.820  31.240  23.420  1.00  0.00     0.170 C 
BRANCH  19  20
ATOM     20  C   UNL A   1      28.168  32.355  22.456  1.00  0.00     0.172 C 
BRANCH  20  21
ATOM     21  O   UNL A   1      29.547  32.306  22.133  1.00  0.00    -0.395 OA
ATOM     22  H   UNL A   1      29.683  32.657  21.238  1.00  0.00     0.210 HD
ENDBRANCH  20  21
ENDBRANCH  19  20
ENDBRANCH  16  19
ENDBRANCH  10  16
ENDBRANCH   3   6
ENDBRANCH   1   2
BRANCH   1  23
ATOM     23  C   UNL A   1      31.706  31.460  26.886  1.00  0.00     0.042 C 
BRANCH  23  24
ATOM     24  C   UNL A   1      32.760  32.550  26.770  1.00  0.00     0.118 C 
BRANCH  24  25
ATOM     25  N   UNL A   1      32.486  33.730  27.583  1.00  0.00    -0.352 N 
ATOM     26  C   UNL A   1      33.147  34.315  28.638  1.00  0.00     0.251 C 
ATOM     27  H   UNL A   1      31.662  34.203  27.325  1.00  0.00     0.163 HD
ATOM     28  O   UNL A   1      32.613  35.254  29.225  1.00  0.00    -0.269 OA
BRANCH  26  29
ATOM     29  C   UNL A   1      34.457  33.815  29.118  1.00  0.00     0.039 A 
ATOM     30  C   UNL A   1      34.493  32.990  30.249  1.00  0.00     0.014 A 
ATOM     31  C   UNL A   1      35.652  34.164  28.498  1.00  0.00     0.014 A 
ATOM     32  C   UNL A   1      35.707  32.445  30.685  1.00  0.00     0.010 A 
ATOM     33  C   UNL A   1      36.835  33.520  28.844  1.00  0.00     0.010 A 
ATOM     34  C   UNL A   1      36.881  32.658  29.949  1.00  0.00    -0.014 A 
BRANCH  34  35
ATOM     35  C   UNL A   1      38.174  32.018  30.312  1.00  0.00     0.031 A 
ATOM     36  C   UNL A   1      39.138  32.729  31.228  1.00  0.00     0.074 A 
ATOM     37  C   UNL A   1      38.529  30.847  29.745  1.00  0.00     0.049 A 
ATOM     38  N   UNL A   1      40.368  32.410  31.545  1.00  0.00    -0.248 NA
ATOM     39  C   UNL A   1      38.674  33.988  31.835  1.00  0.00     0.031 C 
ATOM     40  C   UNL A   1      37.718  30.075  28.801  1.00  0.00     0.029 A 
ATOM     41  N   UNL A   1      39.678  30.107  29.874  1.00  0.00    -0.354 N 
ATOM     42  C   UNL A   1      40.833  33.445  32.345  1.00  0.00     0.074 A 
ATOM     43  C   UNL A   1      39.776  34.429  32.424  1.00  0.00     0.031 C 
ATOM     44  C   UNL A   1      38.376  28.953  28.468  1.00  0.00     0.029 A 
ATOM     45  C   UNL A   1      39.674  28.949  29.133  1.00  0.00     0.049 A 
ATOM     46  H   UNL A   1      40.433  30.378  30.444  1.00  0.00     0.167 HD
ATOM     47  C   UNL A   1      42.023  33.563  32.982  1.00  0.00     0.031 A 
ATOM     48  C   UNL A   1      40.613  27.995  28.996  1.00  0.00     0.031 A 
ATOM     49  C   UNL A   1      43.058  32.566  32.948  1.00  0.00     0.049 A 
ATOM     50  C   UNL A   1      41.914  28.132  29.735  1.00  0.00     0.074 A 
ATOM     51  C   UNL A   1      44.270  32.557  33.617  1.00  0.00     0.029 A 
ATOM     52  N   UNL A   1      42.995  31.392  32.215  1.00  0.00    -0.354 N 
ATOM     53  N   UNL A   1      42.315  29.095  30.529  1.00  0.00    -0.248 NA
ATOM     54  C   UNL A   1      42.888  27.044  29.565  1.00  0.00     0.031 C 
ATOM     55  C   UNL A   1      44.955  31.391  33.261  1.00  0.00     0.029 A 
ATOM     56  C   UNL A   1      44.150  30.655  32.407  1.00  0.00     0.049 A 
ATOM     57  H   UNL A   1      42.240  31.123  31.643  1.00  0.00     0.167 HD
ATOM     58  C   UNL A   1      43.575  28.716  30.975  1.00  0.00     0.074 A 
ATOM     59  C   UNL A   1      43.864  27.430  30.374  1.00  0.00     0.031 C 
ATOM     60  C   UNL A   1      44.417  29.375  31.807  1.00  0.00     0.031 A 
BRANCH  47  61
ATOM     61  C   UNL A   1      42.260  34.816  33.779  1.00  0.00    -0.014 A 
ATOM     62  C   UNL A   1      41.919  34.887  35.140  1.00  0.00     0.009 A 
ATOM     63  C   UNL A   1      42.855  35.931  33.170  1.00  0.00     0.009 A 
ATOM     64  C   UNL A   1      42.126  36.065  35.860  1.00  0.00     0.001 A 
ATOM     65  C   UNL A   1      43.089  37.097  33.901  1.00  0.00     0.001 A 
ATOM     66  C   UNL A   1      42.715  37.167  35.242  1.00  0.00     0.000 A 
ENDBRANCH  47  61
BRANCH  48  67
ATOM     67  C   UNL A   1      40.350  26.805  28.147  1.00  0.00    -0.014 A 
ATOM     68  C   UNL A   1      40.856  26.746  26.839  1.00  0.00     0.009 A 
ATOM     69  C   UNL A   1      39.593  25.728  28.631  1.00  0.00     0.009 A 
ATOM     70  C   UNL A   1      40.582  25.645  26.022  1.00  0.00     0.001 A 
ATOM     71  C   UNL A   1      39.345  24.616  27.822  1.00  0.00     0.001 A 
ATOM     72  C   UNL A   1      39.831  24.580  26.516  1.00  0.00     0.000 A 
ENDBRANCH  48  67
BRANCH  60  73
ATOM     73  C   UNL A   1      45.712  28.697  32.148  1.00  0.00    -0.014 A 
ATOM     74  C   UNL A   1      46.871  28.920  31.391  1.00  0.00     0.009 A 
ATOM     75  C   UNL A   1      45.778  27.855  33.269  1.00  0.00     0.009 A 
ATOM     76  C   UNL A   1      48.068  28.287  31.734  1.00  0.00     0.001 A 
ATOM     77  C   UNL A   1      46.981  27.245  33.624  1.00  0.00     0.001 A 
ATOM     78  C   UNL A   1      48.122  27.454  32.852  1.00  0.00     0.000 A 
ENDBRANCH  60  73
ENDBRANCH  34  35
ENDBRANCH  26  29
ENDBRANCH  24  25
ENDBRANCH  23  24
ENDBRANCH   1  23
TORSDOF 16
ENDMDL
MODEL 2
REMARK VINA RESULT:     -10.3      1.568      6.155
REMARK SMILES COc1cc(S(=O)(=O)CCO)cc(C(=O)NCCCNC(=O)c2ccc(-c3c4nc(c(-c5ccccc5)c5ccc([nH]5)c(-c5ccccc5)c5nc(c(-c6ccccc6)c6ccc3[nH]6)C=C5)C=C4)cc2)c1OC
REMARK SMILES IDX 17 1 16 2 14 3 15 4 13 6 3 7 4 8 71 9 5 10 12 11 2 12 1 13
REMARK SMILES IDX 72 14 73 15 6 16 7 17 8 18 9 19 10 20 11 21 18 23 19 24
REMARK SMILES IDX 20 25 21 26 22 28 23 29 24 30 70 31 25 32 69 33 26 34 27 35
REMARK SMILES IDX 28 36 63 37 29 38 68 39 62 40 64 41 30 42 67 43 61 44 60 45
REMARK SMILES IDX 31 47 53 48 38 49 52 50 39 51 42 52 51 53 65 54 40 55 41 56
REMARK SMILES IDX 50 58 66 59 43 60 32 61 33 62 37 63 34 64 36 65 35 66 54 67
REMARK SMILES IDX 55 68 59 69 56 70 58 71 57 72 44 73 45 74 49 75 46 76 48 77
REMARK SMILES IDX 47 78
REMARK H PARENT 16 5 11 22 20 27 64 46 42 57
REMARK Flexibility Score: inf
ROOT
ATOM      1  C   UNL A   1      31.794  30.395  26.731  1.00  0.00     0.118 C 
ENDROOT
BRANCH   1   2
ATOM      2  N   UNL A   1      32.802  30.019  25.767  1.00  0.00    -0.352 N 
ATOM      3  C   UNL A   1      32.641  29.382  24.562  1.00  0.00     0.255 C 
ATOM      4  O   UNL A   1      33.608  29.331  23.802  1.00  0.00    -0.269 OA
ATOM      5  H   UNL A   1      33.727  30.250  26.007  1.00  0.00     0.163 HD
BRANCH   3   6
ATOM      6  C   UNL A   1      31.409  28.624  24.216  1.00  0.00     0.086 A 
ATOM      7  C   UNL A   1      29.975  26.684  24.027  1.00  0.00     0.162 A 
ATOM      8  C   UNL A   1      29.000  27.491  23.412  1.00  0.00     0.070 A 
ATOM      9  C   UNL A   1      31.175  27.256  24.491  1.00  0.00     0.173 A 
ATOM     10  C   UNL A   1      29.208  28.861  23.231  1.00  0.00     0.072 A 
ATOM     11  C   UNL A   1      30.430  29.413  23.578  1.00  0.00     0.038 A 
BRANCH   7  12
ATOM     12  O   UNL A   1      29.685  25.348  23.962  1.00  0.00    -0.493 OA
ATOM     13  C   UNL A   1      30.548  24.528  23.187  1.00  0.00     0.278 C 
ENDBRANCH   7  12
BRANCH   9  14
ATOM     14  O   UNL A   1      32.090  26.628  25.297  1.00  0.00    -0.492 OA
ATOM     15  C   UNL A   1      31.800  26.521  26.688  1.00  0.00     0.278 C 
ENDBRANCH   9  14
BRANCH  10  16
ATOM     16  S   UNL A   1      27.874  29.821  22.552  1.00  0.00     0.180 S 
ATOM     17  O   UNL A   1      28.158  29.913  21.129  1.00  0.00    -0.224 OA
ATOM     18  O   UNL A   1      26.647  29.193  23.006  1.00  0.00    -0.224 OA
BRANCH  16  19
ATOM     19  C   UNL A   1      27.902  31.475  23.190  1.00  0.00     0.170 C 
BRANCH  19  20
ATOM     20  C   UNL A   1      28.436  32.496  22.207  1.00  0.00     0.172 C 
BRANCH  20  21
ATOM     21  O   UNL A   1      28.414  33.789  22.788  1.00  0.00    -0.395 OA
ATOM     22  H   UNL A   1      29.315  34.045  23.042  1.00  0.00     0.210 HD
ENDBRANCH  20  21
ENDBRANCH  19  20
ENDBRANCH  16  19
ENDBRANCH  10  16
ENDBRANCH   3   6
ENDBRANCH   1   2
BRANCH   1  23
ATOM     23  C   UNL A   1      31.497  31.878  26.831  1.00  0.00     0.042 C 
BRANCH  23  24
ATOM     24  C   UNL A   1      32.726  32.746  27.050  1.00  0.00     0.118 C 
BRANCH  24  25
ATOM     25  N   UNL A   1      32.430  34.070  27.588  1.00  0.00    -0.352 N 
ATOM     26  C   UNL A   1      33.011  34.832  28.575  1.00  0.00     0.251 C 
ATOM     27  H   UNL A   1      31.659  34.506  27.159  1.00  0.00     0.163 HD
ATOM     28  O   UNL A   1      32.467  35.881  28.911  1.00  0.00    -0.269 OA
BRANCH  26  29
ATOM     29  C   UNL A   1      34.243  34.400  29.277  1.00  0.00     0.039 A 
ATOM     30  C   UNL A   1      34.127  33.784  30.530  1.00  0.00     0.014 A 
ATOM     31  C   UNL A   1      35.510  34.613  28.745  1.00  0.00     0.014 A 
ATOM     32  C   UNL A   1      35.266  33.302  31.186  1.00  0.00     0.010 A 
ATOM     33  C   UNL A   1      36.624  34.018  29.326  1.00  0.00     0.010 A 
ATOM     34  C   UNL A   1      36.520  33.362  30.560  1.00  0.00    -0.014 A 
BRANCH  34  35
ATOM     35  C   UNL A   1      37.742  32.772  31.170  1.00  0.00     0.031 A 
ATOM     36  C   UNL A   1      38.389  31.562  30.547  1.00  0.00     0.074 A 
ATOM     37  C   UNL A   1      38.215  33.259  32.336  1.00  0.00     0.049 A 
ATOM     38  N   UNL A   1      39.364  30.816  31.004  1.00  0.00    -0.248 NA
ATOM     39  C   UNL A   1      37.840  31.102  29.260  1.00  0.00     0.031 C 
ATOM     40  C   UNL A   1      37.657  34.393  33.077  1.00  0.00     0.029 A 
ATOM     41  N   UNL A   1      39.272  32.849  33.109  1.00  0.00    -0.354 N 
ATOM     42  C   UNL A   1      39.511  29.782  30.088  1.00  0.00     0.074 A 
ATOM     43  C   UNL A   1      38.493  29.963  29.077  1.00  0.00     0.031 C 
ATOM     44  C   UNL A   1      38.399  34.611  34.174  1.00  0.00     0.029 A 
ATOM     45  C   UNL A   1      39.453  33.605  34.242  1.00  0.00     0.049 A 
ATOM     46  H   UNL A   1      39.848  32.085  32.875  1.00  0.00     0.167 HD
ATOM     47  C   UNL A   1      40.424  28.782  30.069  1.00  0.00     0.031 A 
ATOM     48  C   UNL A   1      40.360  33.498  35.230  1.00  0.00     0.031 A 
ATOM     49  C   UNL A   1      41.470  28.626  31.044  1.00  0.00     0.049 A 
ATOM     50  C   UNL A   1      41.383  32.399  35.174  1.00  0.00     0.074 A 
ATOM     51  C   UNL A   1      42.489  27.691  31.074  1.00  0.00     0.029 A 
ATOM     52  N   UNL A   1      41.638  29.439  32.154  1.00  0.00    -0.354 N 
ATOM     53  N   UNL A   1      41.538  31.461  34.271  1.00  0.00    -0.248 NA
ATOM     54  C   UNL A   1      42.362  32.350  36.269  1.00  0.00     0.031 C 
ATOM     55  C   UNL A   1      43.254  27.916  32.222  1.00  0.00     0.029 A 
ATOM     56  C   UNL A   1      42.738  29.020  32.881  1.00  0.00     0.049 A 
ATOM     57  H   UNL A   1      41.060  30.201  32.389  1.00  0.00     0.167 HD
ATOM     58  C   UNL A   1      42.647  30.729  34.674  1.00  0.00     0.074 A 
ATOM     59  C   UNL A   1      43.133  31.340  35.894  1.00  0.00     0.031 C 
ATOM     60  C   UNL A   1      43.211  29.646  34.087  1.00  0.00     0.031 A 
BRANCH  47  61
ATOM     61  C   UNL A   1      40.336  27.785  28.948  1.00  0.00    -0.014 A 
ATOM     62  C   UNL A   1      39.583  26.606  29.081  1.00  0.00     0.009 A 
ATOM     63  C   UNL A   1      40.993  28.037  27.733  1.00  0.00     0.009 A 
ATOM     64  C   UNL A   1      39.528  25.680  28.038  1.00  0.00     0.001 A 
ATOM     65  C   UNL A   1      40.910  27.123  26.680  1.00  0.00     0.001 A 
ATOM     66  C   UNL A   1      40.188  25.941  26.837  1.00  0.00     0.000 A 
ENDBRANCH  47  61
BRANCH  48  67
ATOM     67  C   UNL A   1      40.366  34.477  36.349  1.00  0.00    -0.014 A 
ATOM     68  C   UNL A   1      41.142  35.643  36.261  1.00  0.00     0.009 A 
ATOM     69  C   UNL A   1      39.606  34.252  37.506  1.00  0.00     0.009 A 
ATOM     70  C   UNL A   1      41.181  36.550  37.324  1.00  0.00     0.001 A 
ATOM     71  C   UNL A   1      39.625  35.174  38.555  1.00  0.00     0.001 A 
ATOM     72  C   UNL A   1      40.419  36.316  38.468  1.00  0.00     0.000 A 
ENDBRANCH  48  67
BRANCH  60  73
ATOM     73  C   UNL A   1      44.441  29.080  34.734  1.00  0.00    -0.014 A 
ATOM     74  C   UNL A   1      44.356  28.061  35.694  1.00  0.00     0.009 A 
ATOM     75  C   UNL A   1      45.706  29.548  34.344  1.00  0.00     0.009 A 
ATOM     76  C   UNL A   1      45.515  27.542  36.274  1.00  0.00     0.001 A 
ATOM     77  C   UNL A   1      46.863  29.008  34.906  1.00  0.00     0.001 A 
ATOM     78  C   UNL A   1      46.766  28.012  35.877  1.00  0.00     0.000 A 
ENDBRANCH  60  73
ENDBRANCH  34  35
ENDBRANCH  26  29
ENDBRANCH  24  25
ENDBRANCH  23  24
ENDBRANCH   1  23
TORSDOF 16
ENDMDL
MODEL 3
REMARK VINA RESULT:      -9.7      1.710      6.140
REMARK SMILES COc1cc(S(=O)(=O)CCO)cc(C(=O)NCCCNC(=O)c2ccc(-c3c4nc(c(-c5ccccc5)c5ccc([nH]5)c(-c5ccccc5)c5nc(c(-c6ccccc6)c6ccc3[nH]6)C=C5)C=C4)cc2)c1OC
REMARK SMILES IDX 17 1 16 2 14 3 15 4 13 6 3 7 4 8 71 9 5 10 12 11 2 12 1 13
REMARK SMILES IDX 72 14 73 15 6 16 7 17 8 18 9 19 10 20 11 21 18 23 19 24
REMARK SMILES IDX 20 25 21 26 22 28 23 29 24 30 70 31 25 32 69 33 26 34 27 35
REMARK SMILES IDX 28 36 63 37 29 38 68 39 62 40 64 41 30 42 67 43 61 44 60 45
REMARK SMILES IDX 31 47 53 48 38 49 52 50 39 51 42 52 51 53 65 54 40 55 41 56
REMARK SMILES IDX 50 58 66 59 43 60 32 61 33 62 37 63 34 64 36 65 35 66 54 67
REMARK SMILES IDX 55 68 59 69 56 70 58 71 57 72 44 73 45 74 49 75 46 76 48 77
REMARK SMILES IDX 47 78
REMARK H PARENT 16 5 11 22 20 27 64 46 42 57
REMARK Flexibility Score: inf
ROOT
ATOM      1  C   UNL A   1      32.321  28.199  27.188  1.00  0.00     0.118 C 
ENDROOT
BRANCH   1   2
ATOM      2  N   UNL A   1      31.403  27.085  27.226  1.00  0.00    -0.352 N 
ATOM      3  C   UNL A   1      30.978  26.287  26.193  1.00  0.00     0.255 C 
ATOM      4  O   UNL A   1      30.346  25.268  26.471  1.00  0.00    -0.269 OA
ATOM      5  H   UNL A   1      31.032  26.869  28.111  1.00  0.00     0.163 HD
BRANCH   3   6
ATOM      6  C   UNL A   1      31.112  26.688  24.766  1.00  0.00     0.086 A 
ATOM      7  C   UNL A   1      32.018  26.641  22.523  1.00  0.00     0.162 A 
ATOM      8  C   UNL A   1      31.150  27.691  22.174  1.00  0.00     0.070 A 
ATOM      9  C   UNL A   1      31.970  26.084  23.816  1.00  0.00     0.173 A 
ATOM     10  C   UNL A   1      30.244  28.215  23.098  1.00  0.00     0.072 A 
ATOM     11  C   UNL A   1      30.266  27.755  24.405  1.00  0.00     0.038 A 
BRANCH   7  12
ATOM     12  O   UNL A   1      32.954  26.374  21.561  1.00  0.00    -0.493 OA
ATOM     13  C   UNL A   1      32.543  25.599  20.444  1.00  0.00     0.278 C 
ENDBRANCH   7  12
BRANCH   9  14
ATOM     14  O   UNL A   1      32.595  24.926  24.201  1.00  0.00    -0.492 OA
ATOM     15  C   UNL A   1      32.184  23.705  23.594  1.00  0.00     0.278 C 
ENDBRANCH   9  14
BRANCH  10  16
ATOM     16  S   UNL A   1      29.106  29.459  22.533  1.00  0.00     0.180 S 
ATOM     17  O   UNL A   1      29.626  29.894  21.247  1.00  0.00    -0.224 OA
ATOM     18  O   UNL A   1      27.782  28.871  22.618  1.00  0.00    -0.224 OA
BRANCH  16  19
ATOM     19  C   UNL A   1      29.138  30.873  23.604  1.00  0.00     0.170 C 
BRANCH  19  20
ATOM     20  C   UNL A   1      27.902  31.742  23.500  1.00  0.00     0.172 C 
BRANCH  20  21
ATOM     21  O   UNL A   1      27.636  32.048  22.142  1.00  0.00    -0.395 OA
ATOM     22  H   UNL A   1      26.725  32.370  22.055  1.00  0.00     0.210 HD
ENDBRANCH  20  21
ENDBRANCH  19  20
ENDBRANCH  16  19
ENDBRANCH  10  16
ENDBRANCH   3   6
ENDBRANCH   1   2
BRANCH   1  23
ATOM     23  C   UNL A   1      31.693  29.575  27.287  1.00  0.00     0.042 C 
BRANCH  23  24
ATOM     24  C   UNL A   1      32.300  30.605  26.348  1.00  0.00     0.118 C 
BRANCH  24  25
ATOM     25  N   UNL A   1      32.116  31.986  26.784  1.00  0.00    -0.352 N 
ATOM     26  C   UNL A   1      32.880  32.838  27.547  1.00  0.00     0.251 C 
ATOM     27  H   UNL A   1      31.275  32.390  26.467  1.00  0.00     0.163 HD
ATOM     28  O   UNL A   1      32.413  33.930  27.864  1.00  0.00    -0.269 OA
BRANCH  26  29
ATOM     29  C   UNL A   1      34.225  32.458  28.038  1.00  0.00     0.039 A 
ATOM     30  C   UNL A   1      35.291  33.346  27.848  1.00  0.00     0.014 A 
ATOM     31  C   UNL A   1      34.468  31.235  28.655  1.00  0.00     0.014 A 
ATOM     32  C   UNL A   1      36.558  33.047  28.362  1.00  0.00     0.010 A 
ATOM     33  C   UNL A   1      35.686  30.997  29.283  1.00  0.00     0.010 A 
ATOM     34  C   UNL A   1      36.752  31.894  29.138  1.00  0.00    -0.014 A 
BRANCH  34  35
ATOM     35  C   UNL A   1      38.052  31.584  29.791  1.00  0.00     0.031 A 
ATOM     36  C   UNL A   1      38.938  30.500  29.234  1.00  0.00     0.074 A 
ATOM     37  C   UNL A   1      38.394  32.205  30.939  1.00  0.00     0.049 A 
ATOM     38  N   UNL A   1      40.030  29.982  29.738  1.00  0.00    -0.248 NA
ATOM     39  C   UNL A   1      38.519  29.885  27.963  1.00  0.00     0.031 C 
ATOM     40  C   UNL A   1      37.607  33.238  31.618  1.00  0.00     0.029 A 
ATOM     41  N   UNL A   1      39.494  32.045  31.744  1.00  0.00    -0.354 N 
ATOM     42  C   UNL A   1      40.398  28.959  28.874  1.00  0.00     0.074 A 
ATOM     43  C   UNL A   1      39.387  28.891  27.842  1.00  0.00     0.031 C 
ATOM     44  C   UNL A   1      38.267  33.645  32.714  1.00  0.00     0.029 A 
ATOM     45  C   UNL A   1      39.497  32.871  32.843  1.00  0.00     0.049 A 
ATOM     46  H   UNL A   1      40.213  31.401  31.554  1.00  0.00     0.167 HD
ATOM     47  C   UNL A   1      41.490  28.159  28.914  1.00  0.00     0.031 A 
ATOM     48  C   UNL A   1      40.384  32.988  33.848  1.00  0.00     0.031 A 
ATOM     49  C   UNL A   1      42.524  28.254  29.909  1.00  0.00     0.049 A 
ATOM     50  C   UNL A   1      41.604  32.111  33.856  1.00  0.00     0.074 A 
ATOM     51  C   UNL A   1      43.706  27.540  29.997  1.00  0.00     0.029 A 
ATOM     52  N   UNL A   1      42.503  29.131  30.982  1.00  0.00    -0.354 N 
ATOM     53  N   UNL A   1      41.961  31.183  33.001  1.00  0.00    -0.248 NA
ATOM     54  C   UNL A   1      42.549  32.303  34.966  1.00  0.00     0.031 C 
ATOM     55  C   UNL A   1      44.386  27.962  31.143  1.00  0.00     0.029 A 
ATOM     56  C   UNL A   1      43.648  28.970  31.742  1.00  0.00     0.049 A 
ATOM     57  H   UNL A   1      41.782  29.773  31.173  1.00  0.00     0.167 HD
ATOM     58  C   UNL A   1      43.183  30.702  33.452  1.00  0.00     0.074 A 
ATOM     59  C   UNL A   1      43.512  31.450  34.648  1.00  0.00     0.031 C 
ATOM     60  C   UNL A   1      43.961  29.728  32.925  1.00  0.00     0.031 A 
BRANCH  47  61
ATOM     61  C   UNL A   1      41.624  27.116  27.839  1.00  0.00    -0.014 A 
ATOM     62  C   UNL A   1      41.150  25.808  28.032  1.00  0.00     0.009 A 
ATOM     63  C   UNL A   1      42.211  27.450  26.609  1.00  0.00     0.009 A 
ATOM     64  C   UNL A   1      41.301  24.846  27.033  1.00  0.00     0.001 A 
ATOM     65  C   UNL A   1      42.333  26.494  25.599  1.00  0.00     0.001 A 
ATOM     66  C   UNL A   1      41.888  25.190  25.815  1.00  0.00     0.000 A 
ENDBRANCH  47  61
BRANCH  48  67
ATOM     67  C   UNL A   1      40.173  33.996  34.919  1.00  0.00    -0.014 A 
ATOM     68  C   UNL A   1      40.646  35.307  34.757  1.00  0.00     0.009 A 
ATOM     69  C   UNL A   1      39.507  33.656  36.106  1.00  0.00     0.009 A 
ATOM     70  C   UNL A   1      40.482  36.250  35.775  1.00  0.00     0.001 A 
ATOM     71  C   UNL A   1      39.320  34.609  37.110  1.00  0.00     0.001 A 
ATOM     72  C   UNL A   1      39.816  35.901  36.948  1.00  0.00     0.000 A 
ENDBRANCH  48  67
BRANCH  60  73
ATOM     73  C   UNL A   1      45.265  29.444  33.614  1.00  0.00    -0.014 A 
ATOM     74  C   UNL A   1      46.433  30.142  33.277  1.00  0.00     0.009 A 
ATOM     75  C   UNL A   1      45.310  28.491  34.644  1.00  0.00     0.009 A 
ATOM     76  C   UNL A   1      47.631  29.869  33.939  1.00  0.00     0.001 A 
ATOM     77  C   UNL A   1      46.503  28.240  35.321  1.00  0.00     0.001 A 
ATOM     78  C   UNL A   1      47.664  28.922  34.963  1.00  0.00     0.000 A 
ENDBRANCH  60  73
ENDBRANCH  34  35
ENDBRANCH  26  29
ENDBRANCH  24  25
ENDBRANCH  23  24
ENDBRANCH   1  23
TORSDOF 16
ENDMDL
