MODEL 1
REMARK VINA RESULT:     -10.1      0.000      0.000
REMARK SMILES CCN(Cc1ccccn1)C(=O)[C@H]([NH3+])CCC(=O)NCCCNC(=O)c1ccc(-c2c3nc(c(-c4ccccc4)c4ccc([nH]4)c(-c4ccccc4)c4nc(c(-c5ccccc5)c5ccc2[nH]5)C=C4)C=C3)cc1
REMARK SMILES IDX 17 1 18 2 19 3 16 5 15 6 13 7 11 8 12 9 3 10 2 11 1 12 4 13
REMARK SMILES IDX 5 14 6 15 10 16 7 17 9 18 8 19 14 20 20 24 21 25 22 26 23 27
REMARK SMILES IDX 24 28 25 30 26 31 27 32 73 33 28 34 72 35 29 36 30 37 31 38
REMARK SMILES IDX 66 39 32 40 71 41 65 42 67 43 33 44 70 45 64 46 63 47 34 49
REMARK SMILES IDX 56 50 41 51 55 52 42 53 45 54 54 55 68 56 43 57 44 58 53 60
REMARK SMILES IDX 69 61 46 62 35 63 36 64 40 65 37 66 39 67 38 68 57 69 58 70
REMARK SMILES IDX 62 71 59 72 61 73 60 74 47 75 48 76 52 77 49 78 51 79 50 80
REMARK H PARENT 19 4 14 21 14 22 14 23 23 29 67 48 45 59
REMARK Flexibility Score: inf
ROOT
ATOM      1  C   UNL A   1      33.656  19.631  24.718  1.00  0.00     0.220 C 
ATOM      2  O   UNL A   1      32.874  18.679  24.774  1.00  0.00    -0.275 OA
ATOM      3  N   UNL A   1      34.982  19.382  24.888  1.00  0.00    -0.356 N 
ATOM      4  H   UNL A   1      35.231  18.430  24.930  1.00  0.00     0.163 HD
ENDROOT
BRANCH   1   5
ATOM      5  C   UNL A   1      33.151  21.048  24.506  1.00  0.00     0.106 C 
BRANCH   5   6
ATOM      6  C   UNL A   1      32.571  21.643  25.795  1.00  0.00     0.085 C 
BRANCH   6   7
ATOM      7  C   UNL A   1      31.501  22.715  25.625  1.00  0.00     0.271 C 
BRANCH   7   8
ATOM      8  C   UNL A   1      31.675  24.182  26.163  1.00  0.00     0.281 C 
ATOM      9  O   UNL A   1      31.338  24.406  27.338  1.00  0.00    -0.268 OA
BRANCH   8  10
ATOM     10  N   UNL A   1      31.956  25.241  25.307  1.00  0.00    -0.332 N 
BRANCH  10  11
ATOM     11  C   UNL A   1      33.188  25.168  24.519  1.00  0.00     0.116 C 
ATOM     12  C   UNL A   1      34.401  24.973  25.425  1.00  0.00     0.027 C 
ENDBRANCH  10  11
BRANCH  10  13
ATOM     13  C   UNL A   1      31.080  26.392  25.055  1.00  0.00     0.175 C 
BRANCH  13  14
ATOM     14  C   UNL A   1      31.652  27.712  25.562  1.00  0.00     0.060 A 
ATOM     15  C   UNL A   1      32.265  27.746  26.817  1.00  0.00     0.026 A 
ATOM     16  N   UNL A   1      31.333  28.847  24.885  1.00  0.00    -0.259 NA
ATOM     17  C   UNL A   1      32.434  28.979  27.443  1.00  0.00     0.004 A 
ATOM     18  C   UNL A   1      31.535  30.028  25.507  1.00  0.00     0.111 A 
ATOM     19  C   UNL A   1      32.045  30.142  26.786  1.00  0.00     0.020 A 
ENDBRANCH  13  14
ENDBRANCH  10  13
ENDBRANCH   8  10
ENDBRANCH   7   8
BRANCH   7  20
ATOM     20  N   UNL A   1      30.228  22.176  26.181  1.00  0.00    -0.347 N 
ATOM     21  H   UNL A   1      29.671  21.774  25.427  1.00  0.00     0.345 HD
ATOM     22  H   UNL A   1      29.704  22.930  26.625  1.00  0.00     0.345 HD
ATOM     23  H   UNL A   1      30.438  21.455  26.871  1.00  0.00     0.345 HD
ENDBRANCH   7  20
ENDBRANCH   6   7
ENDBRANCH   5   6
ENDBRANCH   1   5
BRANCH   3  24
ATOM     24  C   UNL A   1      36.083  20.319  25.015  1.00  0.00     0.117 C 
BRANCH  24  25
ATOM     25  C   UNL A   1      37.420  19.616  24.805  1.00  0.00     0.042 C 
BRANCH  25  26
ATOM     26  C   UNL A   1      38.565  20.251  25.567  1.00  0.00     0.118 C 
BRANCH  26  27
ATOM     27  N   UNL A   1      39.682  19.341  25.730  1.00  0.00    -0.352 N 
ATOM     28  C   UNL A   1      40.985  19.600  26.077  1.00  0.00     0.251 C 
ATOM     29  H   UNL A   1      39.476  18.392  25.568  1.00  0.00     0.163 HD
ATOM     30  O   UNL A   1      41.836  18.729  25.935  1.00  0.00    -0.269 OA
BRANCH  28  31
ATOM     31  C   UNL A   1      41.373  20.929  26.606  1.00  0.00     0.039 A 
ATOM     32  C   UNL A   1      41.274  21.165  27.981  1.00  0.00     0.014 A 
ATOM     33  C   UNL A   1      41.799  21.951  25.756  1.00  0.00     0.014 A 
ATOM     34  C   UNL A   1      41.655  22.404  28.503  1.00  0.00     0.010 A 
ATOM     35  C   UNL A   1      42.279  23.142  26.285  1.00  0.00     0.010 A 
ATOM     36  C   UNL A   1      42.192  23.391  27.662  1.00  0.00    -0.014 A 
BRANCH  36  37
ATOM     37  C   UNL A   1      42.627  24.712  28.184  1.00  0.00     0.031 A 
ATOM     38  C   UNL A   1      41.608  25.795  28.413  1.00  0.00     0.074 A 
ATOM     39  C   UNL A   1      43.937  24.962  28.378  1.00  0.00     0.049 A 
ATOM     40  N   UNL A   1      41.791  27.045  28.754  1.00  0.00    -0.248 NA
ATOM     41  C   UNL A   1      40.195  25.434  28.201  1.00  0.00     0.031 C 
ATOM     42  C   UNL A   1      45.026  24.007  28.164  1.00  0.00     0.029 A 
ATOM     43  N   UNL A   1      44.574  26.105  28.790  1.00  0.00    -0.354 N 
ATOM     44  C   UNL A   1      40.526  27.622  28.768  1.00  0.00     0.074 A 
ATOM     45  C   UNL A   1      39.590  26.603  28.350  1.00  0.00     0.031 C 
ATOM     46  C   UNL A   1      46.193  24.595  28.473  1.00  0.00     0.029 A 
ATOM     47  C   UNL A   1      45.941  25.981  28.856  1.00  0.00     0.049 A 
ATOM     48  H   UNL A   1      44.097  26.936  29.017  1.00  0.00     0.167 HD
ATOM     49  C   UNL A   1      40.171  28.881  29.116  1.00  0.00     0.031 A 
ATOM     50  C   UNL A   1      46.886  26.885  29.174  1.00  0.00     0.031 A 
ATOM     51  C   UNL A   1      41.102  29.886  29.552  1.00  0.00     0.049 A 
ATOM     52  C   UNL A   1      46.469  28.284  29.537  1.00  0.00     0.074 A 
ATOM     53  C   UNL A   1      40.837  31.174  29.984  1.00  0.00     0.029 A 
ATOM     54  N   UNL A   1      42.475  29.713  29.614  1.00  0.00    -0.354 N 
ATOM     55  N   UNL A   1      45.264  28.796  29.601  1.00  0.00    -0.248 NA
ATOM     56  C   UNL A   1      47.543  29.227  29.880  1.00  0.00     0.031 C 
ATOM     57  C   UNL A   1      42.058  31.800  30.253  1.00  0.00     0.029 A 
ATOM     58  C   UNL A   1      43.075  30.882  30.050  1.00  0.00     0.049 A 
ATOM     59  H   UNL A   1      42.953  28.885  29.382  1.00  0.00     0.167 HD
ATOM     60  C   UNL A   1      45.432  30.109  30.022  1.00  0.00     0.074 A 
ATOM     61  C   UNL A   1      46.854  30.312  30.207  1.00  0.00     0.031 C 
ATOM     62  C   UNL A   1      44.492  31.061  30.238  1.00  0.00     0.031 A 
BRANCH  49  63
ATOM     63  C   UNL A   1      38.714  29.241  29.032  1.00  0.00    -0.014 A 
ATOM     64  C   UNL A   1      37.859  29.102  30.138  1.00  0.00     0.009 A 
ATOM     65  C   UNL A   1      38.192  29.759  27.835  1.00  0.00     0.009 A 
ATOM     66  C   UNL A   1      36.507  29.435  30.036  1.00  0.00     0.001 A 
ATOM     67  C   UNL A   1      36.847  30.123  27.747  1.00  0.00     0.001 A 
ATOM     68  C   UNL A   1      36.003  29.950  28.843  1.00  0.00     0.000 A 
ENDBRANCH  49  63
BRANCH  50  69
ATOM     69  C   UNL A   1      48.321  26.496  29.172  1.00  0.00    -0.014 A 
ATOM     70  C   UNL A   1      49.098  26.646  28.012  1.00  0.00     0.009 A 
ATOM     71  C   UNL A   1      48.924  25.974  30.327  1.00  0.00     0.009 A 
ATOM     72  C   UNL A   1      50.439  26.254  28.002  1.00  0.00     0.001 A 
ATOM     73  C   UNL A   1      50.272  25.612  30.323  1.00  0.00     0.001 A 
ATOM     74  C   UNL A   1      51.026  25.742  29.158  1.00  0.00     0.000 A 
ENDBRANCH  50  69
BRANCH  62  75
ATOM     75  C   UNL A   1      44.960  32.396  30.744  1.00  0.00    -0.014 A 
ATOM     76  C   UNL A   1      45.267  33.446  29.865  1.00  0.00     0.009 A 
ATOM     77  C   UNL A   1      45.026  32.624  32.128  1.00  0.00     0.009 A 
ATOM     78  C   UNL A   1      45.653  34.691  30.364  1.00  0.00     0.001 A 
ATOM     79  C   UNL A   1      45.383  33.878  32.623  1.00  0.00     0.001 A 
ATOM     80  C   UNL A   1      45.703  34.908  31.740  1.00  0.00     0.000 A 
ENDBRANCH  62  75
ENDBRANCH  36  37
ENDBRANCH  28  31
ENDBRANCH  26  27
ENDBRANCH  25  26
ENDBRANCH  24  25
ENDBRANCH   3  24
TORSDOF 18
ENDMDL
MODEL 2
REMARK VINA RESULT:     -10.0      2.033      7.599
REMARK SMILES CCN(Cc1ccccn1)C(=O)[C@H]([NH3+])CCC(=O)NCCCNC(=O)c1ccc(-c2c3nc(c(-c4ccccc4)c4ccc([nH]4)c(-c4ccccc4)c4nc(c(-c5ccccc5)c5ccc2[nH]5)C=C4)C=C3)cc1
REMARK SMILES IDX 17 1 18 2 19 3 16 5 15 6 13 7 11 8 12 9 3 10 2 11 1 12 4 13
REMARK SMILES IDX 5 14 6 15 10 16 7 17 9 18 8 19 14 20 20 24 21 25 22 26 23 27
REMARK SMILES IDX 24 28 25 30 26 31 27 32 73 33 28 34 72 35 29 36 30 37 31 38
REMARK SMILES IDX 66 39 32 40 71 41 65 42 67 43 33 44 70 45 64 46 63 47 34 49
REMARK SMILES IDX 56 50 41 51 55 52 42 53 45 54 54 55 68 56 43 57 44 58 53 60
REMARK SMILES IDX 69 61 46 62 35 63 36 64 40 65 37 66 39 67 38 68 57 69 58 70
REMARK SMILES IDX 62 71 59 72 61 73 60 74 47 75 48 76 52 77 49 78 51 79 50 80
REMARK H PARENT 19 4 14 21 14 22 14 23 23 29 67 48 45 59
REMARK Flexibility Score: inf
ROOT
ATOM      1  C   UNL A   1      30.558  26.294  25.640  1.00  0.00     0.220 C 
ATOM      2  O   UNL A   1      29.955  25.710  26.544  1.00  0.00    -0.275 OA
ATOM      3  N   UNL A   1      31.570  27.134  25.984  1.00  0.00    -0.356 N 
ATOM      4  H   UNL A   1      31.821  27.125  26.936  1.00  0.00     0.163 HD
ENDROOT
BRANCH   1   5
ATOM      5  C   UNL A   1      30.159  26.110  24.186  1.00  0.00     0.106 C 
BRANCH   5   6
ATOM      6  C   UNL A   1      30.485  24.697  23.683  1.00  0.00     0.085 C 
BRANCH   6   7
ATOM      7  C   UNL A   1      31.707  24.565  22.782  1.00  0.00     0.271 C 
BRANCH   7   8
ATOM      8  C   UNL A   1      33.172  24.482  23.345  1.00  0.00     0.281 C 
ATOM      9  O   UNL A   1      33.875  25.504  23.270  1.00  0.00    -0.268 OA
BRANCH   8  10
ATOM     10  N   UNL A   1      33.750  23.264  23.686  1.00  0.00    -0.332 N 
BRANCH  10  11
ATOM     11  C   UNL A   1      32.940  22.321  24.458  1.00  0.00     0.116 C 
ATOM     12  C   UNL A   1      32.590  21.094  23.620  1.00  0.00     0.027 C 
ENDBRANCH  10  11
BRANCH  10  13
ATOM     13  C   UNL A   1      35.079  22.802  23.264  1.00  0.00     0.175 C 
BRANCH  13  14
ATOM     14  C   UNL A   1      36.073  22.679  24.414  1.00  0.00     0.060 A 
ATOM     15  C   UNL A   1      36.280  23.781  25.249  1.00  0.00     0.026 A 
ATOM     16  N   UNL A   1      36.890  21.594  24.438  1.00  0.00    -0.259 NA
ATOM     17  C   UNL A   1      37.431  23.817  26.032  1.00  0.00     0.004 A 
ATOM     18  C   UNL A   1      37.984  21.647  25.229  1.00  0.00     0.111 A 
ATOM     19  C   UNL A   1      38.310  22.740  26.009  1.00  0.00     0.020 A 
ENDBRANCH  13  14
ENDBRANCH  10  13
ENDBRANCH   8  10
ENDBRANCH   7   8
BRANCH   7  20
ATOM     20  N   UNL A   1      31.663  25.680  21.794  1.00  0.00    -0.347 N 
ATOM     21  H   UNL A   1      30.704  26.014  21.700  1.00  0.00     0.345 HD
ATOM     22  H   UNL A   1      31.998  25.348  20.890  1.00  0.00     0.345 HD
ATOM     23  H   UNL A   1      32.258  26.443  22.119  1.00  0.00     0.345 HD
ENDBRANCH   7  20
ENDBRANCH   6   7
ENDBRANCH   5   6
ENDBRANCH   1   5
BRANCH   3  24
ATOM     24  C   UNL A   1      32.333  28.042  25.147  1.00  0.00     0.117 C 
BRANCH  24  25
ATOM     25  C   UNL A   1      33.678  28.369  25.788  1.00  0.00     0.042 C 
BRANCH  25  26
ATOM     26  C   UNL A   1      33.599  28.590  27.285  1.00  0.00     0.118 C 
BRANCH  26  27
ATOM     27  N   UNL A   1      33.599  29.999  27.628  1.00  0.00    -0.352 N 
ATOM     28  C   UNL A   1      34.554  30.748  28.270  1.00  0.00     0.251 C 
ATOM     29  H   UNL A   1      32.792  30.496  27.358  1.00  0.00     0.163 HD
ATOM     30  O   UNL A   1      34.272  31.871  28.676  1.00  0.00    -0.269 OA
BRANCH  28  31
ATOM     31  C   UNL A   1      35.914  30.205  28.490  1.00  0.00     0.039 A 
ATOM     32  C   UNL A   1      36.827  30.214  27.431  1.00  0.00     0.014 A 
ATOM     33  C   UNL A   1      36.285  29.657  29.720  1.00  0.00     0.014 A 
ATOM     34  C   UNL A   1      38.122  29.725  27.624  1.00  0.00     0.010 A 
ATOM     35  C   UNL A   1      37.601  29.273  29.943  1.00  0.00     0.010 A 
ATOM     36  C   UNL A   1      38.529  29.282  28.892  1.00  0.00    -0.014 A 
BRANCH  36  37
ATOM     37  C   UNL A   1      39.903  28.776  29.140  1.00  0.00     0.031 A 
ATOM     38  C   UNL A   1      40.934  29.689  29.749  1.00  0.00     0.074 A 
ATOM     39  C   UNL A   1      40.243  27.532  28.753  1.00  0.00     0.049 A 
ATOM     40  N   UNL A   1      42.212  29.482  29.941  1.00  0.00    -0.248 NA
ATOM     41  C   UNL A   1      40.475  31.025  30.166  1.00  0.00     0.031 C 
ATOM     42  C   UNL A   1      39.345  26.560  28.126  1.00  0.00     0.029 A 
ATOM     43  N   UNL A   1      41.447  26.876  28.821  1.00  0.00    -0.354 N 
ATOM     44  C   UNL A   1      42.710  30.665  30.474  1.00  0.00     0.074 A 
ATOM     45  C   UNL A   1      41.612  31.604  30.523  1.00  0.00     0.031 C 
ATOM     46  C   UNL A   1      40.021  25.424  27.893  1.00  0.00     0.029 A 
ATOM     47  C   UNL A   1      41.410  25.603  28.304  1.00  0.00     0.049 A 
ATOM     48  H   UNL A   1      42.260  27.279  29.204  1.00  0.00     0.167 HD
ATOM     49  C   UNL A   1      43.964  30.941  30.902  1.00  0.00     0.031 A 
ATOM     50  C   UNL A   1      42.388  24.688  28.165  1.00  0.00     0.031 A 
ATOM     51  C   UNL A   1      45.049  29.999  30.871  1.00  0.00     0.049 A 
ATOM     52  C   UNL A   1      43.779  25.026  28.628  1.00  0.00     0.074 A 
ATOM     53  C   UNL A   1      46.342  30.161  31.335  1.00  0.00     0.029 A 
ATOM     54  N   UNL A   1      44.964  28.718  30.349  1.00  0.00    -0.354 N 
ATOM     55  N   UNL A   1      44.220  26.129  29.182  1.00  0.00    -0.248 NA
ATOM     56  C   UNL A   1      44.805  23.988  28.454  1.00  0.00     0.031 C 
ATOM     57  C   UNL A   1      47.057  28.996  31.042  1.00  0.00     0.029 A 
ATOM     58  C   UNL A   1      46.192  28.087  30.454  1.00  0.00     0.049 A 
ATOM     59  H   UNL A   1      44.154  28.317  29.961  1.00  0.00     0.167 HD
ATOM     60  C   UNL A   1      45.564  25.908  29.452  1.00  0.00     0.074 A 
ATOM     61  C   UNL A   1      45.864  24.561  29.010  1.00  0.00     0.031 C 
ATOM     62  C   UNL A   1      46.468  26.743  30.018  1.00  0.00     0.031 A 
BRANCH  49  63
ATOM     63  C   UNL A   1      44.229  32.323  31.433  1.00  0.00    -0.014 A 
ATOM     64  C   UNL A   1      44.644  33.365  30.587  1.00  0.00     0.009 A 
ATOM     65  C   UNL A   1      44.028  32.597  32.795  1.00  0.00     0.009 A 
ATOM     66  C   UNL A   1      44.892  34.640  31.101  1.00  0.00     0.001 A 
ATOM     67  C   UNL A   1      44.244  33.880  33.300  1.00  0.00     0.001 A 
ATOM     68  C   UNL A   1      44.687  34.898  32.455  1.00  0.00     0.000 A 
ENDBRANCH  49  63
BRANCH  50  69
ATOM     69  C   UNL A   1      42.089  23.361  27.565  1.00  0.00    -0.014 A 
ATOM     70  C   UNL A   1      41.496  22.349  28.336  1.00  0.00     0.009 A 
ATOM     71  C   UNL A   1      42.392  23.097  26.221  1.00  0.00     0.009 A 
ATOM     72  C   UNL A   1      41.241  21.092  27.781  1.00  0.00     0.001 A 
ATOM     73  C   UNL A   1      42.107  21.851  25.659  1.00  0.00     0.001 A 
ATOM     74  C   UNL A   1      41.542  20.846  26.443  1.00  0.00     0.000 A 
ENDBRANCH  50  69
BRANCH  62  75
ATOM     75  C   UNL A   1      47.858  26.216  30.237  1.00  0.00    -0.014 A 
ATOM     76  C   UNL A   1      48.816  26.228  29.212  1.00  0.00     0.009 A 
ATOM     77  C   UNL A   1      48.231  25.765  31.514  1.00  0.00     0.009 A 
ATOM     78  C   UNL A   1      50.114  25.776  29.456  1.00  0.00     0.001 A 
ATOM     79  C   UNL A   1      49.537  25.343  31.763  1.00  0.00     0.001 A 
ATOM     80  C   UNL A   1      50.475  25.343  30.732  1.00  0.00     0.000 A 
ENDBRANCH  62  75
ENDBRANCH  36  37
ENDBRANCH  28  31
ENDBRANCH  26  27
ENDBRANCH  25  26
ENDBRANCH  24  25
ENDBRANCH   3  24
TORSDOF 18
ENDMDL
MODEL 3
REMARK VINA RESULT:      -9.8      1.888      3.905
REMARK SMILES CCN(Cc1ccccn1)C(=O)[C@H]([NH3+])CCC(=O)NCCCNC(=O)c1ccc(-c2c3nc(c(-c4ccccc4)c4ccc([nH]4)c(-c4ccccc4)c4nc(c(-c5ccccc5)c5ccc2[nH]5)C=C4)C=C3)cc1
REMARK SMILES IDX 17 1 18 2 19 3 16 5 15 6 13 7 11 8 12 9 3 10 2 11 1 12 4 13
REMARK SMILES IDX 5 14 6 15 10 16 7 17 9 18 8 19 14 20 20 24 21 25 22 26 23 27
REMARK SMILES IDX 24 28 25 30 26 31 27 32 73 33 28 34 72 35 29 36 30 37 31 38
REMARK SMILES IDX 66 39 32 40 71 41 65 42 67 43 33 44 70 45 64 46 63 47 34 49
REMARK SMILES IDX 56 50 41 51 55 52 42 53 45 54 54 55 68 56 43 57 44 58 53 60
REMARK SMILES IDX 69 61 46 62 35 63 36 64 40 65 37 66 39 67 38 68 57 69 58 70
REMARK SMILES IDX 62 71 59 72 61 73 60 74 47 75 48 76 52 77 49 78 51 79 50 80
REMARK H PARENT 19 4 14 21 14 22 14 23 23 29 67 48 45 59
REMARK Flexibility Score: inf
ROOT
ATOM      1  C   UNL A   1      37.529  23.445  25.797  1.00  0.00     0.220 C 
ATOM      2  O   UNL A   1      38.259  24.363  26.177  1.00  0.00    -0.275 OA
ATOM      3  N   UNL A   1      38.116  22.347  25.248  1.00  0.00    -0.356 N 
ATOM      4  H   UNL A   1      39.099  22.323  25.301  1.00  0.00     0.163 HD
ENDROOT
BRANCH   1   5
ATOM      5  C   UNL A   1      36.018  23.550  25.902  1.00  0.00     0.106 C 
BRANCH   5   6
ATOM      6  C   UNL A   1      35.409  24.227  24.667  1.00  0.00     0.085 C 
BRANCH   6   7
ATOM      7  C   UNL A   1      33.906  24.061  24.477  1.00  0.00     0.271 C 
BRANCH   7   8
ATOM      8  C   UNL A   1      33.246  22.690  24.086  1.00  0.00     0.281 C 
ATOM      9  O   UNL A   1      33.049  22.470  22.879  1.00  0.00    -0.268 OA
BRANCH   8  10
ATOM     10  N   UNL A   1      32.677  21.858  25.045  1.00  0.00    -0.332 N 
BRANCH  10  11
ATOM     11  C   UNL A   1      32.688  22.318  26.435  1.00  0.00     0.116 C 
ATOM     12  C   UNL A   1      31.325  22.877  26.832  1.00  0.00     0.027 C 
ENDBRANCH  10  11
BRANCH  10  13
ATOM     13  C   UNL A   1      31.985  20.592  24.775  1.00  0.00     0.175 C 
BRANCH  13  14
ATOM     14  C   UNL A   1      32.849  19.361  25.028  1.00  0.00     0.060 A 
ATOM     15  C   UNL A   1      34.166  19.352  24.562  1.00  0.00     0.026 A 
ATOM     16  N   UNL A   1      32.239  18.235  25.482  1.00  0.00    -0.259 NA
ATOM     17  C   UNL A   1      34.823  18.129  24.440  1.00  0.00     0.004 A 
ATOM     18  C   UNL A   1      32.910  17.068  25.378  1.00  0.00     0.111 A 
ATOM     19  C   UNL A   1      34.178  16.962  24.837  1.00  0.00     0.020 A 
ENDBRANCH  13  14
ENDBRANCH  10  13
ENDBRANCH   8  10
ENDBRANCH   7   8
BRANCH   7  20
ATOM     20  N   UNL A   1      33.461  25.078  23.482  1.00  0.00    -0.347 N 
ATOM     21  H   UNL A   1      32.648  24.725  22.976  1.00  0.00     0.345 HD
ATOM     22  H   UNL A   1      34.217  25.262  22.823  1.00  0.00     0.345 HD
ATOM     23  H   UNL A   1      33.213  25.940  23.966  1.00  0.00     0.345 HD
ENDBRANCH   7  20
ENDBRANCH   6   7
ENDBRANCH   5   6
ENDBRANCH   1   5
BRANCH   3  24
ATOM     24  C   UNL A   1      37.498  21.207  24.595  1.00  0.00     0.117 C 
BRANCH  24  25
ATOM     25  C   UNL A   1      38.225  19.917  24.959  1.00  0.00     0.042 C 
BRANCH  25  26
ATOM     26  C   UNL A   1      39.187  20.068  26.119  1.00  0.00     0.118 C 
BRANCH  26  27
ATOM     27  N   UNL A   1      40.344  19.204  25.983  1.00  0.00    -0.352 N 
ATOM     28  C   UNL A   1      41.682  19.508  26.048  1.00  0.00     0.251 C 
ATOM     29  H   UNL A   1      40.140  18.255  25.822  1.00  0.00     0.163 HD
ATOM     30  O   UNL A   1      42.510  18.683  25.677  1.00  0.00    -0.269 OA
BRANCH  28  31
ATOM     31  C   UNL A   1      42.130  20.829  26.547  1.00  0.00     0.039 A 
ATOM     32  C   UNL A   1      42.525  21.803  25.625  1.00  0.00     0.014 A 
ATOM     33  C   UNL A   1      42.197  21.101  27.915  1.00  0.00     0.014 A 
ATOM     34  C   UNL A   1      42.931  23.062  26.075  1.00  0.00     0.010 A 
ATOM     35  C   UNL A   1      42.495  22.385  28.356  1.00  0.00     0.010 A 
ATOM     36  C   UNL A   1      42.888  23.373  27.443  1.00  0.00    -0.014 A 
BRANCH  36  37
ATOM     37  C   UNL A   1      43.291  24.707  27.956  1.00  0.00     0.031 A 
ATOM     38  C   UNL A   1      42.239  25.747  28.235  1.00  0.00     0.074 A 
ATOM     39  C   UNL A   1      44.596  25.009  28.096  1.00  0.00     0.049 A 
ATOM     40  N   UNL A   1      42.386  27.002  28.576  1.00  0.00    -0.248 NA
ATOM     41  C   UNL A   1      40.834  25.330  28.079  1.00  0.00     0.031 C 
ATOM     42  C   UNL A   1      45.713  24.100  27.831  1.00  0.00     0.029 A 
ATOM     43  N   UNL A   1      45.203  26.175  28.489  1.00  0.00    -0.354 N 
ATOM     44  C   UNL A   1      41.101  27.527  28.647  1.00  0.00     0.074 A 
ATOM     45  C   UNL A   1      40.190  26.473  28.262  1.00  0.00     0.031 C 
ATOM     46  C   UNL A   1      46.867  24.733  28.095  1.00  0.00     0.029 A 
ATOM     47  C   UNL A   1      46.576  26.106  28.497  1.00  0.00     0.049 A 
ATOM     48  H   UNL A   1      44.704  26.985  28.742  1.00  0.00     0.167 HD
ATOM     49  C   UNL A   1      40.711  28.768  29.019  1.00  0.00     0.031 A 
ATOM     50  C   UNL A   1      47.496  27.046  28.782  1.00  0.00     0.031 A 
ATOM     51  C   UNL A   1      41.617  29.808  29.422  1.00  0.00     0.049 A 
ATOM     52  C   UNL A   1      47.039  28.425  29.172  1.00  0.00     0.074 A 
ATOM     53  C   UNL A   1      41.320  31.082  29.873  1.00  0.00     0.029 A 
ATOM     54  N   UNL A   1      42.998  29.691  29.425  1.00  0.00    -0.354 N 
ATOM     55  N   UNL A   1      45.818  28.888  29.290  1.00  0.00    -0.248 NA
ATOM     56  C   UNL A   1      48.088  29.409  29.475  1.00  0.00     0.031 C 
ATOM     57  C   UNL A   1      42.524  31.756  30.095  1.00  0.00     0.029 A 
ATOM     58  C   UNL A   1      43.569  30.881  29.844  1.00  0.00     0.049 A 
ATOM     59  H   UNL A   1      43.499  28.884  29.168  1.00  0.00     0.167 HD
ATOM     60  C   UNL A   1      45.951  30.204  29.712  1.00  0.00     0.074 A 
ATOM     61  C   UNL A   1      47.370  30.463  29.839  1.00  0.00     0.031 C 
ATOM     62  C   UNL A   1      44.983  31.116  29.974  1.00  0.00     0.031 A 
BRANCH  49  63
ATOM     63  C   UNL A   1      39.237  29.070  28.998  1.00  0.00    -0.014 A 
ATOM     64  C   UNL A   1      38.439  28.901  30.141  1.00  0.00     0.009 A 
ATOM     65  C   UNL A   1      38.643  29.562  27.824  1.00  0.00     0.009 A 
ATOM     66  C   UNL A   1      37.071  29.180  30.098  1.00  0.00     0.001 A 
ATOM     67  C   UNL A   1      37.282  29.871  27.795  1.00  0.00     0.001 A 
ATOM     68  C   UNL A   1      36.495  29.670  28.927  1.00  0.00     0.000 A 
ENDBRANCH  49  63
BRANCH  50  69
ATOM     69  C   UNL A   1      48.945  26.716  28.717  1.00  0.00    -0.014 A 
ATOM     70  C   UNL A   1      49.606  26.187  29.837  1.00  0.00     0.009 A 
ATOM     71  C   UNL A   1      49.676  26.927  27.538  1.00  0.00     0.009 A 
ATOM     72  C   UNL A   1      50.973  25.903  29.784  1.00  0.00     0.001 A 
ATOM     73  C   UNL A   1      51.035  26.614  27.478  1.00  0.00     0.001 A 
ATOM     74  C   UNL A   1      51.685  26.113  28.605  1.00  0.00     0.000 A 
ENDBRANCH  50  69
BRANCH  62  75
ATOM     75  C   UNL A   1      45.418  32.466  30.469  1.00  0.00    -0.014 A 
ATOM     76  C   UNL A   1      45.684  33.521  29.582  1.00  0.00     0.009 A 
ATOM     77  C   UNL A   1      45.494  32.702  31.851  1.00  0.00     0.009 A 
ATOM     78  C   UNL A   1      46.039  34.779  30.071  1.00  0.00     0.001 A 
ATOM     79  C   UNL A   1      45.820  33.968  32.337  1.00  0.00     0.001 A 
ATOM     80  C   UNL A   1      46.099  35.004  31.446  1.00  0.00     0.000 A 
ENDBRANCH  62  75
ENDBRANCH  36  37
ENDBRANCH  28  31
ENDBRANCH  26  27
ENDBRANCH  25  26
ENDBRANCH  24  25
ENDBRANCH   3  24
TORSDOF 18
ENDMDL
