MODEL 1
REMARK VINA RESULT:     -12.6      0.000      0.000
REMARK SMILES CC[C@@H]1C=CCN1S(=O)(=O)c1sc2c(c1C(=O)NCCCNC(=O)c1ccc(-c3c4nc(c(-c5ccccc5)c5ccc([nH]5)c(-c5ccccc5)c5nc(c(-c6ccccc6)c6ccc3[nH]6)C=C5)C=C4)cc1)CC[NH2+]C2
REMARK SMILES IDX 19 1 18 2 16 3 17 4 15 6 11 7 12 8 13 9 14 10 76 11 73 12
REMARK SMILES IDX 75 13 74 14 8 17 9 18 10 19 7 20 3 21 4 22 5 23 6 24 2 25
REMARK SMILES IDX 1 26 20 27 21 28 22 29 23 30 24 32 25 33 26 34 72 35 27 36
REMARK SMILES IDX 71 37 28 38 29 39 30 40 65 41 31 42 70 43 64 44 66 45 32 46
REMARK SMILES IDX 69 47 63 48 62 49 33 51 55 52 40 53 54 54 41 55 44 56 53 57
REMARK SMILES IDX 67 58 42 59 43 60 52 62 68 63 45 64 34 65 35 66 39 67 36 68
REMARK SMILES IDX 38 69 37 70 56 71 57 72 61 73 58 74 60 75 59 76 46 77 47 78
REMARK SMILES IDX 51 79 48 80 50 81 49 82
REMARK H PARENT 18 5 75 15 75 16 22 31 66 50 44 61
REMARK Flexibility Score: inf
ROOT
ATOM      1  C   UNL A   1      31.867  30.468  26.673  1.00  0.00     0.118 C 
ENDROOT
BRANCH   1   2
ATOM      2  N   UNL A   1      32.467  30.233  25.407  1.00  0.00    -0.352 N 
ATOM      3  C   UNL A   1      32.239  29.293  24.463  1.00  0.00     0.253 C 
ATOM      4  O   UNL A   1      33.140  29.309  23.612  1.00  0.00    -0.269 OA
ATOM      5  H   UNL A   1      33.180  30.871  25.176  1.00  0.00     0.163 HD
BRANCH   3   6
ATOM      6  C   UNL A   1      31.090  28.352  24.329  1.00  0.00     0.074 A 
ATOM      7  C   UNL A   1      30.836  26.969  24.575  1.00  0.00     0.148 A 
ATOM      8  S   UNL A   1      29.221  26.556  24.025  1.00  0.00    -0.120 S 
ATOM      9  C   UNL A   1      28.844  28.090  23.511  1.00  0.00     0.064 A 
ATOM     10  C   UNL A   1      29.850  28.983  23.774  1.00  0.00    -0.009 A 
ATOM     11  C   UNL A   1      27.514  28.412  22.900  1.00  0.00     0.308 C 
ATOM     12  C   UNL A   1      29.610  30.448  23.434  1.00  0.00     0.099 C 
ATOM     13  N   UNL A   1      27.531  29.724  22.234  1.00  0.00    -0.342 N 
ATOM     14  C   UNL A   1      28.123  30.733  23.130  1.00  0.00     0.265 C 
ATOM     15  H   UNL A   1      28.086  29.662  21.380  1.00  0.00     0.346 HD
ATOM     16  H   UNL A   1      26.576  29.997  22.005  1.00  0.00     0.346 HD
BRANCH   7  17
ATOM     17  S   UNL A   1      31.564  25.370  25.235  1.00  0.00     0.254 S 
ATOM     18  O   UNL A   1      30.474  24.405  25.241  1.00  0.00    -0.206 OA
ATOM     19  O   UNL A   1      32.197  25.639  26.494  1.00  0.00    -0.206 OA
BRANCH  17  20
ATOM     20  N   UNL A   1      32.764  24.784  24.126  1.00  0.00    -0.186 NA
ATOM     21  C   UNL A   1      32.204  24.238  22.819  1.00  0.00     0.096 C 
ATOM     22  C   UNL A   1      32.633  25.255  21.809  1.00  0.00    -0.010 C 
ATOM     23  C   UNL A   1      33.533  26.098  22.311  1.00  0.00    -0.013 C 
ATOM     24  C   UNL A   1      33.765  25.847  23.755  1.00  0.00     0.130 C 
BRANCH  21  25
ATOM     25  C   UNL A   1      32.895  22.919  22.404  1.00  0.00     0.021 C 
ATOM     26  C   UNL A   1      33.254  21.989  23.547  1.00  0.00     0.006 C 
ENDBRANCH  21  25
ENDBRANCH  17  20
ENDBRANCH   7  17
ENDBRANCH   3   6
ENDBRANCH   1   2
BRANCH   1  27
ATOM     27  C   UNL A   1      31.552  31.963  26.792  1.00  0.00     0.042 C 
BRANCH  27  28
ATOM     28  C   UNL A   1      32.759  32.704  27.306  1.00  0.00     0.118 C 
BRANCH  28  29
ATOM     29  N   UNL A   1      32.477  34.119  27.615  1.00  0.00    -0.352 N 
ATOM     30  C   UNL A   1      32.995  34.906  28.641  1.00  0.00     0.251 C 
ATOM     31  H   UNL A   1      31.836  34.567  27.018  1.00  0.00     0.163 HD
ATOM     32  O   UNL A   1      32.479  35.966  28.968  1.00  0.00    -0.269 OA
BRANCH  30  33
ATOM     33  C   UNL A   1      34.207  34.417  29.322  1.00  0.00     0.039 A 
ATOM     34  C   UNL A   1      34.230  33.720  30.533  1.00  0.00     0.014 A 
ATOM     35  C   UNL A   1      35.348  34.523  28.566  1.00  0.00     0.014 A 
ATOM     36  C   UNL A   1      35.425  33.089  30.897  1.00  0.00     0.010 A 
ATOM     37  C   UNL A   1      36.201  33.481  28.659  1.00  0.00     0.010 A 
ATOM     38  C   UNL A   1      36.422  32.988  29.925  1.00  0.00    -0.014 A 
BRANCH  38  39
ATOM     39  C   UNL A   1      37.725  32.361  30.063  1.00  0.00     0.031 A 
ATOM     40  C   UNL A   1      37.803  30.978  29.534  1.00  0.00     0.074 A 
ATOM     41  C   UNL A   1      38.824  33.136  30.260  1.00  0.00     0.049 A 
ATOM     42  N   UNL A   1      38.067  29.897  30.184  1.00  0.00    -0.248 NA
ATOM     43  C   UNL A   1      37.414  30.753  28.130  1.00  0.00     0.031 C 
ATOM     44  C   UNL A   1      38.905  34.605  30.407  1.00  0.00     0.029 A 
ATOM     45  N   UNL A   1      40.135  32.795  30.200  1.00  0.00    -0.354 N 
ATOM     46  C   UNL A   1      38.076  28.881  29.236  1.00  0.00     0.074 A 
ATOM     47  C   UNL A   1      37.460  29.423  28.052  1.00  0.00     0.031 C 
ATOM     48  C   UNL A   1      40.167  35.025  30.165  1.00  0.00     0.029 A 
ATOM     49  C   UNL A   1      41.016  33.859  30.027  1.00  0.00     0.049 A 
ATOM     50  H   UNL A   1      40.442  31.862  30.273  1.00  0.00     0.167 HD
ATOM     51  C   UNL A   1      38.841  27.764  29.392  1.00  0.00     0.031 A 
ATOM     52  C   UNL A   1      42.344  33.780  29.754  1.00  0.00     0.031 A 
ATOM     53  C   UNL A   1      39.360  27.663  30.732  1.00  0.00     0.049 A 
ATOM     54  C   UNL A   1      42.769  32.401  30.100  1.00  0.00     0.074 A 
ATOM     55  C   UNL A   1      38.796  27.570  31.989  1.00  0.00     0.029 A 
ATOM     56  N   UNL A   1      40.652  28.093  30.932  1.00  0.00    -0.354 N 
ATOM     57  N   UNL A   1      42.741  31.934  31.316  1.00  0.00    -0.248 NA
ATOM     58  C   UNL A   1      42.731  31.401  29.045  1.00  0.00     0.031 C 
ATOM     59  C   UNL A   1      39.596  28.423  32.808  1.00  0.00     0.029 A 
ATOM     60  C   UNL A   1      40.647  28.914  32.031  1.00  0.00     0.049 A 
ATOM     61  H   UNL A   1      41.436  27.855  30.386  1.00  0.00     0.167 HD
ATOM     62  C   UNL A   1      42.241  30.645  31.190  1.00  0.00     0.074 A 
ATOM     63  C   UNL A   1      42.338  30.342  29.760  1.00  0.00     0.031 C 
ATOM     64  C   UNL A   1      41.514  30.063  32.190  1.00  0.00     0.031 A 
BRANCH  51  65
ATOM     65  C   UNL A   1      39.459  27.006  28.246  1.00  0.00    -0.014 A 
ATOM     66  C   UNL A   1      39.342  25.606  28.223  1.00  0.00     0.009 A 
ATOM     67  C   UNL A   1      40.375  27.579  27.341  1.00  0.00     0.009 A 
ATOM     68  C   UNL A   1      40.146  24.821  27.386  1.00  0.00     0.001 A 
ATOM     69  C   UNL A   1      41.147  26.803  26.475  1.00  0.00     0.001 A 
ATOM     70  C   UNL A   1      41.052  25.421  26.517  1.00  0.00     0.000 A 
ENDBRANCH  51  65
BRANCH  52  71
ATOM     71  C   UNL A   1      43.170  34.690  28.925  1.00  0.00    -0.014 A 
ATOM     72  C   UNL A   1      44.507  34.969  29.253  1.00  0.00     0.009 A 
ATOM     73  C   UNL A   1      42.722  35.080  27.648  1.00  0.00     0.009 A 
ATOM     74  C   UNL A   1      45.366  35.586  28.329  1.00  0.00     0.001 A 
ATOM     75  C   UNL A   1      43.578  35.692  26.725  1.00  0.00     0.001 A 
ATOM     76  C   UNL A   1      44.905  35.933  27.061  1.00  0.00     0.000 A 
ENDBRANCH  52  71
BRANCH  64  77
ATOM     77  C   UNL A   1      41.398  30.808  33.504  1.00  0.00    -0.014 A 
ATOM     78  C   UNL A   1      40.424  31.797  33.745  1.00  0.00     0.009 A 
ATOM     79  C   UNL A   1      42.175  30.377  34.586  1.00  0.00     0.009 A 
ATOM     80  C   UNL A   1      40.251  32.349  35.019  1.00  0.00     0.001 A 
ATOM     81  C   UNL A   1      41.993  30.915  35.862  1.00  0.00     0.001 A 
ATOM     82  C   UNL A   1      41.034  31.903  36.080  1.00  0.00     0.000 A 
ENDBRANCH  64  77
ENDBRANCH  38  39
ENDBRANCH  30  33
ENDBRANCH  28  29
ENDBRANCH  27  28
ENDBRANCH   1  27
TORSDOF 13
ENDMDL
MODEL 2
REMARK VINA RESULT:     -12.6      4.187      9.540
REMARK SMILES CC[C@@H]1C=CCN1S(=O)(=O)c1sc2c(c1C(=O)NCCCNC(=O)c1ccc(-c3c4nc(c(-c5ccccc5)c5ccc([nH]5)c(-c5ccccc5)c5nc(c(-c6ccccc6)c6ccc3[nH]6)C=C5)C=C4)cc1)CC[NH2+]C2
REMARK SMILES IDX 19 1 18 2 16 3 17 4 15 6 11 7 12 8 13 9 14 10 76 11 73 12
REMARK SMILES IDX 75 13 74 14 8 17 9 18 10 19 7 20 3 21 4 22 5 23 6 24 2 25
REMARK SMILES IDX 1 26 20 27 21 28 22 29 23 30 24 32 25 33 26 34 72 35 27 36
REMARK SMILES IDX 71 37 28 38 29 39 30 40 65 41 31 42 70 43 64 44 66 45 32 46
REMARK SMILES IDX 69 47 63 48 62 49 33 51 55 52 40 53 54 54 41 55 44 56 53 57
REMARK SMILES IDX 67 58 42 59 43 60 52 62 68 63 45 64 34 65 35 66 39 67 36 68
REMARK SMILES IDX 38 69 37 70 56 71 57 72 61 73 58 74 60 75 59 76 46 77 47 78
REMARK SMILES IDX 51 79 48 80 50 81 49 82
REMARK H PARENT 18 5 75 15 75 16 22 31 66 50 44 61
REMARK Flexibility Score: inf
ROOT
ATOM      1  C   UNL A   1      37.280  21.198  24.792  1.00  0.00     0.118 C 
ENDROOT
BRANCH   1   2
ATOM      2  N   UNL A   1      36.349  21.287  25.860  1.00  0.00    -0.352 N 
ATOM      3  C   UNL A   1      35.015  21.508  25.878  1.00  0.00     0.253 C 
ATOM      4  O   UNL A   1      34.631  21.736  27.033  1.00  0.00    -0.269 OA
ATOM      5  H   UNL A   1      36.748  21.166  26.752  1.00  0.00     0.163 HD
BRANCH   3   6
ATOM      6  C   UNL A   1      34.039  21.464  24.751  1.00  0.00     0.074 A 
ATOM      7  C   UNL A   1      33.337  22.404  23.938  1.00  0.00     0.148 A 
ATOM      8  S   UNL A   1      32.229  21.556  22.873  1.00  0.00    -0.120 S 
ATOM      9  C   UNL A   1      32.642  20.039  23.410  1.00  0.00     0.064 A 
ATOM     10  C   UNL A   1      33.648  20.078  24.340  1.00  0.00    -0.009 A 
ATOM     11  C   UNL A   1      32.000  18.805  22.853  1.00  0.00     0.308 C 
ATOM     12  C   UNL A   1      34.189  18.754  24.861  1.00  0.00     0.099 C 
ATOM     13  N   UNL A   1      32.275  17.629  23.695  1.00  0.00    -0.342 N 
ATOM     14  C   UNL A   1      33.715  17.560  24.004  1.00  0.00     0.265 C 
ATOM     15  H   UNL A   1      31.746  17.703  24.564  1.00  0.00     0.346 HD
ATOM     16  H   UNL A   1      31.998  16.785  23.194  1.00  0.00     0.346 HD
BRANCH   7  17
ATOM     17  S   UNL A   1      33.095  24.227  23.563  1.00  0.00     0.254 S 
ATOM     18  O   UNL A   1      32.230  24.284  22.393  1.00  0.00    -0.206 OA
ATOM     19  O   UNL A   1      34.383  24.848  23.447  1.00  0.00    -0.206 OA
BRANCH  17  20
ATOM     20  N   UNL A   1      32.237  24.974  24.875  1.00  0.00    -0.186 NA
ATOM     21  C   UNL A   1      30.761  24.604  24.957  1.00  0.00     0.096 C 
ATOM     22  C   UNL A   1      30.688  23.754  26.186  1.00  0.00    -0.010 C 
ATOM     23  C   UNL A   1      31.808  23.825  26.901  1.00  0.00    -0.013 C 
ATOM     24  C   UNL A   1      32.840  24.641  26.214  1.00  0.00     0.130 C 
BRANCH  21  25
ATOM     25  C   UNL A   1      29.875  25.837  25.247  1.00  0.00     0.021 C 
ATOM     26  C   UNL A   1      30.202  27.075  24.435  1.00  0.00     0.006 C 
ENDBRANCH  21  25
ENDBRANCH  17  20
ENDBRANCH   7  17
ENDBRANCH   3   6
ENDBRANCH   1   2
BRANCH   1  27
ATOM     27  C   UNL A   1      38.146  19.951  25.002  1.00  0.00     0.042 C 
BRANCH  27  28
ATOM     28  C   UNL A   1      39.350  20.296  25.839  1.00  0.00     0.118 C 
BRANCH  28  29
ATOM     29  N   UNL A   1      40.319  19.187  25.937  1.00  0.00    -0.352 N 
ATOM     30  C   UNL A   1      41.704  19.251  26.068  1.00  0.00     0.251 C 
ATOM     31  H   UNL A   1      39.935  18.282  25.906  1.00  0.00     0.163 HD
ATOM     32  O   UNL A   1      42.420  18.282  25.854  1.00  0.00    -0.269 OA
BRANCH  30  33
ATOM     33  C   UNL A   1      42.285  20.539  26.486  1.00  0.00     0.039 A 
ATOM     34  C   UNL A   1      42.872  21.478  25.633  1.00  0.00     0.014 A 
ATOM     35  C   UNL A   1      42.032  20.861  27.797  1.00  0.00     0.014 A 
ATOM     36  C   UNL A   1      43.119  22.756  26.146  1.00  0.00     0.010 A 
ATOM     37  C   UNL A   1      41.751  22.161  28.026  1.00  0.00     0.010 A 
ATOM     38  C   UNL A   1      42.544  23.079  27.376  1.00  0.00    -0.014 A 
BRANCH  38  39
ATOM     39  C   UNL A   1      42.640  24.342  28.089  1.00  0.00     0.031 A 
ATOM     40  C   UNL A   1      41.484  25.248  27.897  1.00  0.00     0.074 A 
ATOM     41  C   UNL A   1      43.498  24.455  29.137  1.00  0.00     0.049 A 
ATOM     42  N   UNL A   1      41.481  26.425  27.372  1.00  0.00    -0.248 NA
ATOM     43  C   UNL A   1      40.140  24.729  28.212  1.00  0.00     0.031 C 
ATOM     44  C   UNL A   1      44.436  23.448  29.676  1.00  0.00     0.029 A 
ATOM     45  N   UNL A   1      43.594  25.442  30.062  1.00  0.00    -0.354 N 
ATOM     46  C   UNL A   1      40.170  26.879  27.474  1.00  0.00     0.074 A 
ATOM     47  C   UNL A   1      39.365  25.727  27.789  1.00  0.00     0.031 C 
ATOM     48  C   UNL A   1      44.790  23.776  30.940  1.00  0.00     0.029 A 
ATOM     49  C   UNL A   1      44.258  25.090  31.235  1.00  0.00     0.049 A 
ATOM     50  H   UNL A   1      43.221  26.341  29.915  1.00  0.00     0.167 HD
ATOM     51  C   UNL A   1      39.879  28.206  27.574  1.00  0.00     0.031 A 
ATOM     52  C   UNL A   1      44.332  25.820  32.378  1.00  0.00     0.031 A 
ATOM     53  C   UNL A   1      41.026  29.023  27.268  1.00  0.00     0.049 A 
ATOM     54  C   UNL A   1      43.964  27.212  32.019  1.00  0.00     0.074 A 
ATOM     55  C   UNL A   1      41.838  29.185  26.164  1.00  0.00     0.029 A 
ATOM     56  N   UNL A   1      41.746  29.506  28.338  1.00  0.00    -0.354 N 
ATOM     57  N   UNL A   1      44.674  27.949  31.212  1.00  0.00    -0.248 NA
ATOM     58  C   UNL A   1      42.565  27.592  32.144  1.00  0.00     0.031 C 
ATOM     59  C   UNL A   1      43.160  29.274  26.696  1.00  0.00     0.029 A 
ATOM     60  C   UNL A   1      43.071  29.251  28.090  1.00  0.00     0.049 A 
ATOM     61  H   UNL A   1      41.377  29.953  29.133  1.00  0.00     0.167 HD
ATOM     62  C   UNL A   1      43.744  28.588  30.403  1.00  0.00     0.074 A 
ATOM     63  C   UNL A   1      42.460  28.397  31.082  1.00  0.00     0.031 C 
ATOM     64  C   UNL A   1      44.044  28.938  29.116  1.00  0.00     0.031 A 
BRANCH  51  65
ATOM     65  C   UNL A   1      38.705  28.749  28.347  1.00  0.00    -0.014 A 
ATOM     66  C   UNL A   1      37.902  29.735  27.748  1.00  0.00     0.009 A 
ATOM     67  C   UNL A   1      38.518  28.533  29.726  1.00  0.00     0.009 A 
ATOM     68  C   UNL A   1      37.010  30.506  28.504  1.00  0.00     0.001 A 
ATOM     69  C   UNL A   1      37.598  29.270  30.475  1.00  0.00     0.001 A 
ATOM     70  C   UNL A   1      36.864  30.276  29.868  1.00  0.00     0.000 A 
ENDBRANCH  51  65
BRANCH  52  71
ATOM     71  C   UNL A   1      44.373  25.337  33.779  1.00  0.00    -0.014 A 
ATOM     72  C   UNL A   1      45.346  25.793  34.683  1.00  0.00     0.009 A 
ATOM     73  C   UNL A   1      43.283  24.619  34.308  1.00  0.00     0.009 A 
ATOM     74  C   UNL A   1      45.215  25.567  36.062  1.00  0.00     0.001 A 
ATOM     75  C   UNL A   1      43.150  24.395  35.683  1.00  0.00     0.001 A 
ATOM     76  C   UNL A   1      44.110  24.881  36.563  1.00  0.00     0.000 A 
ENDBRANCH  52  71
BRANCH  64  77
ATOM     77  C   UNL A   1      45.471  28.748  28.647  1.00  0.00    -0.014 A 
ATOM     78  C   UNL A   1      45.952  27.534  28.118  1.00  0.00     0.009 A 
ATOM     79  C   UNL A   1      46.303  29.871  28.569  1.00  0.00     0.009 A 
ATOM     80  C   UNL A   1      47.229  27.445  27.552  1.00  0.00     0.001 A 
ATOM     81  C   UNL A   1      47.571  29.788  27.989  1.00  0.00     0.001 A 
ATOM     82  C   UNL A   1      48.037  28.576  27.484  1.00  0.00     0.000 A 
ENDBRANCH  64  77
ENDBRANCH  38  39
ENDBRANCH  30  33
ENDBRANCH  28  29
ENDBRANCH  27  28
ENDBRANCH   1  27
TORSDOF 13
ENDMDL
MODEL 3
REMARK VINA RESULT:     -11.7      3.470      7.364
REMARK SMILES CC[C@@H]1C=CCN1S(=O)(=O)c1sc2c(c1C(=O)NCCCNC(=O)c1ccc(-c3c4nc(c(-c5ccccc5)c5ccc([nH]5)c(-c5ccccc5)c5nc(c(-c6ccccc6)c6ccc3[nH]6)C=C5)C=C4)cc1)CC[NH2+]C2
REMARK SMILES IDX 19 1 18 2 16 3 17 4 15 6 11 7 12 8 13 9 14 10 76 11 73 12
REMARK SMILES IDX 75 13 74 14 8 17 9 18 10 19 7 20 3 21 4 22 5 23 6 24 2 25
REMARK SMILES IDX 1 26 20 27 21 28 22 29 23 30 24 32 25 33 26 34 72 35 27 36
REMARK SMILES IDX 71 37 28 38 29 39 30 40 65 41 31 42 70 43 64 44 66 45 32 46
REMARK SMILES IDX 69 47 63 48 62 49 33 51 55 52 40 53 54 54 41 55 44 56 53 57
REMARK SMILES IDX 67 58 42 59 43 60 52 62 68 63 45 64 34 65 35 66 39 67 36 68
REMARK SMILES IDX 38 69 37 70 56 71 57 72 61 73 58 74 60 75 59 76 46 77 47 78
REMARK SMILES IDX 51 79 48 80 50 81 49 82
REMARK H PARENT 18 5 75 15 75 16 22 31 66 50 44 61
REMARK Flexibility Score: inf
ROOT
ATOM      1  C   UNL A   1      34.015  28.948  26.661  1.00  0.00     0.118 C 
ENDROOT
BRANCH   1   2
ATOM      2  N   UNL A   1      32.930  28.517  27.469  1.00  0.00    -0.352 N 
ATOM      3  C   UNL A   1      31.814  27.811  27.178  1.00  0.00     0.253 C 
ATOM      4  O   UNL A   1      31.019  27.852  28.127  1.00  0.00    -0.269 OA
ATOM      5  H   UNL A   1      33.003  28.781  28.415  1.00  0.00     0.163 HD
BRANCH   3   6
ATOM      6  C   UNL A   1      31.493  27.022  25.955  1.00  0.00     0.074 A 
ATOM      7  C   UNL A   1      31.437  25.645  25.583  1.00  0.00     0.148 A 
ATOM      8  S   UNL A   1      31.095  25.506  23.868  1.00  0.00    -0.120 S 
ATOM      9  C   UNL A   1      30.997  27.144  23.605  1.00  0.00     0.064 A 
ATOM     10  C   UNL A   1      31.146  27.860  24.764  1.00  0.00    -0.009 A 
ATOM     11  C   UNL A   1      30.710  27.708  22.247  1.00  0.00     0.308 C 
ATOM     12  C   UNL A   1      30.995  29.374  24.690  1.00  0.00     0.099 C 
ATOM     13  N   UNL A   1      30.996  29.151  22.193  1.00  0.00    -0.342 N 
ATOM     14  C   UNL A   1      30.380  29.828  23.348  1.00  0.00     0.265 C 
ATOM     15  H   UNL A   1      32.005  29.297  22.214  1.00  0.00     0.346 HD
ATOM     16  H   UNL A   1      30.610  29.538  21.332  1.00  0.00     0.346 HD
BRANCH   7  17
ATOM     17  S   UNL A   1      31.618  23.881  26.201  1.00  0.00     0.254 S 
ATOM     18  O   UNL A   1      30.470  23.154  25.681  1.00  0.00    -0.206 OA
ATOM     19  O   UNL A   1      31.776  23.908  27.627  1.00  0.00    -0.206 OA
BRANCH  17  20
ATOM     20  N   UNL A   1      33.039  23.171  25.500  1.00  0.00    -0.186 NA
ATOM     21  C   UNL A   1      34.319  23.404  26.293  1.00  0.00     0.096 C 
ATOM     22  C   UNL A   1      34.639  22.046  26.835  1.00  0.00    -0.010 C 
ATOM     23  C   UNL A   1      33.902  21.099  26.259  1.00  0.00    -0.013 C 
ATOM     24  C   UNL A   1      32.905  21.681  25.326  1.00  0.00     0.130 C 
BRANCH  21  25
ATOM     25  C   UNL A   1      35.504  23.777  25.373  1.00  0.00     0.021 C 
ATOM     26  C   UNL A   1      36.873  23.702  26.020  1.00  0.00     0.006 C 
ENDBRANCH  21  25
ENDBRANCH  17  20
ENDBRANCH   7  17
ENDBRANCH   3   6
ENDBRANCH   1   2
BRANCH   1  27
ATOM     27  C   UNL A   1      35.184  29.328  27.577  1.00  0.00     0.042 C 
BRANCH  27  28
ATOM     28  C   UNL A   1      35.260  30.826  27.719  1.00  0.00     0.118 C 
BRANCH  28  29
ATOM     29  N   UNL A   1      35.212  31.273  29.125  1.00  0.00    -0.352 N 
ATOM     30  C   UNL A   1      36.079  30.958  30.169  1.00  0.00     0.251 C 
ATOM     31  H   UNL A   1      34.468  31.874  29.356  1.00  0.00     0.163 HD
ATOM     32  O   UNL A   1      35.781  31.153  31.339  1.00  0.00    -0.269 OA
BRANCH  30  33
ATOM     33  C   UNL A   1      37.386  30.381  29.811  1.00  0.00     0.039 A 
ATOM     34  C   UNL A   1      38.547  31.110  29.538  1.00  0.00     0.014 A 
ATOM     35  C   UNL A   1      37.446  29.016  29.953  1.00  0.00     0.014 A 
ATOM     36  C   UNL A   1      39.757  30.410  29.491  1.00  0.00     0.010 A 
ATOM     37  C   UNL A   1      38.604  28.540  30.459  1.00  0.00     0.010 A 
ATOM     38  C   UNL A   1      39.760  29.094  29.956  1.00  0.00    -0.014 A 
BRANCH  38  39
ATOM     39  C   UNL A   1      40.893  28.187  30.026  1.00  0.00     0.031 A 
ATOM     40  C   UNL A   1      41.511  28.074  31.367  1.00  0.00     0.074 A 
ATOM     41  C   UNL A   1      41.058  27.247  29.058  1.00  0.00     0.049 A 
ATOM     42  N   UNL A   1      42.716  28.378  31.711  1.00  0.00    -0.248 NA
ATOM     43  C   UNL A   1      40.644  27.694  32.498  1.00  0.00     0.031 C 
ATOM     44  C   UNL A   1      40.241  27.012  27.849  1.00  0.00     0.029 A 
ATOM     45  N   UNL A   1      41.896  26.181  29.033  1.00  0.00    -0.354 N 
ATOM     46  C   UNL A   1      42.820  28.040  33.055  1.00  0.00     0.074 A 
ATOM     47  C   UNL A   1      41.475  27.837  33.530  1.00  0.00     0.031 C 
ATOM     48  C   UNL A   1      40.460  25.763  27.378  1.00  0.00     0.029 A 
ATOM     49  C   UNL A   1      41.551  25.179  28.130  1.00  0.00     0.049 A 
ATOM     50  H   UNL A   1      42.690  26.121  29.612  1.00  0.00     0.167 HD
ATOM     51  C   UNL A   1      44.010  27.672  33.609  1.00  0.00     0.031 A 
ATOM     52  C   UNL A   1      42.105  23.942  28.037  1.00  0.00     0.031 A 
ATOM     53  C   UNL A   1      45.114  27.965  32.732  1.00  0.00     0.049 A 
ATOM     54  C   UNL A   1      43.404  24.002  28.752  1.00  0.00     0.074 A 
ATOM     55  C   UNL A   1      45.624  29.115  32.162  1.00  0.00     0.029 A 
ATOM     56  N   UNL A   1      45.598  26.923  31.974  1.00  0.00    -0.354 N 
ATOM     57  N   UNL A   1      44.398  24.746  28.357  1.00  0.00    -0.248 NA
ATOM     58  C   UNL A   1      43.413  23.643  30.161  1.00  0.00     0.031 C 
ATOM     59  C   UNL A   1      45.953  28.739  30.823  1.00  0.00     0.029 A 
ATOM     60  C   UNL A   1      45.709  27.371  30.682  1.00  0.00     0.049 A 
ATOM     61  H   UNL A   1      45.824  26.022  32.300  1.00  0.00     0.167 HD
ATOM     62  C   UNL A   1      44.902  25.311  29.521  1.00  0.00     0.074 A 
ATOM     63  C   UNL A   1      44.313  24.525  30.608  1.00  0.00     0.031 C 
ATOM     64  C   UNL A   1      45.496  26.542  29.514  1.00  0.00     0.031 A 
BRANCH  51  65
ATOM     65  C   UNL A   1      44.136  26.679  34.735  1.00  0.00    -0.014 A 
ATOM     66  C   UNL A   1      43.826  25.331  34.483  1.00  0.00     0.009 A 
ATOM     67  C   UNL A   1      44.282  27.051  36.086  1.00  0.00     0.009 A 
ATOM     68  C   UNL A   1      43.610  24.425  35.529  1.00  0.00     0.001 A 
ATOM     69  C   UNL A   1      44.111  26.141  37.131  1.00  0.00     0.001 A 
ATOM     70  C   UNL A   1      43.747  24.833  36.852  1.00  0.00     0.000 A 
ENDBRANCH  51  65
BRANCH  52  71
ATOM     71  C   UNL A   1      41.450  22.664  27.668  1.00  0.00    -0.014 A 
ATOM     72  C   UNL A   1      40.188  22.639  27.052  1.00  0.00     0.009 A 
ATOM     73  C   UNL A   1      42.189  21.466  27.682  1.00  0.00     0.009 A 
ATOM     74  C   UNL A   1      39.702  21.468  26.447  1.00  0.00     0.001 A 
ATOM     75  C   UNL A   1      41.706  20.299  27.077  1.00  0.00     0.001 A 
ATOM     76  C   UNL A   1      40.467  20.304  26.447  1.00  0.00     0.000 A 
ENDBRANCH  52  71
BRANCH  64  77
ATOM     77  C   UNL A   1      45.725  27.208  28.173  1.00  0.00    -0.014 A 
ATOM     78  C   UNL A   1      44.819  28.124  27.604  1.00  0.00     0.009 A 
ATOM     79  C   UNL A   1      46.969  27.045  27.551  1.00  0.00     0.009 A 
ATOM     80  C   UNL A   1      45.140  28.834  26.441  1.00  0.00     0.001 A 
ATOM     81  C   UNL A   1      47.297  27.765  26.400  1.00  0.00     0.001 A 
ATOM     82  C   UNL A   1      46.383  28.657  25.842  1.00  0.00     0.000 A 
ENDBRANCH  64  77
ENDBRANCH  38  39
ENDBRANCH  30  33
ENDBRANCH  28  29
ENDBRANCH  27  28
ENDBRANCH   1  27
TORSDOF 13
ENDMDL
