MODEL 1
REMARK VINA RESULT:     -12.5      0.000      0.000
REMARK SMILES C[C@@H]1C(C(=O)NCCCNC(=O)c2ccc(-c3c4nc(c(-c5ccccc5)c5ccc([nH]5)c(-c5ccccc5)c5nc(c(-c6ccccc6)c6ccc3[nH]6)C=C5)C=C4)cc2)=NC2=C1C(=O)C[C@H](c1ccccc1)C2
REMARK SMILES IDX 8 1 7 2 6 3 4 4 5 5 3 7 1 8 2 9 63 10 61 11 62 12 64 13
REMARK SMILES IDX 74 14 65 15 66 16 67 17 68 18 69 19 73 20 70 21 72 22 71 23
REMARK SMILES IDX 9 24 10 25 11 26 12 28 13 29 14 30 60 31 15 32 59 33 16 34
REMARK SMILES IDX 17 35 18 36 53 37 19 38 58 39 52 40 54 41 20 42 57 43 51 44
REMARK SMILES IDX 50 45 21 47 43 48 28 49 42 50 29 51 32 52 41 53 55 54 30 55
REMARK SMILES IDX 31 56 40 58 56 59 33 60 22 61 23 62 27 63 24 64 26 65 25 66
REMARK SMILES IDX 44 67 45 68 49 69 46 70 48 71 47 72 34 73 35 74 39 75 36 76
REMARK SMILES IDX 38 77 37 78
REMARK H PARENT 6 6 10 27 54 46 32 57
REMARK Flexibility Score: inf
ROOT
ATOM      1  C   UNL A   1      33.849  29.270  27.005  1.00  0.00     0.042 C 
ENDROOT
BRANCH   1   2
ATOM      2  C   UNL A   1      33.403  27.889  26.516  1.00  0.00     0.118 C 
BRANCH   2   3
ATOM      3  N   UNL A   1      33.951  27.504  25.222  1.00  0.00    -0.351 N 
ATOM      4  C   UNL A   1      33.333  27.542  23.982  1.00  0.00     0.266 C 
ATOM      5  O   UNL A   1      33.944  28.003  23.025  1.00  0.00    -0.268 OA
ATOM      6  H   UNL A   1      34.879  27.174  25.229  1.00  0.00     0.163 HD
BRANCH   4   7
ATOM      7  C   UNL A   1      32.030  26.785  23.744  1.00  0.00     0.113 C 
ATOM      8  C   UNL A   1      29.893  27.994  23.544  1.00  0.00     0.020 C 
ATOM      9  C   UNL A   1      30.746  27.110  24.451  1.00  0.00     0.076 C 
ATOM     10  C   UNL A   1      30.311  25.687  24.453  1.00  0.00     0.026 C 
ATOM     11  N   UNL A   1      31.969  25.732  22.964  1.00  0.00    -0.251 NA
ATOM     12  C   UNL A   1      30.894  25.019  23.453  1.00  0.00     0.049 C 
ATOM     13  C   UNL A   1      30.177  24.943  25.726  1.00  0.00     0.161 C 
ATOM     14  C   UNL A   1      30.901  23.519  23.453  1.00  0.00     0.065 C 
ATOM     15  O   UNL A   1      29.516  25.439  26.638  1.00  0.00    -0.294 OA
ATOM     16  C   UNL A   1      31.003  23.662  25.939  1.00  0.00     0.089 C 
ATOM     17  C   UNL A   1      31.716  23.063  24.682  1.00  0.00     0.033 C 
BRANCH  17  18
ATOM     18  C   UNL A   1      33.228  23.343  24.538  1.00  0.00    -0.044 A 
ATOM     19  C   UNL A   1      33.930  24.045  25.542  1.00  0.00     0.004 A 
ATOM     20  C   UNL A   1      33.973  22.934  23.423  1.00  0.00     0.004 A 
ATOM     21  C   UNL A   1      35.319  24.176  25.524  1.00  0.00     0.000 A 
ATOM     22  C   UNL A   1      35.366  23.092  23.388  1.00  0.00     0.000 A 
ATOM     23  C   UNL A   1      36.042  23.680  24.453  1.00  0.00     0.000 A 
ENDBRANCH  17  18
ENDBRANCH   4   7
ENDBRANCH   2   3
ENDBRANCH   1   2
BRANCH   1  24
ATOM     24  C   UNL A   1      35.301  29.270  27.461  1.00  0.00     0.118 C 
BRANCH  24  25
ATOM     25  N   UNL A   1      35.498  29.756  28.835  1.00  0.00    -0.352 N 
ATOM     26  C   UNL A   1      36.592  29.568  29.663  1.00  0.00     0.251 C 
ATOM     27  H   UNL A   1      34.758  30.283  29.214  1.00  0.00     0.163 HD
ATOM     28  O   UNL A   1      36.544  29.849  30.857  1.00  0.00    -0.269 OA
BRANCH  26  29
ATOM     29  C   UNL A   1      37.814  28.998  29.075  1.00  0.00     0.039 A 
ATOM     30  C   UNL A   1      38.454  29.588  27.985  1.00  0.00     0.014 A 
ATOM     31  C   UNL A   1      38.391  27.928  29.746  1.00  0.00     0.014 A 
ATOM     32  C   UNL A   1      39.741  29.161  27.664  1.00  0.00     0.010 A 
ATOM     33  C   UNL A   1      39.725  27.679  29.576  1.00  0.00     0.010 A 
ATOM     34  C   UNL A   1      40.398  28.238  28.500  1.00  0.00    -0.014 A 
BRANCH  34  35
ATOM     35  C   UNL A   1      41.805  27.903  28.302  1.00  0.00     0.031 A 
ATOM     36  C   UNL A   1      42.062  26.687  27.489  1.00  0.00     0.074 A 
ATOM     37  C   UNL A   1      42.841  28.669  28.712  1.00  0.00     0.049 A 
ATOM     38  N   UNL A   1      42.428  25.536  27.943  1.00  0.00    -0.248 NA
ATOM     39  C   UNL A   1      41.764  26.697  26.049  1.00  0.00     0.031 C 
ATOM     40  C   UNL A   1      42.838  30.011  29.312  1.00  0.00     0.029 A 
ATOM     41  N   UNL A   1      44.170  28.403  28.601  1.00  0.00    -0.354 N 
ATOM     42  C   UNL A   1      42.593  24.712  26.837  1.00  0.00     0.074 A 
ATOM     43  C   UNL A   1      42.038  25.432  25.715  1.00  0.00     0.031 C 
ATOM     44  C   UNL A   1      44.086  30.528  29.290  1.00  0.00     0.029 A 
ATOM     45  C   UNL A   1      44.999  29.480  28.880  1.00  0.00     0.049 A 
ATOM     46  H   UNL A   1      44.516  27.519  28.343  1.00  0.00     0.167 HD
ATOM     47  C   UNL A   1      43.372  23.598  26.906  1.00  0.00     0.031 A 
ATOM     48  C   UNL A   1      46.350  29.503  28.825  1.00  0.00     0.031 A 
ATOM     49  C   UNL A   1      43.698  23.259  28.269  1.00  0.00     0.049 A 
ATOM     50  C   UNL A   1      46.813  28.109  28.981  1.00  0.00     0.074 A 
ATOM     51  C   UNL A   1      42.974  22.910  29.391  1.00  0.00     0.029 A 
ATOM     52  N   UNL A   1      44.932  23.657  28.729  1.00  0.00    -0.354 N 
ATOM     53  N   UNL A   1      46.664  27.434  30.085  1.00  0.00    -0.248 NA
ATOM     54  C   UNL A   1      47.029  27.312  27.787  1.00  0.00     0.031 C 
ATOM     55  C   UNL A   1      43.627  23.579  30.470  1.00  0.00     0.029 A 
ATOM     56  C   UNL A   1      44.747  24.237  29.957  1.00  0.00     0.049 A 
ATOM     57  H   UNL A   1      45.792  23.547  28.261  1.00  0.00     0.167 HD
ATOM     58  C   UNL A   1      46.311  26.159  29.671  1.00  0.00     0.074 A 
ATOM     59  C   UNL A   1      46.661  26.115  28.252  1.00  0.00     0.031 C 
ATOM     60  C   UNL A   1      45.518  25.360  30.446  1.00  0.00     0.031 A 
BRANCH  47  61
ATOM     61  C   UNL A   1      44.179  23.065  25.752  1.00  0.00    -0.014 A 
ATOM     62  C   UNL A   1      44.155  21.681  25.498  1.00  0.00     0.009 A 
ATOM     63  C   UNL A   1      45.181  23.814  25.110  1.00  0.00     0.009 A 
ATOM     64  C   UNL A   1      45.137  21.071  24.708  1.00  0.00     0.001 A 
ATOM     65  C   UNL A   1      46.139  23.214  24.290  1.00  0.00     0.001 A 
ATOM     66  C   UNL A   1      46.135  21.837  24.113  1.00  0.00     0.000 A 
ENDBRANCH  47  61
BRANCH  48  67
ATOM     67  C   UNL A   1      47.228  30.599  28.375  1.00  0.00    -0.014 A 
ATOM     68  C   UNL A   1      47.084  31.156  27.096  1.00  0.00     0.009 A 
ATOM     69  C   UNL A   1      48.011  31.296  29.314  1.00  0.00     0.009 A 
ATOM     70  C   UNL A   1      47.662  32.394  26.784  1.00  0.00     0.001 A 
ATOM     71  C   UNL A   1      48.587  32.531  29.002  1.00  0.00     0.001 A 
ATOM     72  C   UNL A   1      48.398  33.088  27.742  1.00  0.00     0.000 A 
ENDBRANCH  48  67
BRANCH  60  73
ATOM     73  C   UNL A   1      45.225  25.819  31.857  1.00  0.00    -0.014 A 
ATOM     74  C   UNL A   1      44.197  26.725  32.174  1.00  0.00     0.009 A 
ATOM     75  C   UNL A   1      45.922  25.215  32.913  1.00  0.00     0.009 A 
ATOM     76  C   UNL A   1      43.901  27.041  33.505  1.00  0.00     0.001 A 
ATOM     77  C   UNL A   1      45.613  25.514  34.242  1.00  0.00     0.001 A 
ATOM     78  C   UNL A   1      44.607  26.432  34.538  1.00  0.00     0.000 A 
ENDBRANCH  60  73
ENDBRANCH  34  35
ENDBRANCH  26  29
ENDBRANCH  24  25
ENDBRANCH   1  24
TORSDOF 11
ENDMDL
MODEL 2
REMARK VINA RESULT:     -12.5      2.132      6.250
REMARK SMILES C[C@@H]1C(C(=O)NCCCNC(=O)c2ccc(-c3c4nc(c(-c5ccccc5)c5ccc([nH]5)c(-c5ccccc5)c5nc(c(-c6ccccc6)c6ccc3[nH]6)C=C5)C=C4)cc2)=NC2=C1C(=O)C[C@H](c1ccccc1)C2
REMARK SMILES IDX 8 1 7 2 6 3 4 4 5 5 3 7 1 8 2 9 63 10 61 11 62 12 64 13
REMARK SMILES IDX 74 14 65 15 66 16 67 17 68 18 69 19 73 20 70 21 72 22 71 23
REMARK SMILES IDX 9 24 10 25 11 26 12 28 13 29 14 30 60 31 15 32 59 33 16 34
REMARK SMILES IDX 17 35 18 36 53 37 19 38 58 39 52 40 54 41 20 42 57 43 51 44
REMARK SMILES IDX 50 45 21 47 43 48 28 49 42 50 29 51 32 52 41 53 55 54 30 55
REMARK SMILES IDX 31 56 40 58 56 59 33 60 22 61 23 62 27 63 24 64 26 65 25 66
REMARK SMILES IDX 44 67 45 68 49 69 46 70 48 71 47 72 34 73 35 74 39 75 36 76
REMARK SMILES IDX 38 77 37 78
REMARK H PARENT 6 6 10 27 54 46 32 57
REMARK Flexibility Score: inf
ROOT
ATOM      1  C   UNL A   1      33.953  28.174  25.398  1.00  0.00     0.042 C 
ENDROOT
BRANCH   1   2
ATOM      2  C   UNL A   1      33.620  26.680  25.439  1.00  0.00     0.118 C 
BRANCH   2   3
ATOM      3  N   UNL A   1      34.289  25.886  24.417  1.00  0.00    -0.351 N 
ATOM      4  C   UNL A   1      33.715  25.089  23.439  1.00  0.00     0.266 C 
ATOM      5  O   UNL A   1      34.132  25.163  22.288  1.00  0.00    -0.268 OA
ATOM      6  H   UNL A   1      35.272  25.920  24.421  1.00  0.00     0.163 HD
BRANCH   4   7
ATOM      7  C   UNL A   1      32.776  23.949  23.822  1.00  0.00     0.113 C 
ATOM      8  C   UNL A   1      30.348  24.147  23.461  1.00  0.00     0.020 C 
ATOM      9  C   UNL A   1      31.459  24.161  24.509  1.00  0.00     0.076 C 
ATOM     10  C   UNL A   1      31.569  22.881  25.259  1.00  0.00     0.026 C 
ATOM     11  N   UNL A   1      33.105  22.690  23.655  1.00  0.00    -0.251 NA
ATOM     12  C   UNL A   1      32.359  22.024  24.605  1.00  0.00     0.049 C 
ATOM     13  C   UNL A   1      31.707  22.881  26.732  1.00  0.00     0.161 C 
ATOM     14  C   UNL A   1      32.909  20.819  25.310  1.00  0.00     0.065 C 
ATOM     15  O   UNL A   1      30.907  23.531  27.404  1.00  0.00    -0.294 OA
ATOM     16  C   UNL A   1      32.940  22.218  27.371  1.00  0.00     0.089 C 
ATOM     17  C   UNL A   1      33.828  21.329  26.441  1.00  0.00     0.033 C 
BRANCH  17  18
ATOM     18  C   UNL A   1      35.136  21.958  25.914  1.00  0.00    -0.044 A 
ATOM     19  C   UNL A   1      35.502  23.272  26.279  1.00  0.00     0.004 A 
ATOM     20  C   UNL A   1      36.013  21.281  25.056  1.00  0.00     0.004 A 
ATOM     21  C   UNL A   1      36.746  23.814  25.957  1.00  0.00     0.000 A 
ATOM     22  C   UNL A   1      37.253  21.835  24.704  1.00  0.00     0.000 A 
ATOM     23  C   UNL A   1      37.634  23.085  25.183  1.00  0.00     0.000 A 
ENDBRANCH  17  18
ENDBRANCH   4   7
ENDBRANCH   2   3
ENDBRANCH   1   2
BRANCH   1  24
ATOM     24  C   UNL A   1      34.331  28.711  26.770  1.00  0.00     0.118 C 
BRANCH  24  25
ATOM     25  N   UNL A   1      34.125  30.159  26.925  1.00  0.00    -0.352 N 
ATOM     26  C   UNL A   1      34.831  31.047  27.720  1.00  0.00     0.251 C 
ATOM     27  H   UNL A   1      33.393  30.548  26.395  1.00  0.00     0.163 HD
ATOM     28  O   UNL A   1      34.427  32.189  27.916  1.00  0.00    -0.269 OA
BRANCH  26  29
ATOM     29  C   UNL A   1      36.076  30.574  28.347  1.00  0.00     0.039 A 
ATOM     30  C   UNL A   1      36.087  29.974  29.606  1.00  0.00     0.014 A 
ATOM     31  C   UNL A   1      37.224  30.615  27.567  1.00  0.00     0.014 A 
ATOM     32  C   UNL A   1      37.242  29.307  30.009  1.00  0.00     0.010 A 
ATOM     33  C   UNL A   1      38.259  29.773  27.864  1.00  0.00     0.010 A 
ATOM     34  C   UNL A   1      38.314  29.162  29.108  1.00  0.00    -0.014 A 
BRANCH  34  35
ATOM     35  C   UNL A   1      39.464  28.320  29.426  1.00  0.00     0.031 A 
ATOM     36  C   UNL A   1      39.778  28.190  30.872  1.00  0.00     0.074 A 
ATOM     37  C   UNL A   1      40.160  27.599  28.519  1.00  0.00     0.049 A 
ATOM     38  N   UNL A   1      40.743  28.779  31.493  1.00  0.00    -0.248 NA
ATOM     39  C   UNL A   1      38.867  27.442  31.750  1.00  0.00     0.031 C 
ATOM     40  C   UNL A   1      39.896  27.378  27.090  1.00  0.00     0.029 A 
ATOM     41  N   UNL A   1      41.261  26.829  28.733  1.00  0.00    -0.354 N 
ATOM     42  C   UNL A   1      40.689  28.339  32.809  1.00  0.00     0.074 A 
ATOM     43  C   UNL A   1      39.438  27.632  32.944  1.00  0.00     0.031 C 
ATOM     44  C   UNL A   1      40.658  26.360  26.633  1.00  0.00     0.029 A 
ATOM     45  C   UNL A   1      41.607  26.010  27.668  1.00  0.00     0.049 A 
ATOM     46  H   UNL A   1      41.770  26.851  29.575  1.00  0.00     0.167 HD
ATOM     47  C   UNL A   1      41.785  28.410  33.614  1.00  0.00     0.031 A 
ATOM     48  C   UNL A   1      42.635  25.131  27.618  1.00  0.00     0.031 A 
ATOM     49  C   UNL A   1      42.815  29.240  33.042  1.00  0.00     0.049 A 
ATOM     50  C   UNL A   1      43.636  25.579  28.609  1.00  0.00     0.074 A 
ATOM     51  C   UNL A   1      42.910  30.568  32.674  1.00  0.00     0.029 A 
ATOM     52  N   UNL A   1      43.839  28.595  32.387  1.00  0.00    -0.354 N 
ATOM     53  N   UNL A   1      44.307  26.688  28.483  1.00  0.00    -0.248 NA
ATOM     54  C   UNL A   1      43.570  25.039  29.954  1.00  0.00     0.031 C 
ATOM     55  C   UNL A   1      43.657  30.557  31.457  1.00  0.00     0.029 A 
ATOM     56  C   UNL A   1      44.033  29.238  31.191  1.00  0.00     0.049 A 
ATOM     57  H   UNL A   1      44.341  27.815  32.717  1.00  0.00     0.167 HD
ATOM     58  C   UNL A   1      44.352  27.218  29.763  1.00  0.00     0.074 A 
ATOM     59  C   UNL A   1      43.982  26.109  30.641  1.00  0.00     0.031 C 
ATOM     60  C   UNL A   1      44.413  28.568  29.966  1.00  0.00     0.031 A 
BRANCH  47  61
ATOM     61  C   UNL A   1      42.096  27.412  34.698  1.00  0.00    -0.014 A 
ATOM     62  C   UNL A   1      42.497  26.115  34.323  1.00  0.00     0.009 A 
ATOM     63  C   UNL A   1      41.721  27.600  36.040  1.00  0.00     0.009 A 
ATOM     64  C   UNL A   1      42.444  25.049  35.228  1.00  0.00     0.001 A 
ATOM     65  C   UNL A   1      41.703  26.545  36.956  1.00  0.00     0.001 A 
ATOM     66  C   UNL A   1      42.035  25.263  36.542  1.00  0.00     0.000 A 
ENDBRANCH  47  61
BRANCH  48  67
ATOM     67  C   UNL A   1      42.672  23.803  26.979  1.00  0.00    -0.014 A 
ATOM     68  C   UNL A   1      43.819  23.364  26.301  1.00  0.00     0.009 A 
ATOM     69  C   UNL A   1      41.685  22.850  27.291  1.00  0.00     0.009 A 
ATOM     70  C   UNL A   1      43.994  22.009  25.992  1.00  0.00     0.001 A 
ATOM     71  C   UNL A   1      41.861  21.497  26.983  1.00  0.00     0.001 A 
ATOM     72  C   UNL A   1      43.024  21.075  26.349  1.00  0.00     0.000 A 
ENDBRANCH  48  67
BRANCH  60  73
ATOM     73  C   UNL A   1      44.657  29.448  28.761  1.00  0.00    -0.014 A 
ATOM     74  C   UNL A   1      43.621  29.940  27.946  1.00  0.00     0.009 A 
ATOM     75  C   UNL A   1      45.960  29.906  28.521  1.00  0.00     0.009 A 
ATOM     76  C   UNL A   1      43.889  30.833  26.902  1.00  0.00     0.001 A 
ATOM     77  C   UNL A   1      46.226  30.813  27.493  1.00  0.00     0.001 A 
ATOM     78  C   UNL A   1      45.192  31.272  26.678  1.00  0.00     0.000 A 
ENDBRANCH  60  73
ENDBRANCH  34  35
ENDBRANCH  26  29
ENDBRANCH  24  25
ENDBRANCH   1  24
TORSDOF 11
ENDMDL
MODEL 3
REMARK VINA RESULT:     -12.2      1.807      5.976
REMARK SMILES C[C@@H]1C(C(=O)NCCCNC(=O)c2ccc(-c3c4nc(c(-c5ccccc5)c5ccc([nH]5)c(-c5ccccc5)c5nc(c(-c6ccccc6)c6ccc3[nH]6)C=C5)C=C4)cc2)=NC2=C1C(=O)C[C@H](c1ccccc1)C2
REMARK SMILES IDX 8 1 7 2 6 3 4 4 5 5 3 7 1 8 2 9 63 10 61 11 62 12 64 13
REMARK SMILES IDX 74 14 65 15 66 16 67 17 68 18 69 19 73 20 70 21 72 22 71 23
REMARK SMILES IDX 9 24 10 25 11 26 12 28 13 29 14 30 60 31 15 32 59 33 16 34
REMARK SMILES IDX 17 35 18 36 53 37 19 38 58 39 52 40 54 41 20 42 57 43 51 44
REMARK SMILES IDX 50 45 21 47 43 48 28 49 42 50 29 51 32 52 41 53 55 54 30 55
REMARK SMILES IDX 31 56 40 58 56 59 33 60 22 61 23 62 27 63 24 64 26 65 25 66
REMARK SMILES IDX 44 67 45 68 49 69 46 70 48 71 47 72 34 73 35 74 39 75 36 76
REMARK SMILES IDX 38 77 37 78
REMARK H PARENT 6 6 10 27 54 46 32 57
REMARK Flexibility Score: inf
ROOT
ATOM      1  C   UNL A   1      32.752  29.429  26.921  1.00  0.00     0.042 C 
ENDROOT
BRANCH   1   2
ATOM      2  C   UNL A   1      33.217  27.971  26.864  1.00  0.00     0.118 C 
BRANCH   2   3
ATOM      3  N   UNL A   1      33.860  27.593  25.612  1.00  0.00    -0.351 N 
ATOM      4  C   UNL A   1      33.336  27.642  24.331  1.00  0.00     0.266 C 
ATOM      5  O   UNL A   1      34.017  28.108  23.424  1.00  0.00    -0.268 OA
ATOM      6  H   UNL A   1      34.783  27.261  25.686  1.00  0.00     0.163 HD
BRANCH   4   7
ATOM      7  C   UNL A   1      32.052  26.891  23.990  1.00  0.00     0.113 C 
ATOM      8  C   UNL A   1      29.911  28.090  23.784  1.00  0.00     0.020 C 
ATOM      9  C   UNL A   1      30.738  27.156  24.664  1.00  0.00     0.076 C 
ATOM     10  C   UNL A   1      30.320  25.731  24.556  1.00  0.00     0.026 C 
ATOM     11  N   UNL A   1      32.036  25.891  23.141  1.00  0.00    -0.251 NA
ATOM     12  C   UNL A   1      30.950  25.137  23.538  1.00  0.00     0.049 C 
ATOM     13  C   UNL A   1      30.145  24.904  25.770  1.00  0.00     0.161 C 
ATOM     14  C   UNL A   1      30.975  23.640  23.439  1.00  0.00     0.065 C 
ATOM     15  O   UNL A   1      29.442  25.332  26.685  1.00  0.00    -0.294 OA
ATOM     16  C   UNL A   1      30.977  23.619  25.931  1.00  0.00     0.089 C 
ATOM     17  C   UNL A   1      31.746  23.112  24.667  1.00  0.00     0.033 C 
BRANCH  17  18
ATOM     18  C   UNL A   1      33.259  23.415  24.603  1.00  0.00    -0.044 A 
ATOM     19  C   UNL A   1      33.908  24.074  25.670  1.00  0.00     0.004 A 
ATOM     20  C   UNL A   1      34.057  23.070  23.504  1.00  0.00     0.004 A 
ATOM     21  C   UNL A   1      35.295  24.221  25.719  1.00  0.00     0.000 A 
ATOM     22  C   UNL A   1      35.448  23.244  23.537  1.00  0.00     0.000 A 
ATOM     23  C   UNL A   1      36.070  23.786  24.657  1.00  0.00     0.000 A 
ENDBRANCH  17  18
ENDBRANCH   4   7
ENDBRANCH   2   3
ENDBRANCH   1   2
BRANCH   1  24
ATOM     24  C   UNL A   1      33.918  30.403  26.829  1.00  0.00     0.118 C 
BRANCH  24  25
ATOM     25  N   UNL A   1      33.893  31.466  27.845  1.00  0.00    -0.352 N 
ATOM     26  C   UNL A   1      34.863  31.781  28.781  1.00  0.00     0.251 C 
ATOM     27  H   UNL A   1      33.083  32.026  27.860  1.00  0.00     0.163 HD
ATOM     28  O   UNL A   1      34.632  32.557  29.704  1.00  0.00    -0.269 OA
BRANCH  26  29
ATOM     29  C   UNL A   1      36.182  31.142  28.652  1.00  0.00     0.039 A 
ATOM     30  C   UNL A   1      37.363  31.815  28.965  1.00  0.00     0.014 A 
ATOM     31  C   UNL A   1      36.194  29.787  28.348  1.00  0.00     0.014 A 
ATOM     32  C   UNL A   1      38.535  31.071  29.088  1.00  0.00     0.010 A 
ATOM     33  C   UNL A   1      37.284  29.038  28.694  1.00  0.00     0.010 A 
ATOM     34  C   UNL A   1      38.481  29.667  29.003  1.00  0.00    -0.014 A 
BRANCH  34  35
ATOM     35  C   UNL A   1      39.648  28.843  29.305  1.00  0.00     0.031 A 
ATOM     36  C   UNL A   1      39.950  28.670  30.749  1.00  0.00     0.074 A 
ATOM     37  C   UNL A   1      40.374  28.174  28.381  1.00  0.00     0.049 A 
ATOM     38  N   UNL A   1      40.892  29.260  31.403  1.00  0.00    -0.248 NA
ATOM     39  C   UNL A   1      39.049  27.866  31.588  1.00  0.00     0.031 C 
ATOM     40  C   UNL A   1      40.132  27.999  26.942  1.00  0.00     0.029 A 
ATOM     41  N   UNL A   1      41.492  27.426  28.580  1.00  0.00    -0.354 N 
ATOM     42  C   UNL A   1      40.835  28.771  32.701  1.00  0.00     0.074 A 
ATOM     43  C   UNL A   1      39.601  28.027  32.795  1.00  0.00     0.031 C 
ATOM     44  C   UNL A   1      40.925  27.018  26.457  1.00  0.00     0.029 A 
ATOM     45  C   UNL A   1      41.872  26.655  27.491  1.00  0.00     0.049 A 
ATOM     46  H   UNL A   1      41.991  27.430  29.429  1.00  0.00     0.167 HD
ATOM     47  C   UNL A   1      41.919  28.841  33.521  1.00  0.00     0.031 A 
ATOM     48  C   UNL A   1      42.923  25.805  27.423  1.00  0.00     0.031 A 
ATOM     49  C   UNL A   1      42.933  29.718  32.993  1.00  0.00     0.049 A 
ATOM     50  C   UNL A   1      43.900  26.243  28.441  1.00  0.00     0.074 A 
ATOM     51  C   UNL A   1      42.998  31.060  32.674  1.00  0.00     0.029 A 
ATOM     52  N   UNL A   1      43.981  29.124  32.328  1.00  0.00    -0.354 N 
ATOM     53  N   UNL A   1      44.543  27.373  28.363  1.00  0.00    -0.248 NA
ATOM     54  C   UNL A   1      43.833  25.653  29.765  1.00  0.00     0.031 C 
ATOM     55  C   UNL A   1      43.759  31.113  31.467  1.00  0.00     0.029 A 
ATOM     56  C   UNL A   1      44.172  29.815  31.158  1.00  0.00     0.049 A 
ATOM     57  H   UNL A   1      44.500  28.346  32.635  1.00  0.00     0.167 HD
ATOM     58  C   UNL A   1      44.560  27.857  29.662  1.00  0.00     0.074 A 
ATOM     59  C   UNL A   1      44.209  26.707  30.495  1.00  0.00     0.031 C 
ATOM     60  C   UNL A   1      44.583  29.200  29.914  1.00  0.00     0.031 A 
BRANCH  47  61
ATOM     61  C   UNL A   1      42.243  27.813  34.572  1.00  0.00    -0.014 A 
ATOM     62  C   UNL A   1      42.763  26.571  34.160  1.00  0.00     0.009 A 
ATOM     63  C   UNL A   1      41.780  27.901  35.897  1.00  0.00     0.009 A 
ATOM     64  C   UNL A   1      42.741  25.457  35.008  1.00  0.00     0.001 A 
ATOM     65  C   UNL A   1      41.791  26.801  36.758  1.00  0.00     0.001 A 
ATOM     66  C   UNL A   1      42.244  25.571  36.303  1.00  0.00     0.000 A 
ENDBRANCH  47  61
BRANCH  48  67
ATOM     67  C   UNL A   1      43.002  24.503  26.736  1.00  0.00    -0.014 A 
ATOM     68  C   UNL A   1      44.155  24.133  26.028  1.00  0.00     0.009 A 
ATOM     69  C   UNL A   1      42.058  23.502  27.028  1.00  0.00     0.009 A 
ATOM     70  C   UNL A   1      44.378  22.798  25.669  1.00  0.00     0.001 A 
ATOM     71  C   UNL A   1      42.281  22.168  26.670  1.00  0.00     0.001 A 
ATOM     72  C   UNL A   1      43.450  21.814  26.005  1.00  0.00     0.000 A 
ENDBRANCH  48  67
BRANCH  60  73
ATOM     73  C   UNL A   1      44.817  30.129  28.745  1.00  0.00    -0.014 A 
ATOM     74  C   UNL A   1      43.785  30.581  27.903  1.00  0.00     0.009 A 
ATOM     75  C   UNL A   1      46.098  30.673  28.570  1.00  0.00     0.009 A 
ATOM     76  C   UNL A   1      44.036  31.520  26.896  1.00  0.00     0.001 A 
ATOM     77  C   UNL A   1      46.345  31.625  27.579  1.00  0.00     0.001 A 
ATOM     78  C   UNL A   1      45.317  32.044  26.737  1.00  0.00     0.000 A 
ENDBRANCH  60  73
ENDBRANCH  34  35
ENDBRANCH  26  29
ENDBRANCH  24  25
ENDBRANCH   1  24
TORSDOF 11
ENDMDL
