MODEL 1
REMARK VINA RESULT:     -10.9      0.000      0.000
REMARK SMILES O=C(NCCCNC(=O)[C@H]1CCCCN1C(=O)CSCc1ccccc1)c1ccc(-c2c3nc(c(-c4ccccc4)c4ccc([nH]4)c(-c4ccccc4)c4nc(c(-c5ccccc5)c5ccc2[nH]5)C=C4)C=C3)cc1
REMARK SMILES IDX 7 1 8 2 9 3 6 5 5 6 4 7 3 8 1 9 2 10 27 12 28 13 74 14 29 15
REMARK SMILES IDX 73 16 30 17 31 18 32 19 67 20 33 21 72 22 66 23 68 24 34 25
REMARK SMILES IDX 71 26 65 27 64 28 35 30 57 31 42 32 56 33 43 34 46 35 55 36
REMARK SMILES IDX 69 37 44 38 45 39 54 41 70 42 47 43 36 44 37 45 41 46 38 47
REMARK SMILES IDX 40 48 39 49 58 50 59 51 63 52 60 53 62 54 61 55 48 56 49 57
REMARK SMILES IDX 53 58 50 59 52 60 51 61 10 62 11 63 15 64 12 65 14 66 13 67
REMARK SMILES IDX 16 68 17 69 18 70 19 71 20 72 21 73 22 74 26 75 23 76 25 77
REMARK SMILES IDX 24 78
REMARK H PARENT 7 4 3 11 68 29 46 40
REMARK Flexibility Score: inf
ROOT
ATOM      1  N   UNL A   1      35.005  19.845  25.019  1.00  0.00    -0.354 N 
ATOM      2  C   UNL A   1      33.780  20.232  25.462  1.00  0.00     0.242 C 
ATOM      3  O   UNL A   1      32.877  19.406  25.278  1.00  0.00    -0.273 OA
ATOM      4  H   UNL A   1      35.041  18.913  24.703  1.00  0.00     0.163 HD
ENDROOT
BRANCH   1   5
ATOM      5  C   UNL A   1      36.264  20.546  24.928  1.00  0.00     0.117 C 
BRANCH   5   6
ATOM      6  C   UNL A   1      37.443  19.595  24.955  1.00  0.00     0.042 C 
BRANCH   6   7
ATOM      7  C   UNL A   1      38.668  20.269  25.550  1.00  0.00     0.118 C 
BRANCH   7   8
ATOM      8  N   UNL A   1      39.783  19.335  25.699  1.00  0.00    -0.352 N 
ATOM      9  O   UNL A   1      41.925  18.656  25.845  1.00  0.00    -0.269 OA
ATOM     10  C   UNL A   1      41.102  19.552  26.024  1.00  0.00     0.251 C 
ATOM     11  H   UNL A   1      39.550  18.391  25.541  1.00  0.00     0.163 HD
BRANCH  10  12
ATOM     12  C   UNL A   1      41.539  20.856  26.568  1.00  0.00     0.039 A 
ATOM     13  C   UNL A   1      41.562  21.066  27.942  1.00  0.00     0.014 A 
ATOM     14  C   UNL A   1      41.962  21.874  25.707  1.00  0.00     0.014 A 
ATOM     15  C   UNL A   1      41.775  22.339  28.441  1.00  0.00     0.010 A 
ATOM     16  C   UNL A   1      42.339  23.119  26.229  1.00  0.00     0.010 A 
ATOM     17  C   UNL A   1      42.211  23.374  27.600  1.00  0.00    -0.014 A 
BRANCH  17  18
ATOM     18  C   UNL A   1      42.592  24.664  28.235  1.00  0.00     0.031 A 
ATOM     19  C   UNL A   1      44.027  25.029  28.490  1.00  0.00     0.074 A 
ATOM     20  C   UNL A   1      41.612  25.560  28.480  1.00  0.00     0.049 A 
ATOM     21  N   UNL A   1      44.516  26.162  28.931  1.00  0.00    -0.248 NA
ATOM     22  C   UNL A   1      45.046  24.001  28.232  1.00  0.00     0.031 C 
ATOM     23  C   UNL A   1      40.178  25.311  28.288  1.00  0.00     0.029 A 
ATOM     24  N   UNL A   1      41.667  26.872  28.871  1.00  0.00    -0.354 N 
ATOM     25  C   UNL A   1      45.888  25.975  29.029  1.00  0.00     0.074 A 
ATOM     26  C   UNL A   1      46.156  24.613  28.619  1.00  0.00     0.031 C 
ATOM     27  C   UNL A   1      39.506  26.459  28.447  1.00  0.00     0.029 A 
ATOM     28  C   UNL A   1      40.443  27.499  28.846  1.00  0.00     0.049 A 
ATOM     29  H   UNL A   1      42.499  27.321  29.142  1.00  0.00     0.167 HD
ATOM     30  C   UNL A   1      46.836  26.858  29.424  1.00  0.00     0.031 A 
ATOM     31  C   UNL A   1      40.102  28.770  29.122  1.00  0.00     0.031 A 
ATOM     32  C   UNL A   1      46.564  28.215  29.824  1.00  0.00     0.049 A 
ATOM     33  C   UNL A   1      41.175  29.727  29.541  1.00  0.00     0.074 A 
ATOM     34  C   UNL A   1      47.457  29.185  30.252  1.00  0.00     0.029 A 
ATOM     35  N   UNL A   1      45.307  28.798  29.837  1.00  0.00    -0.354 N 
ATOM     36  N   UNL A   1      42.466  29.524  29.638  1.00  0.00    -0.248 NA
ATOM     37  C   UNL A   1      40.743  31.084  29.900  1.00  0.00     0.031 C 
ATOM     38  C   UNL A   1      46.734  30.343  30.556  1.00  0.00     0.029 A 
ATOM     39  C   UNL A   1      45.398  30.110  30.272  1.00  0.00     0.049 A 
ATOM     40  H   UNL A   1      44.472  28.347  29.575  1.00  0.00     0.167 HD
ATOM     41  C   UNL A   1      43.002  30.723  30.080  1.00  0.00     0.074 A 
ATOM     42  C   UNL A   1      41.901  31.660  30.187  1.00  0.00     0.031 C 
ATOM     43  C   UNL A   1      44.288  31.019  30.387  1.00  0.00     0.031 A 
BRANCH  30  44
ATOM     44  C   UNL A   1      48.259  26.377  29.469  1.00  0.00    -0.014 A 
ATOM     45  C   UNL A   1      49.114  26.524  28.365  1.00  0.00     0.009 A 
ATOM     46  C   UNL A   1      48.768  25.815  30.650  1.00  0.00     0.009 A 
ATOM     47  C   UNL A   1      50.441  26.094  28.436  1.00  0.00     0.001 A 
ATOM     48  C   UNL A   1      50.102  25.408  30.726  1.00  0.00     0.001 A 
ATOM     49  C   UNL A   1      50.936  25.542  29.617  1.00  0.00     0.000 A 
ENDBRANCH  30  44
BRANCH  31  50
ATOM     50  C   UNL A   1      38.680  29.190  29.042  1.00  0.00    -0.014 A 
ATOM     51  C   UNL A   1      37.832  29.084  30.154  1.00  0.00     0.009 A 
ATOM     52  C   UNL A   1      38.167  29.723  27.847  1.00  0.00     0.009 A 
ATOM     53  C   UNL A   1      36.497  29.486  30.065  1.00  0.00     0.001 A 
ATOM     54  C   UNL A   1      36.844  30.156  27.771  1.00  0.00     0.001 A 
ATOM     55  C   UNL A   1      36.007  30.030  28.878  1.00  0.00     0.000 A 
ENDBRANCH  31  50
BRANCH  43  56
ATOM     56  C   UNL A   1      44.556  32.416  30.863  1.00  0.00    -0.014 A 
ATOM     57  C   UNL A   1      44.519  32.732  32.230  1.00  0.00     0.009 A 
ATOM     58  C   UNL A   1      44.848  33.425  29.934  1.00  0.00     0.009 A 
ATOM     59  C   UNL A   1      44.727  34.045  32.654  1.00  0.00     0.001 A 
ATOM     60  C   UNL A   1      45.081  34.733  30.364  1.00  0.00     0.001 A 
ATOM     61  C   UNL A   1      45.009  35.043  31.722  1.00  0.00     0.000 A 
ENDBRANCH  43  56
ENDBRANCH  17  18
ENDBRANCH  10  12
ENDBRANCH   7   8
ENDBRANCH   6   7
ENDBRANCH   5   6
ENDBRANCH   1   5
BRANCH   2  62
ATOM     62  C   UNL A   1      33.452  21.649  26.007  1.00  0.00     0.174 C 
ATOM     63  C   UNL A   1      34.477  22.429  26.837  1.00  0.00     0.035 C 
ATOM     64  N   UNL A   1      32.857  22.500  24.972  1.00  0.00    -0.330 N 
ATOM     65  C   UNL A   1      35.224  23.588  26.149  1.00  0.00     0.004 C 
ATOM     66  C   UNL A   1      33.810  23.076  24.042  1.00  0.00     0.120 C 
ATOM     67  C   UNL A   1      34.720  24.052  24.777  1.00  0.00     0.022 C 
BRANCH  64  68
ATOM     68  C   UNL A   1      31.498  22.774  25.028  1.00  0.00     0.233 C 
ATOM     69  O   UNL A   1      30.755  22.187  25.820  1.00  0.00    -0.274 OA
BRANCH  68  70
ATOM     70  C   UNL A   1      30.902  23.837  24.119  1.00  0.00     0.170 C 
BRANCH  70  71
ATOM     71  S   UNL A   1      30.396  25.372  24.971  1.00  0.00    -0.147 SA
BRANCH  71  72
ATOM     72  C   UNL A   1      31.638  25.500  26.297  1.00  0.00     0.105 C 
BRANCH  72  73
ATOM     73  C   UNL A   1      32.200  26.887  26.452  1.00  0.00    -0.038 A 
ATOM     74  C   UNL A   1      31.481  27.866  27.154  1.00  0.00     0.004 A 
ATOM     75  C   UNL A   1      33.437  27.230  25.894  1.00  0.00     0.004 A 
ATOM     76  C   UNL A   1      31.988  29.159  27.287  1.00  0.00     0.000 A 
ATOM     77  C   UNL A   1      33.950  28.520  26.037  1.00  0.00     0.000 A 
ATOM     78  C   UNL A   1      33.223  29.484  26.731  1.00  0.00     0.000 A 
ENDBRANCH  72  73
ENDBRANCH  71  72
ENDBRANCH  70  71
ENDBRANCH  68  70
ENDBRANCH  64  68
ENDBRANCH   2  62
TORSDOF 15
ENDMDL
MODEL 2
REMARK VINA RESULT:     -10.7      2.304      7.708
REMARK SMILES O=C(NCCCNC(=O)[C@H]1CCCCN1C(=O)CSCc1ccccc1)c1ccc(-c2c3nc(c(-c4ccccc4)c4ccc([nH]4)c(-c4ccccc4)c4nc(c(-c5ccccc5)c5ccc2[nH]5)C=C4)C=C3)cc1
REMARK SMILES IDX 7 1 8 2 9 3 6 5 5 6 4 7 3 8 1 9 2 10 27 12 28 13 74 14 29 15
REMARK SMILES IDX 73 16 30 17 31 18 32 19 67 20 33 21 72 22 66 23 68 24 34 25
REMARK SMILES IDX 71 26 65 27 64 28 35 30 57 31 42 32 56 33 43 34 46 35 55 36
REMARK SMILES IDX 69 37 44 38 45 39 54 41 70 42 47 43 36 44 37 45 41 46 38 47
REMARK SMILES IDX 40 48 39 49 58 50 59 51 63 52 60 53 62 54 61 55 48 56 49 57
REMARK SMILES IDX 53 58 50 59 52 60 51 61 10 62 11 63 15 64 12 65 14 66 13 67
REMARK SMILES IDX 16 68 17 69 18 70 19 71 20 72 21 73 22 74 26 75 23 76 25 77
REMARK SMILES IDX 24 78
REMARK H PARENT 7 4 3 11 68 29 46 40
REMARK Flexibility Score: inf
ROOT
ATOM      1  N   UNL A   1      31.523  27.891  26.186  1.00  0.00    -0.354 N 
ATOM      2  C   UNL A   1      31.035  26.657  25.896  1.00  0.00     0.242 C 
ATOM      3  O   UNL A   1      30.602  26.027  26.870  1.00  0.00    -0.273 OA
ATOM      4  H   UNL A   1      31.374  28.171  27.118  1.00  0.00     0.163 HD
ENDROOT
BRANCH   1   5
ATOM      5  C   UNL A   1      32.217  28.868  25.381  1.00  0.00     0.117 C 
BRANCH   5   6
ATOM      6  C   UNL A   1      33.713  28.833  25.616  1.00  0.00     0.042 C 
BRANCH   6   7
ATOM      7  C   UNL A   1      34.025  28.709  27.098  1.00  0.00     0.118 C 
BRANCH   7   8
ATOM      8  N   UNL A   1      34.009  30.009  27.768  1.00  0.00    -0.352 N 
ATOM      9  O   UNL A   1      34.617  31.599  29.241  1.00  0.00    -0.269 OA
ATOM     10  C   UNL A   1      34.940  30.616  28.578  1.00  0.00     0.251 C 
ATOM     11  H   UNL A   1      33.195  30.540  27.611  1.00  0.00     0.163 HD
BRANCH  10  12
ATOM     12  C   UNL A   1      36.317  30.084  28.673  1.00  0.00     0.039 A 
ATOM     13  C   UNL A   1      37.207  30.262  27.619  1.00  0.00     0.014 A 
ATOM     14  C   UNL A   1      36.743  29.429  29.833  1.00  0.00     0.014 A 
ATOM     15  C   UNL A   1      38.420  29.597  27.622  1.00  0.00     0.010 A 
ATOM     16  C   UNL A   1      38.038  28.896  29.899  1.00  0.00     0.010 A 
ATOM     17  C   UNL A   1      38.875  28.942  28.777  1.00  0.00    -0.014 A 
BRANCH  17  18
ATOM     18  C   UNL A   1      40.262  28.404  28.763  1.00  0.00     0.031 A 
ATOM     19  C   UNL A   1      40.559  26.989  28.357  1.00  0.00     0.074 A 
ATOM     20  C   UNL A   1      41.273  29.260  29.022  1.00  0.00     0.049 A 
ATOM     21  N   UNL A   1      41.724  26.414  28.189  1.00  0.00    -0.248 NA
ATOM     22  C   UNL A   1      39.415  26.096  28.117  1.00  0.00     0.031 C 
ATOM     23  C   UNL A   1      41.106  30.657  29.445  1.00  0.00     0.029 A 
ATOM     24  N   UNL A   1      42.630  29.115  28.904  1.00  0.00    -0.354 N 
ATOM     25  C   UNL A   1      41.456  25.094  27.853  1.00  0.00     0.074 A 
ATOM     26  C   UNL A   1      40.017  24.944  27.857  1.00  0.00     0.031 C 
ATOM     27  C   UNL A   1      42.298  31.266  29.435  1.00  0.00     0.029 A 
ATOM     28  C   UNL A   1      43.323  30.285  29.104  1.00  0.00     0.049 A 
ATOM     29  H   UNL A   1      43.066  28.257  28.696  1.00  0.00     0.167 HD
ATOM     30  C   UNL A   1      42.331  24.100  27.567  1.00  0.00     0.031 A 
ATOM     31  C   UNL A   1      44.640  30.549  29.038  1.00  0.00     0.031 A 
ATOM     32  C   UNL A   1      43.762  24.257  27.556  1.00  0.00     0.049 A 
ATOM     33  C   UNL A   1      45.580  29.433  28.704  1.00  0.00     0.074 A 
ATOM     34  C   UNL A   1      44.734  23.305  27.289  1.00  0.00     0.029 A 
ATOM     35  N   UNL A   1      44.429  25.444  27.816  1.00  0.00    -0.354 N 
ATOM     36  N   UNL A   1      45.304  28.188  28.402  1.00  0.00    -0.248 NA
ATOM     37  C   UNL A   1      47.013  29.753  28.714  1.00  0.00     0.031 C 
ATOM     38  C   UNL A   1      45.989  23.910  27.421  1.00  0.00     0.029 A 
ATOM     39  C   UNL A   1      45.797  25.249  27.723  1.00  0.00     0.049 A 
ATOM     40  H   UNL A   1      43.994  26.300  28.034  1.00  0.00     0.167 HD
ATOM     41  C   UNL A   1      46.528  27.572  28.196  1.00  0.00     0.074 A 
ATOM     42  C   UNL A   1      47.544  28.592  28.363  1.00  0.00     0.031 C 
ATOM     43  C   UNL A   1      46.790  26.273  27.911  1.00  0.00     0.031 A 
BRANCH  30  44
ATOM     44  C   UNL A   1      41.764  22.741  27.265  1.00  0.00    -0.014 A 
ATOM     45  C   UNL A   1      41.410  22.372  25.958  1.00  0.00     0.009 A 
ATOM     46  C   UNL A   1      41.629  21.797  28.295  1.00  0.00     0.009 A 
ATOM     47  C   UNL A   1      40.910  21.095  25.694  1.00  0.00     0.001 A 
ATOM     48  C   UNL A   1      41.151  20.513  28.025  1.00  0.00     0.001 A 
ATOM     49  C   UNL A   1      40.786  20.165  26.725  1.00  0.00     0.000 A 
ENDBRANCH  30  44
BRANCH  31  50
ATOM     50  C   UNL A   1      45.137  31.918  29.330  1.00  0.00    -0.014 A 
ATOM     51  C   UNL A   1      45.105  32.922  28.352  1.00  0.00     0.009 A 
ATOM     52  C   UNL A   1      45.631  32.231  30.608  1.00  0.00     0.009 A 
ATOM     53  C   UNL A   1      45.572  34.206  28.643  1.00  0.00     0.001 A 
ATOM     54  C   UNL A   1      46.064  33.522  30.906  1.00  0.00     0.001 A 
ATOM     55  C   UNL A   1      46.043  34.508  29.921  1.00  0.00     0.000 A 
ENDBRANCH  31  50
BRANCH  43  56
ATOM     56  C   UNL A   1      48.236  25.902  27.762  1.00  0.00    -0.014 A 
ATOM     57  C   UNL A   1      49.003  25.528  28.877  1.00  0.00     0.009 A 
ATOM     58  C   UNL A   1      48.836  25.925  26.495  1.00  0.00     0.009 A 
ATOM     59  C   UNL A   1      50.357  25.228  28.731  1.00  0.00     0.001 A 
ATOM     60  C   UNL A   1      50.185  25.599  26.348  1.00  0.00     0.001 A 
ATOM     61  C   UNL A   1      50.946  25.262  27.467  1.00  0.00     0.000 A 
ENDBRANCH  43  56
ENDBRANCH  17  18
ENDBRANCH  10  12
ENDBRANCH   7   8
ENDBRANCH   6   7
ENDBRANCH   5   6
ENDBRANCH   1   5
BRANCH   2  62
ATOM     62  C   UNL A   1      31.141  25.976  24.504  1.00  0.00     0.174 C 
ATOM     63  C   UNL A   1      31.120  26.811  23.218  1.00  0.00     0.035 C 
ATOM     64  N   UNL A   1      32.221  24.985  24.469  1.00  0.00    -0.330 N 
ATOM     65  C   UNL A   1      32.456  27.026  22.481  1.00  0.00     0.004 C 
ATOM     66  C   UNL A   1      33.549  25.545  24.300  1.00  0.00     0.120 C 
ATOM     67  C   UNL A   1      33.664  26.193  22.927  1.00  0.00     0.022 C 
BRANCH  64  68
ATOM     68  C   UNL A   1      31.895  23.637  24.482  1.00  0.00     0.233 C 
ATOM     69  O   UNL A   1      30.971  23.205  25.177  1.00  0.00    -0.274 OA
BRANCH  68  70
ATOM     70  C   UNL A   1      32.665  22.663  23.604  1.00  0.00     0.170 C 
BRANCH  70  71
ATOM     71  S   UNL A   1      32.912  21.008  24.336  1.00  0.00    -0.147 SA
BRANCH  71  72
ATOM     72  C   UNL A   1      33.681  21.410  25.938  1.00  0.00     0.105 C 
BRANCH  72  73
ATOM     73  C   UNL A   1      35.091  21.918  25.808  1.00  0.00    -0.038 A 
ATOM     74  C   UNL A   1      36.096  21.090  25.286  1.00  0.00     0.004 A 
ATOM     75  C   UNL A   1      35.430  23.215  26.214  1.00  0.00     0.004 A 
ATOM     76  C   UNL A   1      37.409  21.550  25.179  1.00  0.00     0.000 A 
ATOM     77  C   UNL A   1      36.740  23.678  26.096  1.00  0.00     0.000 A 
ATOM     78  C   UNL A   1      37.730  22.845  25.581  1.00  0.00     0.000 A 
ENDBRANCH  72  73
ENDBRANCH  71  72
ENDBRANCH  70  71
ENDBRANCH  68  70
ENDBRANCH  64  68
ENDBRANCH   2  62
TORSDOF 15
ENDMDL
MODEL 3
REMARK VINA RESULT:     -10.6      0.699      5.988
REMARK SMILES O=C(NCCCNC(=O)[C@H]1CCCCN1C(=O)CSCc1ccccc1)c1ccc(-c2c3nc(c(-c4ccccc4)c4ccc([nH]4)c(-c4ccccc4)c4nc(c(-c5ccccc5)c5ccc2[nH]5)C=C4)C=C3)cc1
REMARK SMILES IDX 7 1 8 2 9 3 6 5 5 6 4 7 3 8 1 9 2 10 27 12 28 13 74 14 29 15
REMARK SMILES IDX 73 16 30 17 31 18 32 19 67 20 33 21 72 22 66 23 68 24 34 25
REMARK SMILES IDX 71 26 65 27 64 28 35 30 57 31 42 32 56 33 43 34 46 35 55 36
REMARK SMILES IDX 69 37 44 38 45 39 54 41 70 42 47 43 36 44 37 45 41 46 38 47
REMARK SMILES IDX 40 48 39 49 58 50 59 51 63 52 60 53 62 54 61 55 48 56 49 57
REMARK SMILES IDX 53 58 50 59 52 60 51 61 10 62 11 63 15 64 12 65 14 66 13 67
REMARK SMILES IDX 16 68 17 69 18 70 19 71 20 72 21 73 22 74 26 75 23 76 25 77
REMARK SMILES IDX 24 78
REMARK H PARENT 7 4 3 11 68 29 46 40
REMARK Flexibility Score: inf
ROOT
ATOM      1  N   UNL A   1      35.225  19.785  24.989  1.00  0.00    -0.354 N 
ATOM      2  C   UNL A   1      33.967  20.220  25.260  1.00  0.00     0.242 C 
ATOM      3  O   UNL A   1      33.080  19.369  25.109  1.00  0.00    -0.273 OA
ATOM      4  H   UNL A   1      35.285  18.819  24.808  1.00  0.00     0.163 HD
ENDROOT
BRANCH   1   5
ATOM      5  C   UNL A   1      36.491  20.476  24.920  1.00  0.00     0.117 C 
BRANCH   5   6
ATOM      6  C   UNL A   1      37.662  19.526  25.057  1.00  0.00     0.042 C 
BRANCH   6   7
ATOM      7  C   UNL A   1      38.925  20.276  25.444  1.00  0.00     0.118 C 
BRANCH   7   8
ATOM      8  N   UNL A   1      40.027  19.364  25.750  1.00  0.00    -0.352 N 
ATOM      9  O   UNL A   1      42.153  18.711  26.096  1.00  0.00    -0.269 OA
ATOM     10  C   UNL A   1      41.322  19.615  26.139  1.00  0.00     0.251 C 
ATOM     11  H   UNL A   1      39.804  18.409  25.663  1.00  0.00     0.163 HD
BRANCH  10  12
ATOM     12  C   UNL A   1      41.725  20.965  26.589  1.00  0.00     0.039 A 
ATOM     13  C   UNL A   1      41.647  21.303  27.936  1.00  0.00     0.014 A 
ATOM     14  C   UNL A   1      42.216  21.899  25.671  1.00  0.00     0.014 A 
ATOM     15  C   UNL A   1      41.830  22.617  28.328  1.00  0.00     0.010 A 
ATOM     16  C   UNL A   1      42.561  23.188  26.100  1.00  0.00     0.010 A 
ATOM     17  C   UNL A   1      42.333  23.570  27.429  1.00  0.00    -0.014 A 
BRANCH  17  18
ATOM     18  C   UNL A   1      42.672  24.915  27.967  1.00  0.00     0.031 A 
ATOM     19  C   UNL A   1      41.617  25.949  28.237  1.00  0.00     0.074 A 
ATOM     20  C   UNL A   1      43.955  25.149  28.315  1.00  0.00     0.049 A 
ATOM     21  N   UNL A   1      41.748  27.121  28.809  1.00  0.00    -0.248 NA
ATOM     22  C   UNL A   1      40.243  25.647  27.807  1.00  0.00     0.031 C 
ATOM     23  C   UNL A   1      45.072  24.225  28.085  1.00  0.00     0.029 A 
ATOM     24  N   UNL A   1      44.528  26.192  28.993  1.00  0.00    -0.354 N 
ATOM     25  C   UNL A   1      40.489  27.704  28.782  1.00  0.00     0.074 A 
ATOM     26  C   UNL A   1      39.606  26.766  28.123  1.00  0.00     0.031 C 
ATOM     27  C   UNL A   1      46.162  24.685  28.712  1.00  0.00     0.029 A 
ATOM     28  C   UNL A   1      45.851  25.979  29.303  1.00  0.00     0.049 A 
ATOM     29  H   UNL A   1      44.042  27.013  29.236  1.00  0.00     0.167 HD
ATOM     30  C   UNL A   1      40.105  28.910  29.266  1.00  0.00     0.031 A 
ATOM     31  C   UNL A   1      46.728  26.740  29.981  1.00  0.00     0.031 A 
ATOM     32  C   UNL A   1      40.986  29.836  29.929  1.00  0.00     0.049 A 
ATOM     33  C   UNL A   1      46.270  28.061  30.517  1.00  0.00     0.074 A 
ATOM     34  C   UNL A   1      40.694  31.088  30.444  1.00  0.00     0.029 A 
ATOM     35  N   UNL A   1      42.331  29.608  30.177  1.00  0.00    -0.354 N 
ATOM     36  N   UNL A   1      45.075  28.597  30.469  1.00  0.00    -0.248 NA
ATOM     37  C   UNL A   1      47.281  28.887  31.187  1.00  0.00     0.031 C 
ATOM     38  C   UNL A   1      41.870  31.631  30.973  1.00  0.00     0.029 A 
ATOM     39  C   UNL A   1      42.883  30.697  30.830  1.00  0.00     0.049 A 
ATOM     40  H   UNL A   1      42.820  28.792  29.926  1.00  0.00     0.167 HD
ATOM     41  C   UNL A   1      45.192  29.829  31.094  1.00  0.00     0.074 A 
ATOM     42  C   UNL A   1      46.563  29.939  31.552  1.00  0.00     0.031 C 
ATOM     43  C   UNL A   1      44.253  30.792  31.260  1.00  0.00     0.031 A 
BRANCH  30  44
ATOM     44  C   UNL A   1      38.669  29.311  29.072  1.00  0.00    -0.014 A 
ATOM     45  C   UNL A   1      38.203  29.781  27.835  1.00  0.00     0.009 A 
ATOM     46  C   UNL A   1      37.757  29.168  30.130  1.00  0.00     0.009 A 
ATOM     47  C   UNL A   1      36.859  30.122  27.668  1.00  0.00     0.001 A 
ATOM     48  C   UNL A   1      36.409  29.488  29.954  1.00  0.00     0.001 A 
ATOM     49  C   UNL A   1      35.962  29.971  28.725  1.00  0.00     0.000 A 
ENDBRANCH  30  44
BRANCH  31  50
ATOM     50  C   UNL A   1      48.130  26.280  30.154  1.00  0.00    -0.014 A 
ATOM     51  C   UNL A   1      48.539  25.638  31.331  1.00  0.00     0.009 A 
ATOM     52  C   UNL A   1      49.065  26.465  29.122  1.00  0.00     0.009 A 
ATOM     53  C   UNL A   1      49.860  25.207  31.478  1.00  0.00     0.001 A 
ATOM     54  C   UNL A   1      50.374  26.003  29.257  1.00  0.00     0.001 A 
ATOM     55  C   UNL A   1      50.773  25.381  30.438  1.00  0.00     0.000 A 
ENDBRANCH  31  50
BRANCH  43  56
ATOM     56  C   UNL A   1      44.694  32.038  31.969  1.00  0.00    -0.014 A 
ATOM     57  C   UNL A   1      44.596  32.147  33.365  1.00  0.00     0.009 A 
ATOM     58  C   UNL A   1      45.212  33.114  31.234  1.00  0.00     0.009 A 
ATOM     59  C   UNL A   1      44.968  33.328  34.007  1.00  0.00     0.001 A 
ATOM     60  C   UNL A   1      45.608  34.285  31.882  1.00  0.00     0.001 A 
ATOM     61  C   UNL A   1      45.475  34.395  33.265  1.00  0.00     0.000 A 
ENDBRANCH  43  56
ENDBRANCH  17  18
ENDBRANCH  10  12
ENDBRANCH   7   8
ENDBRANCH   6   7
ENDBRANCH   5   6
ENDBRANCH   1   5
BRANCH   2  62
ATOM     62  C   UNL A   1      33.597  21.695  25.574  1.00  0.00     0.174 C 
ATOM     63  C   UNL A   1      34.464  22.539  26.515  1.00  0.00     0.035 C 
ATOM     64  N   UNL A   1      33.266  22.439  24.355  1.00  0.00    -0.330 N 
ATOM     65  C   UNL A   1      35.387  23.598  25.882  1.00  0.00     0.004 C 
ATOM     66  C   UNL A   1      34.415  22.887  23.591  1.00  0.00     0.120 C 
ATOM     67  C   UNL A   1      35.197  23.918  24.394  1.00  0.00     0.022 C 
BRANCH  64  68
ATOM     68  C   UNL A   1      31.939  22.747  24.097  1.00  0.00     0.233 C 
ATOM     69  O   UNL A   1      31.488  22.738  22.948  1.00  0.00    -0.274 OA
BRANCH  68  70
ATOM     70  C   UNL A   1      31.000  23.077  25.247  1.00  0.00     0.170 C 
BRANCH  70  71
ATOM     71  S   UNL A   1      30.715  24.862  25.511  1.00  0.00    -0.147 SA
BRANCH  71  72
ATOM     72  C   UNL A   1      32.123  25.321  26.572  1.00  0.00     0.105 C 
BRANCH  72  73
ATOM     73  C   UNL A   1      32.450  26.788  26.523  1.00  0.00    -0.038 A 
ATOM     74  C   UNL A   1      33.625  27.231  25.897  1.00  0.00     0.004 A 
ATOM     75  C   UNL A   1      31.599  27.736  27.106  1.00  0.00     0.004 A 
ATOM     76  C   UNL A   1      33.942  28.589  25.863  1.00  0.00     0.000 A 
ATOM     77  C   UNL A   1      31.911  29.095  27.061  1.00  0.00     0.000 A 
ATOM     78  C   UNL A   1      33.084  29.521  26.443  1.00  0.00     0.000 A 
ENDBRANCH  72  73
ENDBRANCH  71  72
ENDBRANCH  70  71
ENDBRANCH  68  70
ENDBRANCH  64  68
ENDBRANCH   2  62
TORSDOF 15
ENDMDL
