MODEL 1
REMARK VINA RESULT:     -11.5      0.000      0.000
REMARK SMILES COc1ccc(NS(=O)(=O)c2ccc(Cl)c(C(=O)NCCCNC(=O)c3ccc(-c4c5nc(c(-c6ccccc6)c6ccc([nH]6)c(-c6ccccc6)c6nc(c(-c7ccccc7)c7ccc4[nH]7)C=C6)C=C5)cc3)c2)cc1Cl
REMARK SMILES IDX 20 1 19 2 17 3 18 4 16 6 11 7 12 8 74 9 13 10 14 11 15 12
REMARK SMILES IDX 8 13 9 14 10 15 7 16 6 18 3 19 4 20 76 21 5 22 75 23 77 24
REMARK SMILES IDX 2 25 1 26 21 27 22 28 23 29 24 30 25 32 26 33 27 34 73 35
REMARK SMILES IDX 28 36 72 37 29 38 30 39 31 40 66 41 32 42 71 43 65 44 67 45
REMARK SMILES IDX 33 46 70 47 64 48 63 49 34 51 56 52 41 53 55 54 42 55 45 56
REMARK SMILES IDX 54 57 68 58 43 59 44 60 53 62 69 63 46 64 35 65 36 66 40 67
REMARK SMILES IDX 37 68 39 69 38 70 57 71 58 72 62 73 59 74 61 75 60 76 47 77
REMARK SMILES IDX 48 78 52 79 49 80 51 81 50 82
REMARK H PARENT 19 5 7 17 23 31 67 50 45 61
REMARK Flexibility Score: inf
ROOT
ATOM      1  C   UNL A   1      36.175  20.503  25.022  1.00  0.00     0.118 C 
ENDROOT
BRANCH   1   2
ATOM      2  N   UNL A   1      36.292  21.801  24.392  1.00  0.00    -0.352 N 
ATOM      3  C   UNL A   1      35.427  22.652  23.766  1.00  0.00     0.252 C 
ATOM      4  O   UNL A   1      35.969  23.582  23.159  1.00  0.00    -0.269 OA
ATOM      5  H   UNL A   1      37.210  22.155  24.423  1.00  0.00     0.163 HD
BRANCH   3   6
ATOM      6  C   UNL A   1      33.933  22.644  23.834  1.00  0.00     0.059 A 
ATOM      7  C   UNL A   1      32.079  22.722  25.455  1.00  0.00     0.088 A 
ATOM      8  C   UNL A   1      31.141  22.648  24.437  1.00  0.00     0.024 A 
ATOM      9  C   UNL A   1      33.447  22.631  25.162  1.00  0.00     0.037 A 
ATOM     10  C   UNL A   1      31.597  22.691  23.121  1.00  0.00     0.023 A 
ATOM     11  C   UNL A   1      32.976  22.777  22.821  1.00  0.00     0.053 A 
ATOM     12  Cl  UNL A   1      33.302  23.313  21.216  1.00  0.00    -0.083 Cl
BRANCH   7  13
ATOM     13  S   UNL A   1      31.618  23.226  27.102  1.00  0.00     0.261 S 
ATOM     14  O   UNL A   1      32.626  22.730  28.011  1.00  0.00    -0.201 OA
ATOM     15  O   UNL A   1      30.222  22.885  27.263  1.00  0.00    -0.201 OA
BRANCH  13  16
ATOM     16  N   UNL A   1      31.685  24.908  27.167  1.00  0.00    -0.280 N 
ATOM     17  H   UNL A   1      31.409  25.332  28.011  1.00  0.00     0.180 HD
BRANCH  16  18
ATOM     18  C   UNL A   1      32.104  25.779  26.115  1.00  0.00     0.051 A 
ATOM     19  C   UNL A   1      32.706  27.215  23.786  1.00  0.00     0.137 A 
ATOM     20  C   UNL A   1      33.732  26.746  24.610  1.00  0.00     0.050 A 
ATOM     21  C   UNL A   1      31.377  27.051  24.177  1.00  0.00     0.085 A 
ATOM     22  C   UNL A   1      33.430  26.076  25.805  1.00  0.00     0.030 A 
ATOM     23  C   UNL A   1      31.082  26.348  25.347  1.00  0.00     0.051 A 
ATOM     24  Cl  UNL A   1      30.063  27.627  23.220  1.00  0.00    -0.080 Cl
BRANCH  19  25
ATOM     25  O   UNL A   1      33.046  27.691  22.548  1.00  0.00    -0.495 OA
ATOM     26  C   UNL A   1      34.088  28.660  22.625  1.00  0.00     0.278 C 
ENDBRANCH  19  25
ENDBRANCH  16  18
ENDBRANCH  13  16
ENDBRANCH   7  13
ENDBRANCH   3   6
ENDBRANCH   1   2
BRANCH   1  27
ATOM     27  C   UNL A   1      37.489  19.731  24.843  1.00  0.00     0.042 C 
BRANCH  27  28
ATOM     28  C   UNL A   1      38.653  20.328  25.632  1.00  0.00     0.118 C 
BRANCH  28  29
ATOM     29  N   UNL A   1      39.719  19.356  25.823  1.00  0.00    -0.352 N 
ATOM     30  C   UNL A   1      41.038  19.555  26.146  1.00  0.00     0.251 C 
ATOM     31  H   UNL A   1      39.454  18.415  25.703  1.00  0.00     0.163 HD
ATOM     32  O   UNL A   1      41.844  18.640  25.997  1.00  0.00    -0.269 OA
BRANCH  30  33
ATOM     33  C   UNL A   1      41.503  20.860  26.668  1.00  0.00     0.039 A 
ATOM     34  C   UNL A   1      41.967  21.824  25.767  1.00  0.00     0.014 A 
ATOM     35  C   UNL A   1      41.541  21.116  28.042  1.00  0.00     0.014 A 
ATOM     36  C   UNL A   1      42.414  23.063  26.236  1.00  0.00     0.010 A 
ATOM     37  C   UNL A   1      41.934  22.371  28.505  1.00  0.00     0.010 A 
ATOM     38  C   UNL A   1      42.374  23.356  27.608  1.00  0.00    -0.014 A 
BRANCH  38  39
ATOM     39  C   UNL A   1      42.777  24.686  28.132  1.00  0.00     0.031 A 
ATOM     40  C   UNL A   1      41.743  25.749  28.378  1.00  0.00     0.074 A 
ATOM     41  C   UNL A   1      44.083  24.966  28.306  1.00  0.00     0.049 A 
ATOM     42  N   UNL A   1      41.912  27.005  28.706  1.00  0.00    -0.248 NA
ATOM     43  C   UNL A   1      40.336  25.354  28.208  1.00  0.00     0.031 C 
ATOM     44  C   UNL A   1      45.188  24.033  28.081  1.00  0.00     0.029 A 
ATOM     45  N   UNL A   1      44.702  26.128  28.694  1.00  0.00    -0.354 N 
ATOM     46  C   UNL A   1      40.637  27.557  28.755  1.00  0.00     0.074 A 
ATOM     47  C   UNL A   1      39.708  26.507  28.393  1.00  0.00     0.031 C 
ATOM     48  C   UNL A   1      46.349  24.654  28.347  1.00  0.00     0.029 A 
ATOM     49  C   UNL A   1      46.073  26.039  28.717  1.00  0.00     0.049 A 
ATOM     50  H   UNL A   1      44.212  26.947  28.933  1.00  0.00     0.167 HD
ATOM     51  C   UNL A   1      40.272  28.820  29.080  1.00  0.00     0.031 A 
ATOM     52  C   UNL A   1      47.006  26.970  28.988  1.00  0.00     0.031 A 
ATOM     53  C   UNL A   1      41.191  29.860  29.458  1.00  0.00     0.049 A 
ATOM     54  C   UNL A   1      46.576  28.368  29.331  1.00  0.00     0.074 A 
ATOM     55  C   UNL A   1      40.910  31.153  29.866  1.00  0.00     0.029 A 
ATOM     56  N   UNL A   1      42.570  29.723  29.478  1.00  0.00    -0.354 N 
ATOM     57  N   UNL A   1      45.365  28.860  29.416  1.00  0.00    -0.248 NA
ATOM     58  C   UNL A   1      47.644  29.338  29.613  1.00  0.00     0.031 C 
ATOM     59  C   UNL A   1      42.123  31.812  30.092  1.00  0.00     0.029 A 
ATOM     60  C   UNL A   1      43.156  30.916  29.867  1.00  0.00     0.049 A 
ATOM     61  H   UNL A   1      43.060  28.901  29.249  1.00  0.00     0.167 HD
ATOM     62  C   UNL A   1      45.523  30.190  29.782  1.00  0.00     0.074 A 
ATOM     63  C   UNL A   1      46.946  30.425  29.914  1.00  0.00     0.031 C 
ATOM     64  C   UNL A   1      44.573  31.132  29.991  1.00  0.00     0.031 A 
BRANCH  51  65
ATOM     65  C   UNL A   1      38.807  29.150  29.029  1.00  0.00    -0.014 A 
ATOM     66  C   UNL A   1      37.988  29.000  30.159  1.00  0.00     0.009 A 
ATOM     67  C   UNL A   1      38.245  29.649  27.843  1.00  0.00     0.009 A 
ATOM     68  C   UNL A   1      36.627  29.311  30.092  1.00  0.00     0.001 A 
ATOM     69  C   UNL A   1      36.890  29.982  27.786  1.00  0.00     0.001 A 
ATOM     70  C   UNL A   1      36.081  29.804  28.908  1.00  0.00     0.000 A 
ENDBRANCH  51  65
BRANCH  52  71
ATOM     71  C   UNL A   1      48.446  26.610  28.944  1.00  0.00    -0.014 A 
ATOM     72  C   UNL A   1      49.090  26.129  30.093  1.00  0.00     0.009 A 
ATOM     73  C   UNL A   1      49.182  26.743  27.756  1.00  0.00     0.009 A 
ATOM     74  C   UNL A   1      50.447  25.802  30.059  1.00  0.00     0.001 A 
ATOM     75  C   UNL A   1      50.533  26.394  27.719  1.00  0.00     0.001 A 
ATOM     76  C   UNL A   1      51.166  25.931  28.871  1.00  0.00     0.000 A 
ENDBRANCH  52  71
BRANCH  64  77
ATOM     77  C   UNL A   1      45.040  32.496  30.407  1.00  0.00    -0.014 A 
ATOM     78  C   UNL A   1      45.291  33.497  29.455  1.00  0.00     0.009 A 
ATOM     79  C   UNL A   1      45.186  32.796  31.769  1.00  0.00     0.009 A 
ATOM     80  C   UNL A   1      45.703  34.767  29.861  1.00  0.00     0.001 A 
ATOM     81  C   UNL A   1      45.577  34.074  32.174  1.00  0.00     0.001 A 
ATOM     82  C   UNL A   1      45.840  35.056  31.220  1.00  0.00     0.000 A 
ENDBRANCH  64  77
ENDBRANCH  38  39
ENDBRANCH  30  33
ENDBRANCH  28  29
ENDBRANCH  27  28
ENDBRANCH   1  27
TORSDOF 14
ENDMDL
MODEL 2
REMARK VINA RESULT:     -11.4      4.589      9.556
REMARK SMILES COc1ccc(NS(=O)(=O)c2ccc(Cl)c(C(=O)NCCCNC(=O)c3ccc(-c4c5nc(c(-c6ccccc6)c6ccc([nH]6)c(-c6ccccc6)c6nc(c(-c7ccccc7)c7ccc4[nH]7)C=C6)C=C5)cc3)c2)cc1Cl
REMARK SMILES IDX 20 1 19 2 17 3 18 4 16 6 11 7 12 8 74 9 13 10 14 11 15 12
REMARK SMILES IDX 8 13 9 14 10 15 7 16 6 18 3 19 4 20 76 21 5 22 75 23 77 24
REMARK SMILES IDX 2 25 1 26 21 27 22 28 23 29 24 30 25 32 26 33 27 34 73 35
REMARK SMILES IDX 28 36 72 37 29 38 30 39 31 40 66 41 32 42 71 43 65 44 67 45
REMARK SMILES IDX 33 46 70 47 64 48 63 49 34 51 56 52 41 53 55 54 42 55 45 56
REMARK SMILES IDX 54 57 68 58 43 59 44 60 53 62 69 63 46 64 35 65 36 66 40 67
REMARK SMILES IDX 37 68 39 69 38 70 57 71 58 72 62 73 59 74 61 75 60 76 47 77
REMARK SMILES IDX 48 78 52 79 49 80 51 81 50 82
REMARK H PARENT 19 5 7 17 23 31 67 50 45 61
REMARK Flexibility Score: inf
ROOT
ATOM      1  C   UNL A   1      31.429  30.322  26.251  1.00  0.00     0.118 C 
ENDROOT
BRANCH   1   2
ATOM      2  N   UNL A   1      31.393  29.993  24.842  1.00  0.00    -0.352 N 
ATOM      3  C   UNL A   1      31.990  29.049  24.055  1.00  0.00     0.252 C 
ATOM      4  O   UNL A   1      31.870  29.241  22.840  1.00  0.00    -0.269 OA
ATOM      5  H   UNL A   1      30.799  30.588  24.330  1.00  0.00     0.163 HD
BRANCH   3   6
ATOM      6  C   UNL A   1      32.652  27.782  24.496  1.00  0.00     0.059 A 
ATOM      7  C   UNL A   1      33.009  25.450  23.790  1.00  0.00     0.088 A 
ATOM      8  C   UNL A   1      33.739  25.178  24.937  1.00  0.00     0.024 A 
ATOM      9  C   UNL A   1      32.403  26.703  23.619  1.00  0.00     0.037 A 
ATOM     10  C   UNL A   1      34.022  26.236  25.800  1.00  0.00     0.023 A 
ATOM     11  C   UNL A   1      33.557  27.545  25.537  1.00  0.00     0.053 A 
ATOM     12  Cl  UNL A   1      34.402  28.766  26.411  1.00  0.00    -0.083 Cl
BRANCH   7  13
ATOM     13  S   UNL A   1      33.059  24.356  22.383  1.00  0.00     0.261 S 
ATOM     14  O   UNL A   1      34.372  23.754  22.341  1.00  0.00    -0.201 OA
ATOM     15  O   UNL A   1      32.535  25.102  21.261  1.00  0.00    -0.201 OA
BRANCH  13  16
ATOM     16  N   UNL A   1      31.958  23.111  22.655  1.00  0.00    -0.280 N 
ATOM     17  H   UNL A   1      31.049  23.235  22.297  1.00  0.00     0.180 HD
BRANCH  16  18
ATOM     18  C   UNL A   1      32.215  21.894  23.356  1.00  0.00     0.051 A 
ATOM     19  C   UNL A   1      32.333  19.371  24.570  1.00  0.00     0.137 A 
ATOM     20  C   UNL A   1      32.426  20.531  25.344  1.00  0.00     0.050 A 
ATOM     21  C   UNL A   1      32.278  19.471  23.180  1.00  0.00     0.085 A 
ATOM     22  C   UNL A   1      32.424  21.792  24.731  1.00  0.00     0.030 A 
ATOM     23  C   UNL A   1      32.236  20.730  22.578  1.00  0.00     0.051 A 
ATOM     24  Cl  UNL A   1      32.187  18.080  22.164  1.00  0.00    -0.080 Cl
BRANCH  19  25
ATOM     25  O   UNL A   1      32.149  18.181  25.221  1.00  0.00    -0.495 OA
ATOM     26  C   UNL A   1      33.391  17.544  25.514  1.00  0.00     0.278 C 
ENDBRANCH  19  25
ENDBRANCH  16  18
ENDBRANCH  13  16
ENDBRANCH   7  13
ENDBRANCH   3   6
ENDBRANCH   1   2
BRANCH   1  27
ATOM     27  C   UNL A   1      31.351  31.845  26.419  1.00  0.00     0.042 C 
BRANCH  27  28
ATOM     28  C   UNL A   1      32.638  32.458  26.968  1.00  0.00     0.118 C 
BRANCH  28  29
ATOM     29  N   UNL A   1      32.435  33.841  27.378  1.00  0.00    -0.352 N 
ATOM     30  C   UNL A   1      33.023  34.547  28.397  1.00  0.00     0.251 C 
ATOM     31  H   UNL A   1      31.779  34.343  26.842  1.00  0.00     0.163 HD
ATOM     32  O   UNL A   1      32.529  35.613  28.760  1.00  0.00    -0.269 OA
BRANCH  30  33
ATOM     33  C   UNL A   1      34.240  34.040  29.069  1.00  0.00     0.039 A 
ATOM     34  C   UNL A   1      34.103  33.257  30.220  1.00  0.00     0.014 A 
ATOM     35  C   UNL A   1      35.515  34.381  28.606  1.00  0.00     0.014 A 
ATOM     36  C   UNL A   1      35.239  32.770  30.874  1.00  0.00     0.010 A 
ATOM     37  C   UNL A   1      36.645  33.848  29.225  1.00  0.00     0.010 A 
ATOM     38  C   UNL A   1      36.519  33.038  30.364  1.00  0.00    -0.014 A 
BRANCH  38  39
ATOM     39  C   UNL A   1      37.741  32.478  30.995  1.00  0.00     0.031 A 
ATOM     40  C   UNL A   1      38.406  31.262  30.412  1.00  0.00     0.074 A 
ATOM     41  C   UNL A   1      38.203  33.013  32.142  1.00  0.00     0.049 A 
ATOM     42  N   UNL A   1      39.398  30.554  30.891  1.00  0.00    -0.248 NA
ATOM     43  C   UNL A   1      37.870  30.764  29.136  1.00  0.00     0.031 C 
ATOM     44  C   UNL A   1      37.637  34.177  32.825  1.00  0.00     0.029 A 
ATOM     45  N   UNL A   1      39.248  32.631  32.946  1.00  0.00    -0.354 N 
ATOM     46  C   UNL A   1      39.585  29.512  29.991  1.00  0.00     0.074 A 
ATOM     47  C   UNL A   1      38.587  29.664  28.954  1.00  0.00     0.031 C 
ATOM     48  C   UNL A   1      38.347  34.423  33.938  1.00  0.00     0.029 A 
ATOM     49  C   UNL A   1      39.389  33.409  34.070  1.00  0.00     0.049 A 
ATOM     50  H   UNL A   1      39.840  31.872  32.738  1.00  0.00     0.167 HD
ATOM     51  C   UNL A   1      40.512  28.524  30.020  1.00  0.00     0.031 A 
ATOM     52  C   UNL A   1      40.248  33.308  35.102  1.00  0.00     0.031 A 
ATOM     53  C   UNL A   1      41.517  28.382  31.038  1.00  0.00     0.049 A 
ATOM     54  C   UNL A   1      41.255  32.194  35.118  1.00  0.00     0.074 A 
ATOM     55  C   UNL A   1      42.538  27.450  31.119  1.00  0.00     0.029 A 
ATOM     56  N   UNL A   1      41.630  29.198  32.153  1.00  0.00    -0.354 N 
ATOM     57  N   UNL A   1      41.448  31.244  34.236  1.00  0.00    -0.248 NA
ATOM     58  C   UNL A   1      42.162  32.140  36.273  1.00  0.00     0.031 C 
ATOM     59  C   UNL A   1      43.243  27.677  32.305  1.00  0.00     0.029 A 
ATOM     60  C   UNL A   1      42.688  28.776  32.940  1.00  0.00     0.049 A 
ATOM     61  H   UNL A   1      41.045  29.962  32.355  1.00  0.00     0.167 HD
ATOM     62  C   UNL A   1      42.510  30.492  34.718  1.00  0.00     0.074 A 
ATOM     63  C   UNL A   1      42.928  31.102  35.964  1.00  0.00     0.031 C 
ATOM     64  C   UNL A   1      43.088  29.393  34.177  1.00  0.00     0.031 A 
BRANCH  51  65
ATOM     65  C   UNL A   1      40.470  27.506  28.915  1.00  0.00    -0.014 A 
ATOM     66  C   UNL A   1      41.207  27.686  27.733  1.00  0.00     0.009 A 
ATOM     67  C   UNL A   1      39.710  26.337  29.072  1.00  0.00     0.009 A 
ATOM     68  C   UNL A   1      41.155  26.729  26.716  1.00  0.00     0.001 A 
ATOM     69  C   UNL A   1      39.679  25.371  28.063  1.00  0.00     0.001 A 
ATOM     70  C   UNL A   1      40.394  25.573  26.883  1.00  0.00     0.000 A 
ENDBRANCH  51  65
BRANCH  52  71
ATOM     71  C   UNL A   1      40.192  34.294  36.210  1.00  0.00    -0.014 A 
ATOM     72  C   UNL A   1      39.403  34.042  37.342  1.00  0.00     0.009 A 
ATOM     73  C   UNL A   1      40.927  35.488  36.144  1.00  0.00     0.009 A 
ATOM     74  C   UNL A   1      39.337  34.974  38.380  1.00  0.00     0.001 A 
ATOM     75  C   UNL A   1      40.878  36.407  37.194  1.00  0.00     0.001 A 
ATOM     76  C   UNL A   1      40.078  36.154  38.307  1.00  0.00     0.000 A 
ENDBRANCH  52  71
BRANCH  64  77
ATOM     77  C   UNL A   1      44.249  28.795  34.916  1.00  0.00    -0.014 A 
ATOM     78  C   UNL A   1      45.567  29.000  34.480  1.00  0.00     0.009 A 
ATOM     79  C   UNL A   1      44.023  28.057  36.087  1.00  0.00     0.009 A 
ATOM     80  C   UNL A   1      46.637  28.455  35.192  1.00  0.00     0.001 A 
ATOM     81  C   UNL A   1      45.096  27.532  36.810  1.00  0.00     0.001 A 
ATOM     82  C   UNL A   1      46.401  27.726  36.358  1.00  0.00     0.000 A 
ENDBRANCH  64  77
ENDBRANCH  38  39
ENDBRANCH  30  33
ENDBRANCH  28  29
ENDBRANCH  27  28
ENDBRANCH   1  27
TORSDOF 14
ENDMDL
MODEL 3
REMARK VINA RESULT:     -11.3      1.029      5.937
REMARK SMILES COc1ccc(NS(=O)(=O)c2ccc(Cl)c(C(=O)NCCCNC(=O)c3ccc(-c4c5nc(c(-c6ccccc6)c6ccc([nH]6)c(-c6ccccc6)c6nc(c(-c7ccccc7)c7ccc4[nH]7)C=C6)C=C5)cc3)c2)cc1Cl
REMARK SMILES IDX 20 1 19 2 17 3 18 4 16 6 11 7 12 8 74 9 13 10 14 11 15 12
REMARK SMILES IDX 8 13 9 14 10 15 7 16 6 18 3 19 4 20 76 21 5 22 75 23 77 24
REMARK SMILES IDX 2 25 1 26 21 27 22 28 23 29 24 30 25 32 26 33 27 34 73 35
REMARK SMILES IDX 28 36 72 37 29 38 30 39 31 40 66 41 32 42 71 43 65 44 67 45
REMARK SMILES IDX 33 46 70 47 64 48 63 49 34 51 56 52 41 53 55 54 42 55 45 56
REMARK SMILES IDX 54 57 68 58 43 59 44 60 53 62 69 63 46 64 35 65 36 66 40 67
REMARK SMILES IDX 37 68 39 69 38 70 57 71 58 72 62 73 59 74 61 75 60 76 47 77
REMARK SMILES IDX 48 78 52 79 49 80 51 81 50 82
REMARK H PARENT 19 5 7 17 23 31 67 50 45 61
REMARK Flexibility Score: inf
ROOT
ATOM      1  C   UNL A   1      36.410  19.867  24.988  1.00  0.00     0.118 C 
ENDROOT
BRANCH   1   2
ATOM      2  N   UNL A   1      36.350  21.101  25.743  1.00  0.00    -0.352 N 
ATOM      3  C   UNL A   1      35.621  22.252  25.656  1.00  0.00     0.252 C 
ATOM      4  O   UNL A   1      36.029  23.175  26.369  1.00  0.00    -0.269 OA
ATOM      5  H   UNL A   1      36.983  21.113  26.497  1.00  0.00     0.163 HD
BRANCH   3   6
ATOM      6  C   UNL A   1      34.349  22.468  24.899  1.00  0.00     0.059 A 
ATOM      7  C   UNL A   1      31.924  22.736  25.245  1.00  0.00     0.088 A 
ATOM      8  C   UNL A   1      31.710  22.865  23.881  1.00  0.00     0.024 A 
ATOM      9  C   UNL A   1      33.208  22.453  25.734  1.00  0.00     0.037 A 
ATOM     10  C   UNL A   1      32.823  22.913  23.044  1.00  0.00     0.023 A 
ATOM     11  C   UNL A   1      34.135  22.804  23.557  1.00  0.00     0.053 A 
ATOM     12  Cl  UNL A   1      35.349  23.375  22.475  1.00  0.00    -0.083 Cl
BRANCH   7  13
ATOM     13  S   UNL A   1      30.676  23.209  26.426  1.00  0.00     0.261 S 
ATOM     14  O   UNL A   1      31.350  23.640  27.630  1.00  0.00    -0.201 OA
ATOM     15  O   UNL A   1      29.701  22.142  26.447  1.00  0.00    -0.201 OA
BRANCH  13  16
ATOM     16  N   UNL A   1      29.865  24.552  25.813  1.00  0.00    -0.280 N 
ATOM     17  H   UNL A   1      28.908  24.441  25.611  1.00  0.00     0.180 HD
BRANCH  16  18
ATOM     18  C   UNL A   1      30.432  25.838  25.557  1.00  0.00     0.051 A 
ATOM     19  C   UNL A   1      31.669  28.190  24.670  1.00  0.00     0.137 A 
ATOM     20  C   UNL A   1      32.059  27.601  25.875  1.00  0.00     0.050 A 
ATOM     21  C   UNL A   1      30.596  27.658  23.956  1.00  0.00     0.085 A 
ATOM     22  C   UNL A   1      31.401  26.456  26.348  1.00  0.00     0.030 A 
ATOM     23  C   UNL A   1      29.972  26.494  24.410  1.00  0.00     0.051 A 
ATOM     24  Cl  UNL A   1      30.048  28.350  22.474  1.00  0.00    -0.080 Cl
BRANCH  19  25
ATOM     25  O   UNL A   1      32.458  29.186  24.160  1.00  0.00    -0.495 OA
ATOM     26  C   UNL A   1      33.542  28.660  23.398  1.00  0.00     0.278 C 
ENDBRANCH  19  25
ENDBRANCH  16  18
ENDBRANCH  13  16
ENDBRANCH   7  13
ENDBRANCH   3   6
ENDBRANCH   1   2
BRANCH   1  27
ATOM     27  C   UNL A   1      37.874  19.537  24.668  1.00  0.00     0.042 C 
BRANCH  27  28
ATOM     28  C   UNL A   1      38.855  20.077  25.708  1.00  0.00     0.118 C 
BRANCH  28  29
ATOM     29  N   UNL A   1      40.021  19.214  25.834  1.00  0.00    -0.352 N 
ATOM     30  C   UNL A   1      41.330  19.544  26.082  1.00  0.00     0.251 C 
ATOM     31  H   UNL A   1      39.844  18.252  25.727  1.00  0.00     0.163 HD
ATOM     32  O   UNL A   1      42.213  18.712  25.885  1.00  0.00    -0.269 OA
BRANCH  30  33
ATOM     33  C   UNL A   1      41.694  20.889  26.580  1.00  0.00     0.039 A 
ATOM     34  C   UNL A   1      42.190  21.836  25.677  1.00  0.00     0.014 A 
ATOM     35  C   UNL A   1      41.605  21.204  27.940  1.00  0.00     0.014 A 
ATOM     36  C   UNL A   1      42.543  23.112  26.124  1.00  0.00     0.010 A 
ATOM     37  C   UNL A   1      41.903  22.495  28.376  1.00  0.00     0.010 A 
ATOM     38  C   UNL A   1      42.375  23.461  27.474  1.00  0.00    -0.014 A 
BRANCH  38  39
ATOM     39  C   UNL A   1      42.675  24.829  27.968  1.00  0.00     0.031 A 
ATOM     40  C   UNL A   1      44.067  25.186  28.412  1.00  0.00     0.074 A 
ATOM     41  C   UNL A   1      41.678  25.725  28.096  1.00  0.00     0.049 A 
ATOM     42  N   UNL A   1      44.493  26.280  28.991  1.00  0.00    -0.248 NA
ATOM     43  C   UNL A   1      45.109  24.170  28.200  1.00  0.00     0.031 C 
ATOM     44  C   UNL A   1      40.280  25.498  27.725  1.00  0.00     0.029 A 
ATOM     45  N   UNL A   1      41.687  27.004  28.595  1.00  0.00    -0.354 N 
ATOM     46  C   UNL A   1      45.845  26.073  29.237  1.00  0.00     0.074 A 
ATOM     47  C   UNL A   1      46.160  24.739  28.772  1.00  0.00     0.031 C 
ATOM     48  C   UNL A   1      39.568  26.604  27.996  1.00  0.00     0.029 A 
ATOM     49  C   UNL A   1      40.449  27.600  28.601  1.00  0.00     0.049 A 
ATOM     50  H   UNL A   1      42.502  27.451  28.918  1.00  0.00     0.167 HD
ATOM     51  C   UNL A   1      46.745  26.920  29.792  1.00  0.00     0.031 A 
ATOM     52  C   UNL A   1      40.060  28.804  29.059  1.00  0.00     0.031 A 
ATOM     53  C   UNL A   1      46.439  28.253  30.237  1.00  0.00     0.049 A 
ATOM     54  C   UNL A   1      41.074  29.719  29.684  1.00  0.00     0.074 A 
ATOM     55  C   UNL A   1      47.297  29.208  30.754  1.00  0.00     0.029 A 
ATOM     56  N   UNL A   1      45.174  28.820  30.216  1.00  0.00    -0.354 N 
ATOM     57  N   UNL A   1      42.356  29.526  29.867  1.00  0.00    -0.248 NA
ATOM     58  C   UNL A   1      40.584  31.019  30.165  1.00  0.00     0.031 C 
ATOM     59  C   UNL A   1      46.544  30.339  31.084  1.00  0.00     0.029 A 
ATOM     60  C   UNL A   1      45.225  30.103  30.732  1.00  0.00     0.049 A 
ATOM     61  H   UNL A   1      44.362  28.376  29.883  1.00  0.00     0.167 HD
ATOM     62  C   UNL A   1      42.832  30.685  30.465  1.00  0.00     0.074 A 
ATOM     63  C   UNL A   1      41.702  31.581  30.603  1.00  0.00     0.031 C 
ATOM     64  C   UNL A   1      44.091  30.980  30.864  1.00  0.00     0.031 A 
BRANCH  51  65
ATOM     65  C   UNL A   1      48.153  26.421  29.959  1.00  0.00    -0.014 A 
ATOM     66  C   UNL A   1      49.107  26.585  28.943  1.00  0.00     0.009 A 
ATOM     67  C   UNL A   1      48.537  25.806  31.160  1.00  0.00     0.009 A 
ATOM     68  C   UNL A   1      50.411  26.113  29.115  1.00  0.00     0.001 A 
ATOM     69  C   UNL A   1      49.847  25.357  31.339  1.00  0.00     0.001 A 
ATOM     70  C   UNL A   1      50.780  25.503  30.312  1.00  0.00     0.000 A 
ENDBRANCH  51  65
BRANCH  52  71
ATOM     71  C   UNL A   1      38.638  29.216  28.943  1.00  0.00    -0.014 A 
ATOM     72  C   UNL A   1      37.773  29.091  30.041  1.00  0.00     0.009 A 
ATOM     73  C   UNL A   1      38.139  29.738  27.740  1.00  0.00     0.009 A 
ATOM     74  C   UNL A   1      36.432  29.464  29.931  1.00  0.00     0.001 A 
ATOM     75  C   UNL A   1      36.804  30.133  27.639  1.00  0.00     0.001 A 
ATOM     76  C   UNL A   1      35.950  29.989  28.732  1.00  0.00     0.000 A 
ENDBRANCH  52  71
BRANCH  64  77
ATOM     77  C   UNL A   1      44.320  32.336  31.465  1.00  0.00    -0.014 A 
ATOM     78  C   UNL A   1      44.240  32.536  32.852  1.00  0.00     0.009 A 
ATOM     79  C   UNL A   1      44.665  33.415  30.638  1.00  0.00     0.009 A 
ATOM     80  C   UNL A   1      44.478  33.799  33.396  1.00  0.00     0.001 A 
ATOM     81  C   UNL A   1      44.924  34.672  31.186  1.00  0.00     0.001 A 
ATOM     82  C   UNL A   1      44.825  34.864  32.564  1.00  0.00     0.000 A 
ENDBRANCH  64  77
ENDBRANCH  38  39
ENDBRANCH  30  33
ENDBRANCH  28  29
ENDBRANCH  27  28
ENDBRANCH   1  27
TORSDOF 14
ENDMDL
