MODEL 1
REMARK VINA RESULT:     -10.5      0.000      0.000
REMARK SMILES CC[C@H](C)[C@@H](Nc1ccc(Cl)c(Br)c1)C(=O)NCCCNC(=O)c1ccc(-c2c3nc(c(-c4ccccc4)c4ccc([nH]4)c(-c4ccccc4)c4nc(c(-c5ccccc5)c5ccc2[nH]5)C=C4)C=C3)cc1
REMARK SMILES IDX 19 1 18 2 17 3 15 4 16 5 5 7 3 8 4 9 2 10 1 11 6 12 7 14
REMARK SMILES IDX 8 15 14 16 9 17 12 18 10 19 13 20 11 21 20 22 21 23 22 24
REMARK SMILES IDX 23 26 24 27 25 28 71 29 26 30 70 31 27 32 28 33 29 34 64 35
REMARK SMILES IDX 30 36 69 37 63 38 65 39 31 40 68 41 62 42 61 43 32 45 54 46
REMARK SMILES IDX 39 47 53 48 40 49 43 50 52 51 66 52 41 53 42 54 51 56 67 57
REMARK SMILES IDX 44 58 33 59 34 60 38 61 35 62 37 63 36 64 55 65 56 66 60 67
REMARK SMILES IDX 57 68 59 69 58 70 45 71 46 72 50 73 47 74 49 75 48 76
REMARK H PARENT 17 6 6 13 21 25 65 44 43 55
REMARK Flexibility Score: inf
ROOT
ATOM      1  C   UNL A   1      32.377  29.571  27.016  1.00  0.00     0.042 C 
ENDROOT
BRANCH   1   2
ATOM      2  C   UNL A   1      31.918  29.770  25.589  1.00  0.00     0.117 C 
BRANCH   2   3
ATOM      3  N   UNL A   1      33.005  29.697  24.632  1.00  0.00    -0.354 N 
ATOM      4  C   UNL A   1      33.338  28.675  23.785  1.00  0.00     0.242 C 
ATOM      5  O   UNL A   1      34.218  28.896  22.947  1.00  0.00    -0.273 OA
ATOM      6  H   UNL A   1      33.584  30.492  24.585  1.00  0.00     0.163 HD
BRANCH   4   7
ATOM      7  C   UNL A   1      32.681  27.271  23.898  1.00  0.00     0.171 C 
BRANCH   7   8
ATOM      8  C   UNL A   1      31.526  27.132  22.847  1.00  0.00     0.018 C 
ATOM      9  C   UNL A   1      31.888  26.148  21.722  1.00  0.00     0.010 C 
BRANCH   8  10
ATOM     10  C   UNL A   1      30.185  26.700  23.500  1.00  0.00     0.002 C 
ATOM     11  C   UNL A   1      29.120  27.791  23.488  1.00  0.00     0.004 C 
ENDBRANCH   8  10
ENDBRANCH   7   8
BRANCH   7  12
ATOM     12  N   UNL A   1      33.651  26.148  23.771  1.00  0.00    -0.373 N 
ATOM     13  H   UNL A   1      34.347  26.241  23.081  1.00  0.00     0.161 HD
BRANCH  12  14
ATOM     14  C   UNL A   1      33.672  24.986  24.523  1.00  0.00     0.036 A 
ATOM     15  C   UNL A   1      32.711  24.670  25.485  1.00  0.00     0.027 A 
ATOM     16  C   UNL A   1      34.824  24.184  24.462  1.00  0.00     0.043 A 
ATOM     17  C   UNL A   1      32.930  23.649  26.419  1.00  0.00     0.024 A 
ATOM     18  C   UNL A   1      35.063  23.174  25.403  1.00  0.00     0.038 A 
ATOM     19  C   UNL A   1      34.118  22.917  26.398  1.00  0.00     0.055 A 
ATOM     20  Br  UNL A   1      36.735  22.279  25.317  1.00  0.00    -0.049 Br
ATOM     21  Cl  UNL A   1      34.367  21.753  27.648  1.00  0.00    -0.083 Cl
ENDBRANCH  12  14
ENDBRANCH   7  12
ENDBRANCH   4   7
ENDBRANCH   2   3
ENDBRANCH   1   2
BRANCH   1  22
ATOM     22  C   UNL A   1      33.832  29.940  27.231  1.00  0.00     0.118 C 
BRANCH  22  23
ATOM     23  N   UNL A   1      34.029  30.991  28.223  1.00  0.00    -0.352 N 
ATOM     24  C   UNL A   1      35.108  31.218  29.050  1.00  0.00     0.251 C 
ATOM     25  H   UNL A   1      33.285  31.630  28.316  1.00  0.00     0.163 HD
ATOM     26  O   UNL A   1      35.062  32.092  29.910  1.00  0.00    -0.269 OA
BRANCH  24  27
ATOM     27  C   UNL A   1      36.305  30.362  28.925  1.00  0.00     0.039 A 
ATOM     28  C   UNL A   1      36.776  29.651  30.026  1.00  0.00     0.014 A 
ATOM     29  C   UNL A   1      37.008  30.338  27.718  1.00  0.00     0.014 A 
ATOM     30  C   UNL A   1      38.058  29.124  29.997  1.00  0.00     0.010 A 
ATOM     31  C   UNL A   1      38.247  29.694  27.653  1.00  0.00     0.010 A 
ATOM     32  C   UNL A   1      38.815  29.144  28.812  1.00  0.00    -0.014 A 
BRANCH  32  33
ATOM     33  C   UNL A   1      40.196  28.595  28.843  1.00  0.00     0.031 A 
ATOM     34  C   UNL A   1      40.474  27.166  28.457  1.00  0.00     0.074 A 
ATOM     35  C   UNL A   1      41.218  29.430  29.114  1.00  0.00     0.049 A 
ATOM     36  N   UNL A   1      41.632  26.565  28.321  1.00  0.00    -0.248 NA
ATOM     37  C   UNL A   1      39.318  26.294  28.192  1.00  0.00     0.031 C 
ATOM     38  C   UNL A   1      41.072  30.839  29.490  1.00  0.00     0.029 A 
ATOM     39  N   UNL A   1      42.575  29.240  29.059  1.00  0.00    -0.354 N 
ATOM     40  C   UNL A   1      41.342  25.249  27.980  1.00  0.00     0.074 A 
ATOM     41  C   UNL A   1      39.901  25.127  27.954  1.00  0.00     0.031 C 
ATOM     42  C   UNL A   1      42.284  31.407  29.539  1.00  0.00     0.029 A 
ATOM     43  C   UNL A   1      43.296  30.391  29.272  1.00  0.00     0.049 A 
ATOM     44  H   UNL A   1      42.992  28.366  28.884  1.00  0.00     0.167 HD
ATOM     45  C   UNL A   1      42.198  24.237  27.701  1.00  0.00     0.031 A 
ATOM     46  C   UNL A   1      44.623  30.613  29.250  1.00  0.00     0.031 A 
ATOM     47  C   UNL A   1      43.632  24.364  27.713  1.00  0.00     0.049 A 
ATOM     48  C   UNL A   1      45.550  29.476  28.939  1.00  0.00     0.074 A 
ATOM     49  C   UNL A   1      44.581  23.390  27.456  1.00  0.00     0.029 A 
ATOM     50  N   UNL A   1      44.320  25.536  27.983  1.00  0.00    -0.354 N 
ATOM     51  N   UNL A   1      45.254  28.238  28.628  1.00  0.00    -0.248 NA
ATOM     52  C   UNL A   1      46.990  29.765  28.970  1.00  0.00     0.031 C 
ATOM     53  C   UNL A   1      45.846  23.962  27.612  1.00  0.00     0.029 A 
ATOM     54  C   UNL A   1      45.684  25.307  27.906  1.00  0.00     0.049 A 
ATOM     55  H   UNL A   1      43.904  26.401  28.198  1.00  0.00     0.167 HD
ATOM     56  C   UNL A   1      46.470  27.601  28.416  1.00  0.00     0.074 A 
ATOM     57  C   UNL A   1      47.505  28.596  28.610  1.00  0.00     0.031 C 
ATOM     58  C   UNL A   1      46.703  26.307  28.095  1.00  0.00     0.031 A 
BRANCH  45  59
ATOM     59  C   UNL A   1      41.616  22.891  27.366  1.00  0.00    -0.014 A 
ATOM     60  C   UNL A   1      41.645  21.861  28.320  1.00  0.00     0.009 A 
ATOM     61  C   UNL A   1      41.117  22.615  26.084  1.00  0.00     0.009 A 
ATOM     62  C   UNL A   1      41.199  20.579  27.994  1.00  0.00     0.001 A 
ATOM     63  C   UNL A   1      40.647  21.338  25.769  1.00  0.00     0.001 A 
ATOM     64  C   UNL A   1      40.697  20.320  26.719  1.00  0.00     0.000 A 
ENDBRANCH  45  59
BRANCH  46  65
ATOM     65  C   UNL A   1      45.134  31.984  29.514  1.00  0.00    -0.014 A 
ATOM     66  C   UNL A   1      45.295  32.898  28.459  1.00  0.00     0.009 A 
ATOM     67  C   UNL A   1      45.525  32.363  30.806  1.00  0.00     0.009 A 
ATOM     68  C   UNL A   1      45.864  34.152  28.687  1.00  0.00     0.001 A 
ATOM     69  C   UNL A   1      46.063  33.632  31.036  1.00  0.00     0.001 A 
ATOM     70  C   UNL A   1      46.243  34.521  29.975  1.00  0.00     0.000 A 
ENDBRANCH  46  65
BRANCH  58  71
ATOM     71  C   UNL A   1      48.130  25.879  27.908  1.00  0.00    -0.014 A 
ATOM     72  C   UNL A   1      48.895  25.509  29.026  1.00  0.00     0.009 A 
ATOM     73  C   UNL A   1      48.744  25.931  26.648  1.00  0.00     0.009 A 
ATOM     74  C   UNL A   1      50.250  25.209  28.887  1.00  0.00     0.001 A 
ATOM     75  C   UNL A   1      50.094  25.604  26.508  1.00  0.00     0.001 A 
ATOM     76  C   UNL A   1      50.848  25.252  27.629  1.00  0.00     0.000 A 
ENDBRANCH  58  71
ENDBRANCH  32  33
ENDBRANCH  24  27
ENDBRANCH  22  23
ENDBRANCH   1  22
TORSDOF 14
ENDMDL
MODEL 2
REMARK VINA RESULT:     -10.4      2.876      7.893
REMARK SMILES CC[C@H](C)[C@@H](Nc1ccc(Cl)c(Br)c1)C(=O)NCCCNC(=O)c1ccc(-c2c3nc(c(-c4ccccc4)c4ccc([nH]4)c(-c4ccccc4)c4nc(c(-c5ccccc5)c5ccc2[nH]5)C=C4)C=C3)cc1
REMARK SMILES IDX 19 1 18 2 17 3 15 4 16 5 5 7 3 8 4 9 2 10 1 11 6 12 7 14
REMARK SMILES IDX 8 15 14 16 9 17 12 18 10 19 13 20 11 21 20 22 21 23 22 24
REMARK SMILES IDX 23 26 24 27 25 28 71 29 26 30 70 31 27 32 28 33 29 34 64 35
REMARK SMILES IDX 30 36 69 37 63 38 65 39 31 40 68 41 62 42 61 43 32 45 54 46
REMARK SMILES IDX 39 47 53 48 40 49 43 50 52 51 66 52 41 53 42 54 51 56 67 57
REMARK SMILES IDX 44 58 33 59 34 60 38 61 35 62 37 63 36 64 55 65 56 66 60 67
REMARK SMILES IDX 57 68 59 69 58 70 45 71 46 72 50 73 47 74 49 75 48 76
REMARK H PARENT 17 6 6 13 21 25 65 44 43 55
REMARK Flexibility Score: inf
ROOT
ATOM      1  C   UNL A   1      37.616  20.958  24.785  1.00  0.00     0.042 C 
ENDROOT
BRANCH   1   2
ATOM      2  C   UNL A   1      36.550  21.996  25.062  1.00  0.00     0.117 C 
BRANCH   2   3
ATOM      3  N   UNL A   1      35.882  21.791  26.333  1.00  0.00    -0.354 N 
ATOM      4  C   UNL A   1      34.586  22.066  26.677  1.00  0.00     0.242 C 
ATOM      5  O   UNL A   1      34.194  21.664  27.777  1.00  0.00    -0.273 OA
ATOM      6  H   UNL A   1      36.437  21.401  27.046  1.00  0.00     0.163 HD
BRANCH   4   7
ATOM      7  C   UNL A   1      33.652  22.896  25.753  1.00  0.00     0.171 C 
BRANCH   7   8
ATOM      8  C   UNL A   1      33.024  21.971  24.653  1.00  0.00     0.018 C 
ATOM      9  C   UNL A   1      31.717  21.317  25.131  1.00  0.00     0.010 C 
BRANCH   8  10
ATOM     10  C   UNL A   1      32.768  22.729  23.323  1.00  0.00     0.002 C 
ATOM     11  C   UNL A   1      33.912  23.648  22.913  1.00  0.00     0.004 C 
ENDBRANCH   8  10
ENDBRANCH   7   8
BRANCH   7  12
ATOM     12  N   UNL A   1      32.591  23.637  26.490  1.00  0.00    -0.373 N 
ATOM     13  H   UNL A   1      32.267  23.230  27.326  1.00  0.00     0.161 HD
BRANCH  12  14
ATOM     14  C   UNL A   1      32.015  24.840  26.119  1.00  0.00     0.036 A 
ATOM     15  C   UNL A   1      30.647  25.005  25.892  1.00  0.00     0.027 A 
ATOM     16  C   UNL A   1      32.870  25.894  25.756  1.00  0.00     0.043 A 
ATOM     17  C   UNL A   1      30.154  26.140  25.238  1.00  0.00     0.024 A 
ATOM     18  C   UNL A   1      32.389  27.025  25.083  1.00  0.00     0.038 A 
ATOM     19  C   UNL A   1      31.026  27.141  24.807  1.00  0.00     0.055 A 
ATOM     20  Br  UNL A   1      33.670  28.297  24.492  1.00  0.00    -0.049 Br
ATOM     21  Cl  UNL A   1      30.360  28.455  23.908  1.00  0.00    -0.083 Cl
ENDBRANCH  12  14
ENDBRANCH   7  12
ENDBRANCH   4   7
ENDBRANCH   2   3
ENDBRANCH   1   2
BRANCH   1  22
ATOM     22  C   UNL A   1      38.766  21.006  25.772  1.00  0.00     0.118 C 
BRANCH  22  23
ATOM     23  N   UNL A   1      39.674  19.869  25.670  1.00  0.00    -0.352 N 
ATOM     24  C   UNL A   1      41.016  19.795  25.975  1.00  0.00     0.251 C 
ATOM     25  H   UNL A   1      39.270  19.036  25.334  1.00  0.00     0.163 HD
ATOM     26  O   UNL A   1      41.657  18.780  25.724  1.00  0.00    -0.269 OA
BRANCH  24  27
ATOM     27  C   UNL A   1      41.687  20.972  26.563  1.00  0.00     0.039 A 
ATOM     28  C   UNL A   1      41.769  21.113  27.946  1.00  0.00     0.014 A 
ATOM     29  C   UNL A   1      42.162  21.981  25.722  1.00  0.00     0.014 A 
ATOM     30  C   UNL A   1      42.095  22.348  28.484  1.00  0.00     0.010 A 
ATOM     31  C   UNL A   1      42.613  23.185  26.274  1.00  0.00     0.010 A 
ATOM     32  C   UNL A   1      42.515  23.404  27.656  1.00  0.00    -0.014 A 
BRANCH  32  33
ATOM     33  C   UNL A   1      42.822  24.718  28.280  1.00  0.00     0.031 A 
ATOM     34  C   UNL A   1      44.243  25.142  28.543  1.00  0.00     0.074 A 
ATOM     35  C   UNL A   1      41.810  25.578  28.507  1.00  0.00     0.049 A 
ATOM     36  N   UNL A   1      44.686  26.298  28.974  1.00  0.00    -0.248 NA
ATOM     37  C   UNL A   1      45.306  24.154  28.296  1.00  0.00     0.031 C 
ATOM     38  C   UNL A   1      40.392  25.283  28.282  1.00  0.00     0.029 A 
ATOM     39  N   UNL A   1      41.815  26.887  28.918  1.00  0.00    -0.354 N 
ATOM     40  C   UNL A   1      46.066  26.166  29.071  1.00  0.00     0.074 A 
ATOM     41  C   UNL A   1      46.390  24.813  28.680  1.00  0.00     0.031 C 
ATOM     42  C   UNL A   1      39.677  26.401  28.464  1.00  0.00     0.029 A 
ATOM     43  C   UNL A   1      40.572  27.472  28.891  1.00  0.00     0.049 A 
ATOM     44  H   UNL A   1      42.629  27.360  29.202  1.00  0.00     0.167 HD
ATOM     45  C   UNL A   1      46.982  27.094  29.441  1.00  0.00     0.031 A 
ATOM     46  C   UNL A   1      40.186  28.730  29.171  1.00  0.00     0.031 A 
ATOM     47  C   UNL A   1      46.660  28.445  29.817  1.00  0.00     0.049 A 
ATOM     48  C   UNL A   1      41.220  29.737  29.578  1.00  0.00     0.074 A 
ATOM     49  C   UNL A   1      47.520  29.452  30.218  1.00  0.00     0.029 A 
ATOM     50  N   UNL A   1      45.381  28.980  29.824  1.00  0.00    -0.354 N 
ATOM     51  N   UNL A   1      42.518  29.589  29.671  1.00  0.00    -0.248 NA
ATOM     52  C   UNL A   1      40.739  31.085  29.913  1.00  0.00     0.031 C 
ATOM     53  C   UNL A   1      46.757  30.586  30.509  1.00  0.00     0.029 A 
ATOM     54  C   UNL A   1      45.430  30.303  30.230  1.00  0.00     0.049 A 
ATOM     55  H   UNL A   1      44.562  28.494  29.578  1.00  0.00     0.167 HD
ATOM     56  C   UNL A   1      43.012  30.825  30.067  1.00  0.00     0.074 A 
ATOM     57  C   UNL A   1      41.876  31.718  30.170  1.00  0.00     0.031 C 
ATOM     58  C   UNL A   1      44.293  31.183  30.324  1.00  0.00     0.031 A 
BRANCH  45  59
ATOM     59  C   UNL A   1      48.429  26.683  29.471  1.00  0.00    -0.014 A 
ATOM     60  C   UNL A   1      48.973  26.129  30.641  1.00  0.00     0.009 A 
ATOM     61  C   UNL A   1      49.274  26.924  28.377  1.00  0.00     0.009 A 
ATOM     62  C   UNL A   1      50.336  25.834  30.719  1.00  0.00     0.001 A 
ATOM     63  C   UNL A   1      50.632  26.603  28.449  1.00  0.00     0.001 A 
ATOM     64  C   UNL A   1      51.163  26.068  29.621  1.00  0.00     0.000 A 
ENDBRANCH  45  59
BRANCH  46  65
ATOM     65  C   UNL A   1      38.751  29.094  29.049  1.00  0.00    -0.014 A 
ATOM     66  C   UNL A   1      38.247  29.606  27.840  1.00  0.00     0.009 A 
ATOM     67  C   UNL A   1      37.893  28.997  30.153  1.00  0.00     0.009 A 
ATOM     68  C   UNL A   1      36.923  30.038  27.749  1.00  0.00     0.001 A 
ATOM     69  C   UNL A   1      36.559  29.400  30.049  1.00  0.00     0.001 A 
ATOM     70  C   UNL A   1      36.078  29.930  28.852  1.00  0.00     0.000 A 
ENDBRANCH  46  65
BRANCH  58  71
ATOM     71  C   UNL A   1      44.554  32.606  30.725  1.00  0.00    -0.014 A 
ATOM     72  C   UNL A   1      44.864  33.558  29.740  1.00  0.00     0.009 A 
ATOM     73  C   UNL A   1      44.588  32.985  32.075  1.00  0.00     0.009 A 
ATOM     74  C   UNL A   1      45.212  34.860  30.100  1.00  0.00     0.001 A 
ATOM     75  C   UNL A   1      44.911  34.296  32.431  1.00  0.00     0.001 A 
ATOM     76  C   UNL A   1      45.230  35.229  31.444  1.00  0.00     0.000 A 
ENDBRANCH  58  71
ENDBRANCH  32  33
ENDBRANCH  24  27
ENDBRANCH  22  23
ENDBRANCH   1  22
TORSDOF 14
ENDMDL
MODEL 3
REMARK VINA RESULT:     -10.4      3.165      8.146
REMARK SMILES CC[C@H](C)[C@@H](Nc1ccc(Cl)c(Br)c1)C(=O)NCCCNC(=O)c1ccc(-c2c3nc(c(-c4ccccc4)c4ccc([nH]4)c(-c4ccccc4)c4nc(c(-c5ccccc5)c5ccc2[nH]5)C=C4)C=C3)cc1
REMARK SMILES IDX 19 1 18 2 17 3 15 4 16 5 5 7 3 8 4 9 2 10 1 11 6 12 7 14
REMARK SMILES IDX 8 15 14 16 9 17 12 18 10 19 13 20 11 21 20 22 21 23 22 24
REMARK SMILES IDX 23 26 24 27 25 28 71 29 26 30 70 31 27 32 28 33 29 34 64 35
REMARK SMILES IDX 30 36 69 37 63 38 65 39 31 40 68 41 62 42 61 43 32 45 54 46
REMARK SMILES IDX 39 47 53 48 40 49 43 50 52 51 66 52 41 53 42 54 51 56 67 57
REMARK SMILES IDX 44 58 33 59 34 60 38 61 35 62 37 63 36 64 55 65 56 66 60 67
REMARK SMILES IDX 57 68 59 69 58 70 45 71 46 72 50 73 47 74 49 75 48 76
REMARK H PARENT 17 6 6 13 21 25 65 44 43 55
REMARK Flexibility Score: inf
ROOT
ATOM      1  C   UNL A   1      37.493  20.907  24.806  1.00  0.00     0.042 C 
ENDROOT
BRANCH   1   2
ATOM      2  C   UNL A   1      36.545  22.081  24.916  1.00  0.00     0.117 C 
BRANCH   2   3
ATOM      3  N   UNL A   1      35.557  21.909  25.964  1.00  0.00    -0.354 N 
ATOM      4  C   UNL A   1      34.422  21.145  25.958  1.00  0.00     0.242 C 
ATOM      5  O   UNL A   1      33.808  21.033  27.025  1.00  0.00    -0.273 OA
ATOM      6  H   UNL A   1      35.725  22.413  26.793  1.00  0.00     0.163 HD
BRANCH   4   7
ATOM      7  C   UNL A   1      33.887  20.481  24.659  1.00  0.00     0.171 C 
BRANCH   7   8
ATOM      8  C   UNL A   1      33.645  18.951  24.898  1.00  0.00     0.018 C 
ATOM      9  C   UNL A   1      32.283  18.493  24.350  1.00  0.00     0.010 C 
BRANCH   8  10
ATOM     10  C   UNL A   1      34.770  18.074  24.285  1.00  0.00     0.002 C 
ATOM     11  C   UNL A   1      34.251  16.902  23.459  1.00  0.00     0.004 C 
ENDBRANCH   8  10
ENDBRANCH   7   8
BRANCH   7  12
ATOM     12  N   UNL A   1      32.663  21.133  24.118  1.00  0.00    -0.373 N 
ATOM     13  H   UNL A   1      31.819  20.633  24.207  1.00  0.00     0.161 HD
BRANCH  12  14
ATOM     14  C   UNL A   1      32.589  22.371  23.502  1.00  0.00     0.036 A 
ATOM     15  C   UNL A   1      33.642  22.939  22.781  1.00  0.00     0.027 A 
ATOM     16  C   UNL A   1      31.478  23.182  23.786  1.00  0.00     0.043 A 
ATOM     17  C   UNL A   1      33.633  24.296  22.436  1.00  0.00     0.024 A 
ATOM     18  C   UNL A   1      31.467  24.546  23.463  1.00  0.00     0.038 A 
ATOM     19  C   UNL A   1      32.558  25.109  22.800  1.00  0.00     0.055 A 
ATOM     20  Br  UNL A   1      29.982  25.569  24.055  1.00  0.00    -0.049 Br
ATOM     21  Cl  UNL A   1      32.668  26.794  22.441  1.00  0.00    -0.083 Cl
ENDBRANCH  12  14
ENDBRANCH   7  12
ENDBRANCH   4   7
ENDBRANCH   2   3
ENDBRANCH   1   2
BRANCH   1  22
ATOM     22  C   UNL A   1      38.681  21.011  25.742  1.00  0.00     0.118 C 
BRANCH  22  23
ATOM     23  N   UNL A   1      39.580  19.864  25.678  1.00  0.00    -0.352 N 
ATOM     24  C   UNL A   1      40.915  19.782  26.010  1.00  0.00     0.251 C 
ATOM     25  H   UNL A   1      39.175  19.028  25.350  1.00  0.00     0.163 HD
ATOM     26  O   UNL A   1      41.551  18.757  25.789  1.00  0.00    -0.269 OA
BRANCH  24  27
ATOM     27  C   UNL A   1      41.587  20.963  26.589  1.00  0.00     0.039 A 
ATOM     28  C   UNL A   1      41.691  21.102  27.972  1.00  0.00     0.014 A 
ATOM     29  C   UNL A   1      42.038  21.979  25.743  1.00  0.00     0.014 A 
ATOM     30  C   UNL A   1      42.016  22.338  28.507  1.00  0.00     0.010 A 
ATOM     31  C   UNL A   1      42.488  23.185  26.291  1.00  0.00     0.010 A 
ATOM     32  C   UNL A   1      42.412  23.399  27.675  1.00  0.00    -0.014 A 
BRANCH  32  33
ATOM     33  C   UNL A   1      42.719  24.714  28.298  1.00  0.00     0.031 A 
ATOM     34  C   UNL A   1      44.139  25.135  28.569  1.00  0.00     0.074 A 
ATOM     35  C   UNL A   1      41.708  25.578  28.516  1.00  0.00     0.049 A 
ATOM     36  N   UNL A   1      44.583  26.291  29.000  1.00  0.00    -0.248 NA
ATOM     37  C   UNL A   1      45.201  24.143  28.331  1.00  0.00     0.031 C 
ATOM     38  C   UNL A   1      40.291  25.286  28.283  1.00  0.00     0.029 A 
ATOM     39  N   UNL A   1      41.714  26.888  28.923  1.00  0.00    -0.354 N 
ATOM     40  C   UNL A   1      45.962  26.156  29.107  1.00  0.00     0.074 A 
ATOM     41  C   UNL A   1      46.285  24.800  28.721  1.00  0.00     0.031 C 
ATOM     42  C   UNL A   1      39.578  26.406  28.457  1.00  0.00     0.029 A 
ATOM     43  C   UNL A   1      40.472  27.476  28.886  1.00  0.00     0.049 A 
ATOM     44  H   UNL A   1      42.527  27.360  29.212  1.00  0.00     0.167 HD
ATOM     45  C   UNL A   1      46.878  27.081  29.480  1.00  0.00     0.031 A 
ATOM     46  C   UNL A   1      40.088  28.736  29.160  1.00  0.00     0.031 A 
ATOM     47  C   UNL A   1      46.557  28.435  29.850  1.00  0.00     0.049 A 
ATOM     48  C   UNL A   1      41.122  29.742  29.572  1.00  0.00     0.074 A 
ATOM     49  C   UNL A   1      47.417  29.441  30.254  1.00  0.00     0.029 A 
ATOM     50  N   UNL A   1      45.280  28.974  29.847  1.00  0.00    -0.354 N 
ATOM     51  N   UNL A   1      42.420  29.590  29.674  1.00  0.00    -0.248 NA
ATOM     52  C   UNL A   1      40.643  31.091  29.900  1.00  0.00     0.031 C 
ATOM     53  C   UNL A   1      46.656  30.577  30.537  1.00  0.00     0.029 A 
ATOM     54  C   UNL A   1      45.330  30.298  30.250  1.00  0.00     0.049 A 
ATOM     55  H   UNL A   1      44.461  28.489  29.597  1.00  0.00     0.167 HD
ATOM     56  C   UNL A   1      42.914  30.826  30.069  1.00  0.00     0.074 A 
ATOM     57  C   UNL A   1      41.780  31.722  30.163  1.00  0.00     0.031 C 
ATOM     58  C   UNL A   1      44.194  31.180  30.334  1.00  0.00     0.031 A 
BRANCH  45  59
ATOM     59  C   UNL A   1      48.324  26.667  29.520  1.00  0.00    -0.014 A 
ATOM     60  C   UNL A   1      49.128  26.828  28.381  1.00  0.00     0.009 A 
ATOM     61  C   UNL A   1      48.868  26.042  30.652  1.00  0.00     0.009 A 
ATOM     62  C   UNL A   1      50.443  26.359  28.368  1.00  0.00     0.001 A 
ATOM     63  C   UNL A   1      50.192  25.598  30.647  1.00  0.00     0.001 A 
ATOM     64  C   UNL A   1      50.975  25.748  29.503  1.00  0.00     0.000 A 
ENDBRANCH  45  59
BRANCH  46  65
ATOM     65  C   UNL A   1      38.655  29.104  29.028  1.00  0.00    -0.014 A 
ATOM     66  C   UNL A   1      38.160  29.609  27.813  1.00  0.00     0.009 A 
ATOM     67  C   UNL A   1      37.790  29.017  30.129  1.00  0.00     0.009 A 
ATOM     68  C   UNL A   1      36.837  30.044  27.712  1.00  0.00     0.001 A 
ATOM     69  C   UNL A   1      36.458  29.423  30.014  1.00  0.00     0.001 A 
ATOM     70  C   UNL A   1      35.986  29.947  28.810  1.00  0.00     0.000 A 
ENDBRANCH  46  65
BRANCH  58  71
ATOM     71  C   UNL A   1      44.457  32.604  30.732  1.00  0.00    -0.014 A 
ATOM     72  C   UNL A   1      44.759  33.556  29.746  1.00  0.00     0.009 A 
ATOM     73  C   UNL A   1      44.499  32.983  32.082  1.00  0.00     0.009 A 
ATOM     74  C   UNL A   1      45.108  34.859  30.103  1.00  0.00     0.001 A 
ATOM     75  C   UNL A   1      44.824  34.294  32.436  1.00  0.00     0.001 A 
ATOM     76  C   UNL A   1      45.135  35.228  31.447  1.00  0.00     0.000 A 
ENDBRANCH  58  71
ENDBRANCH  32  33
ENDBRANCH  24  27
ENDBRANCH  22  23
ENDBRANCH   1  22
TORSDOF 14
ENDMDL
