MODEL 1
REMARK VINA RESULT:     -10.6      0.000      0.000
REMARK SMILES O=C(NCCCNC(=O)c1ccc(-c2c3nc(c(-c4ccccc4)c4ccc([nH]4)c(-c4ccccc4)c4nc(c(-c5ccccc5)c5ccc2[nH]5)C=C4)C=C3)cc1)c1ccc(NC(=S)NC(=O)C(Cl)(Cl)Cl)cc1
REMARK SMILES IDX 4 1 3 2 1 3 2 4 58 6 59 7 73 8 60 9 72 10 61 11 62 12 63 14
REMARK SMILES IDX 64 15 65 16 66 17 67 19 68 20 69 21 70 22 71 23 5 24 6 25
REMARK SMILES IDX 7 26 8 27 9 29 10 30 11 31 57 32 12 33 56 34 13 35 14 36
REMARK SMILES IDX 15 37 50 38 16 39 55 40 49 41 51 42 17 43 54 44 48 45 47 46
REMARK SMILES IDX 18 48 40 49 25 50 39 51 26 52 29 53 38 54 52 55 27 56 28 57
REMARK SMILES IDX 37 59 53 60 30 61 19 62 20 63 24 64 21 65 23 66 22 67 41 68
REMARK SMILES IDX 42 69 46 70 43 71 45 72 44 73 31 74 32 75 36 76 33 77 35 78
REMARK SMILES IDX 34 79
REMARK H PARENT 3 5 62 13 65 18 7 28 51 47 29 58
REMARK Flexibility Score: inf
ROOT
ATOM      1  C   UNL A   1      36.109  20.568  25.080  1.00  0.00     0.118 C 
ENDROOT
BRANCH   1   2
ATOM      2  N   UNL A   1      35.134  19.490  24.968  1.00  0.00    -0.352 N 
ATOM      3  O   UNL A   1      33.072  18.545  25.015  1.00  0.00    -0.269 OA
ATOM      4  C   UNL A   1      33.761  19.559  25.032  1.00  0.00     0.251 C 
ATOM      5  H   UNL A   1      35.509  18.591  24.827  1.00  0.00     0.163 HD
BRANCH   4   6
ATOM      6  C   UNL A   1      33.123  20.882  25.164  1.00  0.00     0.039 A 
ATOM      7  C   UNL A   1      33.013  21.501  26.413  1.00  0.00     0.016 A 
ATOM      8  C   UNL A   1      32.571  21.473  24.033  1.00  0.00     0.016 A 
ATOM      9  C   UNL A   1      32.204  22.636  26.560  1.00  0.00     0.027 A 
ATOM     10  C   UNL A   1      31.760  22.598  24.190  1.00  0.00     0.027 A 
ATOM     11  C   UNL A   1      31.491  23.114  25.470  1.00  0.00     0.040 A 
BRANCH  11  12
ATOM     12  N   UNL A   1      30.517  24.110  25.546  1.00  0.00    -0.332 N 
ATOM     13  H   UNL A   1      29.616  23.731  25.670  1.00  0.00     0.169 HD
BRANCH  12  14
ATOM     14  C   UNL A   1      30.487  25.442  25.495  1.00  0.00     0.177 C 
ATOM     15  S   UNL A   1      29.936  26.106  24.050  1.00  0.00    -0.040 S 
BRANCH  14  16
ATOM     16  N   UNL A   1      30.781  26.353  26.476  1.00  0.00    -0.299 N 
ATOM     17  C   UNL A   1      31.411  27.518  26.941  1.00  0.00     0.278 C 
ATOM     18  H   UNL A   1      30.302  26.012  27.265  1.00  0.00     0.172 HD
ATOM     19  O   UNL A   1      31.062  27.807  28.101  1.00  0.00    -0.270 OA
BRANCH  17  20
ATOM     20  C   UNL A   1      32.432  28.385  26.192  1.00  0.00     0.269 C 
ATOM     21  Cl  UNL A   1      34.057  27.707  26.147  1.00  0.00    -0.073 Cl
ATOM     22  Cl  UNL A   1      31.767  28.797  24.591  1.00  0.00    -0.073 Cl
ATOM     23  Cl  UNL A   1      32.579  29.963  27.078  1.00  0.00    -0.073 Cl
ENDBRANCH  17  20
ENDBRANCH  14  16
ENDBRANCH  12  14
ENDBRANCH  11  12
ENDBRANCH   4   6
ENDBRANCH   1   2
BRANCH   1  24
ATOM     24  C   UNL A   1      37.518  20.147  24.673  1.00  0.00     0.042 C 
BRANCH  24  25
ATOM     25  C   UNL A   1      38.602  20.481  25.692  1.00  0.00     0.118 C 
BRANCH  25  26
ATOM     26  N   UNL A   1      39.690  19.512  25.719  1.00  0.00    -0.352 N 
ATOM     27  C   UNL A   1      41.009  19.654  26.085  1.00  0.00     0.251 C 
ATOM     28  H   UNL A   1      39.441  18.606  25.427  1.00  0.00     0.163 HD
ATOM     29  O   UNL A   1      41.779  18.710  25.924  1.00  0.00    -0.269 OA
BRANCH  27  30
ATOM     30  C   UNL A   1      41.529  20.930  26.635  1.00  0.00     0.039 A 
ATOM     31  C   UNL A   1      42.001  21.899  25.742  1.00  0.00     0.014 A 
ATOM     32  C   UNL A   1      41.582  21.180  28.008  1.00  0.00     0.014 A 
ATOM     33  C   UNL A   1      42.448  23.136  26.219  1.00  0.00     0.010 A 
ATOM     34  C   UNL A   1      41.945  22.444  28.477  1.00  0.00     0.010 A 
ATOM     35  C   UNL A   1      42.381  23.439  27.589  1.00  0.00    -0.014 A 
BRANCH  35  36
ATOM     36  C   UNL A   1      42.748  24.786  28.102  1.00  0.00     0.031 A 
ATOM     37  C   UNL A   1      41.695  25.843  28.309  1.00  0.00     0.074 A 
ATOM     38  C   UNL A   1      44.044  25.087  28.325  1.00  0.00     0.049 A 
ATOM     39  N   UNL A   1      41.837  27.087  28.698  1.00  0.00    -0.248 NA
ATOM     40  C   UNL A   1      40.304  25.463  28.018  1.00  0.00     0.031 C 
ATOM     41  C   UNL A   1      45.172  24.175  28.127  1.00  0.00     0.029 A 
ATOM     42  N   UNL A   1      44.631  26.249  28.764  1.00  0.00    -0.354 N 
ATOM     43  C   UNL A   1      40.562  27.639  28.680  1.00  0.00     0.074 A 
ATOM     44  C   UNL A   1      39.666  26.611  28.193  1.00  0.00     0.031 C 
ATOM     45  C   UNL A   1      46.309  24.800  28.474  1.00  0.00     0.029 A 
ATOM     46  C   UNL A   1      45.999  26.168  28.875  1.00  0.00     0.049 A 
ATOM     47  H   UNL A   1      44.120  27.063  28.978  1.00  0.00     0.167 HD
ATOM     48  C   UNL A   1      40.164  28.879  29.053  1.00  0.00     0.031 A 
ATOM     49  C   UNL A   1      46.904  27.090  29.253  1.00  0.00     0.031 A 
ATOM     50  C   UNL A   1      41.048  29.902  29.547  1.00  0.00     0.049 A 
ATOM     51  C   UNL A   1      46.440  28.464  29.647  1.00  0.00     0.074 A 
ATOM     52  C   UNL A   1      40.729  31.171  30.001  1.00  0.00     0.029 A 
ATOM     53  N   UNL A   1      42.425  29.776  29.647  1.00  0.00    -0.354 N 
ATOM     54  N   UNL A   1      45.222  28.945  29.689  1.00  0.00    -0.248 NA
ATOM     55  C   UNL A   1      47.479  29.419  30.061  1.00  0.00     0.031 C 
ATOM     56  C   UNL A   1      41.918  31.832  30.325  1.00  0.00     0.029 A 
ATOM     57  C   UNL A   1      42.971  30.953  30.133  1.00  0.00     0.049 A 
ATOM     58  H   UNL A   1      42.937  28.971  29.409  1.00  0.00     0.167 HD
ATOM     59  C   UNL A   1      45.343  30.245  30.161  1.00  0.00     0.074 A 
ATOM     60  C   UNL A   1      46.752  30.471  30.409  1.00  0.00     0.031 C 
ATOM     61  C   UNL A   1      44.375  31.170  30.372  1.00  0.00     0.031 A 
BRANCH  48  62
ATOM     62  C   UNL A   1      38.699  29.202  28.934  1.00  0.00    -0.014 A 
ATOM     63  C   UNL A   1      37.826  29.036  30.022  1.00  0.00     0.009 A 
ATOM     64  C   UNL A   1      38.190  29.711  27.730  1.00  0.00     0.009 A 
ATOM     65  C   UNL A   1      36.467  29.337  29.892  1.00  0.00     0.001 A 
ATOM     66  C   UNL A   1      36.838  30.040  27.612  1.00  0.00     0.001 A 
ATOM     67  C   UNL A   1      35.976  29.843  28.690  1.00  0.00     0.000 A 
ENDBRANCH  48  62
BRANCH  49  68
ATOM     68  C   UNL A   1      48.350  26.742  29.294  1.00  0.00    -0.014 A 
ATOM     69  C   UNL A   1      49.168  26.966  28.176  1.00  0.00     0.009 A 
ATOM     70  C   UNL A   1      48.917  26.171  30.444  1.00  0.00     0.009 A 
ATOM     71  C   UNL A   1      50.516  26.599  28.199  1.00  0.00     0.001 A 
ATOM     72  C   UNL A   1      50.271  25.834  30.476  1.00  0.00     0.001 A 
ATOM     73  C   UNL A   1      51.067  26.038  29.349  1.00  0.00     0.000 A 
ENDBRANCH  49  68
BRANCH  61  74
ATOM     74  C   UNL A   1      44.802  32.497  30.935  1.00  0.00    -0.014 A 
ATOM     75  C   UNL A   1      44.883  32.714  32.320  1.00  0.00     0.009 A 
ATOM     76  C   UNL A   1      45.153  33.540  30.063  1.00  0.00     0.009 A 
ATOM     77  C   UNL A   1      45.269  33.961  32.818  1.00  0.00     0.001 A 
ATOM     78  C   UNL A   1      45.570  34.774  30.564  1.00  0.00     0.001 A 
ATOM     79  C   UNL A   1      45.617  34.987  31.940  1.00  0.00     0.000 A 
ENDBRANCH  61  74
ENDBRANCH  35  36
ENDBRANCH  27  30
ENDBRANCH  25  26
ENDBRANCH  24  25
ENDBRANCH   1  24
TORSDOF 14
ENDMDL
MODEL 2
REMARK VINA RESULT:     -10.6      2.667      7.708
REMARK SMILES O=C(NCCCNC(=O)c1ccc(-c2c3nc(c(-c4ccccc4)c4ccc([nH]4)c(-c4ccccc4)c4nc(c(-c5ccccc5)c5ccc2[nH]5)C=C4)C=C3)cc1)c1ccc(NC(=S)NC(=O)C(Cl)(Cl)Cl)cc1
REMARK SMILES IDX 4 1 3 2 1 3 2 4 58 6 59 7 73 8 60 9 72 10 61 11 62 12 63 14
REMARK SMILES IDX 64 15 65 16 66 17 67 19 68 20 69 21 70 22 71 23 5 24 6 25
REMARK SMILES IDX 7 26 8 27 9 29 10 30 11 31 57 32 12 33 56 34 13 35 14 36
REMARK SMILES IDX 15 37 50 38 16 39 55 40 49 41 51 42 17 43 54 44 48 45 47 46
REMARK SMILES IDX 18 48 40 49 25 50 39 51 26 52 29 53 38 54 52 55 27 56 28 57
REMARK SMILES IDX 37 59 53 60 30 61 19 62 20 63 24 64 21 65 23 66 22 67 41 68
REMARK SMILES IDX 42 69 46 70 43 71 45 72 44 73 31 74 32 75 36 76 33 77 35 78
REMARK SMILES IDX 34 79
REMARK H PARENT 3 5 62 13 65 18 7 28 51 47 29 58
REMARK Flexibility Score: inf
ROOT
ATOM      1  C   UNL A   1      32.817  28.815  24.533  1.00  0.00     0.118 C 
ENDROOT
BRANCH   1   2
ATOM      2  N   UNL A   1      31.749  29.254  23.644  1.00  0.00    -0.352 N 
ATOM      3  O   UNL A   1      30.197  29.041  22.003  1.00  0.00    -0.269 OA
ATOM      4  C   UNL A   1      31.003  28.510  22.759  1.00  0.00     0.251 C 
ATOM      5  H   UNL A   1      31.531  30.213  23.682  1.00  0.00     0.163 HD
BRANCH   4   6
ATOM      6  C   UNL A   1      31.218  27.052  22.701  1.00  0.00     0.039 A 
ATOM      7  C   UNL A   1      30.473  26.187  23.508  1.00  0.00     0.016 A 
ATOM      8  C   UNL A   1      32.225  26.557  21.879  1.00  0.00     0.016 A 
ATOM      9  C   UNL A   1      30.845  24.840  23.616  1.00  0.00     0.027 A 
ATOM     10  C   UNL A   1      32.594  25.218  22.000  1.00  0.00     0.027 A 
ATOM     11  C   UNL A   1      31.973  24.386  22.948  1.00  0.00     0.040 A 
BRANCH  11  12
ATOM     12  N   UNL A   1      32.541  23.124  23.134  1.00  0.00    -0.332 N 
ATOM     13  H   UNL A   1      32.563  22.608  22.296  1.00  0.00     0.169 HD
BRANCH  12  14
ATOM     14  C   UNL A   1      33.061  22.437  24.151  1.00  0.00     0.177 C 
ATOM     15  S   UNL A   1      32.547  20.841  24.294  1.00  0.00    -0.040 S 
BRANCH  14  16
ATOM     16  N   UNL A   1      34.008  22.824  25.063  1.00  0.00    -0.299 N 
ATOM     17  C   UNL A   1      35.337  22.942  25.501  1.00  0.00     0.278 C 
ATOM     18  H   UNL A   1      33.483  23.230  25.790  1.00  0.00     0.172 HD
ATOM     19  O   UNL A   1      35.428  23.615  26.545  1.00  0.00    -0.270 OA
BRANCH  17  20
ATOM     20  C   UNL A   1      36.587  22.335  24.850  1.00  0.00     0.269 C 
ATOM     21  Cl  UNL A   1      36.758  22.704  23.136  1.00  0.00    -0.073 Cl
ATOM     22  Cl  UNL A   1      38.010  22.763  25.836  1.00  0.00    -0.073 Cl
ATOM     23  Cl  UNL A   1      36.449  20.528  24.957  1.00  0.00    -0.073 Cl
ENDBRANCH  17  20
ENDBRANCH  14  16
ENDBRANCH  12  14
ENDBRANCH  11  12
ENDBRANCH   4   6
ENDBRANCH   1   2
BRANCH   1  24
ATOM     24  C   UNL A   1      32.365  28.656  25.982  1.00  0.00     0.042 C 
BRANCH  24  25
ATOM     25  C   UNL A   1      33.467  28.856  27.018  1.00  0.00     0.118 C 
BRANCH  25  26
ATOM     26  N   UNL A   1      33.504  30.203  27.571  1.00  0.00    -0.352 N 
ATOM     27  C   UNL A   1      34.496  30.863  28.259  1.00  0.00     0.251 C 
ATOM     28  H   UNL A   1      32.683  30.728  27.431  1.00  0.00     0.163 HD
ATOM     29  O   UNL A   1      34.261  31.975  28.727  1.00  0.00    -0.269 OA
BRANCH  27  30
ATOM     30  C   UNL A   1      35.829  30.250  28.478  1.00  0.00     0.039 A 
ATOM     31  C   UNL A   1      36.732  30.214  27.409  1.00  0.00     0.014 A 
ATOM     32  C   UNL A   1      36.197  29.691  29.704  1.00  0.00     0.014 A 
ATOM     33  C   UNL A   1      38.017  29.693  27.591  1.00  0.00     0.010 A 
ATOM     34  C   UNL A   1      37.506  29.253  29.910  1.00  0.00     0.010 A 
ATOM     35  C   UNL A   1      38.433  29.250  28.857  1.00  0.00    -0.014 A 
BRANCH  35  36
ATOM     36  C   UNL A   1      39.830  28.796  29.097  1.00  0.00     0.031 A 
ATOM     37  C   UNL A   1      40.847  29.725  29.708  1.00  0.00     0.074 A 
ATOM     38  C   UNL A   1      40.209  27.561  28.705  1.00  0.00     0.049 A 
ATOM     39  N   UNL A   1      42.120  29.518  29.941  1.00  0.00    -0.248 NA
ATOM     40  C   UNL A   1      40.379  31.068  30.084  1.00  0.00     0.031 C 
ATOM     41  C   UNL A   1      39.341  26.572  28.063  1.00  0.00     0.029 A 
ATOM     42  N   UNL A   1      41.426  26.930  28.788  1.00  0.00    -0.354 N 
ATOM     43  C   UNL A   1      42.606  30.707  30.471  1.00  0.00     0.074 A 
ATOM     44  C   UNL A   1      41.505  31.646  30.478  1.00  0.00     0.031 C 
ATOM     45  C   UNL A   1      40.044  25.450  27.840  1.00  0.00     0.029 A 
ATOM     46  C   UNL A   1      41.420  25.652  28.280  1.00  0.00     0.049 A 
ATOM     47  H   UNL A   1      42.227  27.353  29.174  1.00  0.00     0.167 HD
ATOM     48  C   UNL A   1      43.849  30.991  30.931  1.00  0.00     0.031 A 
ATOM     49  C   UNL A   1      42.409  24.745  28.176  1.00  0.00     0.031 A 
ATOM     50  C   UNL A   1      44.946  30.059  30.936  1.00  0.00     0.049 A 
ATOM     51  C   UNL A   1      43.784  25.089  28.679  1.00  0.00     0.074 A 
ATOM     52  C   UNL A   1      46.226  30.239  31.432  1.00  0.00     0.029 A 
ATOM     53  N   UNL A   1      44.895  28.775  30.417  1.00  0.00    -0.354 N 
ATOM     54  N   UNL A   1      44.206  26.195  29.240  1.00  0.00    -0.248 NA
ATOM     55  C   UNL A   1      44.814  24.049  28.546  1.00  0.00     0.031 C 
ATOM     56  C   UNL A   1      46.966  29.082  31.164  1.00  0.00     0.029 A 
ATOM     57  C   UNL A   1      46.128  28.160  30.558  1.00  0.00     0.049 A 
ATOM     58  H   UNL A   1      44.101  28.362  30.008  1.00  0.00     0.167 HD
ATOM     59  C   UNL A   1      45.541  25.975  29.554  1.00  0.00     0.074 A 
ATOM     60  C   UNL A   1      45.852  24.623  29.138  1.00  0.00     0.031 C 
ATOM     61  C   UNL A   1      46.430  26.816  30.137  1.00  0.00     0.031 A 
BRANCH  48  62
ATOM     62  C   UNL A   1      44.090  32.377  31.466  1.00  0.00    -0.014 A 
ATOM     63  C   UNL A   1      43.904  32.677  32.825  1.00  0.00     0.009 A 
ATOM     64  C   UNL A   1      44.544  33.389  30.606  1.00  0.00     0.009 A 
ATOM     65  C   UNL A   1      44.128  33.971  33.303  1.00  0.00     0.001 A 
ATOM     66  C   UNL A   1      44.798  34.673  31.092  1.00  0.00     0.001 A 
ATOM     67  C   UNL A   1      44.581  34.966  32.437  1.00  0.00     0.000 A 
ENDBRANCH  48  62
BRANCH  49  68
ATOM     68  C   UNL A   1      42.136  23.409  27.582  1.00  0.00    -0.014 A 
ATOM     69  C   UNL A   1      42.447  23.150  26.238  1.00  0.00     0.009 A 
ATOM     70  C   UNL A   1      41.550  22.390  28.349  1.00  0.00     0.009 A 
ATOM     71  C   UNL A   1      42.150  21.910  25.667  1.00  0.00     0.001 A 
ATOM     72  C   UNL A   1      41.284  21.141  27.786  1.00  0.00     0.001 A 
ATOM     73  C   UNL A   1      41.573  20.905  26.442  1.00  0.00     0.000 A 
ENDBRANCH  49  68
BRANCH  61  74
ATOM     74  C   UNL A   1      47.812  26.285  30.395  1.00  0.00    -0.014 A 
ATOM     75  C   UNL A   1      48.162  25.721  31.632  1.00  0.00     0.009 A 
ATOM     76  C   UNL A   1      48.773  26.328  29.372  1.00  0.00     0.009 A 
ATOM     77  C   UNL A   1      49.458  25.247  31.852  1.00  0.00     0.001 A 
ATOM     78  C   UNL A   1      50.057  25.823  29.584  1.00  0.00     0.001 A 
ATOM     79  C   UNL A   1      50.402  25.294  30.827  1.00  0.00     0.000 A 
ENDBRANCH  61  74
ENDBRANCH  35  36
ENDBRANCH  27  30
ENDBRANCH  25  26
ENDBRANCH  24  25
ENDBRANCH   1  24
TORSDOF 14
ENDMDL
MODEL 3
REMARK VINA RESULT:     -10.6      2.563      6.947
REMARK SMILES O=C(NCCCNC(=O)c1ccc(-c2c3nc(c(-c4ccccc4)c4ccc([nH]4)c(-c4ccccc4)c4nc(c(-c5ccccc5)c5ccc2[nH]5)C=C4)C=C3)cc1)c1ccc(NC(=S)NC(=O)C(Cl)(Cl)Cl)cc1
REMARK SMILES IDX 4 1 3 2 1 3 2 4 58 6 59 7 73 8 60 9 72 10 61 11 62 12 63 14
REMARK SMILES IDX 64 15 65 16 66 17 67 19 68 20 69 21 70 22 71 23 5 24 6 25
REMARK SMILES IDX 7 26 8 27 9 29 10 30 11 31 57 32 12 33 56 34 13 35 14 36
REMARK SMILES IDX 15 37 50 38 16 39 55 40 49 41 51 42 17 43 54 44 48 45 47 46
REMARK SMILES IDX 18 48 40 49 25 50 39 51 26 52 29 53 38 54 52 55 27 56 28 57
REMARK SMILES IDX 37 59 53 60 30 61 19 62 20 63 24 64 21 65 23 66 22 67 41 68
REMARK SMILES IDX 42 69 46 70 43 71 45 72 44 73 31 74 32 75 36 76 33 77 35 78
REMARK SMILES IDX 34 79
REMARK H PARENT 3 5 62 13 65 18 7 28 51 47 29 58
REMARK Flexibility Score: inf
ROOT
ATOM      1  C   UNL A   1      34.971  22.032  26.359  1.00  0.00     0.118 C 
ENDROOT
BRANCH   1   2
ATOM      2  N   UNL A   1      34.421  20.683  26.323  1.00  0.00    -0.352 N 
ATOM      3  O   UNL A   1      32.898  19.076  25.829  1.00  0.00    -0.269 OA
ATOM      4  C   UNL A   1      33.288  20.230  25.688  1.00  0.00     0.251 C 
ATOM      5  H   UNL A   1      34.929  20.003  26.822  1.00  0.00     0.163 HD
BRANCH   4   6
ATOM      6  C   UNL A   1      32.516  21.173  24.857  1.00  0.00     0.039 A 
ATOM      7  C   UNL A   1      32.750  21.271  23.482  1.00  0.00     0.016 A 
ATOM      8  C   UNL A   1      31.599  22.014  25.478  1.00  0.00     0.016 A 
ATOM      9  C   UNL A   1      32.184  22.324  22.752  1.00  0.00     0.027 A 
ATOM     10  C   UNL A   1      31.047  23.065  24.745  1.00  0.00     0.027 A 
ATOM     11  C   UNL A   1      31.425  23.282  23.409  1.00  0.00     0.040 A 
BRANCH  11  12
ATOM     12  N   UNL A   1      30.977  24.467  22.822  1.00  0.00    -0.332 N 
ATOM     13  H   UNL A   1      30.062  24.375  22.469  1.00  0.00     0.169 HD
BRANCH  12  14
ATOM     14  C   UNL A   1      31.465  25.690  22.615  1.00  0.00     0.177 C 
ATOM     15  S   UNL A   1      32.366  25.890  21.207  1.00  0.00    -0.040 S 
BRANCH  14  16
ATOM     16  N   UNL A   1      31.285  26.830  23.353  1.00  0.00    -0.299 N 
ATOM     17  C   UNL A   1      31.230  27.526  24.572  1.00  0.00     0.278 C 
ATOM     18  H   UNL A   1      31.092  27.520  22.679  1.00  0.00     0.172 HD
ATOM     19  O   UNL A   1      31.105  28.754  24.404  1.00  0.00    -0.270 OA
BRANCH  17  20
ATOM     20  C   UNL A   1      31.291  26.932  25.985  1.00  0.00     0.269 C 
ATOM     21  Cl  UNL A   1      31.450  28.131  27.265  1.00  0.00    -0.073 Cl
ATOM     22  Cl  UNL A   1      29.916  25.816  26.196  1.00  0.00    -0.073 Cl
ATOM     23  Cl  UNL A   1      32.778  25.895  26.090  1.00  0.00    -0.073 Cl
ENDBRANCH  17  20
ENDBRANCH  14  16
ENDBRANCH  12  14
ENDBRANCH  11  12
ENDBRANCH   4   6
ENDBRANCH   1   2
BRANCH   1  24
ATOM     24  C   UNL A   1      35.853  22.352  25.156  1.00  0.00     0.042 C 
BRANCH  24  25
ATOM     25  C   UNL A   1      37.061  23.230  25.468  1.00  0.00     0.118 C 
BRANCH  25  26
ATOM     26  N   UNL A   1      38.298  22.477  25.626  1.00  0.00    -0.352 N 
ATOM     27  C   UNL A   1      39.508  22.845  26.169  1.00  0.00     0.251 C 
ATOM     28  H   UNL A   1      38.264  21.553  25.289  1.00  0.00     0.163 HD
ATOM     29  O   UNL A   1      40.456  22.065  26.099  1.00  0.00    -0.269 OA
BRANCH  27  30
ATOM     30  C   UNL A   1      39.704  24.171  26.804  1.00  0.00     0.039 A 
ATOM     31  C   UNL A   1      39.187  24.380  28.088  1.00  0.00     0.014 A 
ATOM     32  C   UNL A   1      40.362  25.217  26.153  1.00  0.00     0.014 A 
ATOM     33  C   UNL A   1      39.398  25.599  28.742  1.00  0.00     0.010 A 
ATOM     34  C   UNL A   1      40.648  26.399  26.837  1.00  0.00     0.010 A 
ATOM     35  C   UNL A   1      40.171  26.605  28.141  1.00  0.00    -0.014 A 
BRANCH  35  36
ATOM     36  C   UNL A   1      40.500  27.864  28.863  1.00  0.00     0.031 A 
ATOM     37  C   UNL A   1      41.826  28.028  29.558  1.00  0.00     0.074 A 
ATOM     38  C   UNL A   1      39.577  28.844  28.953  1.00  0.00     0.049 A 
ATOM     39  N   UNL A   1      42.263  29.032  30.279  1.00  0.00    -0.248 NA
ATOM     40  C   UNL A   1      42.777  26.911  29.450  1.00  0.00     0.031 C 
ATOM     41  C   UNL A   1      38.236  28.802  28.364  1.00  0.00     0.029 A 
ATOM     42  N   UNL A   1      39.627  30.066  29.576  1.00  0.00    -0.354 N 
ATOM     43  C   UNL A   1      43.526  28.660  30.723  1.00  0.00     0.074 A 
ATOM     44  C   UNL A   1      43.765  27.319  30.234  1.00  0.00     0.031 C 
ATOM     45  C   UNL A   1      37.605  29.958  28.628  1.00  0.00     0.029 A 
ATOM     46  C   UNL A   1      38.474  30.803  29.439  1.00  0.00     0.049 A 
ATOM     47  H   UNL A   1      40.413  30.385  30.076  1.00  0.00     0.167 HD
ATOM     48  C   UNL A   1      44.418  29.372  31.453  1.00  0.00     0.031 A 
ATOM     49  C   UNL A   1      38.148  32.020  29.915  1.00  0.00     0.031 A 
ATOM     50  C   UNL A   1      44.190  30.710  31.934  1.00  0.00     0.049 A 
ATOM     51  C   UNL A   1      39.149  32.784  30.736  1.00  0.00     0.074 A 
ATOM     52  C   UNL A   1      45.056  31.532  32.635  1.00  0.00     0.029 A 
ATOM     53  N   UNL A   1      43.011  31.420  31.768  1.00  0.00    -0.354 N 
ATOM     54  N   UNL A   1      40.364  32.443  31.088  1.00  0.00    -0.248 NA
ATOM     55  C   UNL A   1      38.734  34.111  31.214  1.00  0.00     0.031 C 
ATOM     56  C   UNL A   1      44.382  32.719  32.941  1.00  0.00     0.029 A 
ATOM     57  C   UNL A   1      43.119  32.660  32.376  1.00  0.00     0.049 A 
ATOM     58  H   UNL A   1      42.216  31.091  31.291  1.00  0.00     0.167 HD
ATOM     59  C   UNL A   1      40.871  33.522  31.800  1.00  0.00     0.074 A 
ATOM     60  C   UNL A   1      39.837  34.536  31.815  1.00  0.00     0.031 C 
ATOM     61  C   UNL A   1      42.083  33.662  32.389  1.00  0.00     0.031 A 
BRANCH  48  62
ATOM     62  C   UNL A   1      45.729  28.711  31.783  1.00  0.00    -0.014 A 
ATOM     63  C   UNL A   1      45.885  27.945  32.950  1.00  0.00     0.009 A 
ATOM     64  C   UNL A   1      46.812  28.826  30.898  1.00  0.00     0.009 A 
ATOM     65  C   UNL A   1      47.111  27.342  33.242  1.00  0.00     0.001 A 
ATOM     66  C   UNL A   1      48.027  28.196  31.177  1.00  0.00     0.001 A 
ATOM     67  C   UNL A   1      48.179  27.463  32.354  1.00  0.00     0.000 A 
ENDBRANCH  48  62
BRANCH  49  68
ATOM     68  C   UNL A   1      36.815  32.606  29.614  1.00  0.00    -0.014 A 
ATOM     69  C   UNL A   1      35.757  32.475  30.527  1.00  0.00     0.009 A 
ATOM     70  C   UNL A   1      36.587  33.286  28.408  1.00  0.00     0.009 A 
ATOM     71  C   UNL A   1      34.493  32.986  30.226  1.00  0.00     0.001 A 
ATOM     72  C   UNL A   1      35.331  33.824  28.123  1.00  0.00     0.001 A 
ATOM     73  C   UNL A   1      34.282  33.664  29.027  1.00  0.00     0.000 A 
ENDBRANCH  49  68
BRANCH  61  74
ATOM     74  C   UNL A   1      42.374  34.973  33.064  1.00  0.00    -0.014 A 
ATOM     75  C   UNL A   1      41.888  35.260  34.350  1.00  0.00     0.009 A 
ATOM     76  C   UNL A   1      43.169  35.928  32.410  1.00  0.00     0.009 A 
ATOM     77  C   UNL A   1      42.161  36.491  34.950  1.00  0.00     0.001 A 
ATOM     78  C   UNL A   1      43.467  37.144  33.027  1.00  0.00     0.001 A 
ATOM     79  C   UNL A   1      42.954  37.430  34.290  1.00  0.00     0.000 A 
ENDBRANCH  61  74
ENDBRANCH  35  36
ENDBRANCH  27  30
ENDBRANCH  25  26
ENDBRANCH  24  25
ENDBRANCH   1  24
TORSDOF 14
ENDMDL
