MODEL 1
REMARK VINA RESULT:     -11.4      0.000      0.000
REMARK SMILES O=C(NCCCNC(=O)c1cc2ncoc2cn1)c1ccc(-c2c3nc(c(-c4ccccc4)c4ccc([nH]4)c(-c4ccccc4)c4nc(c(-c5ccccc5)c5ccc2[nH]5)C=C4)C=C3)cc1
REMARK SMILES IDX 4 1 3 2 1 3 2 4 19 6 20 7 66 8 21 9 65 10 22 11 23 12 24 13
REMARK SMILES IDX 59 14 25 15 64 16 58 17 60 18 26 19 63 20 57 21 56 22 27 24
REMARK SMILES IDX 49 25 34 26 48 27 35 28 38 29 47 30 61 31 36 32 37 33 46 35
REMARK SMILES IDX 62 36 39 37 28 38 29 39 33 40 30 41 32 42 31 43 50 44 51 45
REMARK SMILES IDX 55 46 52 47 54 48 53 49 40 50 41 51 45 52 42 53 44 54 43 55
REMARK SMILES IDX 5 56 6 57 7 58 8 59 9 61 10 62 11 63 18 64 12 65 17 66 13 67
REMARK SMILES IDX 16 68 14 69 15 70
REMARK H PARENT 3 5 60 23 38 34 7 60
REMARK Flexibility Score: inf
ROOT
ATOM      1  C   UNL A   1      35.326  33.798  28.739  1.00  0.00     0.118 C 
ENDROOT
BRANCH   1   2
ATOM      2  N   UNL A   1      34.439  32.675  28.401  1.00  0.00    -0.352 N 
ATOM      3  O   UNL A   1      33.983  30.660  27.442  1.00  0.00    -0.269 OA
ATOM      4  C   UNL A   1      34.786  31.392  27.988  1.00  0.00     0.251 C 
ATOM      5  H   UNL A   1      33.474  32.855  28.477  1.00  0.00     0.163 HD
BRANCH   4   6
ATOM      6  C   UNL A   1      36.167  30.942  28.239  1.00  0.00     0.039 A 
ATOM      7  C   UNL A   1      37.120  31.713  28.906  1.00  0.00     0.014 A 
ATOM      8  C   UNL A   1      36.463  29.648  27.843  1.00  0.00     0.014 A 
ATOM      9  C   UNL A   1      38.341  31.117  29.219  1.00  0.00     0.010 A 
ATOM     10  C   UNL A   1      37.486  28.989  28.449  1.00  0.00     0.010 A 
ATOM     11  C   UNL A   1      38.506  29.739  28.994  1.00  0.00    -0.014 A 
BRANCH  11  12
ATOM     12  C   UNL A   1      39.731  29.024  29.315  1.00  0.00     0.031 A 
ATOM     13  C   UNL A   1      39.955  28.802  30.756  1.00  0.00     0.074 A 
ATOM     14  C   UNL A   1      40.530  28.461  28.379  1.00  0.00     0.049 A 
ATOM     15  N   UNL A   1      40.813  29.405  31.503  1.00  0.00    -0.248 NA
ATOM     16  C   UNL A   1      39.025  27.927  31.484  1.00  0.00     0.031 C 
ATOM     17  C   UNL A   1      40.308  28.312  26.931  1.00  0.00     0.029 A 
ATOM     18  N   UNL A   1      41.703  27.803  28.559  1.00  0.00    -0.354 N 
ATOM     19  C   UNL A   1      40.671  28.854  32.769  1.00  0.00     0.074 A 
ATOM     20  C   UNL A   1      39.450  28.090  32.739  1.00  0.00     0.031 C 
ATOM     21  C   UNL A   1      41.182  27.416  26.420  1.00  0.00     0.029 A 
ATOM     22  C   UNL A   1      42.150  27.100  27.448  1.00  0.00     0.049 A 
ATOM     23  H   UNL A   1      42.199  27.822  29.411  1.00  0.00     0.167 HD
ATOM     24  C   UNL A   1      41.698  28.889  33.663  1.00  0.00     0.031 A 
ATOM     25  C   UNL A   1      43.254  26.321  27.377  1.00  0.00     0.031 A 
ATOM     26  C   UNL A   1      42.727  29.808  33.238  1.00  0.00     0.049 A 
ATOM     27  C   UNL A   1      44.153  26.756  28.465  1.00  0.00     0.074 A 
ATOM     28  C   UNL A   1      42.785  31.170  33.027  1.00  0.00     0.029 A 
ATOM     29  N   UNL A   1      43.788  29.264  32.550  1.00  0.00    -0.354 N 
ATOM     30  N   UNL A   1      44.723  27.926  28.504  1.00  0.00    -0.248 NA
ATOM     31  C   UNL A   1      44.092  26.047  29.731  1.00  0.00     0.031 C 
ATOM     32  C   UNL A   1      43.609  31.332  31.875  1.00  0.00     0.029 A 
ATOM     33  C   UNL A   1      44.079  30.075  31.483  1.00  0.00     0.049 A 
ATOM     34  H   UNL A   1      44.260  28.433  32.786  1.00  0.00     0.167 HD
ATOM     35  C   UNL A   1      44.685  28.290  29.842  1.00  0.00     0.074 A 
ATOM     36  C   UNL A   1      44.410  27.047  30.559  1.00  0.00     0.031 C 
ATOM     37  C   UNL A   1      44.603  29.603  30.213  1.00  0.00     0.031 A 
BRANCH  24  38
ATOM     38  C   UNL A   1      41.950  27.823  34.695  1.00  0.00    -0.014 A 
ATOM     39  C   UNL A   1      41.525  27.913  36.035  1.00  0.00     0.009 A 
ATOM     40  C   UNL A   1      42.412  26.565  34.268  1.00  0.00     0.009 A 
ATOM     41  C   UNL A   1      41.541  26.814  36.897  1.00  0.00     0.001 A 
ATOM     42  C   UNL A   1      42.392  25.451  35.116  1.00  0.00     0.001 A 
ATOM     43  C   UNL A   1      41.953  25.576  36.429  1.00  0.00     0.000 A 
ENDBRANCH  24  38
BRANCH  25  44
ATOM     44  C   UNL A   1      43.420  25.025  26.690  1.00  0.00    -0.014 A 
ATOM     45  C   UNL A   1      44.193  24.944  25.517  1.00  0.00     0.009 A 
ATOM     46  C   UNL A   1      42.566  23.953  26.989  1.00  0.00     0.009 A 
ATOM     47  C   UNL A   1      44.062  23.863  24.639  1.00  0.00     0.001 A 
ATOM     48  C   UNL A   1      42.433  22.872  26.109  1.00  0.00     0.001 A 
ATOM     49  C   UNL A   1      43.164  22.839  24.923  1.00  0.00     0.000 A 
ENDBRANCH  25  44
BRANCH  37  50
ATOM     50  C   UNL A   1      44.839  30.661  29.154  1.00  0.00    -0.014 A 
ATOM     51  C   UNL A   1      46.096  31.287  29.118  1.00  0.00     0.009 A 
ATOM     52  C   UNL A   1      43.826  31.170  28.320  1.00  0.00     0.009 A 
ATOM     53  C   UNL A   1      46.330  32.393  28.298  1.00  0.00     0.001 A 
ATOM     54  C   UNL A   1      44.069  32.262  27.477  1.00  0.00     0.001 A 
ATOM     55  C   UNL A   1      45.318  32.880  27.477  1.00  0.00     0.000 A 
ENDBRANCH  37  50
ENDBRANCH  11  12
ENDBRANCH   4   6
ENDBRANCH   1   2
BRANCH   1  56
ATOM     56  C   UNL A   1      34.661  35.156  28.649  1.00  0.00     0.042 C 
BRANCH  56  57
ATOM     57  C   UNL A   1      33.202  35.125  29.110  1.00  0.00     0.118 C 
BRANCH  57  58
ATOM     58  N   UNL A   1      32.841  36.257  29.960  1.00  0.00    -0.351 N 
ATOM     59  C   UNL A   1      33.045  36.447  31.311  1.00  0.00     0.269 C 
ATOM     60  H   UNL A   1      32.382  36.996  29.499  1.00  0.00     0.163 HD
ATOM     61  O   UNL A   1      32.532  37.417  31.867  1.00  0.00    -0.268 OA
BRANCH  59  62
ATOM     62  C   UNL A   1      33.844  35.468  32.108  1.00  0.00     0.130 A 
ATOM     63  C   UNL A   1      35.138  35.818  32.481  1.00  0.00     0.066 A 
ATOM     64  N   UNL A   1      33.224  34.296  32.439  1.00  0.00    -0.247 NA
ATOM     65  C   UNL A   1      35.770  34.912  33.331  1.00  0.00     0.113 A 
ATOM     66  C   UNL A   1      33.853  33.417  33.255  1.00  0.00     0.161 A 
ATOM     67  N   UNL A   1      36.999  34.952  33.942  1.00  0.00    -0.216 NA
ATOM     68  C   UNL A   1      35.112  33.750  33.701  1.00  0.00     0.172 A 
ATOM     69  C   UNL A   1      37.028  33.841  34.647  1.00  0.00     0.309 A 
ATOM     70  O   UNL A   1      35.917  33.055  34.553  1.00  0.00    -0.442 OA
ENDBRANCH  59  62
ENDBRANCH  57  58
ENDBRANCH  56  57
ENDBRANCH   1  56
TORSDOF 10
ENDMDL
MODEL 2
REMARK VINA RESULT:     -11.3      2.442      6.601
REMARK SMILES O=C(NCCCNC(=O)c1cc2ncoc2cn1)c1ccc(-c2c3nc(c(-c4ccccc4)c4ccc([nH]4)c(-c4ccccc4)c4nc(c(-c5ccccc5)c5ccc2[nH]5)C=C4)C=C3)cc1
REMARK SMILES IDX 4 1 3 2 1 3 2 4 19 6 20 7 66 8 21 9 65 10 22 11 23 12 24 13
REMARK SMILES IDX 59 14 25 15 64 16 58 17 60 18 26 19 63 20 57 21 56 22 27 24
REMARK SMILES IDX 49 25 34 26 48 27 35 28 38 29 47 30 61 31 36 32 37 33 46 35
REMARK SMILES IDX 62 36 39 37 28 38 29 39 33 40 30 41 32 42 31 43 50 44 51 45
REMARK SMILES IDX 55 46 52 47 54 48 53 49 40 50 41 51 45 52 42 53 44 54 43 55
REMARK SMILES IDX 5 56 6 57 7 58 8 59 9 61 10 62 11 63 18 64 12 65 17 66 13 67
REMARK SMILES IDX 16 68 14 69 15 70
REMARK H PARENT 3 5 60 23 38 34 7 60
REMARK Flexibility Score: inf
ROOT
ATOM      1  C   UNL A   1      35.406  29.365  27.846  1.00  0.00     0.118 C 
ENDROOT
BRANCH   1   2
ATOM      2  N   UNL A   1      35.565  29.684  29.272  1.00  0.00    -0.352 N 
ATOM      3  O   UNL A   1      36.508  29.403  31.327  1.00  0.00    -0.269 OA
ATOM      4  C   UNL A   1      36.625  29.366  30.118  1.00  0.00     0.251 C 
ATOM      5  H   UNL A   1      34.827  30.189  29.683  1.00  0.00     0.163 HD
BRANCH   4   6
ATOM      6  C   UNL A   1      37.905  28.983  29.495  1.00  0.00     0.039 A 
ATOM      7  C   UNL A   1      38.477  29.669  28.424  1.00  0.00     0.014 A 
ATOM      8  C   UNL A   1      38.576  27.928  30.091  1.00  0.00     0.014 A 
ATOM      9  C   UNL A   1      39.764  29.306  28.026  1.00  0.00     0.010 A 
ATOM     10  C   UNL A   1      39.922  27.826  29.932  1.00  0.00     0.010 A 
ATOM     11  C   UNL A   1      40.485  28.384  28.805  1.00  0.00    -0.014 A 
BRANCH  11  12
ATOM     12  C   UNL A   1      41.840  27.966  28.487  1.00  0.00     0.031 A 
ATOM     13  C   UNL A   1      41.936  26.686  27.758  1.00  0.00     0.074 A 
ATOM     14  C   UNL A   1      42.927  28.746  28.691  1.00  0.00     0.049 A 
ATOM     15  N   UNL A   1      42.332  25.557  28.234  1.00  0.00    -0.248 NA
ATOM     16  C   UNL A   1      41.387  26.613  26.397  1.00  0.00     0.031 C 
ATOM     17  C   UNL A   1      42.995  30.155  29.114  1.00  0.00     0.029 A 
ATOM     18  N   UNL A   1      44.231  28.450  28.464  1.00  0.00    -0.354 N 
ATOM     19  C   UNL A   1      42.269  24.656  27.181  1.00  0.00     0.074 A 
ATOM     20  C   UNL A   1      41.519  25.310  26.138  1.00  0.00     0.031 C 
ATOM     21  C   UNL A   1      44.234  30.646  28.883  1.00  0.00     0.029 A 
ATOM     22  C   UNL A   1      45.089  29.541  28.507  1.00  0.00     0.049 A 
ATOM     23  H   UNL A   1      44.545  27.533  28.283  1.00  0.00     0.167 HD
ATOM     24  C   UNL A   1      43.042  23.536  27.176  1.00  0.00     0.031 A 
ATOM     25  C   UNL A   1      46.420  29.530  28.263  1.00  0.00     0.031 A 
ATOM     26  C   UNL A   1      43.618  23.294  28.477  1.00  0.00     0.049 A 
ATOM     27  C   UNL A   1      46.880  28.141  28.465  1.00  0.00     0.074 A 
ATOM     28  C   UNL A   1      43.107  23.008  29.726  1.00  0.00     0.029 A 
ATOM     29  N   UNL A   1      44.894  23.767  28.681  1.00  0.00    -0.354 N 
ATOM     30  N   UNL A   1      46.872  27.541  29.621  1.00  0.00    -0.248 NA
ATOM     31  C   UNL A   1      46.957  27.267  27.308  1.00  0.00     0.031 C 
ATOM     32  C   UNL A   1      43.930  23.732  30.639  1.00  0.00     0.029 A 
ATOM     33  C   UNL A   1      44.949  24.359  29.917  1.00  0.00     0.049 A 
ATOM     34  H   UNL A   1      45.642  23.692  28.046  1.00  0.00     0.167 HD
ATOM     35  C   UNL A   1      46.494  26.237  29.337  1.00  0.00     0.074 A 
ATOM     36  C   UNL A   1      46.689  26.098  27.895  1.00  0.00     0.031 C 
ATOM     37  C   UNL A   1      45.798  25.491  30.246  1.00  0.00     0.031 A 
BRANCH  24  38
ATOM     38  C   UNL A   1      43.586  22.895  25.926  1.00  0.00    -0.014 A 
ATOM     39  C   UNL A   1      44.293  23.596  24.930  1.00  0.00     0.009 A 
ATOM     40  C   UNL A   1      43.616  21.491  25.845  1.00  0.00     0.009 A 
ATOM     41  C   UNL A   1      45.004  22.942  23.921  1.00  0.00     0.001 A 
ATOM     42  C   UNL A   1      44.361  20.831  24.861  1.00  0.00     0.001 A 
ATOM     43  C   UNL A   1      45.057  21.557  23.901  1.00  0.00     0.000 A 
ENDBRANCH  24  38
BRANCH  25  44
ATOM     44  C   UNL A   1      47.228  30.527  27.531  1.00  0.00    -0.014 A 
ATOM     45  C   UNL A   1      48.616  30.605  27.750  1.00  0.00     0.009 A 
ATOM     46  C   UNL A   1      46.603  31.603  26.883  1.00  0.00     0.009 A 
ATOM     47  C   UNL A   1      49.339  31.749  27.397  1.00  0.00     0.001 A 
ATOM     48  C   UNL A   1      47.327  32.748  26.531  1.00  0.00     0.001 A 
ATOM     49  C   UNL A   1      48.690  32.830  26.809  1.00  0.00     0.000 A 
ENDBRANCH  25  44
BRANCH  37  50
ATOM     50  C   UNL A   1      45.696  26.010  31.667  1.00  0.00    -0.014 A 
ATOM     51  C   UNL A   1      46.583  25.490  32.623  1.00  0.00     0.009 A 
ATOM     52  C   UNL A   1      44.661  26.850  32.118  1.00  0.00     0.009 A 
ATOM     53  C   UNL A   1      46.434  25.777  33.982  1.00  0.00     0.001 A 
ATOM     54  C   UNL A   1      44.527  27.161  33.478  1.00  0.00     0.001 A 
ATOM     55  C   UNL A   1      45.407  26.613  34.409  1.00  0.00     0.000 A 
ENDBRANCH  37  50
ENDBRANCH  11  12
ENDBRANCH   4   6
ENDBRANCH   1   2
BRANCH   1  56
ATOM     56  C   UNL A   1      34.298  30.140  27.163  1.00  0.00     0.042 C 
BRANCH  56  57
ATOM     57  C   UNL A   1      34.246  31.604  27.609  1.00  0.00     0.118 C 
BRANCH  57  58
ATOM     58  N   UNL A   1      35.563  32.162  27.912  1.00  0.00    -0.351 N 
ATOM     59  C   UNL A   1      35.897  33.338  28.551  1.00  0.00     0.269 C 
ATOM     60  H   UNL A   1      36.326  31.617  27.613  1.00  0.00     0.163 HD
ATOM     61  O   UNL A   1      37.074  33.696  28.577  1.00  0.00    -0.268 OA
BRANCH  59  62
ATOM     62  C   UNL A   1      34.843  34.196  29.171  1.00  0.00     0.130 A 
ATOM     63  C   UNL A   1      34.505  33.970  30.502  1.00  0.00     0.066 A 
ATOM     64  N   UNL A   1      34.303  35.171  28.382  1.00  0.00    -0.247 NA
ATOM     65  C   UNL A   1      33.614  34.892  31.047  1.00  0.00     0.113 A 
ATOM     66  C   UNL A   1      33.427  36.054  28.918  1.00  0.00     0.161 A 
ATOM     67  N   UNL A   1      33.111  35.022  32.319  1.00  0.00    -0.216 NA
ATOM     68  C   UNL A   1      33.110  35.908  30.250  1.00  0.00     0.172 A 
ATOM     69  C   UNL A   1      32.349  36.092  32.240  1.00  0.00     0.309 A 
ATOM     70  O   UNL A   1      32.295  36.688  31.014  1.00  0.00    -0.442 OA
ENDBRANCH  59  62
ENDBRANCH  57  58
ENDBRANCH  56  57
ENDBRANCH   1  56
TORSDOF 10
ENDMDL
MODEL 3
REMARK VINA RESULT:     -11.3      4.681      9.895
REMARK SMILES O=C(NCCCNC(=O)c1cc2ncoc2cn1)c1ccc(-c2c3nc(c(-c4ccccc4)c4ccc([nH]4)c(-c4ccccc4)c4nc(c(-c5ccccc5)c5ccc2[nH]5)C=C4)C=C3)cc1
REMARK SMILES IDX 4 1 3 2 1 3 2 4 19 6 20 7 66 8 21 9 65 10 22 11 23 12 24 13
REMARK SMILES IDX 59 14 25 15 64 16 58 17 60 18 26 19 63 20 57 21 56 22 27 24
REMARK SMILES IDX 49 25 34 26 48 27 35 28 38 29 47 30 61 31 36 32 37 33 46 35
REMARK SMILES IDX 62 36 39 37 28 38 29 39 33 40 30 41 32 42 31 43 50 44 51 45
REMARK SMILES IDX 55 46 52 47 54 48 53 49 40 50 41 51 45 52 42 53 44 54 43 55
REMARK SMILES IDX 5 56 6 57 7 58 8 59 9 61 10 62 11 63 18 64 12 65 17 66 13 67
REMARK SMILES IDX 16 68 14 69 15 70
REMARK H PARENT 3 5 60 23 38 34 7 60
REMARK Flexibility Score: inf
ROOT
ATOM      1  C   UNL A   1      39.303  20.032  25.895  1.00  0.00     0.118 C 
ENDROOT
BRANCH   1   2
ATOM      2  N   UNL A   1      40.477  19.154  25.780  1.00  0.00    -0.352 N 
ATOM      3  O   UNL A   1      42.693  18.755  25.435  1.00  0.00    -0.269 OA
ATOM      4  C   UNL A   1      41.825  19.496  25.852  1.00  0.00     0.251 C 
ATOM      5  H   UNL A   1      40.285  18.200  25.634  1.00  0.00     0.163 HD
BRANCH   4   6
ATOM      6  C   UNL A   1      42.169  20.795  26.458  1.00  0.00     0.039 A 
ATOM      7  C   UNL A   1      42.638  21.887  25.727  1.00  0.00     0.014 A 
ATOM      8  C   UNL A   1      41.923  20.913  27.816  1.00  0.00     0.014 A 
ATOM      9  C   UNL A   1      42.779  23.106  26.390  1.00  0.00     0.010 A 
ATOM     10  C   UNL A   1      41.730  22.149  28.348  1.00  0.00     0.010 A 
ATOM     11  C   UNL A   1      42.305  23.226  27.708  1.00  0.00    -0.014 A 
BRANCH  11  12
ATOM     12  C   UNL A   1      42.381  24.462  28.469  1.00  0.00     0.031 A 
ATOM     13  C   UNL A   1      41.278  25.410  28.218  1.00  0.00     0.074 A 
ATOM     14  C   UNL A   1      43.290  24.677  29.448  1.00  0.00     0.049 A 
ATOM     15  N   UNL A   1      41.346  26.510  27.553  1.00  0.00    -0.248 NA
ATOM     16  C   UNL A   1      39.918  25.022  28.616  1.00  0.00     0.031 C 
ATOM     17  C   UNL A   1      44.258  23.741  30.044  1.00  0.00     0.029 A 
ATOM     18  N   UNL A   1      43.473  25.795  30.196  1.00  0.00    -0.354 N 
ATOM     19  C   UNL A   1      40.075  27.064  27.602  1.00  0.00     0.074 A 
ATOM     20  C   UNL A   1      39.206  26.032  28.108  1.00  0.00     0.031 C 
ATOM     21  C   UNL A   1      44.743  24.252  31.198  1.00  0.00     0.029 A 
ATOM     22  C   UNL A   1      44.293  25.623  31.304  1.00  0.00     0.049 A 
ATOM     23  H   UNL A   1      43.058  26.660  29.972  1.00  0.00     0.167 HD
ATOM     24  C   UNL A   1      39.893  28.404  27.440  1.00  0.00     0.031 A 
ATOM     25  C   UNL A   1      44.593  26.555  32.238  1.00  0.00     0.031 A 
ATOM     26  C   UNL A   1      41.082  29.032  26.915  1.00  0.00     0.049 A 
ATOM     27  C   UNL A   1      44.349  27.874  31.618  1.00  0.00     0.074 A 
ATOM     28  C   UNL A   1      41.797  28.926  25.740  1.00  0.00     0.029 A 
ATOM     29  N   UNL A   1      41.933  29.599  27.836  1.00  0.00    -0.354 N 
ATOM     30  N   UNL A   1      45.046  28.341  30.623  1.00  0.00    -0.248 NA
ATOM     31  C   UNL A   1      43.057  28.503  31.827  1.00  0.00     0.031 C 
ATOM     32  C   UNL A   1      43.166  29.026  26.128  1.00  0.00     0.029 A 
ATOM     33  C   UNL A   1      43.221  29.266  27.505  1.00  0.00     0.049 A 
ATOM     34  H   UNL A   1      41.662  30.152  28.604  1.00  0.00     0.167 HD
ATOM     35  C   UNL A   1      44.120  28.991  29.820  1.00  0.00     0.074 A 
ATOM     36  C   UNL A   1      42.947  29.170  30.675  1.00  0.00     0.031 C 
ATOM     37  C   UNL A   1      44.291  29.070  28.467  1.00  0.00     0.031 A 
BRANCH  24  38
ATOM     38  C   UNL A   1      38.800  29.191  28.114  1.00  0.00    -0.014 A 
ATOM     39  C   UNL A   1      37.696  29.740  27.433  1.00  0.00     0.009 A 
ATOM     40  C   UNL A   1      38.729  29.182  29.518  1.00  0.00     0.009 A 
ATOM     41  C   UNL A   1      36.577  30.235  28.107  1.00  0.00     0.001 A 
ATOM     42  C   UNL A   1      37.593  29.640  30.197  1.00  0.00     0.001 A 
ATOM     43  C   UNL A   1      36.516  30.163  29.490  1.00  0.00     0.000 A 
ENDBRANCH  24  38
BRANCH  25  44
ATOM     44  C   UNL A   1      44.716  26.384  33.699  1.00  0.00    -0.014 A 
ATOM     45  C   UNL A   1      43.664  25.803  34.431  1.00  0.00     0.009 A 
ATOM     46  C   UNL A   1      45.705  27.081  34.410  1.00  0.00     0.009 A 
ATOM     47  C   UNL A   1      43.566  25.975  35.816  1.00  0.00     0.001 A 
ATOM     48  C   UNL A   1      45.605  27.254  35.796  1.00  0.00     0.001 A 
ATOM     49  C   UNL A   1      44.525  26.721  36.495  1.00  0.00     0.000 A 
ENDBRANCH  25  44
BRANCH  37  50
ATOM     50  C   UNL A   1      45.641  28.686  27.895  1.00  0.00    -0.014 A 
ATOM     51  C   UNL A   1      46.531  29.719  27.557  1.00  0.00     0.009 A 
ATOM     52  C   UNL A   1      45.988  27.372  27.526  1.00  0.00     0.009 A 
ATOM     53  C   UNL A   1      47.711  29.458  26.858  1.00  0.00     0.001 A 
ATOM     54  C   UNL A   1      47.186  27.107  26.849  1.00  0.00     0.001 A 
ATOM     55  C   UNL A   1      48.040  28.153  26.506  1.00  0.00     0.000 A 
ENDBRANCH  37  50
ENDBRANCH  11  12
ENDBRANCH   4   6
ENDBRANCH   1   2
BRANCH   1  56
ATOM     56  C   UNL A   1      38.150  19.637  24.997  1.00  0.00     0.042 C 
BRANCH  56  57
ATOM     57  C   UNL A   1      37.067  20.716  24.925  1.00  0.00     0.118 C 
BRANCH  57  58
ATOM     58  N   UNL A   1      35.715  20.191  25.107  1.00  0.00    -0.351 N 
ATOM     59  C   UNL A   1      34.505  20.852  25.117  1.00  0.00     0.269 C 
ATOM     60  H   UNL A   1      35.661  19.217  25.242  1.00  0.00     0.163 HD
ATOM     61  O   UNL A   1      33.486  20.239  25.432  1.00  0.00    -0.268 OA
BRANCH  59  62
ATOM     62  C   UNL A   1      34.428  22.309  24.794  1.00  0.00     0.130 A 
ATOM     63  C   UNL A   1      34.170  22.681  23.478  1.00  0.00     0.066 A 
ATOM     64  N   UNL A   1      34.590  23.178  25.835  1.00  0.00    -0.247 NA
ATOM     65  C   UNL A   1      33.983  24.047  23.279  1.00  0.00     0.113 A 
ATOM     66  C   UNL A   1      34.418  24.506  25.628  1.00  0.00     0.161 A 
ATOM     67  N   UNL A   1      33.657  24.762  22.152  1.00  0.00    -0.216 NA
ATOM     68  C   UNL A   1      34.100  24.916  24.353  1.00  0.00     0.172 A 
ATOM     69  C   UNL A   1      33.584  26.002  22.585  1.00  0.00     0.309 A 
ATOM     70  O   UNL A   1      33.841  26.179  23.912  1.00  0.00    -0.442 OA
ENDBRANCH  59  62
ENDBRANCH  57  58
ENDBRANCH  56  57
ENDBRANCH   1  56
TORSDOF 10
ENDMDL
