MODEL 1
REMARK VINA RESULT:     -12.7      0.000      0.000
REMARK SMILES Cc1cc(C)n(C)c(=O)c1C(=O)N1CCC2(CC1)C[NH2+][C@@H](C(=O)NCCCNC(=O)c1ccc(-c3c4nc(c(-c5ccccc5)c5ccc([nH]5)c(-c5ccccc5)c5nc(c(-c6ccccc6)c6ccc3[nH]6)C=C5)C=C4)cc1)C2
REMARK SMILES IDX 26 1 25 2 24 3 22 4 23 5 21 7 11 8 12 9 13 10 14 11 18 12
REMARK SMILES IDX 15 13 17 14 16 15 19 16 79 17 20 18 10 21 1 22 2 23 3 24
REMARK SMILES IDX 4 25 8 26 5 27 6 28 9 29 7 30 27 31 28 32 29 33 30 35 31 36
REMARK SMILES IDX 32 37 78 38 33 39 77 40 34 41 35 42 36 43 71 44 37 45 76 46
REMARK SMILES IDX 70 47 72 48 38 49 75 50 69 51 68 52 39 54 61 55 46 56 60 57
REMARK SMILES IDX 47 58 50 59 59 60 73 61 48 62 49 63 58 65 74 66 51 67 40 68
REMARK SMILES IDX 41 69 45 70 42 71 44 72 43 73 62 74 63 75 67 76 64 77 66 78
REMARK SMILES IDX 65 79 52 80 53 81 57 82 54 83 56 84 55 85
REMARK H PARENT 24 6 20 19 20 20 28 34 72 53 50 64
REMARK Flexibility Score: inf
ROOT
ATOM      1  C   UNL A   1      38.064  19.578  24.848  1.00  0.00     0.042 C 
ENDROOT
BRANCH   1   2
ATOM      2  C   UNL A   1      36.685  20.154  25.134  1.00  0.00     0.118 C 
BRANCH   2   3
ATOM      3  N   UNL A   1      35.620  19.255  24.726  1.00  0.00    -0.351 N 
ATOM      4  C   UNL A   1      34.266  19.398  24.813  1.00  0.00     0.278 C 
ATOM      5  O   UNL A   1      33.562  18.481  24.380  1.00  0.00    -0.268 OA
ATOM      6  H   UNL A   1      35.921  18.409  24.324  1.00  0.00     0.163 HD
BRANCH   4   7
ATOM      7  C   UNL A   1      33.627  20.633  25.458  1.00  0.00     0.273 C 
ATOM      8  C   UNL A   1      32.177  26.832  23.984  1.00  0.00     0.259 C 
ATOM      9  O   UNL A   1      32.899  27.660  24.549  1.00  0.00    -0.269 OA
ATOM     10  N   UNL A   1      32.541  25.491  23.972  1.00  0.00    -0.338 N 
ATOM     11  C   UNL A   1      33.512  25.061  24.967  1.00  0.00     0.120 C 
ATOM     12  C   UNL A   1      32.190  24.467  22.992  1.00  0.00     0.120 C 
ATOM     13  C   UNL A   1      32.885  23.954  25.801  1.00  0.00     0.034 C 
ATOM     14  C   UNL A   1      31.752  23.139  23.641  1.00  0.00     0.034 C 
ATOM     15  C   UNL A   1      32.500  22.730  24.946  1.00  0.00     0.029 C 
ATOM     16  C   UNL A   1      31.632  21.787  25.816  1.00  0.00     0.268 C 
ATOM     17  C   UNL A   1      33.760  21.897  24.620  1.00  0.00     0.088 C 
ATOM     18  N   UNL A   1      32.181  20.452  25.651  1.00  0.00    -0.336 N 
ATOM     19  H   UNL A   1      31.769  19.998  24.836  1.00  0.00     0.346 HD
ATOM     20  H   UNL A   1      31.981  19.861  26.458  1.00  0.00     0.346 HD
BRANCH   8  21
ATOM     21  C   UNL A   1      30.850  27.305  23.458  1.00  0.00     0.108 A 
ATOM     22  C   UNL A   1      29.391  25.838  24.972  1.00  0.00     0.045 C 
ATOM     23  C   UNL A   1      29.656  26.881  23.931  1.00  0.00    -0.031 A 
ATOM     24  C   UNL A   1      28.430  27.555  23.550  1.00  0.00     0.026 A 
ATOM     25  C   UNL A   1      28.442  28.769  22.986  1.00  0.00     0.018 A 
ATOM     26  C   UNL A   1      30.850  28.572  22.623  1.00  0.00     0.263 A 
ATOM     27  C   UNL A   1      27.134  29.486  22.788  1.00  0.00     0.064 C 
ATOM     28  N   UNL A   1      29.655  29.317  22.591  1.00  0.00    -0.315 N 
ATOM     29  O   UNL A   1      31.861  28.929  22.019  1.00  0.00    -0.268 OA
ATOM     30  C   UNL A   1      29.724  30.682  22.085  1.00  0.00     0.153 C 
ENDBRANCH   8  21
ENDBRANCH   4   7
ENDBRANCH   2   3
ENDBRANCH   1   2
BRANCH   1  31
ATOM     31  C   UNL A   1      39.146  20.111  25.773  1.00  0.00     0.118 C 
BRANCH  31  32
ATOM     32  N   UNL A   1      40.318  19.248  25.806  1.00  0.00    -0.352 N 
ATOM     33  C   UNL A   1      41.628  19.557  26.066  1.00  0.00     0.251 C 
ATOM     34  H   UNL A   1      40.143  18.299  25.614  1.00  0.00     0.163 HD
ATOM     35  O   UNL A   1      42.509  18.730  25.838  1.00  0.00    -0.269 OA
BRANCH  33  36
ATOM     36  C   UNL A   1      41.985  20.885  26.600  1.00  0.00     0.039 A 
ATOM     37  C   UNL A   1      42.379  21.887  25.710  1.00  0.00     0.014 A 
ATOM     38  C   UNL A   1      41.946  21.141  27.973  1.00  0.00     0.014 A 
ATOM     39  C   UNL A   1      42.680  23.160  26.192  1.00  0.00     0.010 A 
ATOM     40  C   UNL A   1      42.155  22.432  28.443  1.00  0.00     0.010 A 
ATOM     41  C   UNL A   1      42.539  23.450  27.559  1.00  0.00    -0.014 A 
BRANCH  41  42
ATOM     42  C   UNL A   1      42.810  24.809  28.083  1.00  0.00     0.031 A 
ATOM     43  C   UNL A   1      44.206  25.204  28.471  1.00  0.00     0.074 A 
ATOM     44  C   UNL A   1      41.790  25.671  28.256  1.00  0.00     0.049 A 
ATOM     45  N   UNL A   1      44.635  26.339  28.961  1.00  0.00    -0.248 NA
ATOM     46  C   UNL A   1      45.256  24.184  28.310  1.00  0.00     0.031 C 
ATOM     47  C   UNL A   1      40.386  25.390  27.953  1.00  0.00     0.029 A 
ATOM     48  N   UNL A   1      41.780  26.959  28.727  1.00  0.00    -0.354 N 
ATOM     49  C   UNL A   1      45.995  26.164  29.179  1.00  0.00     0.074 A 
ATOM     50  C   UNL A   1      46.310  24.799  28.824  1.00  0.00     0.031 C 
ATOM     51  C   UNL A   1      39.656  26.485  28.211  1.00  0.00     0.029 A 
ATOM     52  C   UNL A   1      40.532  27.529  28.737  1.00  0.00     0.049 A 
ATOM     53  H   UNL A   1      42.590  27.429  29.030  1.00  0.00     0.167 HD
ATOM     54  C   UNL A   1      46.905  27.067  29.614  1.00  0.00     0.031 A 
ATOM     55  C   UNL A   1      40.132  28.756  29.125  1.00  0.00     0.031 A 
ATOM     56  C   UNL A   1      46.587  28.425  29.964  1.00  0.00     0.049 A 
ATOM     57  C   UNL A   1      41.152  29.736  29.627  1.00  0.00     0.074 A 
ATOM     58  C   UNL A   1      47.448  29.436  30.354  1.00  0.00     0.029 A 
ATOM     59  N   UNL A   1      45.308  28.959  29.976  1.00  0.00    -0.354 N 
ATOM     60  N   UNL A   1      42.448  29.583  29.753  1.00  0.00    -0.248 NA
ATOM     61  C   UNL A   1      40.658  31.059  30.033  1.00  0.00     0.031 C 
ATOM     62  C   UNL A   1      46.681  30.561  30.670  1.00  0.00     0.029 A 
ATOM     63  C   UNL A   1      45.350  30.274  30.408  1.00  0.00     0.049 A 
ATOM     64  H   UNL A   1      44.491  28.476  29.715  1.00  0.00     0.167 HD
ATOM     65  C   UNL A   1      42.929  30.792  30.238  1.00  0.00     0.074 A 
ATOM     66  C   UNL A   1      41.786  31.674  30.365  1.00  0.00     0.031 C 
ATOM     67  C   UNL A   1      44.203  31.137  30.548  1.00  0.00     0.031 A 
BRANCH  54  68
ATOM     68  C   UNL A   1      48.329  26.602  29.753  1.00  0.00    -0.014 A 
ATOM     69  C   UNL A   1      49.256  26.765  28.711  1.00  0.00     0.009 A 
ATOM     70  C   UNL A   1      48.757  26.015  30.954  1.00  0.00     0.009 A 
ATOM     71  C   UNL A   1      50.570  26.312  28.854  1.00  0.00     0.001 A 
ATOM     72  C   UNL A   1      50.079  25.595  31.106  1.00  0.00     0.001 A 
ATOM     73  C   UNL A   1      50.981  25.733  30.053  1.00  0.00     0.000 A 
ENDBRANCH  54  68
BRANCH  55  74
ATOM     74  C   UNL A   1      38.694  29.115  29.015  1.00  0.00    -0.014 A 
ATOM     75  C   UNL A   1      37.842  28.978  30.120  1.00  0.00     0.009 A 
ATOM     76  C   UNL A   1      38.186  29.668  27.829  1.00  0.00     0.009 A 
ATOM     77  C   UNL A   1      36.509  29.390  30.040  1.00  0.00     0.001 A 
ATOM     78  C   UNL A   1      36.860  30.104  27.761  1.00  0.00     0.001 A 
ATOM     79  C   UNL A   1      36.023  29.962  28.866  1.00  0.00     0.000 A 
ENDBRANCH  55  74
BRANCH  67  80
ATOM     80  C   UNL A   1      44.443  32.530  31.059  1.00  0.00    -0.014 A 
ATOM     81  C   UNL A   1      44.798  33.571  30.188  1.00  0.00     0.009 A 
ATOM     82  C   UNL A   1      44.223  32.824  32.415  1.00  0.00     0.009 A 
ATOM     83  C   UNL A   1      44.946  34.874  30.668  1.00  0.00     0.001 A 
ATOM     84  C   UNL A   1      44.342  34.132  32.886  1.00  0.00     0.001 A 
ATOM     85  C   UNL A   1      44.709  35.155  32.013  1.00  0.00     0.000 A 
ENDBRANCH  67  80
ENDBRANCH  41  42
ENDBRANCH  33  36
ENDBRANCH  31  32
ENDBRANCH   1  31
TORSDOF 11
ENDMDL
MODEL 2
REMARK VINA RESULT:     -12.7      1.127      5.911
REMARK SMILES Cc1cc(C)n(C)c(=O)c1C(=O)N1CCC2(CC1)C[NH2+][C@@H](C(=O)NCCCNC(=O)c1ccc(-c3c4nc(c(-c5ccccc5)c5ccc([nH]5)c(-c5ccccc5)c5nc(c(-c6ccccc6)c6ccc3[nH]6)C=C5)C=C4)cc1)C2
REMARK SMILES IDX 26 1 25 2 24 3 22 4 23 5 21 7 11 8 12 9 13 10 14 11 18 12
REMARK SMILES IDX 15 13 17 14 16 15 19 16 79 17 20 18 10 21 1 22 2 23 3 24
REMARK SMILES IDX 4 25 8 26 5 27 6 28 9 29 7 30 27 31 28 32 29 33 30 35 31 36
REMARK SMILES IDX 32 37 78 38 33 39 77 40 34 41 35 42 36 43 71 44 37 45 76 46
REMARK SMILES IDX 70 47 72 48 38 49 75 50 69 51 68 52 39 54 61 55 46 56 60 57
REMARK SMILES IDX 47 58 50 59 59 60 73 61 48 62 49 63 58 65 74 66 51 67 40 68
REMARK SMILES IDX 41 69 45 70 42 71 44 72 43 73 62 74 63 75 67 76 64 77 66 78
REMARK SMILES IDX 65 79 52 80 53 81 57 82 54 83 56 84 55 85
REMARK H PARENT 24 6 20 19 20 20 28 34 72 53 50 64
REMARK Flexibility Score: inf
ROOT
ATOM      1  C   UNL A   1      37.503  19.815  25.005  1.00  0.00     0.042 C 
ENDROOT
BRANCH   1   2
ATOM      2  C   UNL A   1      36.417  20.846  24.737  1.00  0.00     0.118 C 
BRANCH   2   3
ATOM      3  N   UNL A   1      35.090  20.337  25.036  1.00  0.00    -0.351 N 
ATOM      4  C   UNL A   1      33.997  20.974  25.544  1.00  0.00     0.278 C 
ATOM      5  O   UNL A   1      32.966  20.313  25.700  1.00  0.00    -0.268 OA
ATOM      6  H   UNL A   1      34.959  19.381  24.842  1.00  0.00     0.163 HD
BRANCH   4   7
ATOM      7  C   UNL A   1      34.043  22.452  25.949  1.00  0.00     0.273 C 
ATOM      8  C   UNL A   1      32.576  28.330  23.500  1.00  0.00     0.259 C 
ATOM      9  O   UNL A   1      33.566  29.008  23.204  1.00  0.00    -0.269 OA
ATOM     10  N   UNL A   1      32.718  26.972  23.757  1.00  0.00    -0.338 N 
ATOM     11  C   UNL A   1      34.056  26.498  24.081  1.00  0.00     0.120 C 
ATOM     12  C   UNL A   1      31.725  25.913  23.604  1.00  0.00     0.120 C 
ATOM     13  C   UNL A   1      34.012  25.836  25.448  1.00  0.00     0.034 C 
ATOM     14  C   UNL A   1      31.684  24.949  24.806  1.00  0.00     0.034 C 
ATOM     15  C   UNL A   1      33.053  24.627  25.478  1.00  0.00     0.029 C 
ATOM     16  C   UNL A   1      32.865  24.197  26.954  1.00  0.00     0.268 C 
ATOM     17  C   UNL A   1      33.723  23.407  24.807  1.00  0.00     0.088 C 
ATOM     18  N   UNL A   1      33.050  22.756  26.990  1.00  0.00    -0.336 N 
ATOM     19  H   UNL A   1      32.170  22.281  26.791  1.00  0.00     0.346 HD
ATOM     20  H   UNL A   1      33.362  22.440  27.908  1.00  0.00     0.346 HD
BRANCH   8  21
ATOM     21  C   UNL A   1      31.273  29.052  23.712  1.00  0.00     0.108 A 
ATOM     22  C   UNL A   1      31.976  30.315  25.830  1.00  0.00     0.045 C 
ATOM     23  C   UNL A   1      31.054  29.935  24.712  1.00  0.00    -0.031 A 
ATOM     24  C   UNL A   1      29.869  30.770  24.712  1.00  0.00     0.026 A 
ATOM     25  C   UNL A   1      29.121  30.929  23.613  1.00  0.00     0.018 A 
ATOM     26  C   UNL A   1      30.297  29.070  22.551  1.00  0.00     0.263 A 
ATOM     27  C   UNL A   1      28.018  31.952  23.632  1.00  0.00     0.064 C 
ATOM     28  N   UNL A   1      29.380  30.138  22.502  1.00  0.00    -0.315 N 
ATOM     29  O   UNL A   1      30.327  28.193  21.688  1.00  0.00    -0.268 OA
ATOM     30  C   UNL A   1      28.670  30.362  21.250  1.00  0.00     0.153 C 
ENDBRANCH   8  21
ENDBRANCH   4   7
ENDBRANCH   2   3
ENDBRANCH   1   2
BRANCH   1  31
ATOM     31  C   UNL A   1      38.789  20.417  25.545  1.00  0.00     0.118 C 
BRANCH  31  32
ATOM     32  N   UNL A   1      39.824  19.414  25.751  1.00  0.00    -0.352 N 
ATOM     33  C   UNL A   1      41.131  19.567  26.134  1.00  0.00     0.251 C 
ATOM     34  H   UNL A   1      39.543  18.484  25.591  1.00  0.00     0.163 HD
ATOM     35  O   UNL A   1      41.911  18.619  26.047  1.00  0.00    -0.269 OA
BRANCH  33  36
ATOM     36  C   UNL A   1      41.610  20.871  26.631  1.00  0.00     0.039 A 
ATOM     37  C   UNL A   1      42.112  21.800  25.716  1.00  0.00     0.014 A 
ATOM     38  C   UNL A   1      41.580  21.175  27.995  1.00  0.00     0.014 A 
ATOM     39  C   UNL A   1      42.530  23.053  26.164  1.00  0.00     0.010 A 
ATOM     40  C   UNL A   1      41.909  22.454  28.427  1.00  0.00     0.010 A 
ATOM     41  C   UNL A   1      42.401  23.400  27.518  1.00  0.00    -0.014 A 
BRANCH  41  42
ATOM     42  C   UNL A   1      42.798  24.742  28.003  1.00  0.00     0.031 A 
ATOM     43  C   UNL A   1      41.757  25.799  28.236  1.00  0.00     0.074 A 
ATOM     44  C   UNL A   1      44.101  25.025  28.186  1.00  0.00     0.049 A 
ATOM     45  N   UNL A   1      41.912  27.033  28.643  1.00  0.00    -0.248 NA
ATOM     46  C   UNL A   1      40.360  25.431  27.954  1.00  0.00     0.031 C 
ATOM     47  C   UNL A   1      45.208  24.095  27.955  1.00  0.00     0.029 A 
ATOM     48  N   UNL A   1      44.715  26.177  28.609  1.00  0.00    -0.354 N 
ATOM     49  C   UNL A   1      40.640  27.589  28.651  1.00  0.00     0.074 A 
ATOM     50  C   UNL A   1      39.732  26.579  28.154  1.00  0.00     0.031 C 
ATOM     51  C   UNL A   1      46.361  24.701  28.275  1.00  0.00     0.029 A 
ATOM     52  C   UNL A   1      46.081  26.072  28.691  1.00  0.00     0.049 A 
ATOM     53  H   UNL A   1      44.222  26.999  28.832  1.00  0.00     0.167 HD
ATOM     54  C   UNL A   1      40.258  28.822  29.057  1.00  0.00     0.031 A 
ATOM     55  C   UNL A   1      47.008  26.977  29.060  1.00  0.00     0.031 A 
ATOM     56  C   UNL A   1      41.164  29.822  29.552  1.00  0.00     0.049 A 
ATOM     57  C   UNL A   1      46.567  28.348  29.485  1.00  0.00     0.074 A 
ATOM     58  C   UNL A   1      40.869  31.080  30.049  1.00  0.00     0.029 A 
ATOM     59  N   UNL A   1      42.543  29.683  29.605  1.00  0.00    -0.354 N 
ATOM     60  N   UNL A   1      45.353  28.834  29.564  1.00  0.00    -0.248 NA
ATOM     61  C   UNL A   1      47.622  29.291  29.881  1.00  0.00     0.031 C 
ATOM     62  C   UNL A   1      42.074  31.727  30.335  1.00  0.00     0.029 A 
ATOM     63  C   UNL A   1      43.116  30.848  30.086  1.00  0.00     0.049 A 
ATOM     64  H   UNL A   1      43.040  28.876  29.341  1.00  0.00     0.167 HD
ATOM     65  C   UNL A   1      45.492  30.135  30.031  1.00  0.00     0.074 A 
ATOM     66  C   UNL A   1      46.911  30.354  30.235  1.00  0.00     0.031 C 
ATOM     67  C   UNL A   1      44.531  31.061  30.267  1.00  0.00     0.031 A 
BRANCH  54  68
ATOM     68  C   UNL A   1      38.795  29.159  28.962  1.00  0.00    -0.014 A 
ATOM     69  C   UNL A   1      38.225  29.613  27.761  1.00  0.00     0.009 A 
ATOM     70  C   UNL A   1      37.968  28.995  30.084  1.00  0.00     0.009 A 
ATOM     71  C   UNL A   1      36.867  29.935  27.698  1.00  0.00     0.001 A 
ATOM     72  C   UNL A   1      36.604  29.285  30.009  1.00  0.00     0.001 A 
ATOM     73  C   UNL A   1      36.058  29.766  28.821  1.00  0.00     0.000 A 
ENDBRANCH  54  68
BRANCH  55  74
ATOM     74  C   UNL A   1      48.440  26.582  29.066  1.00  0.00    -0.014 A 
ATOM     75  C   UNL A   1      49.015  26.015  30.212  1.00  0.00     0.009 A 
ATOM     76  C   UNL A   1      49.218  26.701  27.903  1.00  0.00     0.009 A 
ATOM     77  C   UNL A   1      50.340  25.571  30.193  1.00  0.00     0.001 A 
ATOM     78  C   UNL A   1      50.534  26.232  27.879  1.00  0.00     0.001 A 
ATOM     79  C   UNL A   1      51.093  25.669  29.024  1.00  0.00     0.000 A 
ENDBRANCH  55  74
BRANCH  67  80
ATOM     80  C   UNL A   1      44.970  32.406  30.776  1.00  0.00    -0.014 A 
ATOM     81  C   UNL A   1      45.137  32.642  32.149  1.00  0.00     0.009 A 
ATOM     82  C   UNL A   1      45.305  33.421  29.866  1.00  0.00     0.009 A 
ATOM     83  C   UNL A   1      45.615  33.875  32.601  1.00  0.00     0.001 A 
ATOM     84  C   UNL A   1      45.811  34.641  30.318  1.00  0.00     0.001 A 
ATOM     85  C   UNL A   1      45.959  34.868  31.685  1.00  0.00     0.000 A 
ENDBRANCH  67  80
ENDBRANCH  41  42
ENDBRANCH  33  36
ENDBRANCH  31  32
ENDBRANCH   1  31
TORSDOF 11
ENDMDL
MODEL 3
REMARK VINA RESULT:     -12.6      3.318      9.543
REMARK SMILES Cc1cc(C)n(C)c(=O)c1C(=O)N1CCC2(CC1)C[NH2+][C@@H](C(=O)NCCCNC(=O)c1ccc(-c3c4nc(c(-c5ccccc5)c5ccc([nH]5)c(-c5ccccc5)c5nc(c(-c6ccccc6)c6ccc3[nH]6)C=C5)C=C4)cc1)C2
REMARK SMILES IDX 26 1 25 2 24 3 22 4 23 5 21 7 11 8 12 9 13 10 14 11 18 12
REMARK SMILES IDX 15 13 17 14 16 15 19 16 79 17 20 18 10 21 1 22 2 23 3 24
REMARK SMILES IDX 4 25 8 26 5 27 6 28 9 29 7 30 27 31 28 32 29 33 30 35 31 36
REMARK SMILES IDX 32 37 78 38 33 39 77 40 34 41 35 42 36 43 71 44 37 45 76 46
REMARK SMILES IDX 70 47 72 48 38 49 75 50 69 51 68 52 39 54 61 55 46 56 60 57
REMARK SMILES IDX 47 58 50 59 59 60 73 61 48 62 49 63 58 65 74 66 51 67 40 68
REMARK SMILES IDX 41 69 45 70 42 71 44 72 43 73 62 74 63 75 67 76 64 77 66 78
REMARK SMILES IDX 65 79 52 80 53 81 57 82 54 83 56 84 55 85
REMARK H PARENT 24 6 20 19 20 20 28 34 72 53 50 64
REMARK Flexibility Score: inf
ROOT
ATOM      1  C   UNL A   1      31.247  31.470  26.017  1.00  0.00     0.042 C 
ENDROOT
BRANCH   1   2
ATOM      2  C   UNL A   1      31.380  30.000  25.649  1.00  0.00     0.118 C 
BRANCH   2   3
ATOM      3  N   UNL A   1      30.946  29.734  24.288  1.00  0.00    -0.351 N 
ATOM      4  C   UNL A   1      31.418  28.839  23.373  1.00  0.00     0.278 C 
ATOM      5  O   UNL A   1      30.864  28.798  22.271  1.00  0.00    -0.268 OA
ATOM      6  H   UNL A   1      30.193  30.286  23.977  1.00  0.00     0.163 HD
BRANCH   4   7
ATOM      7  C   UNL A   1      32.618  27.936  23.676  1.00  0.00     0.273 C 
ATOM      8  C   UNL A   1      33.901  22.019  26.136  1.00  0.00     0.259 C 
ATOM      9  O   UNL A   1      34.410  22.047  27.261  1.00  0.00    -0.269 OA
ATOM     10  N   UNL A   1      33.316  23.165  25.612  1.00  0.00    -0.338 N 
ATOM     11  C   UNL A   1      33.695  24.435  26.215  1.00  0.00     0.120 C 
ATOM     12  C   UNL A   1      32.247  23.265  24.622  1.00  0.00     0.120 C 
ATOM     13  C   UNL A   1      34.281  25.324  25.130  1.00  0.00     0.034 C 
ATOM     14  C   UNL A   1      32.532  24.320  23.534  1.00  0.00     0.034 C 
ATOM     15  C   UNL A   1      33.268  25.612  24.003  1.00  0.00     0.029 C 
ATOM     16  C   UNL A   1      34.028  26.281  22.830  1.00  0.00     0.268 C 
ATOM     17  C   UNL A   1      32.257  26.685  24.465  1.00  0.00     0.088 C 
ATOM     18  N   UNL A   1      33.245  27.441  22.442  1.00  0.00    -0.336 N 
ATOM     19  H   UNL A   1      32.531  27.176  21.763  1.00  0.00     0.346 HD
ATOM     20  H   UNL A   1      33.825  28.156  22.003  1.00  0.00     0.346 HD
BRANCH   8  21
ATOM     21  C   UNL A   1      34.073  20.766  25.322  1.00  0.00     0.108 A 
ATOM     22  C   UNL A   1      36.624  20.907  25.099  1.00  0.00     0.045 C 
ATOM     23  C   UNL A   1      35.272  20.289  24.916  1.00  0.00    -0.031 A 
ATOM     24  C   UNL A   1      35.383  18.958  24.351  1.00  0.00     0.026 A 
ATOM     25  C   UNL A   1      34.405  18.054  24.484  1.00  0.00     0.018 A 
ATOM     26  C   UNL A   1      32.898  19.809  25.270  1.00  0.00     0.263 A 
ATOM     27  C   UNL A   1      34.662  16.641  24.038  1.00  0.00     0.064 C 
ATOM     28  N   UNL A   1      33.186  18.454  25.015  1.00  0.00    -0.315 N 
ATOM     29  O   UNL A   1      31.749  20.209  25.461  1.00  0.00    -0.268 OA
ATOM     30  C   UNL A   1      32.139  17.478  25.287  1.00  0.00     0.153 C 
ENDBRANCH   8  21
ENDBRANCH   4   7
ENDBRANCH   2   3
ENDBRANCH   1   2
BRANCH   1  31
ATOM     31  C   UNL A   1      32.377  31.977  26.898  1.00  0.00     0.118 C 
BRANCH  31  32
ATOM     32  N   UNL A   1      32.234  33.390  27.219  1.00  0.00    -0.352 N 
ATOM     33  C   UNL A   1      32.949  34.168  28.092  1.00  0.00     0.251 C 
ATOM     34  H   UNL A   1      31.515  33.858  26.736  1.00  0.00     0.163 HD
ATOM     35  O   UNL A   1      32.542  35.291  28.386  1.00  0.00    -0.269 OA
BRANCH  33  36
ATOM     36  C   UNL A   1      34.194  33.655  28.694  1.00  0.00     0.039 A 
ATOM     37  C   UNL A   1      34.113  32.869  29.846  1.00  0.00     0.014 A 
ATOM     38  C   UNL A   1      35.439  33.956  28.135  1.00  0.00     0.014 A 
ATOM     39  C   UNL A   1      35.276  32.341  30.405  1.00  0.00     0.010 A 
ATOM     40  C   UNL A   1      36.587  33.354  28.637  1.00  0.00     0.010 A 
ATOM     41  C   UNL A   1      36.519  32.554  29.785  1.00  0.00    -0.014 A 
BRANCH  41  42
ATOM     42  C   UNL A   1      37.759  31.962  30.339  1.00  0.00     0.031 A 
ATOM     43  C   UNL A   1      38.420  32.579  31.538  1.00  0.00     0.074 A 
ATOM     44  C   UNL A   1      38.317  30.898  29.731  1.00  0.00     0.049 A 
ATOM     45  N   UNL A   1      39.516  32.214  32.154  1.00  0.00    -0.248 NA
ATOM     46  C   UNL A   1      37.782  33.778  32.107  1.00  0.00     0.031 C 
ATOM     47  C   UNL A   1      37.791  30.234  28.538  1.00  0.00     0.029 A 
ATOM     48  N   UNL A   1      39.451  30.188  30.038  1.00  0.00    -0.354 N 
ATOM     49  C   UNL A   1      39.703  33.143  33.169  1.00  0.00     0.074 A 
ATOM     50  C   UNL A   1      38.644  34.120  33.051  1.00  0.00     0.031 C 
ATOM     51  C   UNL A   1      38.579  29.192  28.235  1.00  0.00     0.029 A 
ATOM     52  C   UNL A   1      39.687  29.139  29.184  1.00  0.00     0.049 A 
ATOM     53  H   UNL A   1      40.037  30.409  30.796  1.00  0.00     0.167 HD
ATOM     54  C   UNL A   1      40.658  33.168  34.127  1.00  0.00     0.031 A 
ATOM     55  C   UNL A   1      40.684  28.234  29.165  1.00  0.00     0.031 A 
ATOM     56  C   UNL A   1      41.708  32.192  34.241  1.00  0.00     0.049 A 
ATOM     57  C   UNL A   1      41.748  28.291  30.222  1.00  0.00     0.074 A 
ATOM     58  C   UNL A   1      42.687  32.092  35.215  1.00  0.00     0.029 A 
ATOM     59  N   UNL A   1      41.923  31.154  33.347  1.00  0.00    -0.354 N 
ATOM     60  N   UNL A   1      41.868  29.127  31.224  1.00  0.00    -0.248 NA
ATOM     61  C   UNL A   1      42.808  27.275  30.153  1.00  0.00     0.031 C 
ATOM     62  C   UNL A   1      43.535  31.036  34.870  1.00  0.00     0.029 A 
ATOM     63  C   UNL A   1      43.044  30.433  33.722  1.00  0.00     0.049 A 
ATOM     64  H   UNL A   1      41.361  30.958  32.563  1.00  0.00     0.167 HD
ATOM     65  C   UNL A   1      43.007  28.734  31.915  1.00  0.00     0.074 A 
ATOM     66  C   UNL A   1      43.531  27.570  31.226  1.00  0.00     0.031 C 
ATOM     67  C   UNL A   1      43.566  29.288  33.018  1.00  0.00     0.031 A 
BRANCH  54  68
ATOM     68  C   UNL A   1      40.617  34.300  35.116  1.00  0.00    -0.014 A 
ATOM     69  C   UNL A   1      39.925  34.184  36.333  1.00  0.00     0.009 A 
ATOM     70  C   UNL A   1      41.304  35.493  34.839  1.00  0.00     0.009 A 
ATOM     71  C   UNL A   1      39.886  35.254  37.231  1.00  0.00     0.001 A 
ATOM     72  C   UNL A   1      41.292  36.547  35.754  1.00  0.00     0.001 A 
ATOM     73  C   UNL A   1      40.574  36.432  36.942  1.00  0.00     0.000 A 
ENDBRANCH  54  68
BRANCH  55  74
ATOM     74  C   UNL A   1      40.685  27.183  28.114  1.00  0.00    -0.014 A 
ATOM     75  C   UNL A   1      39.993  25.980  28.313  1.00  0.00     0.009 A 
ATOM     76  C   UNL A   1      41.314  27.410  26.879  1.00  0.00     0.009 A 
ATOM     77  C   UNL A   1      39.928  25.025  27.294  1.00  0.00     0.001 A 
ATOM     78  C   UNL A   1      41.225  26.465  25.854  1.00  0.00     0.001 A 
ATOM     79  C   UNL A   1      40.533  25.273  26.064  1.00  0.00     0.000 A 
ENDBRANCH  55  74
BRANCH  67  80
ATOM     80  C   UNL A   1      44.814  28.650  33.563  1.00  0.00    -0.014 A 
ATOM     81  C   UNL A   1      44.745  27.576  34.464  1.00  0.00     0.009 A 
ATOM     82  C   UNL A   1      46.072  29.069  33.099  1.00  0.00     0.009 A 
ATOM     83  C   UNL A   1      45.913  26.948  34.904  1.00  0.00     0.001 A 
ATOM     84  C   UNL A   1      47.234  28.420  33.517  1.00  0.00     0.001 A 
ATOM     85  C   UNL A   1      47.154  27.364  34.423  1.00  0.00     0.000 A 
ENDBRANCH  67  80
ENDBRANCH  41  42
ENDBRANCH  33  36
ENDBRANCH  31  32
ENDBRANCH   1  31
TORSDOF 11
ENDMDL
