MODEL 1
REMARK VINA RESULT:     -11.1      0.000      0.000
REMARK SMILES Cc1cc(C)n([C@@H](C(=O)NCCCNC(=O)c2ccc(-c3c4nc(c(-c5ccccc5)c5ccc([nH]5)c(-c5ccccc5)c5nc(c(-c6ccccc6)c6ccc3[nH]6)C=C5)C=C4)cc2)C(C)C)n1
REMARK SMILES IDX 12 1 11 2 10 3 8 4 9 5 7 7 6 8 1 9 2 10 3 11 68 12 4 13 5 14
REMARK SMILES IDX 65 15 66 16 67 17 13 18 14 19 15 20 16 22 17 23 18 24 64 25
REMARK SMILES IDX 19 26 63 27 20 28 21 29 22 30 57 31 23 32 62 33 56 34 58 35
REMARK SMILES IDX 24 36 61 37 55 38 54 39 25 41 47 42 32 43 46 44 33 45 36 46
REMARK SMILES IDX 45 47 59 48 34 49 35 50 44 52 60 53 37 54 26 55 27 56 31 57
REMARK SMILES IDX 28 58 30 59 29 60 48 61 49 62 53 63 50 64 52 65 51 66 38 67
REMARK SMILES IDX 39 68 43 69 40 70 42 71 41 72
REMARK H PARENT 10 6 14 21 58 40 36 51
REMARK Flexibility Score: inf
ROOT
ATOM      1  C   UNL A   1      37.597  19.784  24.894  1.00  0.00     0.042 C 
ENDROOT
BRANCH   1   2
ATOM      2  C   UNL A   1      36.532  20.885  24.860  1.00  0.00     0.117 C 
BRANCH   2   3
ATOM      3  N   UNL A   1      35.493  20.702  25.870  1.00  0.00    -0.354 N 
ATOM      4  C   UNL A   1      34.235  21.242  25.930  1.00  0.00     0.245 C 
ATOM      5  O   UNL A   1      33.558  20.985  26.930  1.00  0.00    -0.273 OA
ATOM      6  H   UNL A   1      35.732  20.105  26.616  1.00  0.00     0.163 HD
BRANCH   4   7
ATOM      7  C   UNL A   1      33.717  22.118  24.785  1.00  0.00     0.199 C 
BRANCH   7   8
ATOM      8  N   UNL A   1      33.459  23.469  25.292  1.00  0.00    -0.257 N 
ATOM      9  C   UNL A   1      30.964  25.871  26.069  1.00  0.00     0.069 C 
ATOM     10  C   UNL A   1      32.216  25.111  25.841  1.00  0.00     0.060 A 
ATOM     11  C   UNL A   1      33.543  25.576  25.906  1.00  0.00     0.048 A 
ATOM     12  N   UNL A   1      32.167  23.822  25.500  1.00  0.00    -0.177 NA
ATOM     13  C   UNL A   1      34.333  24.504  25.544  1.00  0.00     0.037 A 
ATOM     14  C   UNL A   1      35.810  24.434  25.414  1.00  0.00     0.066 C 
ENDBRANCH   7   8
BRANCH   7  15
ATOM     15  C   UNL A   1      32.512  21.523  24.004  1.00  0.00     0.017 C 
ATOM     16  C   UNL A   1      32.418  22.122  22.592  1.00  0.00     0.010 C 
ATOM     17  C   UNL A   1      32.610  19.996  23.866  1.00  0.00     0.010 C 
ENDBRANCH   7  15
ENDBRANCH   4   7
ENDBRANCH   2   3
ENDBRANCH   1   2
BRANCH   1  18
ATOM     18  C   UNL A   1      38.879  20.223  25.578  1.00  0.00     0.118 C 
BRANCH  18  19
ATOM     19  N   UNL A   1      39.883  19.161  25.670  1.00  0.00    -0.352 N 
ATOM     20  C   UNL A   1      41.241  19.294  25.916  1.00  0.00     0.251 C 
ATOM     21  H   UNL A   1      39.554  18.241  25.541  1.00  0.00     0.163 HD
ATOM     22  O   UNL A   1      42.028  18.404  25.654  1.00  0.00    -0.269 OA
BRANCH  20  23
ATOM     23  C   UNL A   1      41.706  20.554  26.524  1.00  0.00     0.039 A 
ATOM     24  C   UNL A   1      42.335  21.552  25.774  1.00  0.00     0.014 A 
ATOM     25  C   UNL A   1      41.434  20.734  27.874  1.00  0.00     0.014 A 
ATOM     26  C   UNL A   1      42.611  22.773  26.387  1.00  0.00     0.010 A 
ATOM     27  C   UNL A   1      41.524  21.986  28.414  1.00  0.00     0.010 A 
ATOM     28  C   UNL A   1      42.183  22.984  27.705  1.00  0.00    -0.014 A 
BRANCH  28  29
ATOM     29  C   UNL A   1      42.334  24.271  28.370  1.00  0.00     0.031 A 
ATOM     30  C   UNL A   1      41.252  25.256  28.093  1.00  0.00     0.074 A 
ATOM     31  C   UNL A   1      43.224  24.444  29.373  1.00  0.00     0.049 A 
ATOM     32  N   UNL A   1      41.356  26.407  27.519  1.00  0.00    -0.248 NA
ATOM     33  C   UNL A   1      39.863  24.866  28.397  1.00  0.00     0.031 C 
ATOM     34  C   UNL A   1      44.107  23.443  29.991  1.00  0.00     0.029 A 
ATOM     35  N   UNL A   1      43.423  25.532  30.158  1.00  0.00    -0.354 N 
ATOM     36  C   UNL A   1      40.083  26.973  27.549  1.00  0.00     0.074 A 
ATOM     37  C   UNL A   1      39.182  25.920  27.943  1.00  0.00     0.031 C 
ATOM     38  C   UNL A   1      44.535  23.895  31.191  1.00  0.00     0.029 A 
ATOM     39  C   UNL A   1      44.118  25.275  31.335  1.00  0.00     0.049 A 
ATOM     40  H   UNL A   1      43.102  26.431  29.916  1.00  0.00     0.167 HD
ATOM     41  C   UNL A   1      39.902  28.323  27.475  1.00  0.00     0.031 A 
ATOM     42  C   UNL A   1      44.306  26.132  32.368  1.00  0.00     0.031 A 
ATOM     43  C   UNL A   1      41.102  28.992  27.044  1.00  0.00     0.049 A 
ATOM     44  C   UNL A   1      44.047  27.496  31.854  1.00  0.00     0.074 A 
ATOM     45  C   UNL A   1      41.881  28.961  25.905  1.00  0.00     0.029 A 
ATOM     46  N   UNL A   1      41.890  29.545  28.026  1.00  0.00    -0.354 N 
ATOM     47  N   UNL A   1      44.789  28.076  30.955  1.00  0.00    -0.248 NA
ATOM     48  C   UNL A   1      42.701  28.027  31.992  1.00  0.00     0.031 C 
ATOM     49  C   UNL A   1      43.223  29.029  26.382  1.00  0.00     0.029 A 
ATOM     50  C   UNL A   1      43.186  29.181  27.771  1.00  0.00     0.049 A 
ATOM     51  H   UNL A   1      41.579  30.103  28.776  1.00  0.00     0.167 HD
ATOM     52  C   UNL A   1      43.890  28.723  30.120  1.00  0.00     0.074 A 
ATOM     53  C   UNL A   1      42.630  28.742  30.864  1.00  0.00     0.031 C 
ATOM     54  C   UNL A   1      44.171  28.922  28.798  1.00  0.00     0.031 A 
BRANCH  41  55
ATOM     55  C   UNL A   1      38.791  29.071  28.174  1.00  0.00    -0.014 A 
ATOM     56  C   UNL A   1      38.631  28.895  29.562  1.00  0.00     0.009 A 
ATOM     57  C   UNL A   1      37.735  29.709  27.497  1.00  0.00     0.009 A 
ATOM     58  C   UNL A   1      37.447  29.259  30.216  1.00  0.00     0.001 A 
ATOM     59  C   UNL A   1      36.569  30.112  28.153  1.00  0.00     0.001 A 
ATOM     60  C   UNL A   1      36.412  29.859  29.507  1.00  0.00     0.000 A 
ENDBRANCH  41  55
BRANCH  42  61
ATOM     61  C   UNL A   1      44.402  25.839  33.814  1.00  0.00    -0.014 A 
ATOM     62  C   UNL A   1      43.246  25.690  34.596  1.00  0.00     0.009 A 
ATOM     63  C   UNL A   1      45.627  25.421  34.370  1.00  0.00     0.009 A 
ATOM     64  C   UNL A   1      43.308  25.107  35.870  1.00  0.00     0.001 A 
ATOM     65  C   UNL A   1      45.688  24.839  35.640  1.00  0.00     0.001 A 
ATOM     66  C   UNL A   1      44.525  24.667  36.384  1.00  0.00     0.000 A 
ENDBRANCH  42  61
BRANCH  54  67
ATOM     67  C   UNL A   1      45.570  28.610  28.317  1.00  0.00    -0.014 A 
ATOM     68  C   UNL A   1      45.982  27.327  27.910  1.00  0.00     0.009 A 
ATOM     69  C   UNL A   1      46.450  29.682  28.108  1.00  0.00     0.009 A 
ATOM     70  C   UNL A   1      47.243  27.124  27.337  1.00  0.00     0.001 A 
ATOM     71  C   UNL A   1      47.700  29.483  27.518  1.00  0.00     0.001 A 
ATOM     72  C   UNL A   1      48.097  28.204  27.136  1.00  0.00     0.000 A 
ENDBRANCH  54  67
ENDBRANCH  28  29
ENDBRANCH  20  23
ENDBRANCH  18  19
ENDBRANCH   1  18
TORSDOF 12
ENDMDL
MODEL 2
REMARK VINA RESULT:     -10.8      4.547      9.301
REMARK SMILES Cc1cc(C)n([C@@H](C(=O)NCCCNC(=O)c2ccc(-c3c4nc(c(-c5ccccc5)c5ccc([nH]5)c(-c5ccccc5)c5nc(c(-c6ccccc6)c6ccc3[nH]6)C=C5)C=C4)cc2)C(C)C)n1
REMARK SMILES IDX 12 1 11 2 10 3 8 4 9 5 7 7 6 8 1 9 2 10 3 11 68 12 4 13 5 14
REMARK SMILES IDX 65 15 66 16 67 17 13 18 14 19 15 20 16 22 17 23 18 24 64 25
REMARK SMILES IDX 19 26 63 27 20 28 21 29 22 30 57 31 23 32 62 33 56 34 58 35
REMARK SMILES IDX 24 36 61 37 55 38 54 39 25 41 47 42 32 43 46 44 33 45 36 46
REMARK SMILES IDX 45 47 59 48 34 49 35 50 44 52 60 53 37 54 26 55 27 56 31 57
REMARK SMILES IDX 28 58 30 59 29 60 48 61 49 62 53 63 50 64 52 65 51 66 38 67
REMARK SMILES IDX 39 68 43 69 40 70 42 71 41 72
REMARK H PARENT 10 6 14 21 58 40 36 51
REMARK Flexibility Score: inf
ROOT
ATOM      1  C   UNL A   1      31.391  31.416  26.435  1.00  0.00     0.042 C 
ENDROOT
BRANCH   1   2
ATOM      2  C   UNL A   1      31.751  29.989  26.010  1.00  0.00     0.117 C 
BRANCH   2   3
ATOM      3  N   UNL A   1      32.160  29.899  24.611  1.00  0.00    -0.354 N 
ATOM      4  C   UNL A   1      31.882  28.928  23.684  1.00  0.00     0.245 C 
ATOM      5  O   UNL A   1      32.402  29.045  22.571  1.00  0.00    -0.273 OA
ATOM      6  H   UNL A   1      32.716  30.645  24.286  1.00  0.00     0.163 HD
BRANCH   4   7
ATOM      7  C   UNL A   1      30.956  27.762  24.045  1.00  0.00     0.199 C 
BRANCH   7   8
ATOM      8  N   UNL A   1      31.743  26.527  24.116  1.00  0.00    -0.257 N 
ATOM      9  C   UNL A   1      32.990  23.750  22.293  1.00  0.00     0.069 C 
ATOM     10  C   UNL A   1      32.620  24.759  23.312  1.00  0.00     0.060 A 
ATOM     11  C   UNL A   1      32.804  24.698  24.707  1.00  0.00     0.048 A 
ATOM     12  N   UNL A   1      32.004  25.886  22.951  1.00  0.00    -0.177 NA
ATOM     13  C   UNL A   1      32.228  25.846  25.211  1.00  0.00     0.037 A 
ATOM     14  C   UNL A   1      32.107  26.288  26.623  1.00  0.00     0.066 C 
ENDBRANCH   7   8
BRANCH   7  15
ATOM     15  C   UNL A   1      29.697  27.629  23.144  1.00  0.00     0.017 C 
ATOM     16  C   UNL A   1      28.663  26.684  23.775  1.00  0.00     0.010 C 
ATOM     17  C   UNL A   1      29.015  28.983  22.898  1.00  0.00     0.010 C 
ENDBRANCH   7  15
ENDBRANCH   4   7
ENDBRANCH   2   3
ENDBRANCH   1   2
BRANCH   1  18
ATOM     18  C   UNL A   1      32.536  32.132  27.130  1.00  0.00     0.118 C 
BRANCH  18  19
ATOM     19  N   UNL A   1      32.259  33.544  27.401  1.00  0.00    -0.352 N 
ATOM     20  C   UNL A   1      32.895  34.375  28.312  1.00  0.00     0.251 C 
ATOM     21  H   UNL A   1      31.535  33.953  26.873  1.00  0.00     0.163 HD
ATOM     22  O   UNL A   1      32.389  35.415  28.688  1.00  0.00    -0.269 OA
BRANCH  20  23
ATOM     23  C   UNL A   1      34.220  33.961  28.806  1.00  0.00     0.039 A 
ATOM     24  C   UNL A   1      34.400  33.411  30.078  1.00  0.00     0.014 A 
ATOM     25  C   UNL A   1      35.284  34.087  27.921  1.00  0.00     0.014 A 
ATOM     26  C   UNL A   1      35.656  32.908  30.416  1.00  0.00     0.010 A 
ATOM     27  C   UNL A   1      36.450  33.423  28.177  1.00  0.00     0.010 A 
ATOM     28  C   UNL A   1      36.670  32.904  29.448  1.00  0.00    -0.014 A 
BRANCH  28  29
ATOM     29  C   UNL A   1      37.968  32.292  29.692  1.00  0.00     0.031 A 
ATOM     30  C   UNL A   1      38.067  30.852  29.327  1.00  0.00     0.074 A 
ATOM     31  C   UNL A   1      39.061  33.044  29.953  1.00  0.00     0.049 A 
ATOM     32  N   UNL A   1      38.309  29.851  30.106  1.00  0.00    -0.248 NA
ATOM     33  C   UNL A   1      37.752  30.463  27.941  1.00  0.00     0.031 C 
ATOM     34  C   UNL A   1      39.174  34.510  29.984  1.00  0.00     0.029 A 
ATOM     35  N   UNL A   1      40.351  32.650  30.104  1.00  0.00    -0.354 N 
ATOM     36  C   UNL A   1      38.360  28.724  29.288  1.00  0.00     0.074 A 
ATOM     37  C   UNL A   1      37.847  29.134  28.005  1.00  0.00     0.031 C 
ATOM     38  C   UNL A   1      40.473  34.868  29.881  1.00  0.00     0.029 A 
ATOM     39  C   UNL A   1      41.285  33.671  29.971  1.00  0.00     0.049 A 
ATOM     40  H   UNL A   1      40.605  31.718  30.292  1.00  0.00     0.167 HD
ATOM     41  C   UNL A   1      39.040  27.603  29.662  1.00  0.00     0.031 A 
ATOM     42  C   UNL A   1      42.632  33.533  29.907  1.00  0.00     0.031 A 
ATOM     43  C   UNL A   1      39.372  27.633  31.063  1.00  0.00     0.049 A 
ATOM     44  C   UNL A   1      42.958  32.194  30.445  1.00  0.00     0.074 A 
ATOM     45  C   UNL A   1      38.647  27.673  32.237  1.00  0.00     0.029 A 
ATOM     46  N   UNL A   1      40.644  28.039  31.390  1.00  0.00    -0.354 N 
ATOM     47  N   UNL A   1      42.766  31.854  31.687  1.00  0.00    -0.248 NA
ATOM     48  C   UNL A   1      43.056  31.091  29.503  1.00  0.00     0.031 C 
ATOM     49  C   UNL A   1      39.375  28.563  33.082  1.00  0.00     0.029 A 
ATOM     50  C   UNL A   1      40.540  28.947  32.410  1.00  0.00     0.049 A 
ATOM     51  H   UNL A   1      41.480  27.732  30.968  1.00  0.00     0.167 HD
ATOM     52  C   UNL A   1      42.276  30.557  31.627  1.00  0.00     0.074 A 
ATOM     53  C   UNL A   1      42.572  30.106  30.267  1.00  0.00     0.031 C 
ATOM     54  C   UNL A   1      41.424  30.079  32.582  1.00  0.00     0.031 A 
BRANCH  41  55
ATOM     55  C   UNL A   1      39.757  26.684  28.701  1.00  0.00    -0.014 A 
ATOM     56  C   UNL A   1      40.702  27.239  27.818  1.00  0.00     0.009 A 
ATOM     57  C   UNL A   1      39.348  25.364  28.435  1.00  0.00     0.009 A 
ATOM     58  C   UNL A   1      41.145  26.543  26.686  1.00  0.00     0.001 A 
ATOM     59  C   UNL A   1      39.819  24.650  27.329  1.00  0.00     0.001 A 
ATOM     60  C   UNL A   1      40.694  25.251  26.437  1.00  0.00     0.000 A 
ENDBRANCH  41  55
BRANCH  42  61
ATOM     61  C   UNL A   1      43.615  34.342  29.154  1.00  0.00    -0.014 A 
ATOM     62  C   UNL A   1      43.536  34.453  27.758  1.00  0.00     0.009 A 
ATOM     63  C   UNL A   1      44.462  35.237  29.836  1.00  0.00     0.009 A 
ATOM     64  C   UNL A   1      44.245  35.450  27.072  1.00  0.00     0.001 A 
ATOM     65  C   UNL A   1      45.168  36.233  29.152  1.00  0.00     0.001 A 
ATOM     66  C   UNL A   1      45.047  36.349  27.771  1.00  0.00     0.000 A 
ENDBRANCH  42  61
BRANCH  54  67
ATOM     67  C   UNL A   1      41.197  30.923  33.816  1.00  0.00    -0.014 A 
ATOM     68  C   UNL A   1      40.238  31.951  33.885  1.00  0.00     0.009 A 
ATOM     69  C   UNL A   1      41.856  30.553  34.997  1.00  0.00     0.009 A 
ATOM     70  C   UNL A   1      39.969  32.602  35.095  1.00  0.00     0.001 A 
ATOM     71  C   UNL A   1      41.573  31.189  36.208  1.00  0.00     0.001 A 
ATOM     72  C   UNL A   1      40.633  32.216  36.256  1.00  0.00     0.000 A 
ENDBRANCH  54  67
ENDBRANCH  28  29
ENDBRANCH  20  23
ENDBRANCH  18  19
ENDBRANCH   1  18
TORSDOF 12
ENDMDL
MODEL 3
REMARK VINA RESULT:     -10.8      4.583      9.345
REMARK SMILES Cc1cc(C)n([C@@H](C(=O)NCCCNC(=O)c2ccc(-c3c4nc(c(-c5ccccc5)c5ccc([nH]5)c(-c5ccccc5)c5nc(c(-c6ccccc6)c6ccc3[nH]6)C=C5)C=C4)cc2)C(C)C)n1
REMARK SMILES IDX 12 1 11 2 10 3 8 4 9 5 7 7 6 8 1 9 2 10 3 11 68 12 4 13 5 14
REMARK SMILES IDX 65 15 66 16 67 17 13 18 14 19 15 20 16 22 17 23 18 24 64 25
REMARK SMILES IDX 19 26 63 27 20 28 21 29 22 30 57 31 23 32 62 33 56 34 58 35
REMARK SMILES IDX 24 36 61 37 55 38 54 39 25 41 47 42 32 43 46 44 33 45 36 46
REMARK SMILES IDX 45 47 59 48 34 49 35 50 44 52 60 53 37 54 26 55 27 56 31 57
REMARK SMILES IDX 28 58 30 59 29 60 48 61 49 62 53 63 50 64 52 65 51 66 38 67
REMARK SMILES IDX 39 68 43 69 40 70 42 71 41 72
REMARK H PARENT 10 6 14 21 58 40 36 51
REMARK Flexibility Score: inf
ROOT
ATOM      1  C   UNL A   1      31.424  32.153  26.520  1.00  0.00     0.042 C 
ENDROOT
BRANCH   1   2
ATOM      2  C   UNL A   1      31.661  30.692  26.124  1.00  0.00     0.117 C 
BRANCH   2   3
ATOM      3  N   UNL A   1      31.511  29.768  27.245  1.00  0.00    -0.354 N 
ATOM      4  C   UNL A   1      31.667  28.406  27.277  1.00  0.00     0.245 C 
ATOM      5  O   UNL A   1      31.419  27.835  28.342  1.00  0.00    -0.273 OA
ATOM      6  H   UNL A   1      31.262  30.184  28.103  1.00  0.00     0.163 HD
BRANCH   4   7
ATOM      7  C   UNL A   1      32.138  27.657  26.027  1.00  0.00     0.199 C 
BRANCH   7   8
ATOM      8  N   UNL A   1      31.239  26.526  25.777  1.00  0.00    -0.257 N 
ATOM      9  C   UNL A   1      30.437  23.183  26.657  1.00  0.00     0.069 C 
ATOM     10  C   UNL A   1      30.519  24.542  26.074  1.00  0.00     0.060 A 
ATOM     11  C   UNL A   1      29.822  25.059  24.965  1.00  0.00     0.048 A 
ATOM     12  N   UNL A   1      31.356  25.445  26.588  1.00  0.00    -0.177 NA
ATOM     13  C   UNL A   1      30.302  26.340  24.785  1.00  0.00     0.037 A 
ATOM     14  C   UNL A   1      29.940  27.336  23.746  1.00  0.00     0.066 C 
ENDBRANCH   7   8
BRANCH   7  15
ATOM     15  C   UNL A   1      33.638  27.248  26.040  1.00  0.00     0.017 C 
ATOM     16  C   UNL A   1      34.038  26.574  24.719  1.00  0.00     0.010 C 
ATOM     17  C   UNL A   1      34.565  28.454  26.257  1.00  0.00     0.010 C 
ENDBRANCH   7  15
ENDBRANCH   4   7
ENDBRANCH   2   3
ENDBRANCH   1   2
BRANCH   1  18
ATOM     18  C   UNL A   1      32.562  32.735  27.339  1.00  0.00     0.118 C 
BRANCH  18  19
ATOM     19  N   UNL A   1      32.327  34.117  27.762  1.00  0.00    -0.352 N 
ATOM     20  C   UNL A   1      32.994  34.830  28.747  1.00  0.00     0.251 C 
ATOM     21  H   UNL A   1      31.608  34.599  27.290  1.00  0.00     0.163 HD
ATOM     22  O   UNL A   1      32.520  35.837  29.238  1.00  0.00    -0.269 OA
BRANCH  20  23
ATOM     23  C   UNL A   1      34.313  34.333  29.176  1.00  0.00     0.039 A 
ATOM     24  C   UNL A   1      34.492  33.647  30.380  1.00  0.00     0.014 A 
ATOM     25  C   UNL A   1      35.370  34.525  28.295  1.00  0.00     0.014 A 
ATOM     26  C   UNL A   1      35.737  33.079  30.647  1.00  0.00     0.010 A 
ATOM     27  C   UNL A   1      36.521  33.807  28.464  1.00  0.00     0.010 A 
ATOM     28  C   UNL A   1      36.740  33.151  29.670  1.00  0.00    -0.014 A 
BRANCH  28  29
ATOM     29  C   UNL A   1      38.024  32.483  29.830  1.00  0.00     0.031 A 
ATOM     30  C   UNL A   1      38.041  31.045  29.448  1.00  0.00     0.074 A 
ATOM     31  C   UNL A   1      39.161  33.187  30.032  1.00  0.00     0.049 A 
ATOM     32  N   UNL A   1      38.286  30.027  30.202  1.00  0.00    -0.248 NA
ATOM     33  C   UNL A   1      37.628  30.685  28.080  1.00  0.00     0.031 C 
ATOM     34  C   UNL A   1      39.336  34.647  30.069  1.00  0.00     0.029 A 
ATOM     35  N   UNL A   1      40.440  32.739  30.102  1.00  0.00    -0.354 N 
ATOM     36  C   UNL A   1      38.242  28.908  29.373  1.00  0.00     0.074 A 
ATOM     37  C   UNL A   1      37.671  29.352  28.127  1.00  0.00     0.031 C 
ATOM     38  C   UNL A   1      40.641  34.953  29.892  1.00  0.00     0.029 A 
ATOM     39  C   UNL A   1      41.406  33.722  29.922  1.00  0.00     0.049 A 
ATOM     40  H   UNL A   1      40.666  31.795  30.266  1.00  0.00     0.167 HD
ATOM     41  C   UNL A   1      38.896  27.755  29.696  1.00  0.00     0.031 A 
ATOM     42  C   UNL A   1      42.740  33.530  29.777  1.00  0.00     0.031 A 
ATOM     43  C   UNL A   1      39.312  27.756  31.075  1.00  0.00     0.049 A 
ATOM     44  C   UNL A   1      43.041  32.172  30.283  1.00  0.00     0.074 A 
ATOM     45  C   UNL A   1      38.660  27.813  32.291  1.00  0.00     0.029 A 
ATOM     46  N   UNL A   1      40.617  28.106  31.328  1.00  0.00    -0.354 N 
ATOM     47  N   UNL A   1      42.910  31.827  31.531  1.00  0.00    -0.248 NA
ATOM     48  C   UNL A   1      43.037  31.077  29.327  1.00  0.00     0.031 C 
ATOM     49  C   UNL A   1      39.473  28.662  33.098  1.00  0.00     0.029 A 
ATOM     50  C   UNL A   1      40.611  29.006  32.361  1.00  0.00     0.049 A 
ATOM     51  H   UNL A   1      41.412  27.770  30.854  1.00  0.00     0.167 HD
ATOM     52  C   UNL A   1      42.363  30.552  31.489  1.00  0.00     0.074 A 
ATOM     53  C   UNL A   1      42.559  30.104  30.110  1.00  0.00     0.031 C 
ATOM     54  C   UNL A   1      41.550  30.099  32.489  1.00  0.00     0.031 A 
BRANCH  41  55
ATOM     55  C   UNL A   1      39.515  26.818  28.686  1.00  0.00    -0.014 A 
ATOM     56  C   UNL A   1      40.451  27.338  27.772  1.00  0.00     0.009 A 
ATOM     57  C   UNL A   1      39.020  25.529  28.413  1.00  0.00     0.009 A 
ATOM     58  C   UNL A   1      40.803  26.643  26.607  1.00  0.00     0.001 A 
ATOM     59  C   UNL A   1      39.400  24.815  27.274  1.00  0.00     0.001 A 
ATOM     60  C   UNL A   1      40.268  25.385  26.354  1.00  0.00     0.000 A 
ENDBRANCH  41  55
BRANCH  42  61
ATOM     61  C   UNL A   1      43.710  34.306  28.973  1.00  0.00    -0.014 A 
ATOM     62  C   UNL A   1      43.672  34.271  27.571  1.00  0.00     0.009 A 
ATOM     63  C   UNL A   1      44.490  35.306  29.583  1.00  0.00     0.009 A 
ATOM     64  C   UNL A   1      44.357  35.228  26.808  1.00  0.00     0.001 A 
ATOM     65  C   UNL A   1      45.173  36.261  28.821  1.00  0.00     0.001 A 
ATOM     66  C   UNL A   1      45.093  36.231  27.433  1.00  0.00     0.000 A 
ENDBRANCH  42  61
BRANCH  54  67
ATOM     67  C   UNL A   1      41.433  30.937  33.741  1.00  0.00    -0.014 A 
ATOM     68  C   UNL A   1      42.260  30.767  34.867  1.00  0.00     0.009 A 
ATOM     69  C   UNL A   1      40.571  32.043  33.716  1.00  0.00     0.009 A 
ATOM     70  C   UNL A   1      42.206  31.664  35.941  1.00  0.00     0.001 A 
ATOM     71  C   UNL A   1      40.531  32.949  34.778  1.00  0.00     0.001 A 
ATOM     72  C   UNL A   1      41.346  32.757  35.892  1.00  0.00     0.000 A 
ENDBRANCH  54  67
ENDBRANCH  28  29
ENDBRANCH  20  23
ENDBRANCH  18  19
ENDBRANCH   1  18
TORSDOF 12
ENDMDL
