MODEL 1
REMARK VINA RESULT:      -9.9      0.000      0.000
REMARK SMILES CN(C)C(=O)CC(C)(C)CC(=O)NCCCNC(=O)c1ccc(-c2c3nc(c(-c4ccccc4)c4ccc([nH]4)c(-c4ccccc4)c4nc(c(-c5ccccc5)c5ccc2[nH]5)C=C4)C=C3)cc1
REMARK SMILES IDX 14 1 13 2 11 3 12 4 10 6 7 7 8 8 9 9 6 10 4 11 1 12 2 13
REMARK SMILES IDX 3 14 5 15 15 16 16 17 17 18 18 19 19 21 20 22 21 23 67 24
REMARK SMILES IDX 22 25 66 26 23 27 24 28 25 29 60 30 26 31 65 32 59 33 61 34
REMARK SMILES IDX 27 35 64 36 58 37 57 38 28 40 50 41 35 42 49 43 36 44 39 45
REMARK SMILES IDX 48 46 62 47 37 48 38 49 47 51 63 52 40 53 29 54 30 55 34 56
REMARK SMILES IDX 31 57 33 58 32 59 51 60 52 61 56 62 53 63 55 64 54 65 41 66
REMARK SMILES IDX 42 67 46 68 43 69 45 70 44 71
REMARK H PARENT 13 5 17 20 61 39 39 50
REMARK Flexibility Score: inf
ROOT
ATOM      1  C   UNL A   1      36.832  20.513  24.931  1.00  0.00     0.117 C 
ENDROOT
BRANCH   1   2
ATOM      2  N   UNL A   1      35.642  19.683  24.944  1.00  0.00    -0.356 N 
ATOM      3  C   UNL A   1      34.322  20.002  24.892  1.00  0.00     0.220 C 
ATOM      4  O   UNL A   1      33.519  19.084  25.056  1.00  0.00    -0.275 OA
ATOM      5  H   UNL A   1      35.823  18.717  25.000  1.00  0.00     0.163 HD
BRANCH   3   6
ATOM      6  C   UNL A   1      33.872  21.423  24.600  1.00  0.00     0.107 C 
BRANCH   6   7
ATOM      7  C   UNL A   1      33.317  22.260  25.785  1.00  0.00    -0.018 C 
ATOM      8  C   UNL A   1      33.943  23.665  25.669  1.00  0.00     0.012 C 
ATOM      9  C   UNL A   1      33.767  21.695  27.143  1.00  0.00     0.012 C 
BRANCH   7  10
ATOM     10  C   UNL A   1      31.766  22.302  25.815  1.00  0.00     0.107 C 
BRANCH  10  11
ATOM     11  C   UNL A   1      31.152  23.655  26.133  1.00  0.00     0.222 C 
ATOM     12  C   UNL A   1      30.052  25.709  25.442  1.00  0.00     0.146 C 
ATOM     13  N   UNL A   1      30.662  24.436  25.096  1.00  0.00    -0.349 N 
ATOM     14  C   UNL A   1      30.743  24.147  23.671  1.00  0.00     0.146 C 
ATOM     15  O   UNL A   1      31.085  24.026  27.305  1.00  0.00    -0.275 OA
ENDBRANCH  10  11
ENDBRANCH   7  10
ENDBRANCH   6   7
ENDBRANCH   3   6
ENDBRANCH   1   2
BRANCH   1  16
ATOM     16  C   UNL A   1      38.097  19.660  24.917  1.00  0.00     0.042 C 
BRANCH  16  17
ATOM     17  C   UNL A   1      39.102  20.041  25.992  1.00  0.00     0.118 C 
BRANCH  17  18
ATOM     18  N   UNL A   1      40.313  19.244  25.904  1.00  0.00    -0.352 N 
ATOM     19  C   UNL A   1      41.624  19.639  26.016  1.00  0.00     0.251 C 
ATOM     20  H   UNL A   1      40.175  18.284  25.739  1.00  0.00     0.163 HD
ATOM     21  O   UNL A   1      42.519  18.879  25.661  1.00  0.00    -0.269 OA
BRANCH  19  22
ATOM     22  C   UNL A   1      41.966  20.980  26.548  1.00  0.00     0.039 A 
ATOM     23  C   UNL A   1      42.286  22.000  25.648  1.00  0.00     0.014 A 
ATOM     24  C   UNL A   1      42.026  21.225  27.923  1.00  0.00     0.014 A 
ATOM     25  C   UNL A   1      42.634  23.267  26.125  1.00  0.00     0.010 A 
ATOM     26  C   UNL A   1      42.279  22.511  28.394  1.00  0.00     0.010 A 
ATOM     27  C   UNL A   1      42.616  23.539  27.502  1.00  0.00    -0.014 A 
BRANCH  27  28
ATOM     28  C   UNL A   1      43.009  24.869  28.031  1.00  0.00     0.031 A 
ATOM     29  C   UNL A   1      41.956  25.915  28.290  1.00  0.00     0.074 A 
ATOM     30  C   UNL A   1      44.306  25.157  28.245  1.00  0.00     0.049 A 
ATOM     31  N   UNL A   1      42.098  27.145  28.719  1.00  0.00    -0.248 NA
ATOM     32  C   UNL A   1      40.563  25.538  28.006  1.00  0.00     0.031 C 
ATOM     33  C   UNL A   1      45.428  24.246  28.010  1.00  0.00     0.029 A 
ATOM     34  N   UNL A   1      44.899  26.302  28.715  1.00  0.00    -0.354 N 
ATOM     35  C   UNL A   1      40.820  27.690  28.733  1.00  0.00     0.074 A 
ATOM     36  C   UNL A   1      39.925  26.679  28.215  1.00  0.00     0.031 C 
ATOM     37  C   UNL A   1      46.569  24.853  28.379  1.00  0.00     0.029 A 
ATOM     38  C   UNL A   1      46.263  26.204  28.838  1.00  0.00     0.049 A 
ATOM     39  H   UNL A   1      44.394  27.116  28.944  1.00  0.00     0.167 HD
ATOM     40  C   UNL A   1      40.417  28.911  29.158  1.00  0.00     0.031 A 
ATOM     41  C   UNL A   1      47.167  27.100  29.277  1.00  0.00     0.031 A 
ATOM     42  C   UNL A   1      41.301  29.913  29.690  1.00  0.00     0.049 A 
ATOM     43  C   UNL A   1      46.702  28.456  29.729  1.00  0.00     0.074 A 
ATOM     44  C   UNL A   1      40.987  31.163  30.195  1.00  0.00     0.029 A 
ATOM     45  N   UNL A   1      42.678  29.778  29.783  1.00  0.00    -0.354 N 
ATOM     46  N   UNL A   1      45.484  28.936  29.785  1.00  0.00    -0.248 NA
ATOM     47  C   UNL A   1      47.740  29.389  30.190  1.00  0.00     0.031 C 
ATOM     48  C   UNL A   1      42.179  31.801  30.555  1.00  0.00     0.029 A 
ATOM     49  C   UNL A   1      43.230  30.928  30.320  1.00  0.00     0.049 A 
ATOM     50  H   UNL A   1      43.186  28.981  29.508  1.00  0.00     0.167 HD
ATOM     51  C   UNL A   1      45.605  30.216  30.312  1.00  0.00     0.074 A 
ATOM     52  C   UNL A   1      47.014  30.431  30.569  1.00  0.00     0.031 C 
ATOM     53  C   UNL A   1      44.635  31.127  30.566  1.00  0.00     0.031 A 
BRANCH  40  54
ATOM     54  C   UNL A   1      38.950  29.221  29.055  1.00  0.00    -0.014 A 
ATOM     55  C   UNL A   1      38.085  29.028  30.145  1.00  0.00     0.009 A 
ATOM     56  C   UNL A   1      38.421  29.707  27.848  1.00  0.00     0.009 A 
ATOM     57  C   UNL A   1      36.715  29.264  30.013  1.00  0.00     0.001 A 
ATOM     58  C   UNL A   1      37.055  29.972  27.730  1.00  0.00     0.001 A 
ATOM     59  C   UNL A   1      36.201  29.738  28.807  1.00  0.00     0.000 A 
ENDBRANCH  40  54
BRANCH  41  60
ATOM     60  C   UNL A   1      48.602  26.726  29.352  1.00  0.00    -0.014 A 
ATOM     61  C   UNL A   1      49.101  26.073  30.489  1.00  0.00     0.009 A 
ATOM     62  C   UNL A   1      49.476  27.008  28.291  1.00  0.00     0.009 A 
ATOM     63  C   UNL A   1      50.450  25.723  30.569  1.00  0.00     0.001 A 
ATOM     64  C   UNL A   1      50.820  26.635  28.364  1.00  0.00     0.001 A 
ATOM     65  C   UNL A   1      51.307  25.999  29.505  1.00  0.00     0.000 A 
ENDBRANCH  41  60
BRANCH  53  66
ATOM     66  C   UNL A   1      45.062  32.428  31.185  1.00  0.00    -0.014 A 
ATOM     67  C   UNL A   1      45.141  32.583  32.577  1.00  0.00     0.009 A 
ATOM     68  C   UNL A   1      45.425  33.502  30.357  1.00  0.00     0.009 A 
ATOM     69  C   UNL A   1      45.545  33.801  33.128  1.00  0.00     0.001 A 
ATOM     70  C   UNL A   1      45.854  34.709  30.911  1.00  0.00     0.001 A 
ATOM     71  C   UNL A   1      45.904  34.860  32.295  1.00  0.00     0.000 A 
ENDBRANCH  53  66
ENDBRANCH  27  28
ENDBRANCH  19  22
ENDBRANCH  17  18
ENDBRANCH  16  17
ENDBRANCH   1  16
TORSDOF 13
ENDMDL
MODEL 2
REMARK VINA RESULT:      -9.9      0.449      6.281
REMARK SMILES CN(C)C(=O)CC(C)(C)CC(=O)NCCCNC(=O)c1ccc(-c2c3nc(c(-c4ccccc4)c4ccc([nH]4)c(-c4ccccc4)c4nc(c(-c5ccccc5)c5ccc2[nH]5)C=C4)C=C3)cc1
REMARK SMILES IDX 14 1 13 2 11 3 12 4 10 6 7 7 8 8 9 9 6 10 4 11 1 12 2 13
REMARK SMILES IDX 3 14 5 15 15 16 16 17 17 18 18 19 19 21 20 22 21 23 67 24
REMARK SMILES IDX 22 25 66 26 23 27 24 28 25 29 60 30 26 31 65 32 59 33 61 34
REMARK SMILES IDX 27 35 64 36 58 37 57 38 28 40 50 41 35 42 49 43 36 44 39 45
REMARK SMILES IDX 48 46 62 47 37 48 38 49 47 51 63 52 40 53 29 54 30 55 34 56
REMARK SMILES IDX 31 57 33 58 32 59 51 60 52 61 56 62 53 63 55 64 54 65 41 66
REMARK SMILES IDX 42 67 46 68 43 69 45 70 44 71
REMARK H PARENT 13 5 17 20 61 39 39 50
REMARK Flexibility Score: inf
ROOT
ATOM      1  C   UNL A   1      36.555  20.262  24.867  1.00  0.00     0.117 C 
ENDROOT
BRANCH   1   2
ATOM      2  N   UNL A   1      35.318  19.509  24.955  1.00  0.00    -0.356 N 
ATOM      3  C   UNL A   1      34.019  19.901  24.881  1.00  0.00     0.220 C 
ATOM      4  O   UNL A   1      33.165  19.050  25.126  1.00  0.00    -0.275 OA
ATOM      5  H   UNL A   1      35.441  18.542  25.093  1.00  0.00     0.163 HD
BRANCH   3   6
ATOM      6  C   UNL A   1      33.651  21.315  24.471  1.00  0.00     0.107 C 
BRANCH   6   7
ATOM      7  C   UNL A   1      33.144  22.278  25.580  1.00  0.00    -0.018 C 
ATOM      8  C   UNL A   1      33.796  23.650  25.310  1.00  0.00     0.012 C 
ATOM      9  C   UNL A   1      33.616  21.839  26.976  1.00  0.00     0.012 C 
BRANCH   7  10
ATOM     10  C   UNL A   1      31.596  22.359  25.642  1.00  0.00     0.107 C 
BRANCH  10  11
ATOM     11  C   UNL A   1      31.023  23.715  26.020  1.00  0.00     0.222 C 
ATOM     12  C   UNL A   1      29.970  25.822  25.424  1.00  0.00     0.146 C 
ATOM     13  N   UNL A   1      30.539  24.547  25.021  1.00  0.00    -0.349 N 
ATOM     14  C   UNL A   1      30.591  24.310  23.585  1.00  0.00     0.146 C 
ATOM     15  O   UNL A   1      30.984  24.043  27.206  1.00  0.00    -0.275 OA
ENDBRANCH  10  11
ENDBRANCH   7  10
ENDBRANCH   6   7
ENDBRANCH   3   6
ENDBRANCH   1   2
BRANCH   1  16
ATOM     16  C   UNL A   1      37.765  19.358  25.080  1.00  0.00     0.042 C 
BRANCH  16  17
ATOM     17  C   UNL A   1      39.045  20.116  25.397  1.00  0.00     0.118 C 
BRANCH  17  18
ATOM     18  N   UNL A   1      40.151  19.216  25.666  1.00  0.00    -0.352 N 
ATOM     19  C   UNL A   1      41.429  19.507  26.081  1.00  0.00     0.251 C 
ATOM     20  H   UNL A   1      39.959  18.260  25.531  1.00  0.00     0.163 HD
ATOM     21  O   UNL A   1      42.299  18.647  26.010  1.00  0.00    -0.269 OA
BRANCH  19  22
ATOM     22  C   UNL A   1      41.766  20.854  26.598  1.00  0.00     0.039 A 
ATOM     23  C   UNL A   1      41.643  21.099  27.969  1.00  0.00     0.014 A 
ATOM     24  C   UNL A   1      42.148  21.890  25.740  1.00  0.00     0.014 A 
ATOM     25  C   UNL A   1      41.933  22.368  28.479  1.00  0.00     0.010 A 
ATOM     26  C   UNL A   1      42.529  23.124  26.260  1.00  0.00     0.010 A 
ATOM     27  C   UNL A   1      42.396  23.387  27.632  1.00  0.00    -0.014 A 
BRANCH  27  28
ATOM     28  C   UNL A   1      42.683  24.749  28.148  1.00  0.00     0.031 A 
ATOM     29  C   UNL A   1      44.095  25.136  28.504  1.00  0.00     0.074 A 
ATOM     30  C   UNL A   1      41.681  25.628  28.335  1.00  0.00     0.049 A 
ATOM     31  N   UNL A   1      44.546  26.262  28.999  1.00  0.00    -0.248 NA
ATOM     32  C   UNL A   1      45.134  24.113  28.300  1.00  0.00     0.031 C 
ATOM     33  C   UNL A   1      40.266  25.374  28.057  1.00  0.00     0.029 A 
ATOM     34  N   UNL A   1      41.703  26.919  28.800  1.00  0.00    -0.354 N 
ATOM     35  C   UNL A   1      45.911  26.072  29.185  1.00  0.00     0.074 A 
ATOM     36  C   UNL A   1      46.203  24.707  28.806  1.00  0.00     0.031 C 
ATOM     37  C   UNL A   1      39.563  26.490  28.315  1.00  0.00     0.029 A 
ATOM     38  C   UNL A   1      40.469  27.520  28.812  1.00  0.00     0.049 A 
ATOM     39  H   UNL A   1      42.526  27.372  29.094  1.00  0.00     0.167 HD
ATOM     40  C   UNL A   1      46.844  26.956  29.610  1.00  0.00     0.031 A 
ATOM     41  C   UNL A   1      40.107  28.764  29.177  1.00  0.00     0.031 A 
ATOM     42  C   UNL A   1      46.562  28.319  29.972  1.00  0.00     0.049 A 
ATOM     43  C   UNL A   1      41.156  29.726  29.662  1.00  0.00     0.074 A 
ATOM     44  C   UNL A   1      47.444  29.309  30.367  1.00  0.00     0.029 A 
ATOM     45  N   UNL A   1      45.295  28.882  29.984  1.00  0.00    -0.354 N 
ATOM     46  N   UNL A   1      42.449  29.547  29.782  1.00  0.00    -0.248 NA
ATOM     47  C   UNL A   1      40.693  31.065  30.051  1.00  0.00     0.031 C 
ATOM     48  C   UNL A   1      46.705  30.461  30.658  1.00  0.00     0.029 A 
ATOM     49  C   UNL A   1      45.369  30.201  30.397  1.00  0.00     0.049 A 
ATOM     50  H   UNL A   1      44.466  28.413  29.735  1.00  0.00     0.167 HD
ATOM     51  C   UNL A   1      42.958  30.758  30.233  1.00  0.00     0.074 A 
ATOM     52  C   UNL A   1      41.836  31.665  30.354  1.00  0.00     0.031 C 
ATOM     53  C   UNL A   1      44.242  31.089  30.515  1.00  0.00     0.031 A 
BRANCH  40  54
ATOM     54  C   UNL A   1      48.260  26.459  29.708  1.00  0.00    -0.014 A 
ATOM     55  C   UNL A   1      48.738  25.848  30.880  1.00  0.00     0.009 A 
ATOM     56  C   UNL A   1      49.132  26.610  28.619  1.00  0.00     0.009 A 
ATOM     57  C   UNL A   1      50.073  25.447  30.975  1.00  0.00     0.001 A 
ATOM     58  C   UNL A   1      50.457  26.178  28.707  1.00  0.00     0.001 A 
ATOM     59  C   UNL A   1      50.931  25.610  29.889  1.00  0.00     0.000 A 
ENDBRANCH  40  54
BRANCH  41  60
ATOM     60  C   UNL A   1      38.689  29.188  29.055  1.00  0.00    -0.014 A 
ATOM     61  C   UNL A   1      38.215  29.723  27.847  1.00  0.00     0.009 A 
ATOM     62  C   UNL A   1      37.801  29.051  30.133  1.00  0.00     0.009 A 
ATOM     63  C   UNL A   1      36.885  30.128  27.726  1.00  0.00     0.001 A 
ATOM     64  C   UNL A   1      36.465  29.435  30.001  1.00  0.00     0.001 A 
ATOM     65  C   UNL A   1      36.009  29.979  28.801  1.00  0.00     0.000 A 
ENDBRANCH  41  60
BRANCH  53  66
ATOM     66  C   UNL A   1      44.504  32.503  30.950  1.00  0.00    -0.014 A 
ATOM     67  C   UNL A   1      44.507  32.861  32.306  1.00  0.00     0.009 A 
ATOM     68  C   UNL A   1      44.788  33.482  29.985  1.00  0.00     0.009 A 
ATOM     69  C   UNL A   1      44.759  34.182  32.685  1.00  0.00     0.001 A 
ATOM     70  C   UNL A   1      45.065  34.795  30.369  1.00  0.00     0.001 A 
ATOM     71  C   UNL A   1      45.041  35.146  31.717  1.00  0.00     0.000 A 
ENDBRANCH  53  66
ENDBRANCH  27  28
ENDBRANCH  19  22
ENDBRANCH  17  18
ENDBRANCH  16  17
ENDBRANCH   1  16
TORSDOF 13
ENDMDL
MODEL 3
REMARK VINA RESULT:      -9.8      1.156      1.645
REMARK SMILES CN(C)C(=O)CC(C)(C)CC(=O)NCCCNC(=O)c1ccc(-c2c3nc(c(-c4ccccc4)c4ccc([nH]4)c(-c4ccccc4)c4nc(c(-c5ccccc5)c5ccc2[nH]5)C=C4)C=C3)cc1
REMARK SMILES IDX 14 1 13 2 11 3 12 4 10 6 7 7 8 8 9 9 6 10 4 11 1 12 2 13
REMARK SMILES IDX 3 14 5 15 15 16 16 17 17 18 18 19 19 21 20 22 21 23 67 24
REMARK SMILES IDX 22 25 66 26 23 27 24 28 25 29 60 30 26 31 65 32 59 33 61 34
REMARK SMILES IDX 27 35 64 36 58 37 57 38 28 40 50 41 35 42 49 43 36 44 39 45
REMARK SMILES IDX 48 46 62 47 37 48 38 49 47 51 63 52 40 53 29 54 30 55 34 56
REMARK SMILES IDX 31 57 33 58 32 59 51 60 52 61 56 62 53 63 55 64 54 65 41 66
REMARK SMILES IDX 42 67 46 68 43 69 45 70 44 71
REMARK H PARENT 13 5 17 20 61 39 39 50
REMARK Flexibility Score: inf
ROOT
ATOM      1  C   UNL A   1      36.390  20.809  24.724  1.00  0.00     0.117 C 
ENDROOT
BRANCH   1   2
ATOM      2  N   UNL A   1      35.421  20.731  25.801  1.00  0.00    -0.356 N 
ATOM      3  C   UNL A   1      34.810  21.699  26.533  1.00  0.00     0.220 C 
ATOM      4  O   UNL A   1      34.123  21.329  27.484  1.00  0.00    -0.275 OA
ATOM      5  H   UNL A   1      35.159  19.814  26.044  1.00  0.00     0.163 HD
BRANCH   3   6
ATOM      6  C   UNL A   1      34.942  23.164  26.158  1.00  0.00     0.107 C 
BRANCH   6   7
ATOM      7  C   UNL A   1      33.678  23.886  25.615  1.00  0.00    -0.018 C 
ATOM      8  C   UNL A   1      34.070  25.361  25.389  1.00  0.00     0.012 C 
ATOM      9  C   UNL A   1      32.538  23.892  26.646  1.00  0.00     0.012 C 
BRANCH   7  10
ATOM     10  C   UNL A   1      33.113  23.220  24.333  1.00  0.00     0.107 C 
BRANCH  10  11
ATOM     11  C   UNL A   1      33.424  23.936  23.029  1.00  0.00     0.222 C 
ATOM     12  C   UNL A   1      32.824  25.484  21.254  1.00  0.00     0.146 C 
ATOM     13  N   UNL A   1      32.478  24.793  22.485  1.00  0.00    -0.349 N 
ATOM     14  C   UNL A   1      31.132  25.038  22.984  1.00  0.00     0.146 C 
ATOM     15  O   UNL A   1      34.515  23.755  22.487  1.00  0.00    -0.275 OA
ENDBRANCH  10  11
ENDBRANCH   7  10
ENDBRANCH   6   7
ENDBRANCH   3   6
ENDBRANCH   1   2
BRANCH   1  16
ATOM     16  C   UNL A   1      37.531  19.819  24.938  1.00  0.00     0.042 C 
BRANCH  16  17
ATOM     17  C   UNL A   1      38.725  20.411  25.668  1.00  0.00     0.118 C 
BRANCH  17  18
ATOM     18  N   UNL A   1      39.820  19.463  25.767  1.00  0.00    -0.352 N 
ATOM     19  C   UNL A   1      41.148  19.692  26.038  1.00  0.00     0.251 C 
ATOM     20  H   UNL A   1      39.577  18.521  25.617  1.00  0.00     0.163 HD
ATOM     21  O   UNL A   1      41.971  18.807  25.830  1.00  0.00    -0.269 OA
BRANCH  19  22
ATOM     22  C   UNL A   1      41.595  21.003  26.567  1.00  0.00     0.039 A 
ATOM     23  C   UNL A   1      41.538  21.228  27.945  1.00  0.00     0.014 A 
ATOM     24  C   UNL A   1      42.017  22.027  25.714  1.00  0.00     0.014 A 
ATOM     25  C   UNL A   1      41.932  22.464  28.467  1.00  0.00     0.010 A 
ATOM     26  C   UNL A   1      42.500  23.222  26.241  1.00  0.00     0.010 A 
ATOM     27  C   UNL A   1      42.433  23.466  27.621  1.00  0.00    -0.014 A 
BRANCH  27  28
ATOM     28  C   UNL A   1      42.831  24.795  28.151  1.00  0.00     0.031 A 
ATOM     29  C   UNL A   1      41.787  25.855  28.382  1.00  0.00     0.074 A 
ATOM     30  C   UNL A   1      44.127  25.068  28.390  1.00  0.00     0.049 A 
ATOM     31  N   UNL A   1      41.935  27.086  28.807  1.00  0.00    -0.248 NA
ATOM     32  C   UNL A   1      40.395  25.493  28.071  1.00  0.00     0.031 C 
ATOM     33  C   UNL A   1      45.242  24.141  28.184  1.00  0.00     0.029 A 
ATOM     34  N   UNL A   1      44.725  26.208  28.866  1.00  0.00    -0.354 N 
ATOM     35  C   UNL A   1      40.663  27.646  28.790  1.00  0.00     0.074 A 
ATOM     36  C   UNL A   1      39.767  26.643  28.259  1.00  0.00     0.031 C 
ATOM     37  C   UNL A   1      46.383  24.736  28.573  1.00  0.00     0.029 A 
ATOM     38  C   UNL A   1      46.084  26.094  29.018  1.00  0.00     0.049 A 
ATOM     39  H   UNL A   1      44.225  27.029  29.079  1.00  0.00     0.167 HD
ATOM     40  C   UNL A   1      40.267  28.874  29.200  1.00  0.00     0.031 A 
ATOM     41  C   UNL A   1      46.990  26.981  29.470  1.00  0.00     0.031 A 
ATOM     42  C   UNL A   1      41.152  29.869  29.744  1.00  0.00     0.049 A 
ATOM     43  C   UNL A   1      46.533  28.346  29.905  1.00  0.00     0.074 A 
ATOM     44  C   UNL A   1      40.843  31.126  30.235  1.00  0.00     0.029 A 
ATOM     45  N   UNL A   1      42.525  29.717  29.866  1.00  0.00    -0.354 N 
ATOM     46  N   UNL A   1      45.319  28.841  29.932  1.00  0.00    -0.248 NA
ATOM     47  C   UNL A   1      47.573  29.268  30.381  1.00  0.00     0.031 C 
ATOM     48  C   UNL A   1      42.035  31.751  30.616  1.00  0.00     0.029 A 
ATOM     49  C   UNL A   1      43.080  30.863  30.408  1.00  0.00     0.049 A 
ATOM     50  H   UNL A   1      43.029  28.913  29.607  1.00  0.00     0.167 HD
ATOM     51  C   UNL A   1      45.446  30.122  30.454  1.00  0.00     0.074 A 
ATOM     52  C   UNL A   1      46.851  30.322  30.739  1.00  0.00     0.031 C 
ATOM     53  C   UNL A   1      44.482  31.047  30.683  1.00  0.00     0.031 A 
BRANCH  40  54
ATOM     54  C   UNL A   1      38.806  29.202  29.064  1.00  0.00    -0.014 A 
ATOM     55  C   UNL A   1      38.277  29.682  27.854  1.00  0.00     0.009 A 
ATOM     56  C   UNL A   1      37.946  29.036  30.161  1.00  0.00     0.009 A 
ATOM     57  C   UNL A   1      36.929  30.038  27.762  1.00  0.00     0.001 A 
ATOM     58  C   UNL A   1      36.593  29.363  30.056  1.00  0.00     0.001 A 
ATOM     59  C   UNL A   1      36.088  29.877  28.862  1.00  0.00     0.000 A 
ENDBRANCH  40  54
BRANCH  41  60
ATOM     60  C   UNL A   1      48.419  26.591  29.577  1.00  0.00    -0.014 A 
ATOM     61  C   UNL A   1      48.900  25.997  30.754  1.00  0.00     0.009 A 
ATOM     62  C   UNL A   1      49.303  26.796  28.508  1.00  0.00     0.009 A 
ATOM     63  C   UNL A   1      50.242  25.631  30.864  1.00  0.00     0.001 A 
ATOM     64  C   UNL A   1      50.641  26.407  28.612  1.00  0.00     0.001 A 
ATOM     65  C   UNL A   1      51.111  25.832  29.792  1.00  0.00     0.000 A 
ENDBRANCH  41  60
BRANCH  53  66
ATOM     66  C   UNL A   1      44.912  32.346  31.303  1.00  0.00    -0.014 A 
ATOM     67  C   UNL A   1      44.978  32.504  32.695  1.00  0.00     0.009 A 
ATOM     68  C   UNL A   1      45.291  33.415  30.476  1.00  0.00     0.009 A 
ATOM     69  C   UNL A   1      45.385  33.720  33.247  1.00  0.00     0.001 A 
ATOM     70  C   UNL A   1      45.723  34.621  31.031  1.00  0.00     0.001 A 
ATOM     71  C   UNL A   1      45.761  34.775  32.415  1.00  0.00     0.000 A 
ENDBRANCH  53  66
ENDBRANCH  27  28
ENDBRANCH  19  22
ENDBRANCH  17  18
ENDBRANCH  16  17
ENDBRANCH   1  16
TORSDOF 13
ENDMDL
