MODEL 1
REMARK VINA RESULT:     -12.3      0.000      0.000
REMARK SMILES O=C(NCCCNC(=O)[C@H]1CC=CC[C@@H]1C(=O)N[C@@H]1CCCN(c2ccccc2F)C1=O)c1ccc(-c2c3nc(c(-c4ccccc4)c4ccc([nH]4)c(-c4ccccc4)c4nc(c(-c5ccccc5)c5ccc2[nH]5)C=C4)C=C3)cc1
REMARK SMILES IDX 5 1 4 2 3 3 1 4 2 5 33 7 34 8 80 9 35 10 79 11 36 12 37 13
REMARK SMILES IDX 38 14 73 15 39 16 78 17 72 18 74 19 40 20 77 21 71 22 70 23
REMARK SMILES IDX 41 25 63 26 48 27 62 28 49 29 52 30 61 31 75 32 50 33 51 34
REMARK SMILES IDX 60 36 76 37 53 38 42 39 43 40 47 41 44 42 46 43 45 44 64 45
REMARK SMILES IDX 65 46 69 47 66 48 68 49 67 50 54 51 55 52 59 53 56 54 58 55
REMARK SMILES IDX 57 56 6 57 7 58 8 59 9 61 10 62 11 63 15 64 12 65 14 66
REMARK SMILES IDX 13 67 16 68 17 69 18 70 19 72 20 73 31 74 21 75 23 76 32 77
REMARK SMILES IDX 22 78 24 79 25 80 29 81 26 82 28 83 30 84 27 85
REMARK H PARENT 3 6 74 24 52 35 7 60 18 71
REMARK Flexibility Score: inf
ROOT
ATOM      1  C   UNL A   1      37.710  19.602  24.780  1.00  0.00     0.042 C 
ENDROOT
BRANCH   1   2
ATOM      2  C   UNL A   1      38.823  20.125  25.680  1.00  0.00     0.118 C 
BRANCH   2   3
ATOM      3  N   UNL A   1      39.967  19.229  25.757  1.00  0.00    -0.352 N 
ATOM      4  O   UNL A   1      42.124  18.606  25.948  1.00  0.00    -0.269 OA
ATOM      5  C   UNL A   1      41.273  19.482  26.097  1.00  0.00     0.251 C 
ATOM      6  H   UNL A   1      39.775  18.291  25.528  1.00  0.00     0.163 HD
BRANCH   5   7
ATOM      7  C   UNL A   1      41.676  20.805  26.619  1.00  0.00     0.039 A 
ATOM      8  C   UNL A   1      41.719  21.064  27.991  1.00  0.00     0.014 A 
ATOM      9  C   UNL A   1      42.064  21.796  25.712  1.00  0.00     0.014 A 
ATOM     10  C   UNL A   1      42.012  22.346  28.450  1.00  0.00     0.010 A 
ATOM     11  C   UNL A   1      42.441  23.057  26.178  1.00  0.00     0.010 A 
ATOM     12  C   UNL A   1      42.390  23.352  27.549  1.00  0.00    -0.014 A 
BRANCH  12  13
ATOM     13  C   UNL A   1      42.796  24.689  28.048  1.00  0.00     0.031 A 
ATOM     14  C   UNL A   1      41.772  25.751  28.330  1.00  0.00     0.074 A 
ATOM     15  C   UNL A   1      44.106  24.957  28.207  1.00  0.00     0.049 A 
ATOM     16  N   UNL A   1      41.954  26.996  28.695  1.00  0.00    -0.248 NA
ATOM     17  C   UNL A   1      40.361  25.368  28.175  1.00  0.00     0.031 C 
ATOM     18  C   UNL A   1      45.196  24.011  27.961  1.00  0.00     0.029 A 
ATOM     19  N   UNL A   1      44.743  26.108  28.597  1.00  0.00    -0.354 N 
ATOM     20  C   UNL A   1      40.686  27.553  28.785  1.00  0.00     0.074 A 
ATOM     21  C   UNL A   1      39.744  26.517  28.414  1.00  0.00     0.031 C 
ATOM     22  C   UNL A   1      46.365  24.615  28.213  1.00  0.00     0.029 A 
ATOM     23  C   UNL A   1      46.112  26.006  28.573  1.00  0.00     0.049 A 
ATOM     24  H   UNL A   1      44.267  26.925  28.869  1.00  0.00     0.167 HD
ATOM     25  C   UNL A   1      40.338  28.814  29.139  1.00  0.00     0.031 A 
ATOM     26  C   UNL A   1      47.065  26.934  28.773  1.00  0.00     0.031 A 
ATOM     27  C   UNL A   1      41.282  29.845  29.488  1.00  0.00     0.049 A 
ATOM     28  C   UNL A   1      46.662  28.338  29.113  1.00  0.00     0.074 A 
ATOM     29  C   UNL A   1      41.030  31.140  29.904  1.00  0.00     0.029 A 
ATOM     30  N   UNL A   1      42.661  29.703  29.441  1.00  0.00    -0.354 N 
ATOM     31  N   UNL A   1      45.457  28.838  29.247  1.00  0.00    -0.248 NA
ATOM     32  C   UNL A   1      47.745  29.305  29.336  1.00  0.00     0.031 C 
ATOM     33  C   UNL A   1      42.253  31.802  30.041  1.00  0.00     0.029 A 
ATOM     34  C   UNL A   1      43.272  30.898  29.784  1.00  0.00     0.049 A 
ATOM     35  H   UNL A   1      43.136  28.874  29.200  1.00  0.00     0.167 HD
ATOM     36  C   UNL A   1      45.636  30.171  29.593  1.00  0.00     0.074 A 
ATOM     37  C   UNL A   1      47.066  30.398  29.656  1.00  0.00     0.031 C 
ATOM     38  C   UNL A   1      44.697  31.114  29.842  1.00  0.00     0.031 A 
BRANCH  25  39
ATOM     39  C   UNL A   1      38.873  29.161  29.115  1.00  0.00    -0.014 A 
ATOM     40  C   UNL A   1      38.071  29.060  30.262  1.00  0.00     0.009 A 
ATOM     41  C   UNL A   1      38.288  29.611  27.920  1.00  0.00     0.009 A 
ATOM     42  C   UNL A   1      36.705  29.348  30.201  1.00  0.00     0.001 A 
ATOM     43  C   UNL A   1      36.930  29.931  27.868  1.00  0.00     0.001 A 
ATOM     44  C   UNL A   1      36.137  29.785  29.004  1.00  0.00     0.000 A 
ENDBRANCH  25  39
BRANCH  26  45
ATOM     45  C   UNL A   1      48.492  26.549  28.623  1.00  0.00    -0.014 A 
ATOM     46  C   UNL A   1      49.217  26.044  29.710  1.00  0.00     0.009 A 
ATOM     47  C   UNL A   1      49.117  26.630  27.367  1.00  0.00     0.009 A 
ATOM     48  C   UNL A   1      50.543  25.635  29.544  1.00  0.00     0.001 A 
ATOM     49  C   UNL A   1      50.430  26.191  27.197  1.00  0.00     0.001 A 
ATOM     50  C   UNL A   1      51.145  25.699  28.287  1.00  0.00     0.000 A 
ENDBRANCH  26  45
BRANCH  38  51
ATOM     51  C   UNL A   1      45.175  32.480  30.251  1.00  0.00    -0.014 A 
ATOM     52  C   UNL A   1      45.353  33.506  29.312  1.00  0.00     0.009 A 
ATOM     53  C   UNL A   1      45.373  32.761  31.614  1.00  0.00     0.009 A 
ATOM     54  C   UNL A   1      45.737  34.783  29.728  1.00  0.00     0.001 A 
ATOM     55  C   UNL A   1      45.728  34.044  32.028  1.00  0.00     0.001 A 
ATOM     56  C   UNL A   1      45.914  35.053  31.086  1.00  0.00     0.000 A 
ENDBRANCH  38  51
ENDBRANCH  12  13
ENDBRANCH   5   7
ENDBRANCH   2   3
ENDBRANCH   1   2
BRANCH   1  57
ATOM     57  C   UNL A   1      36.346  20.235  25.012  1.00  0.00     0.117 C 
BRANCH  57  58
ATOM     58  N   UNL A   1      36.286  21.621  24.582  1.00  0.00    -0.356 N 
ATOM     59  C   UNL A   1      35.224  22.475  24.498  1.00  0.00     0.224 C 
ATOM     60  H   UNL A   1      37.150  22.006  24.308  1.00  0.00     0.163 HD
ATOM     61  O   UNL A   1      35.463  23.617  24.102  1.00  0.00    -0.275 OA
BRANCH  59  62
ATOM     62  C   UNL A   1      33.822  22.005  24.891  1.00  0.00     0.095 C 
ATOM     63  C   UNL A   1      33.863  20.986  26.043  1.00  0.00     0.041 C 
ATOM     64  C   UNL A   1      32.910  23.223  25.206  1.00  0.00     0.095 C 
ATOM     65  C   UNL A   1      33.918  21.589  27.408  1.00  0.00    -0.030 C 
ATOM     66  C   UNL A   1      33.187  23.836  26.592  1.00  0.00     0.041 C 
ATOM     67  C   UNL A   1      33.632  22.873  27.650  1.00  0.00    -0.030 C 
BRANCH  64  68
ATOM     68  C   UNL A   1      31.447  22.805  25.071  1.00  0.00     0.224 C 
ATOM     69  O   UNL A   1      31.009  21.785  25.608  1.00  0.00    -0.275 OA
ATOM     70  N   UNL A   1      30.565  23.512  24.308  1.00  0.00    -0.344 N 
ATOM     71  H   UNL A   1      29.695  23.067  24.184  1.00  0.00     0.164 HD
BRANCH  70  72
ATOM     72  C   UNL A   1      30.675  24.816  23.639  1.00  0.00     0.172 C 
ATOM     73  C   UNL A   1      31.774  24.747  22.574  1.00  0.00     0.037 C 
ATOM     74  C   UNL A   1      30.889  25.951  24.660  1.00  0.00     0.249 C 
ATOM     75  C   UNL A   1      32.137  26.131  22.064  1.00  0.00     0.025 C 
ATOM     76  N   UNL A   1      31.800  26.958  24.373  1.00  0.00    -0.308 N 
ATOM     77  O   UNL A   1      30.168  26.019  25.661  1.00  0.00    -0.272 OA
ATOM     78  C   UNL A   1      32.679  26.966  23.213  1.00  0.00     0.126 C 
BRANCH  76  79
ATOM     79  C   UNL A   1      32.008  27.944  25.383  1.00  0.00     0.080 A 
ATOM     80  C   UNL A   1      32.943  27.716  26.395  1.00  0.00     0.029 A 
ATOM     81  C   UNL A   1      31.432  29.221  25.261  1.00  0.00     0.146 A 
ATOM     82  C   UNL A   1      33.339  28.774  27.222  1.00  0.00     0.002 A 
ATOM     83  C   UNL A   1      31.811  30.265  26.095  1.00  0.00     0.041 A 
ATOM     84  F   UNL A   1      30.492  29.454  24.330  1.00  0.00    -0.205 F 
ATOM     85  C   UNL A   1      32.786  30.047  27.063  1.00  0.00     0.003 A 
ENDBRANCH  76  79
ENDBRANCH  70  72
ENDBRANCH  64  68
ENDBRANCH  59  62
ENDBRANCH  57  58
ENDBRANCH   1  57
TORSDOF 13
ENDMDL
MODEL 2
REMARK VINA RESULT:     -12.3      2.440      7.074
REMARK SMILES O=C(NCCCNC(=O)[C@H]1CC=CC[C@@H]1C(=O)N[C@@H]1CCCN(c2ccccc2F)C1=O)c1ccc(-c2c3nc(c(-c4ccccc4)c4ccc([nH]4)c(-c4ccccc4)c4nc(c(-c5ccccc5)c5ccc2[nH]5)C=C4)C=C3)cc1
REMARK SMILES IDX 5 1 4 2 3 3 1 4 2 5 33 7 34 8 80 9 35 10 79 11 36 12 37 13
REMARK SMILES IDX 38 14 73 15 39 16 78 17 72 18 74 19 40 20 77 21 71 22 70 23
REMARK SMILES IDX 41 25 63 26 48 27 62 28 49 29 52 30 61 31 75 32 50 33 51 34
REMARK SMILES IDX 60 36 76 37 53 38 42 39 43 40 47 41 44 42 46 43 45 44 64 45
REMARK SMILES IDX 65 46 69 47 66 48 68 49 67 50 54 51 55 52 59 53 56 54 58 55
REMARK SMILES IDX 57 56 6 57 7 58 8 59 9 61 10 62 11 63 15 64 12 65 14 66
REMARK SMILES IDX 13 67 16 68 17 69 18 70 19 72 20 73 31 74 21 75 23 76 32 77
REMARK SMILES IDX 22 78 24 79 25 80 29 81 26 82 28 83 30 84 27 85
REMARK H PARENT 3 6 74 24 52 35 7 60 18 71
REMARK Flexibility Score: inf
ROOT
ATOM      1  C   UNL A   1      32.089  27.705  27.632  1.00  0.00     0.042 C 
ENDROOT
BRANCH   1   2
ATOM      2  C   UNL A   1      33.409  28.375  27.272  1.00  0.00     0.118 C 
BRANCH   2   3
ATOM      3  N   UNL A   1      33.375  29.823  27.412  1.00  0.00    -0.352 N 
ATOM      4  O   UNL A   1      34.021  31.873  28.088  1.00  0.00    -0.269 OA
ATOM      5  C   UNL A   1      34.313  30.690  27.916  1.00  0.00     0.251 C 
ATOM      6  H   UNL A   1      32.547  30.250  27.095  1.00  0.00     0.163 HD
BRANCH   5   7
ATOM      7  C   UNL A   1      35.665  30.215  28.278  1.00  0.00     0.039 A 
ATOM      8  C   UNL A   1      35.937  29.691  29.544  1.00  0.00     0.014 A 
ATOM      9  C   UNL A   1      36.674  30.255  27.311  1.00  0.00     0.014 A 
ATOM     10  C   UNL A   1      37.240  29.339  29.888  1.00  0.00     0.010 A 
ATOM     11  C   UNL A   1      37.962  29.821  27.629  1.00  0.00     0.010 A 
ATOM     12  C   UNL A   1      38.263  29.386  28.929  1.00  0.00    -0.014 A 
BRANCH  12  13
ATOM     13  C   UNL A   1      39.629  28.918  29.269  1.00  0.00     0.031 A 
ATOM     14  C   UNL A   1      40.609  29.829  29.952  1.00  0.00     0.074 A 
ATOM     15  C   UNL A   1      39.999  27.671  28.920  1.00  0.00     0.049 A 
ATOM     16  N   UNL A   1      41.865  29.612  30.252  1.00  0.00    -0.248 NA
ATOM     17  C   UNL A   1      40.118  31.159  30.341  1.00  0.00     0.031 C 
ATOM     18  C   UNL A   1      39.139  26.694  28.250  1.00  0.00     0.029 A 
ATOM     19  N   UNL A   1      41.197  27.019  29.066  1.00  0.00    -0.354 N 
ATOM     20  C   UNL A   1      42.323  30.785  30.837  1.00  0.00     0.074 A 
ATOM     21  C   UNL A   1      41.216  31.718  30.828  1.00  0.00     0.031 C 
ATOM     22  C   UNL A   1      39.832  25.565  28.050  1.00  0.00     0.029 A 
ATOM     23  C   UNL A   1      41.201  25.761  28.516  1.00  0.00     0.049 A 
ATOM     24  H   UNL A   1      41.975  27.412  29.522  1.00  0.00     0.167 HD
ATOM     25  C   UNL A   1      43.555  31.060  31.332  1.00  0.00     0.031 A 
ATOM     26  C   UNL A   1      42.201  24.875  28.359  1.00  0.00     0.031 A 
ATOM     27  C   UNL A   1      44.657  30.132  31.318  1.00  0.00     0.049 A 
ATOM     28  C   UNL A   1      43.571  25.217  28.866  1.00  0.00     0.074 A 
ATOM     29  C   UNL A   1      45.930  30.299  31.834  1.00  0.00     0.029 A 
ATOM     30  N   UNL A   1      44.622  28.871  30.742  1.00  0.00    -0.354 N 
ATOM     31  N   UNL A   1      43.976  26.311  29.465  1.00  0.00    -0.248 NA
ATOM     32  C   UNL A   1      44.619  24.205  28.682  1.00  0.00     0.031 C 
ATOM     33  C   UNL A   1      46.685  29.168  31.508  1.00  0.00     0.029 A 
ATOM     34  C   UNL A   1      45.862  28.264  30.856  1.00  0.00     0.049 A 
ATOM     35  H   UNL A   1      43.832  28.466  30.314  1.00  0.00     0.167 HD
ATOM     36  C   UNL A   1      45.320  26.110  29.752  1.00  0.00     0.074 A 
ATOM     37  C   UNL A   1      45.658  24.787  29.267  1.00  0.00     0.031 C 
ATOM     38  C   UNL A   1      46.188  26.947  30.368  1.00  0.00     0.031 A 
BRANCH  25  39
ATOM     39  C   UNL A   1      43.786  32.443  31.881  1.00  0.00    -0.014 A 
ATOM     40  C   UNL A   1      44.185  33.507  31.058  1.00  0.00     0.009 A 
ATOM     41  C   UNL A   1      43.587  32.686  33.250  1.00  0.00     0.009 A 
ATOM     42  C   UNL A   1      44.434  34.770  31.602  1.00  0.00     0.001 A 
ATOM     43  C   UNL A   1      43.803  33.957  33.786  1.00  0.00     0.001 A 
ATOM     44  C   UNL A   1      44.240  34.994  32.965  1.00  0.00     0.000 A 
ENDBRANCH  25  39
BRANCH  26  45
ATOM     45  C   UNL A   1      41.927  23.591  27.662  1.00  0.00    -0.014 A 
ATOM     46  C   UNL A   1      42.211  23.441  26.298  1.00  0.00     0.009 A 
ATOM     47  C   UNL A   1      41.434  22.489  28.381  1.00  0.00     0.009 A 
ATOM     48  C   UNL A   1      42.000  22.212  25.666  1.00  0.00     0.001 A 
ATOM     49  C   UNL A   1      41.253  21.257  27.754  1.00  0.00     0.001 A 
ATOM     50  C   UNL A   1      41.531  21.120  26.396  1.00  0.00     0.000 A 
ENDBRANCH  26  45
BRANCH  38  51
ATOM     51  C   UNL A   1      47.588  26.449  30.598  1.00  0.00    -0.014 A 
ATOM     52  C   UNL A   1      47.955  25.822  31.798  1.00  0.00     0.009 A 
ATOM     53  C   UNL A   1      48.531  26.540  29.561  1.00  0.00     0.009 A 
ATOM     54  C   UNL A   1      49.245  25.312  31.960  1.00  0.00     0.001 A 
ATOM     55  C   UNL A   1      49.809  26.004  29.716  1.00  0.00     0.001 A 
ATOM     56  C   UNL A   1      50.167  25.394  30.916  1.00  0.00     0.000 A 
ENDBRANCH  38  51
ENDBRANCH  12  13
ENDBRANCH   5   7
ENDBRANCH   2   3
ENDBRANCH   1   2
BRANCH   1  57
ATOM     57  C   UNL A   1      31.599  26.671  26.628  1.00  0.00     0.117 C 
BRANCH  57  58
ATOM     58  N   UNL A   1      32.167  25.354  26.851  1.00  0.00    -0.356 N 
ATOM     59  C   UNL A   1      32.923  24.567  26.030  1.00  0.00     0.224 C 
ATOM     60  H   UNL A   1      31.978  24.966  27.736  1.00  0.00     0.163 HD
ATOM     61  O   UNL A   1      33.284  23.480  26.484  1.00  0.00    -0.275 OA
BRANCH  59  62
ATOM     62  C   UNL A   1      33.290  25.047  24.624  1.00  0.00     0.095 C 
ATOM     63  C   UNL A   1      34.782  24.830  24.318  1.00  0.00     0.041 C 
ATOM     64  C   UNL A   1      32.362  24.386  23.566  1.00  0.00     0.095 C 
ATOM     65  C   UNL A   1      35.124  23.466  23.817  1.00  0.00    -0.030 C 
ATOM     66  C   UNL A   1      32.747  22.926  23.262  1.00  0.00     0.041 C 
ATOM     67  C   UNL A   1      34.208  22.605  23.361  1.00  0.00    -0.030 C 
BRANCH  64  68
ATOM     68  C   UNL A   1      32.366  25.232  22.295  1.00  0.00     0.224 C 
ATOM     69  O   UNL A   1      32.999  24.898  21.291  1.00  0.00    -0.275 OA
ATOM     70  N   UNL A   1      31.708  26.425  22.223  1.00  0.00    -0.344 N 
ATOM     71  H   UNL A   1      31.902  26.942  21.408  1.00  0.00     0.164 HD
BRANCH  70  72
ATOM     72  C   UNL A   1      30.764  27.078  23.141  1.00  0.00     0.172 C 
ATOM     73  C   UNL A   1      29.508  26.213  23.275  1.00  0.00     0.037 C 
ATOM     74  C   UNL A   1      30.462  28.523  22.695  1.00  0.00     0.249 C 
ATOM     75  C   UNL A   1      28.385  26.971  23.963  1.00  0.00     0.025 C 
ATOM     76  N   UNL A   1      29.159  28.996  22.767  1.00  0.00    -0.308 N 
ATOM     77  O   UNL A   1      31.391  29.278  22.393  1.00  0.00    -0.272 OA
ATOM     78  C   UNL A   1      28.007  28.181  23.124  1.00  0.00     0.126 C 
BRANCH  76  79
ATOM     79  C   UNL A   1      28.925  30.315  22.276  1.00  0.00     0.080 A 
ATOM     80  C   UNL A   1      28.427  30.499  20.986  1.00  0.00     0.029 A 
ATOM     81  C   UNL A   1      29.001  31.420  23.142  1.00  0.00     0.146 A 
ATOM     82  C   UNL A   1      27.950  31.757  20.600  1.00  0.00     0.002 A 
ATOM     83  C   UNL A   1      28.547  32.674  22.753  1.00  0.00     0.041 A 
ATOM     84  F   UNL A   1      29.525  31.283  24.372  1.00  0.00    -0.205 F 
ATOM     85  C   UNL A   1      27.997  32.837  21.485  1.00  0.00     0.003 A 
ENDBRANCH  76  79
ENDBRANCH  70  72
ENDBRANCH  64  68
ENDBRANCH  59  62
ENDBRANCH  57  58
ENDBRANCH   1  57
TORSDOF 13
ENDMDL
MODEL 3
REMARK VINA RESULT:     -12.2      4.016      9.277
REMARK SMILES O=C(NCCCNC(=O)[C@H]1CC=CC[C@@H]1C(=O)N[C@@H]1CCCN(c2ccccc2F)C1=O)c1ccc(-c2c3nc(c(-c4ccccc4)c4ccc([nH]4)c(-c4ccccc4)c4nc(c(-c5ccccc5)c5ccc2[nH]5)C=C4)C=C3)cc1
REMARK SMILES IDX 5 1 4 2 3 3 1 4 2 5 33 7 34 8 80 9 35 10 79 11 36 12 37 13
REMARK SMILES IDX 38 14 73 15 39 16 78 17 72 18 74 19 40 20 77 21 71 22 70 23
REMARK SMILES IDX 41 25 63 26 48 27 62 28 49 29 52 30 61 31 75 32 50 33 51 34
REMARK SMILES IDX 60 36 76 37 53 38 42 39 43 40 47 41 44 42 46 43 45 44 64 45
REMARK SMILES IDX 65 46 69 47 66 48 68 49 67 50 54 51 55 52 59 53 56 54 58 55
REMARK SMILES IDX 57 56 6 57 7 58 8 59 9 61 10 62 11 63 15 64 12 65 14 66
REMARK SMILES IDX 13 67 16 68 17 69 18 70 19 72 20 73 31 74 21 75 23 76 32 77
REMARK SMILES IDX 22 78 24 79 25 80 29 81 26 82 28 83 30 84 27 85
REMARK H PARENT 3 6 74 24 52 35 7 60 18 71
REMARK Flexibility Score: inf
ROOT
ATOM      1  C   UNL A   1      31.135  31.804  26.481  1.00  0.00     0.042 C 
ENDROOT
BRANCH   1   2
ATOM      2  C   UNL A   1      32.440  32.471  26.896  1.00  0.00     0.118 C 
BRANCH   2   3
ATOM      3  N   UNL A   1      32.256  33.816  27.421  1.00  0.00    -0.352 N 
ATOM      4  O   UNL A   1      32.557  35.588  28.778  1.00  0.00    -0.269 OA
ATOM      5  C   UNL A   1      32.976  34.509  28.362  1.00  0.00     0.251 C 
ATOM      6  H   UNL A   1      31.493  34.308  27.040  1.00  0.00     0.163 HD
BRANCH   5   7
ATOM      7  C   UNL A   1      34.240  33.964  28.901  1.00  0.00     0.039 A 
ATOM      8  C   UNL A   1      35.479  34.355  28.388  1.00  0.00     0.014 A 
ATOM      9  C   UNL A   1      34.183  33.072  29.976  1.00  0.00     0.014 A 
ATOM     10  C   UNL A   1      36.647  33.755  28.851  1.00  0.00     0.010 A 
ATOM     11  C   UNL A   1      35.362  32.535  30.499  1.00  0.00     0.010 A 
ATOM     12  C   UNL A   1      36.602  32.850  29.922  1.00  0.00    -0.014 A 
BRANCH  12  13
ATOM     13  C   UNL A   1      37.856  32.286  30.478  1.00  0.00     0.031 A 
ATOM     14  C   UNL A   1      38.472  31.048  29.894  1.00  0.00     0.074 A 
ATOM     15  C   UNL A   1      38.420  32.878  31.549  1.00  0.00     0.049 A 
ATOM     16  N   UNL A   1      39.519  30.375  30.302  1.00  0.00    -0.248 NA
ATOM     17  C   UNL A   1      37.823  30.485  28.699  1.00  0.00     0.031 C 
ATOM     18  C   UNL A   1      37.915  34.082  32.209  1.00  0.00     0.029 A 
ATOM     19  N   UNL A   1      39.531  32.537  32.278  1.00  0.00    -0.354 N 
ATOM     20  C   UNL A   1      39.638  29.296  29.436  1.00  0.00     0.074 A 
ATOM     21  C   UNL A   1      38.542  29.392  28.494  1.00  0.00     0.031 C 
ATOM     22  C   UNL A   1      38.716  34.385  33.240  1.00  0.00     0.029 A 
ATOM     23  C   UNL A   1      39.749  33.362  33.353  1.00  0.00     0.049 A 
ATOM     24  H   UNL A   1      40.115  31.777  32.052  1.00  0.00     0.167 HD
ATOM     25  C   UNL A   1      40.572  28.314  29.430  1.00  0.00     0.031 A 
ATOM     26  C   UNL A   1      40.651  33.286  34.349  1.00  0.00     0.031 A 
ATOM     27  C   UNL A   1      41.647  28.216  30.384  1.00  0.00     0.049 A 
ATOM     28  C   UNL A   1      41.644  32.162  34.355  1.00  0.00     0.074 A 
ATOM     29  C   UNL A   1      42.670  27.285  30.436  1.00  0.00     0.029 A 
ATOM     30  N   UNL A   1      41.827  29.067  31.463  1.00  0.00    -0.354 N 
ATOM     31  N   UNL A   1      41.778  31.178  33.499  1.00  0.00    -0.248 NA
ATOM     32  C   UNL A   1      42.614  32.139  35.458  1.00  0.00     0.031 C 
ATOM     33  C   UNL A   1      43.426  27.531  31.586  1.00  0.00     0.029 A 
ATOM     34  C   UNL A   1      42.921  28.661  32.210  1.00  0.00     0.049 A 
ATOM     35  H   UNL A   1      41.260  29.846  31.670  1.00  0.00     0.167 HD
ATOM     36  C   UNL A   1      42.861  30.433  33.945  1.00  0.00     0.074 A 
ATOM     37  C   UNL A   1      43.352  31.083  35.144  1.00  0.00     0.031 C 
ATOM     38  C   UNL A   1      43.400  29.315  33.402  1.00  0.00     0.031 A 
BRANCH  25  39
ATOM     39  C   UNL A   1      40.436  27.237  28.386  1.00  0.00    -0.014 A 
ATOM     40  C   UNL A   1      41.065  27.337  27.136  1.00  0.00     0.009 A 
ATOM     41  C   UNL A   1      39.673  26.092  28.668  1.00  0.00     0.009 A 
ATOM     42  C   UNL A   1      40.888  26.341  26.171  1.00  0.00     0.001 A 
ATOM     43  C   UNL A   1      39.525  25.082  27.716  1.00  0.00     0.001 A 
ATOM     44  C   UNL A   1      40.120  25.215  26.463  1.00  0.00     0.000 A 
ENDBRANCH  25  39
BRANCH  26  45
ATOM     45  C   UNL A   1      40.618  34.303  35.432  1.00  0.00    -0.014 A 
ATOM     46  C   UNL A   1      41.362  35.486  35.328  1.00  0.00     0.009 A 
ATOM     47  C   UNL A   1      39.790  34.115  36.552  1.00  0.00     0.009 A 
ATOM     48  C   UNL A   1      41.281  36.459  36.328  1.00  0.00     0.001 A 
ATOM     49  C   UNL A   1      39.689  35.101  37.533  1.00  0.00     0.001 A 
ATOM     50  C   UNL A   1      40.438  36.271  37.423  1.00  0.00     0.000 A 
ENDBRANCH  26  45
BRANCH  38  51
ATOM     51  C   UNL A   1      44.616  28.735  34.070  1.00  0.00    -0.014 A 
ATOM     52  C   UNL A   1      44.510  27.727  35.040  1.00  0.00     0.009 A 
ATOM     53  C   UNL A   1      45.893  29.155  33.660  1.00  0.00     0.009 A 
ATOM     54  C   UNL A   1      45.660  27.162  35.597  1.00  0.00     0.001 A 
ATOM     55  C   UNL A   1      47.038  28.568  34.198  1.00  0.00     0.001 A 
ATOM     56  C   UNL A   1      46.921  27.576  35.168  1.00  0.00     0.000 A 
ENDBRANCH  38  51
ENDBRANCH  12  13
ENDBRANCH   5   7
ENDBRANCH   2   3
ENDBRANCH   1   2
BRANCH   1  57
ATOM     57  C   UNL A   1      31.290  30.622  25.535  1.00  0.00     0.117 C 
BRANCH  57  58
ATOM     58  N   UNL A   1      31.769  29.425  26.202  1.00  0.00    -0.356 N 
ATOM     59  C   UNL A   1      31.918  28.151  25.733  1.00  0.00     0.224 C 
ATOM     60  H   UNL A   1      32.028  29.552  27.144  1.00  0.00     0.163 HD
ATOM     61  O   UNL A   1      32.361  27.317  26.526  1.00  0.00    -0.275 OA
BRANCH  59  62
ATOM     62  C   UNL A   1      31.550  27.813  24.287  1.00  0.00     0.095 C 
ATOM     63  C   UNL A   1      31.867  28.975  23.330  1.00  0.00     0.041 C 
ATOM     64  C   UNL A   1      32.224  26.482  23.852  1.00  0.00     0.095 C 
ATOM     65  C   UNL A   1      33.278  29.012  22.840  1.00  0.00    -0.030 C 
ATOM     66  C   UNL A   1      33.720  26.648  23.524  1.00  0.00     0.041 C 
ATOM     67  C   UNL A   1      34.114  27.974  22.945  1.00  0.00    -0.030 C 
BRANCH  64  68
ATOM     68  C   UNL A   1      31.462  25.895  22.666  1.00  0.00     0.224 C 
ATOM     69  O   UNL A   1      31.141  26.581  21.694  1.00  0.00    -0.275 OA
ATOM     70  N   UNL A   1      31.054  24.594  22.647  1.00  0.00    -0.344 N 
ATOM     71  H   UNL A   1      30.451  24.372  21.899  1.00  0.00     0.164 HD
BRANCH  70  72
ATOM     72  C   UNL A   1      31.351  23.461  23.537  1.00  0.00     0.172 C 
ATOM     73  C   UNL A   1      30.741  23.729  24.916  1.00  0.00     0.037 C 
ATOM     74  C   UNL A   1      32.864  23.172  23.586  1.00  0.00     0.249 C 
ATOM     75  C   UNL A   1      31.265  22.748  25.951  1.00  0.00     0.025 C 
ATOM     76  N   UNL A   1      33.455  22.865  24.804  1.00  0.00    -0.308 N 
ATOM     77  O   UNL A   1      33.509  23.099  22.535  1.00  0.00    -0.272 OA
ATOM     78  C   UNL A   1      32.770  22.914  26.086  1.00  0.00     0.126 C 
BRANCH  76  79
ATOM     79  C   UNL A   1      34.870  22.675  24.802  1.00  0.00     0.080 A 
ATOM     80  C   UNL A   1      35.717  23.760  25.031  1.00  0.00     0.029 A 
ATOM     81  C   UNL A   1      35.413  21.379  24.772  1.00  0.00     0.146 A 
ATOM     82  C   UNL A   1      37.074  23.536  25.293  1.00  0.00     0.002 A 
ATOM     83  C   UNL A   1      36.763  21.157  25.012  1.00  0.00     0.041 A 
ATOM     84  F   UNL A   1      34.630  20.321  24.503  1.00  0.00    -0.205 F 
ATOM     85  C   UNL A   1      37.592  22.238  25.297  1.00  0.00     0.003 A 
ENDBRANCH  76  79
ENDBRANCH  70  72
ENDBRANCH  64  68
ENDBRANCH  59  62
ENDBRANCH  57  58
ENDBRANCH   1  57
TORSDOF 13
ENDMDL
