MODEL 1
REMARK VINA RESULT:      -9.1      0.000      0.000
REMARK SMILES CC/C=C/C/C=C/C/C=C/C/C=C/CCSCCCC(=O)NCCCNC(=O)c1ccc(-c2c3nc(c(-c4ccccc4)c4ccc([nH]4)c(-c4ccccc4)c4nc(c(-c5ccccc5)c5ccc2[nH]5)C=C4)C=C3)cc1
REMARK SMILES IDX 17 1 16 2 15 3 14 4 13 5 12 6 11 7 10 8 9 9 8 10 7 11 6 12
REMARK SMILES IDX 5 13 4 14 3 15 2 16 1 17 18 18 19 19 20 20 21 21 22 22 23 24
REMARK SMILES IDX 24 25 25 26 26 27 27 28 28 30 29 31 30 32 76 33 31 34 75 35
REMARK SMILES IDX 32 36 33 37 34 38 69 39 35 40 74 41 68 42 70 43 36 44 73 45
REMARK SMILES IDX 67 46 66 47 37 49 59 50 44 51 58 52 45 53 48 54 57 55 71 56
REMARK SMILES IDX 46 57 47 58 56 60 72 61 49 62 38 63 39 64 43 65 40 66 42 67
REMARK SMILES IDX 41 68 60 69 61 70 65 71 62 72 64 73 63 74 50 75 51 76 55 77
REMARK SMILES IDX 52 78 54 79 53 80
REMARK H PARENT 22 23 26 29 70 48 48 59
REMARK Flexibility Score: inf
ROOT
ATOM      1  C   UNL A   1      33.578  28.161  24.180  1.00  0.00     0.070 C 
ENDROOT
BRANCH   1   2
ATOM      2  S   UNL A   1      32.409  27.949  22.761  1.00  0.00    -0.162 SA
BRANCH   2   3
ATOM      3  C   UNL A   1      30.733  28.594  23.186  1.00  0.00     0.073 C 
BRANCH   3   4
ATOM      4  C   UNL A   1      29.689  27.612  23.793  1.00  0.00     0.038 C 
BRANCH   4   5
ATOM      5  C   UNL A   1      30.224  26.258  24.194  1.00  0.00    -0.030 C 
ATOM      6  C   UNL A   1      30.281  25.747  25.438  1.00  0.00    -0.027 C 
BRANCH   6   7
ATOM      7  C   UNL A   1      30.487  24.276  25.750  1.00  0.00     0.054 C 
BRANCH   7   8
ATOM      8  C   UNL A   1      31.171  23.457  24.690  1.00  0.00    -0.027 C 
ATOM      9  C   UNL A   1      32.458  23.638  24.348  1.00  0.00    -0.027 C 
BRANCH   9  10
ATOM     10  C   UNL A   1      33.158  22.892  23.247  1.00  0.00     0.054 C 
BRANCH  10  11
ATOM     11  C   UNL A   1      34.599  22.723  23.630  1.00  0.00    -0.027 C 
ATOM     12  C   UNL A   1      35.214  23.407  24.607  1.00  0.00    -0.027 C 
BRANCH  12  13
ATOM     13  C   UNL A   1      36.700  23.374  24.825  1.00  0.00     0.054 C 
BRANCH  13  14
ATOM     14  C   UNL A   1      37.230  22.030  24.416  1.00  0.00    -0.027 C 
ATOM     15  C   UNL A   1      37.186  20.934  25.190  1.00  0.00    -0.031 C 
BRANCH  15  16
ATOM     16  C   UNL A   1      37.813  19.624  24.811  1.00  0.00     0.023 C 
ATOM     17  C   UNL A   1      39.155  19.453  25.507  1.00  0.00     0.008 C 
ENDBRANCH  15  16
ENDBRANCH  13  14
ENDBRANCH  12  13
ENDBRANCH  10  11
ENDBRANCH   9  10
ENDBRANCH   7   8
ENDBRANCH   6   7
ENDBRANCH   4   5
ENDBRANCH   3   4
ENDBRANCH   2   3
ENDBRANCH   1   2
BRANCH   1  18
ATOM     18  C   UNL A   1      33.634  27.347  25.472  1.00  0.00     0.021 C 
BRANCH  18  19
ATOM     19  C   UNL A   1      33.437  28.026  26.812  1.00  0.00     0.101 C 
BRANCH  19  20
ATOM     20  C   UNL A   1      32.034  28.417  27.249  1.00  0.00     0.220 C 
ATOM     21  O   UNL A   1      31.411  27.697  28.034  1.00  0.00    -0.275 OA
ATOM     22  N   UNL A   1      31.432  29.574  26.877  1.00  0.00    -0.356 N 
ATOM     23  H   UNL A   1      30.482  29.636  27.129  1.00  0.00     0.163 HD
BRANCH  22  24
ATOM     24  C   UNL A   1      31.938  30.733  26.178  1.00  0.00     0.117 C 
BRANCH  24  25
ATOM     25  C   UNL A   1      31.516  32.039  26.823  1.00  0.00     0.042 C 
BRANCH  25  26
ATOM     26  C   UNL A   1      32.731  32.846  27.236  1.00  0.00     0.118 C 
BRANCH  26  27
ATOM     27  N   UNL A   1      32.402  34.208  27.651  1.00  0.00    -0.352 N 
ATOM     28  C   UNL A   1      33.021  34.969  28.622  1.00  0.00     0.251 C 
ATOM     29  H   UNL A   1      31.648  34.633  27.181  1.00  0.00     0.163 HD
ATOM     30  O   UNL A   1      32.574  36.051  28.962  1.00  0.00    -0.269 OA
BRANCH  28  31
ATOM     31  C   UNL A   1      34.229  34.415  29.273  1.00  0.00     0.039 A 
ATOM     32  C   UNL A   1      34.100  33.641  30.426  1.00  0.00     0.014 A 
ATOM     33  C   UNL A   1      35.476  34.586  28.669  1.00  0.00     0.014 A 
ATOM     34  C   UNL A   1      35.221  32.981  30.935  1.00  0.00     0.010 A 
ATOM     35  C   UNL A   1      36.549  33.819  29.090  1.00  0.00     0.010 A 
ATOM     36  C   UNL A   1      36.447  33.038  30.249  1.00  0.00    -0.014 A 
BRANCH  36  37
ATOM     37  C   UNL A   1      37.662  32.357  30.757  1.00  0.00     0.031 A 
ATOM     38  C   UNL A   1      38.315  32.861  32.020  1.00  0.00     0.074 A 
ATOM     39  C   UNL A   1      38.219  31.344  30.065  1.00  0.00     0.049 A 
ATOM     40  N   UNL A   1      39.420  32.464  32.598  1.00  0.00    -0.248 NA
ATOM     41  C   UNL A   1      37.664  33.997  32.696  1.00  0.00     0.031 C 
ATOM     42  C   UNL A   1      37.726  30.806  28.794  1.00  0.00     0.029 A 
ATOM     43  N   UNL A   1      39.327  30.583  30.338  1.00  0.00    -0.354 N 
ATOM     44  C   UNL A   1      39.606  33.322  33.675  1.00  0.00     0.074 A 
ATOM     45  C   UNL A   1      38.556  34.312  33.620  1.00  0.00     0.031 C 
ATOM     46  C   UNL A   1      38.505  29.777  28.422  1.00  0.00     0.029 A 
ATOM     47  C   UNL A   1      39.567  29.603  29.406  1.00  0.00     0.049 A 
ATOM     48  H   UNL A   1      39.896  30.727  31.128  1.00  0.00     0.167 HD
ATOM     49  C   UNL A   1      40.538  33.270  34.655  1.00  0.00     0.031 A 
ATOM     50  C   UNL A   1      40.530  28.663  29.361  1.00  0.00     0.031 A 
ATOM     51  C   UNL A   1      41.556  32.262  34.732  1.00  0.00     0.049 A 
ATOM     52  C   UNL A   1      41.532  28.593  30.481  1.00  0.00     0.074 A 
ATOM     53  C   UNL A   1      42.519  32.077  35.707  1.00  0.00     0.029 A 
ATOM     54  N   UNL A   1      41.733  31.255  33.795  1.00  0.00    -0.354 N 
ATOM     55  N   UNL A   1      41.655  29.371  31.531  1.00  0.00    -0.248 NA
ATOM     56  C   UNL A   1      42.510  27.498  30.424  1.00  0.00     0.031 C 
ATOM     57  C   UNL A   1      43.302  30.977  35.340  1.00  0.00     0.029 A 
ATOM     58  C   UNL A   1      42.790  30.446  34.166  1.00  0.00     0.049 A 
ATOM     59  H   UNL A   1      41.186  31.135  32.984  1.00  0.00     0.167 HD
ATOM     60  C   UNL A   1      42.701  28.840  32.276  1.00  0.00     0.074 A 
ATOM     61  C   UNL A   1      43.165  27.665  31.564  1.00  0.00     0.031 C 
ATOM     62  C   UNL A   1      43.229  29.280  33.444  1.00  0.00     0.031 A 
BRANCH  49  63
ATOM     63  C   UNL A   1      40.471  34.331  35.720  1.00  0.00    -0.014 A 
ATOM     64  C   UNL A   1      39.712  34.144  36.887  1.00  0.00     0.009 A 
ATOM     65  C   UNL A   1      41.163  35.539  35.550  1.00  0.00     0.009 A 
ATOM     66  C   UNL A   1      39.599  35.164  37.833  1.00  0.00     0.001 A 
ATOM     67  C   UNL A   1      41.079  36.544  36.516  1.00  0.00     0.001 A 
ATOM     68  C   UNL A   1      40.287  36.363  37.648  1.00  0.00     0.000 A 
ENDBRANCH  49  63
BRANCH  50  69
ATOM     69  C   UNL A   1      40.562  27.682  28.244  1.00  0.00    -0.014 A 
ATOM     70  C   UNL A   1      39.957  26.423  28.384  1.00  0.00     0.009 A 
ATOM     71  C   UNL A   1      41.193  27.999  27.031  1.00  0.00     0.009 A 
ATOM     72  C   UNL A   1      40.008  25.491  27.344  1.00  0.00     0.001 A 
ATOM     73  C   UNL A   1      41.217  27.076  25.983  1.00  0.00     0.001 A 
ATOM     74  C   UNL A   1      40.634  25.820  26.143  1.00  0.00     0.000 A 
ENDBRANCH  50  69
BRANCH  62  75
ATOM     75  C   UNL A   1      44.332  28.459  34.051  1.00  0.00    -0.014 A 
ATOM     76  C   UNL A   1      45.682  28.750  33.808  1.00  0.00     0.009 A 
ATOM     77  C   UNL A   1      44.006  27.397  34.911  1.00  0.00     0.009 A 
ATOM     78  C   UNL A   1      46.685  27.967  34.383  1.00  0.00     0.001 A 
ATOM     79  C   UNL A   1      45.010  26.637  35.509  1.00  0.00     0.001 A 
ATOM     80  C   UNL A   1      46.349  26.916  35.235  1.00  0.00     0.000 A 
ENDBRANCH  62  75
ENDBRANCH  36  37
ENDBRANCH  28  31
ENDBRANCH  26  27
ENDBRANCH  25  26
ENDBRANCH  24  25
ENDBRANCH  22  24
ENDBRANCH  19  20
ENDBRANCH  18  19
ENDBRANCH   1  18
TORSDOF 23
ENDMDL
MODEL 2
REMARK VINA RESULT:      -9.0      4.035      9.848
REMARK SMILES CC/C=C/C/C=C/C/C=C/C/C=C/CCSCCCC(=O)NCCCNC(=O)c1ccc(-c2c3nc(c(-c4ccccc4)c4ccc([nH]4)c(-c4ccccc4)c4nc(c(-c5ccccc5)c5ccc2[nH]5)C=C4)C=C3)cc1
REMARK SMILES IDX 17 1 16 2 15 3 14 4 13 5 12 6 11 7 10 8 9 9 8 10 7 11 6 12
REMARK SMILES IDX 5 13 4 14 3 15 2 16 1 17 18 18 19 19 20 20 21 21 22 22 23 24
REMARK SMILES IDX 24 25 25 26 26 27 27 28 28 30 29 31 30 32 76 33 31 34 75 35
REMARK SMILES IDX 32 36 33 37 34 38 69 39 35 40 74 41 68 42 70 43 36 44 73 45
REMARK SMILES IDX 67 46 66 47 37 49 59 50 44 51 58 52 45 53 48 54 57 55 71 56
REMARK SMILES IDX 46 57 47 58 56 60 72 61 49 62 38 63 39 64 43 65 40 66 42 67
REMARK SMILES IDX 41 68 60 69 61 70 65 71 62 72 64 73 63 74 50 75 51 76 55 77
REMARK SMILES IDX 52 78 54 79 53 80
REMARK H PARENT 22 23 26 29 70 48 48 59
REMARK Flexibility Score: inf
ROOT
ATOM      1  C   UNL A   1      33.977  25.607  23.793  1.00  0.00     0.070 C 
ENDROOT
BRANCH   1   2
ATOM      2  S   UNL A   1      32.890  25.741  22.302  1.00  0.00    -0.162 SA
BRANCH   2   3
ATOM      3  C   UNL A   1      31.164  26.184  22.783  1.00  0.00     0.073 C 
BRANCH   3   4
ATOM      4  C   UNL A   1      30.718  25.950  24.255  1.00  0.00     0.038 C 
BRANCH   4   5
ATOM      5  C   UNL A   1      31.015  27.080  25.213  1.00  0.00    -0.030 C 
ATOM      6  C   UNL A   1      31.218  26.982  26.540  1.00  0.00    -0.027 C 
BRANCH   6   7
ATOM      7  C   UNL A   1      31.855  28.067  27.390  1.00  0.00     0.054 C 
BRANCH   7   8
ATOM      8  C   UNL A   1      31.734  29.475  26.878  1.00  0.00    -0.027 C 
ATOM      9  C   UNL A   1      32.620  30.439  27.183  1.00  0.00    -0.027 C 
BRANCH   9  10
ATOM     10  C   UNL A   1      32.497  31.874  26.753  1.00  0.00     0.054 C 
BRANCH  10  11
ATOM     11  C   UNL A   1      32.949  32.749  27.885  1.00  0.00    -0.027 C 
ATOM     12  C   UNL A   1      34.211  32.826  28.334  1.00  0.00    -0.027 C 
BRANCH  12  13
ATOM     13  C   UNL A   1      34.594  33.541  29.598  1.00  0.00     0.054 C 
BRANCH  13  14
ATOM     14  C   UNL A   1      35.966  34.129  29.437  1.00  0.00    -0.027 C 
ATOM     15  C   UNL A   1      37.077  33.408  29.219  1.00  0.00    -0.031 C 
BRANCH  15  16
ATOM     16  C   UNL A   1      38.455  34.000  29.165  1.00  0.00     0.023 C 
ATOM     17  C   UNL A   1      38.856  34.544  30.528  1.00  0.00     0.008 C 
ENDBRANCH  15  16
ENDBRANCH  13  14
ENDBRANCH  12  13
ENDBRANCH  10  11
ENDBRANCH   9  10
ENDBRANCH   7   8
ENDBRANCH   6   7
ENDBRANCH   4   5
ENDBRANCH   3   4
ENDBRANCH   2   3
ENDBRANCH   1   2
BRANCH   1  18
ATOM     18  C   UNL A   1      33.949  24.529  24.875  1.00  0.00     0.021 C 
BRANCH  18  19
ATOM     19  C   UNL A   1      35.108  23.563  25.022  1.00  0.00     0.101 C 
BRANCH  19  20
ATOM     20  C   UNL A   1      34.892  22.090  24.714  1.00  0.00     0.220 C 
ATOM     21  O   UNL A   1      33.761  21.677  24.444  1.00  0.00    -0.275 OA
ATOM     22  N   UNL A   1      35.901  21.186  24.645  1.00  0.00    -0.356 N 
ATOM     23  H   UNL A   1      35.603  20.251  24.564  1.00  0.00     0.163 HD
BRANCH  22  24
ATOM     24  C   UNL A   1      37.337  21.353  24.669  1.00  0.00     0.117 C 
BRANCH  24  25
ATOM     25  C   UNL A   1      38.074  20.056  24.947  1.00  0.00     0.042 C 
BRANCH  25  26
ATOM     26  C   UNL A   1      39.184  20.280  25.955  1.00  0.00     0.118 C 
BRANCH  26  27
ATOM     27  N   UNL A   1      40.268  19.308  25.840  1.00  0.00    -0.352 N 
ATOM     28  C   UNL A   1      41.616  19.515  26.052  1.00  0.00     0.251 C 
ATOM     29  H   UNL A   1      40.005  18.395  25.581  1.00  0.00     0.163 HD
ATOM     30  O   UNL A   1      42.438  18.650  25.804  1.00  0.00    -0.269 OA
BRANCH  28  31
ATOM     31  C   UNL A   1      42.044  20.840  26.555  1.00  0.00     0.039 A 
ATOM     32  C   UNL A   1      42.379  21.847  25.650  1.00  0.00     0.014 A 
ATOM     33  C   UNL A   1      42.009  21.100  27.926  1.00  0.00     0.014 A 
ATOM     34  C   UNL A   1      42.614  23.140  26.124  1.00  0.00     0.010 A 
ATOM     35  C   UNL A   1      42.100  22.406  28.374  1.00  0.00     0.010 A 
ATOM     36  C   UNL A   1      42.442  23.436  27.487  1.00  0.00    -0.014 A 
BRANCH  36  37
ATOM     37  C   UNL A   1      42.686  24.793  28.033  1.00  0.00     0.031 A 
ATOM     38  C   UNL A   1      44.085  25.181  28.441  1.00  0.00     0.074 A 
ATOM     39  C   UNL A   1      41.663  25.647  28.226  1.00  0.00     0.049 A 
ATOM     40  N   UNL A   1      44.509  26.282  29.007  1.00  0.00    -0.248 NA
ATOM     41  C   UNL A   1      45.141  24.175  28.232  1.00  0.00     0.031 C 
ATOM     42  C   UNL A   1      40.253  25.370  27.938  1.00  0.00     0.029 A 
ATOM     43  N   UNL A   1      41.654  26.929  28.714  1.00  0.00    -0.354 N 
ATOM     44  C   UNL A   1      45.862  26.081  29.246  1.00  0.00     0.074 A 
ATOM     45  C   UNL A   1      46.171  24.728  28.851  1.00  0.00     0.031 C 
ATOM     46  C   UNL A   1      39.525  26.464  28.214  1.00  0.00     0.029 A 
ATOM     47  C   UNL A   1      40.407  27.506  28.729  1.00  0.00     0.049 A 
ATOM     48  H   UNL A   1      42.466  27.392  29.024  1.00  0.00     0.167 HD
ATOM     49  C   UNL A   1      46.785  26.956  29.711  1.00  0.00     0.031 A 
ATOM     50  C   UNL A   1      40.025  28.740  29.105  1.00  0.00     0.031 A 
ATOM     51  C   UNL A   1      46.486  28.314  30.066  1.00  0.00     0.049 A 
ATOM     52  C   UNL A   1      41.070  29.713  29.579  1.00  0.00     0.074 A 
ATOM     53  C   UNL A   1      47.348  29.307  30.495  1.00  0.00     0.029 A 
ATOM     54  N   UNL A   1      45.218  28.875  30.017  1.00  0.00    -0.354 N 
ATOM     55  N   UNL A   1      42.359  29.531  29.737  1.00  0.00    -0.248 NA
ATOM     56  C   UNL A   1      40.609  31.072  29.898  1.00  0.00     0.031 C 
ATOM     57  C   UNL A   1      46.594  30.459  30.741  1.00  0.00     0.029 A 
ATOM     58  C   UNL A   1      45.273  30.198  30.411  1.00  0.00     0.049 A 
ATOM     59  H   UNL A   1      44.400  28.399  29.743  1.00  0.00     0.167 HD
ATOM     60  C   UNL A   1      42.870  30.758  30.141  1.00  0.00     0.074 A 
ATOM     61  C   UNL A   1      41.752  31.679  30.188  1.00  0.00     0.031 C 
ATOM     62  C   UNL A   1      44.147  31.096  30.444  1.00  0.00     0.031 A 
BRANCH  49  63
ATOM     63  C   UNL A   1      48.198  26.457  29.839  1.00  0.00    -0.014 A 
ATOM     64  C   UNL A   1      48.644  25.826  31.013  1.00  0.00     0.009 A 
ATOM     65  C   UNL A   1      49.101  26.629  28.780  1.00  0.00     0.009 A 
ATOM     66  C   UNL A   1      49.976  25.433  31.147  1.00  0.00     0.001 A 
ATOM     67  C   UNL A   1      50.425  26.201  28.902  1.00  0.00     0.001 A 
ATOM     68  C   UNL A   1      50.866  25.618  30.089  1.00  0.00     0.000 A 
ENDBRANCH  49  63
BRANCH  50  69
ATOM     69  C   UNL A   1      38.597  29.142  29.001  1.00  0.00    -0.014 A 
ATOM     70  C   UNL A   1      37.754  29.074  30.122  1.00  0.00     0.009 A 
ATOM     71  C   UNL A   1      38.070  29.601  27.784  1.00  0.00     0.009 A 
ATOM     72  C   UNL A   1      36.406  29.428  30.019  1.00  0.00     0.001 A 
ATOM     73  C   UNL A   1      36.728  29.981  27.692  1.00  0.00     0.001 A 
ATOM     74  C   UNL A   1      35.896  29.886  28.806  1.00  0.00     0.000 A 
ENDBRANCH  50  69
BRANCH  62  75
ATOM     75  C   UNL A   1      44.411  32.532  30.800  1.00  0.00    -0.014 A 
ATOM     76  C   UNL A   1      44.630  33.504  29.814  1.00  0.00     0.009 A 
ATOM     77  C   UNL A   1      44.402  32.919  32.150  1.00  0.00     0.009 A 
ATOM     78  C   UNL A   1      44.876  34.831  30.175  1.00  0.00     0.001 A 
ATOM     79  C   UNL A   1      44.617  34.249  32.507  1.00  0.00     0.001 A 
ATOM     80  C   UNL A   1      44.865  35.202  31.519  1.00  0.00     0.000 A 
ENDBRANCH  62  75
ENDBRANCH  36  37
ENDBRANCH  28  31
ENDBRANCH  26  27
ENDBRANCH  25  26
ENDBRANCH  24  25
ENDBRANCH  22  24
ENDBRANCH  19  20
ENDBRANCH  18  19
ENDBRANCH   1  18
TORSDOF 23
ENDMDL
MODEL 3
REMARK VINA RESULT:      -8.9      4.911     11.055
REMARK SMILES CC/C=C/C/C=C/C/C=C/C/C=C/CCSCCCC(=O)NCCCNC(=O)c1ccc(-c2c3nc(c(-c4ccccc4)c4ccc([nH]4)c(-c4ccccc4)c4nc(c(-c5ccccc5)c5ccc2[nH]5)C=C4)C=C3)cc1
REMARK SMILES IDX 17 1 16 2 15 3 14 4 13 5 12 6 11 7 10 8 9 9 8 10 7 11 6 12
REMARK SMILES IDX 5 13 4 14 3 15 2 16 1 17 18 18 19 19 20 20 21 21 22 22 23 24
REMARK SMILES IDX 24 25 25 26 26 27 27 28 28 30 29 31 30 32 76 33 31 34 75 35
REMARK SMILES IDX 32 36 33 37 34 38 69 39 35 40 74 41 68 42 70 43 36 44 73 45
REMARK SMILES IDX 67 46 66 47 37 49 59 50 44 51 58 52 45 53 48 54 57 55 71 56
REMARK SMILES IDX 46 57 47 58 56 60 72 61 49 62 38 63 39 64 43 65 40 66 42 67
REMARK SMILES IDX 41 68 60 69 61 70 65 71 62 72 64 73 63 74 50 75 51 76 55 77
REMARK SMILES IDX 52 78 54 79 53 80
REMARK H PARENT 22 23 26 29 70 48 48 59
REMARK Flexibility Score: inf
ROOT
ATOM      1  C   UNL A   1      46.277  23.311  25.230  1.00  0.00     0.070 C 
ENDROOT
BRANCH   1   2
ATOM      2  S   UNL A   1      45.131  24.426  26.161  1.00  0.00    -0.162 SA
BRANCH   2   3
ATOM      3  C   UNL A   1      45.404  24.281  27.980  1.00  0.00     0.073 C 
BRANCH   3   4
ATOM      4  C   UNL A   1      44.670  23.149  28.756  1.00  0.00     0.038 C 
BRANCH   4   5
ATOM      5  C   UNL A   1      44.124  23.534  30.110  1.00  0.00    -0.030 C 
ATOM      6  C   UNL A   1      44.796  24.128  31.113  1.00  0.00    -0.027 C 
BRANCH   6   7
ATOM      7  C   UNL A   1      44.136  24.811  32.298  1.00  0.00     0.054 C 
BRANCH   7   8
ATOM      8  C   UNL A   1      44.595  26.209  32.605  1.00  0.00    -0.027 C 
ATOM      9  C   UNL A   1      43.827  27.291  32.387  1.00  0.00    -0.027 C 
BRANCH   9  10
ATOM     10  C   UNL A   1      44.273  28.709  32.611  1.00  0.00     0.054 C 
BRANCH  10  11
ATOM     11  C   UNL A   1      43.169  29.448  33.308  1.00  0.00    -0.027 C 
ATOM     12  C   UNL A   1      42.355  30.338  32.719  1.00  0.00    -0.027 C 
BRANCH  12  13
ATOM     13  C   UNL A   1      41.406  31.217  33.483  1.00  0.00     0.054 C 
BRANCH  13  14
ATOM     14  C   UNL A   1      40.003  30.716  33.287  1.00  0.00    -0.027 C 
ATOM     15  C   UNL A   1      39.695  29.507  32.795  1.00  0.00    -0.031 C 
BRANCH  15  16
ATOM     16  C   UNL A   1      38.291  29.060  32.507  1.00  0.00     0.023 C 
ATOM     17  C   UNL A   1      38.243  27.554  32.295  1.00  0.00     0.008 C 
ENDBRANCH  15  16
ENDBRANCH  13  14
ENDBRANCH  12  13
ENDBRANCH  10  11
ENDBRANCH   9  10
ENDBRANCH   7   8
ENDBRANCH   6   7
ENDBRANCH   4   5
ENDBRANCH   3   4
ENDBRANCH   2   3
ENDBRANCH   1   2
BRANCH   1  18
ATOM     18  C   UNL A   1      45.951  21.965  24.585  1.00  0.00     0.021 C 
BRANCH  18  19
ATOM     19  C   UNL A   1      45.861  20.712  25.432  1.00  0.00     0.101 C 
BRANCH  19  20
ATOM     20  C   UNL A   1      44.728  19.728  25.187  1.00  0.00     0.220 C 
ATOM     21  O   UNL A   1      44.983  18.579  24.816  1.00  0.00    -0.275 OA
ATOM     22  N   UNL A   1      43.424  20.016  25.423  1.00  0.00    -0.356 N 
ATOM     23  H   UNL A   1      42.793  19.332  25.100  1.00  0.00     0.163 HD
BRANCH  22  24
ATOM     24  C   UNL A   1      42.797  21.148  26.066  1.00  0.00     0.117 C 
BRANCH  24  25
ATOM     25  C   UNL A   1      42.072  20.770  27.344  1.00  0.00     0.042 C 
BRANCH  25  26
ATOM     26  C   UNL A   1      40.942  21.741  27.622  1.00  0.00     0.118 C 
BRANCH  26  27
ATOM     27  N   UNL A   1      39.865  21.663  26.638  1.00  0.00    -0.352 N 
ATOM     28  C   UNL A   1      39.031  22.680  26.215  1.00  0.00     0.251 C 
ATOM     29  H   UNL A   1      39.716  20.781  26.227  1.00  0.00     0.163 HD
ATOM     30  O   UNL A   1      38.087  22.460  25.476  1.00  0.00    -0.269 OA
BRANCH  28  31
ATOM     31  C   UNL A   1      39.291  24.046  26.718  1.00  0.00     0.039 A 
ATOM     32  C   UNL A   1      38.941  24.380  28.026  1.00  0.00     0.014 A 
ATOM     33  C   UNL A   1      39.979  24.957  25.913  1.00  0.00     0.014 A 
ATOM     34  C   UNL A   1      39.344  25.612  28.548  1.00  0.00     0.010 A 
ATOM     35  C   UNL A   1      40.498  26.109  26.477  1.00  0.00     0.010 A 
ATOM     36  C   UNL A   1      40.156  26.470  27.788  1.00  0.00    -0.014 A 
BRANCH  36  37
ATOM     37  C   UNL A   1      40.601  27.789  28.301  1.00  0.00     0.031 A 
ATOM     38  C   UNL A   1      42.076  28.049  28.482  1.00  0.00     0.074 A 
ATOM     39  C   UNL A   1      39.699  28.720  28.666  1.00  0.00     0.049 A 
ATOM     40  N   UNL A   1      42.678  29.097  28.984  1.00  0.00    -0.248 NA
ATOM     41  C   UNL A   1      42.994  26.963  28.094  1.00  0.00     0.031 C 
ATOM     42  C   UNL A   1      38.243  28.568  28.607  1.00  0.00     0.029 A 
ATOM     43  N   UNL A   1      39.879  29.986  29.163  1.00  0.00    -0.354 N 
ATOM     44  C   UNL A   1      44.030  28.777  28.999  1.00  0.00     0.074 A 
ATOM     45  C   UNL A   1      44.153  27.413  28.544  1.00  0.00     0.031 C 
ATOM     46  C   UNL A   1      37.666  29.713  29.009  1.00  0.00     0.029 A 
ATOM     47  C   UNL A   1      38.706  30.664  29.386  1.00  0.00     0.049 A 
ATOM     48  H   UNL A   1      40.767  30.372  29.342  1.00  0.00     0.167 HD
ATOM     49  C   UNL A   1      45.087  29.561  29.318  1.00  0.00     0.031 A 
ATOM     50  C   UNL A   1      38.496  31.917  29.832  1.00  0.00     0.031 A 
ATOM     51  C   UNL A   1      44.967  30.930  29.731  1.00  0.00     0.049 A 
ATOM     52  C   UNL A   1      39.683  32.788  30.140  1.00  0.00     0.074 A 
ATOM     53  C   UNL A   1      45.969  31.836  30.026  1.00  0.00     0.029 A 
ATOM     54  N   UNL A   1      43.761  31.595  29.893  1.00  0.00    -0.354 N 
ATOM     55  N   UNL A   1      40.961  32.494  30.086  1.00  0.00    -0.248 NA
ATOM     56  C   UNL A   1      39.399  34.172  30.544  1.00  0.00     0.031 C 
ATOM     57  C   UNL A   1      45.366  33.042  30.402  1.00  0.00     0.029 A 
ATOM     58  C   UNL A   1      43.992  32.900  30.287  1.00  0.00     0.049 A 
ATOM     59  H   UNL A   1      42.872  31.196  29.750  1.00  0.00     0.167 HD
ATOM     60  C   UNL A   1      41.634  33.665  30.415  1.00  0.00     0.074 A 
ATOM     61  C   UNL A   1      40.621  34.674  30.651  1.00  0.00     0.031 C 
ATOM     62  C   UNL A   1      42.967  33.887  30.511  1.00  0.00     0.031 A 
BRANCH  49  63
ATOM     63  C   UNL A   1      46.454  28.942  29.210  1.00  0.00    -0.014 A 
ATOM     64  C   UNL A   1      47.187  29.001  28.012  1.00  0.00     0.009 A 
ATOM     65  C   UNL A   1      47.013  28.280  30.313  1.00  0.00     0.009 A 
ATOM     66  C   UNL A   1      48.422  28.361  27.903  1.00  0.00     0.001 A 
ATOM     67  C   UNL A   1      48.267  27.672  30.212  1.00  0.00     0.001 A 
ATOM     68  C   UNL A   1      48.963  27.700  29.005  1.00  0.00     0.000 A 
ENDBRANCH  49  63
BRANCH  50  69
ATOM     69  C   UNL A   1      37.110  32.439  29.964  1.00  0.00    -0.014 A 
ATOM     70  C   UNL A   1      36.334  32.122  31.090  1.00  0.00     0.009 A 
ATOM     71  C   UNL A   1      36.557  33.261  28.970  1.00  0.00     0.009 A 
ATOM     72  C   UNL A   1      35.023  32.591  31.203  1.00  0.00     0.001 A 
ATOM     73  C   UNL A   1      35.256  33.753  29.100  1.00  0.00     0.001 A 
ATOM     74  C   UNL A   1      34.487  33.410  30.211  1.00  0.00     0.000 A 
ENDBRANCH  50  69
BRANCH  62  75
ATOM     75  C   UNL A   1      43.408  35.287  30.835  1.00  0.00    -0.014 A 
ATOM     76  C   UNL A   1      43.637  36.236  29.828  1.00  0.00     0.009 A 
ATOM     77  C   UNL A   1      43.559  35.667  32.178  1.00  0.00     0.009 A 
ATOM     78  C   UNL A   1      44.049  37.528  30.160  1.00  0.00     0.001 A 
ATOM     79  C   UNL A   1      43.939  36.968  32.508  1.00  0.00     0.001 A 
ATOM     80  C   UNL A   1      44.195  37.893  31.497  1.00  0.00     0.000 A 
ENDBRANCH  62  75
ENDBRANCH  36  37
ENDBRANCH  28  31
ENDBRANCH  26  27
ENDBRANCH  25  26
ENDBRANCH  24  25
ENDBRANCH  22  24
ENDBRANCH  19  20
ENDBRANCH  18  19
ENDBRANCH   1  18
TORSDOF 23
ENDMDL
