MODEL 1
REMARK VINA RESULT:     -11.9      0.000      0.000
REMARK SMILES CC(C)CCc1cc2c(cc1Cl)C=C(C(=O)NCCCNC(=O)c1ccc(-c3c4nc(c(-c5ccccc5)c5ccc([nH]5)c(-c5ccccc5)c5nc(c(-c6ccccc6)c6ccc3[nH]6)C=C5)C=C4)cc1)[C@@H](C(F)(F)F)O2
REMARK SMILES IDX 18 1 17 2 15 3 16 4 14 6 6 7 7 8 11 9 8 10 10 11 12 12 9 13
REMARK SMILES IDX 77 14 13 15 72 16 5 17 4 18 2 19 1 20 3 21 73 22 74 23 75 24
REMARK SMILES IDX 76 25 19 26 20 27 21 28 22 29 23 31 24 32 25 33 71 34 26 35
REMARK SMILES IDX 70 36 27 37 28 38 29 39 64 40 30 41 69 42 63 43 65 44 31 45
REMARK SMILES IDX 68 46 62 47 61 48 32 50 54 51 39 52 53 53 40 54 43 55 52 56
REMARK SMILES IDX 66 57 41 58 42 59 51 61 67 62 44 63 33 64 34 65 38 66 35 67
REMARK SMILES IDX 37 68 36 69 55 70 56 71 60 72 57 73 59 74 58 75 45 76 46 77
REMARK SMILES IDX 50 78 47 79 49 80 48 81
REMARK H PARENT 17 5 21 30 65 49 43 60
REMARK Flexibility Score: inf
ROOT
ATOM      1  C   UNL A   1      36.501  20.625  25.128  1.00  0.00     0.118 C 
ENDROOT
BRANCH   1   2
ATOM      2  N   UNL A   1      35.396  19.693  24.962  1.00  0.00    -0.352 N 
ATOM      3  C   UNL A   1      34.050  19.761  24.843  1.00  0.00     0.251 C 
ATOM      4  O   UNL A   1      33.479  18.671  24.725  1.00  0.00    -0.270 OA
ATOM      5  H   UNL A   1      35.714  18.762  24.926  1.00  0.00     0.163 HD
BRANCH   3   6
ATOM      6  C   UNL A   1      33.249  21.017  24.855  1.00  0.00     0.067 C 
ATOM      7  C   UNL A   1      30.898  25.314  23.625  1.00  0.00    -0.026 A 
ATOM      8  C   UNL A   1      30.781  24.385  24.671  1.00  0.00     0.052 A 
ATOM      9  C   UNL A   1      31.765  25.003  22.562  1.00  0.00     0.045 A 
ATOM     10  C   UNL A   1      31.560  23.231  24.692  1.00  0.00     0.128 A 
ATOM     11  C   UNL A   1      32.524  23.823  22.573  1.00  0.00     0.032 A 
ATOM     12  Cl  UNL A   1      31.947  26.034  21.186  1.00  0.00    -0.084 Cl
ATOM     13  C   UNL A   1      32.433  22.939  23.648  1.00  0.00     0.019 A 
ATOM     14  O   UNL A   1      31.399  22.405  25.767  1.00  0.00    -0.475 OA
ATOM     15  C   UNL A   1      33.196  21.697  23.693  1.00  0.00     0.025 C 
ATOM     16  C   UNL A   1      32.541  21.556  26.066  1.00  0.00     0.314 C 
BRANCH   7  17
ATOM     17  C   UNL A   1      30.076  26.584  23.691  1.00  0.00     0.037 C 
BRANCH  17  18
ATOM     18  C   UNL A   1      30.709  27.713  24.529  1.00  0.00     0.008 C 
BRANCH  18  19
ATOM     19  C   UNL A   1      31.214  28.925  23.721  1.00  0.00    -0.017 C 
ATOM     20  C   UNL A   1      32.699  28.807  23.374  1.00  0.00     0.007 C 
ATOM     21  C   UNL A   1      30.391  29.075  22.439  1.00  0.00     0.007 C 
ENDBRANCH  18  19
ENDBRANCH  17  18
ENDBRANCH   7  17
BRANCH  16  22
ATOM     22  C   UNL A   1      33.494  22.286  27.035  1.00  0.00     0.429 C 
ATOM     23  F   UNL A   1      32.785  22.960  27.975  1.00  0.00    -0.167 F 
ATOM     24  F   UNL A   1      34.304  21.431  27.706  1.00  0.00    -0.167 F 
ATOM     25  F   UNL A   1      34.297  23.178  26.414  1.00  0.00    -0.167 F 
ENDBRANCH  16  22
ENDBRANCH   3   6
ENDBRANCH   1   2
BRANCH   1  26
ATOM     26  C   UNL A   1      37.840  19.981  24.801  1.00  0.00     0.042 C 
BRANCH  26  27
ATOM     27  C   UNL A   1      38.935  20.405  25.771  1.00  0.00     0.118 C 
BRANCH  27  28
ATOM     28  N   UNL A   1      40.002  19.411  25.865  1.00  0.00    -0.352 N 
ATOM     29  C   UNL A   1      41.346  19.563  26.102  1.00  0.00     0.251 C 
ATOM     30  H   UNL A   1      39.710  18.479  25.737  1.00  0.00     0.163 HD
ATOM     31  O   UNL A   1      42.112  18.623  25.911  1.00  0.00    -0.269 OA
BRANCH  29  32
ATOM     32  C   UNL A   1      41.873  20.861  26.568  1.00  0.00     0.039 A 
ATOM     33  C   UNL A   1      41.904  21.158  27.929  1.00  0.00     0.014 A 
ATOM     34  C   UNL A   1      42.341  21.793  25.637  1.00  0.00     0.014 A 
ATOM     35  C   UNL A   1      42.201  22.447  28.343  1.00  0.00     0.010 A 
ATOM     36  C   UNL A   1      42.753  23.057  26.069  1.00  0.00     0.010 A 
ATOM     37  C   UNL A   1      42.634  23.412  27.420  1.00  0.00    -0.014 A 
BRANCH  37  38
ATOM     38  C   UNL A   1      42.959  24.777  27.907  1.00  0.00     0.031 A 
ATOM     39  C   UNL A   1      41.870  25.784  28.163  1.00  0.00     0.074 A 
ATOM     40  C   UNL A   1      44.240  25.078  28.195  1.00  0.00     0.049 A 
ATOM     41  N   UNL A   1      41.975  27.004  28.628  1.00  0.00    -0.248 NA
ATOM     42  C   UNL A   1      40.488  25.378  27.861  1.00  0.00     0.031 C 
ATOM     43  C   UNL A   1      45.378  24.171  28.013  1.00  0.00     0.029 A 
ATOM     44  N   UNL A   1      44.800  26.204  28.743  1.00  0.00    -0.354 N 
ATOM     45  C   UNL A   1      40.684  27.515  28.650  1.00  0.00     0.074 A 
ATOM     46  C   UNL A   1      39.810  26.486  28.132  1.00  0.00     0.031 C 
ATOM     47  C   UNL A   1      46.480  24.744  28.513  1.00  0.00     0.029 A 
ATOM     48  C   UNL A   1      46.150  26.087  28.972  1.00  0.00     0.049 A 
ATOM     49  H   UNL A   1      44.284  27.015  28.952  1.00  0.00     0.167 HD
ATOM     50  C   UNL A   1      40.265  28.731  29.075  1.00  0.00     0.031 A 
ATOM     51  C   UNL A   1      47.033  26.966  29.483  1.00  0.00     0.031 A 
ATOM     52  C   UNL A   1      41.137  29.743  29.608  1.00  0.00     0.049 A 
ATOM     53  C   UNL A   1      46.548  28.322  29.904  1.00  0.00     0.074 A 
ATOM     54  C   UNL A   1      40.802  31.002  30.076  1.00  0.00     0.029 A 
ATOM     55  N   UNL A   1      42.510  29.612  29.752  1.00  0.00    -0.354 N 
ATOM     56  N   UNL A   1      45.324  28.791  29.910  1.00  0.00    -0.248 NA
ATOM     57  C   UNL A   1      47.562  29.272  30.380  1.00  0.00     0.031 C 
ATOM     58  C   UNL A   1      41.979  31.655  30.449  1.00  0.00     0.029 A 
ATOM     59  C   UNL A   1      43.039  30.779  30.277  1.00  0.00     0.049 A 
ATOM     60  H   UNL A   1      43.030  28.811  29.515  1.00  0.00     0.167 HD
ATOM     61  C   UNL A   1      45.417  30.087  30.395  1.00  0.00     0.074 A 
ATOM     62  C   UNL A   1      46.815  30.323  30.696  1.00  0.00     0.031 C 
ATOM     63  C   UNL A   1      44.432  31.000  30.567  1.00  0.00     0.031 A 
BRANCH  50  64
ATOM     64  C   UNL A   1      38.800  29.054  28.972  1.00  0.00    -0.014 A 
ATOM     65  C   UNL A   1      38.292  29.607  27.786  1.00  0.00     0.009 A 
ATOM     66  C   UNL A   1      37.943  28.910  30.074  1.00  0.00     0.009 A 
ATOM     67  C   UNL A   1      36.962  30.024  27.708  1.00  0.00     0.001 A 
ATOM     68  C   UNL A   1      36.606  29.304  29.985  1.00  0.00     0.001 A 
ATOM     69  C   UNL A   1      36.120  29.870  28.807  1.00  0.00     0.000 A 
ENDBRANCH  50  64
BRANCH  51  70
ATOM     70  C   UNL A   1      48.461  26.573  29.612  1.00  0.00    -0.014 A 
ATOM     71  C   UNL A   1      48.925  25.948  30.783  1.00  0.00     0.009 A 
ATOM     72  C   UNL A   1      49.380  26.875  28.598  1.00  0.00     0.009 A 
ATOM     73  C   UNL A   1      50.282  25.667  30.949  1.00  0.00     0.001 A 
ATOM     74  C   UNL A   1      50.733  26.563  28.754  1.00  0.00     0.001 A 
ATOM     75  C   UNL A   1      51.184  25.971  29.933  1.00  0.00     0.000 A 
ENDBRANCH  51  70
BRANCH  63  76
ATOM     76  C   UNL A   1      44.816  32.346  31.113  1.00  0.00    -0.014 A 
ATOM     77  C   UNL A   1      44.769  32.574  32.498  1.00  0.00     0.009 A 
ATOM     78  C   UNL A   1      45.116  33.414  30.255  1.00  0.00     0.009 A 
ATOM     79  C   UNL A   1      45.001  33.849  33.012  1.00  0.00     0.001 A 
ATOM     80  C   UNL A   1      45.375  34.683  30.775  1.00  0.00     0.001 A 
ATOM     81  C   UNL A   1      45.307  34.902  32.151  1.00  0.00     0.000 A 
ENDBRANCH  63  76
ENDBRANCH  37  38
ENDBRANCH  29  32
ENDBRANCH  27  28
ENDBRANCH  26  27
ENDBRANCH   1  26
TORSDOF 14
ENDMDL
MODEL 2
REMARK VINA RESULT:     -11.8      1.026      5.857
REMARK SMILES CC(C)CCc1cc2c(cc1Cl)C=C(C(=O)NCCCNC(=O)c1ccc(-c3c4nc(c(-c5ccccc5)c5ccc([nH]5)c(-c5ccccc5)c5nc(c(-c6ccccc6)c6ccc3[nH]6)C=C5)C=C4)cc1)[C@@H](C(F)(F)F)O2
REMARK SMILES IDX 18 1 17 2 15 3 16 4 14 6 6 7 7 8 11 9 8 10 10 11 12 12 9 13
REMARK SMILES IDX 77 14 13 15 72 16 5 17 4 18 2 19 1 20 3 21 73 22 74 23 75 24
REMARK SMILES IDX 76 25 19 26 20 27 21 28 22 29 23 31 24 32 25 33 71 34 26 35
REMARK SMILES IDX 70 36 27 37 28 38 29 39 64 40 30 41 69 42 63 43 65 44 31 45
REMARK SMILES IDX 68 46 62 47 61 48 32 50 54 51 39 52 53 53 40 54 43 55 52 56
REMARK SMILES IDX 66 57 41 58 42 59 51 61 67 62 44 63 33 64 34 65 38 66 35 67
REMARK SMILES IDX 37 68 36 69 55 70 56 71 60 72 57 73 59 74 58 75 45 76 46 77
REMARK SMILES IDX 50 78 47 79 49 80 48 81
REMARK H PARENT 17 5 21 30 65 49 43 60
REMARK Flexibility Score: inf
ROOT
ATOM      1  C   UNL A   1      36.574  20.544  25.104  1.00  0.00     0.118 C 
ENDROOT
BRANCH   1   2
ATOM      2  N   UNL A   1      35.478  19.605  24.917  1.00  0.00    -0.352 N 
ATOM      3  C   UNL A   1      34.131  19.661  24.804  1.00  0.00     0.251 C 
ATOM      4  O   UNL A   1      33.572  18.569  24.659  1.00  0.00    -0.270 OA
ATOM      5  H   UNL A   1      35.807  18.678  24.856  1.00  0.00     0.163 HD
BRANCH   3   6
ATOM      6  C   UNL A   1      33.317  20.907  24.851  1.00  0.00     0.067 C 
ATOM      7  C   UNL A   1      30.891  25.192  23.729  1.00  0.00    -0.026 A 
ATOM      8  C   UNL A   1      30.808  24.249  24.766  1.00  0.00     0.052 A 
ATOM      9  C   UNL A   1      31.736  24.905  22.643  1.00  0.00     0.045 A 
ATOM     10  C   UNL A   1      31.601  23.104  24.755  1.00  0.00     0.128 A 
ATOM     11  C   UNL A   1      32.508  23.733  22.621  1.00  0.00     0.032 A 
ATOM     12  Cl  UNL A   1      31.874  25.954  21.276  1.00  0.00    -0.084 Cl
ATOM     13  C   UNL A   1      32.452  22.835  23.687  1.00  0.00     0.019 A 
ATOM     14  O   UNL A   1      31.474  22.263  25.823  1.00  0.00    -0.475 OA
ATOM     15  C   UNL A   1      33.229  21.601  23.699  1.00  0.00     0.025 C 
ATOM     16  C   UNL A   1      32.632  21.423  26.085  1.00  0.00     0.314 C 
BRANCH   7  17
ATOM     17  C   UNL A   1      30.056  26.452  23.831  1.00  0.00     0.037 C 
BRANCH  17  18
ATOM     18  C   UNL A   1      30.753  27.625  24.548  1.00  0.00     0.008 C 
BRANCH  18  19
ATOM     19  C   UNL A   1      31.018  28.866  23.671  1.00  0.00    -0.017 C 
ATOM     20  C   UNL A   1      32.467  28.932  23.189  1.00  0.00     0.007 C 
ATOM     21  C   UNL A   1      30.069  28.864  22.469  1.00  0.00     0.007 C 
ENDBRANCH  18  19
ENDBRANCH  17  18
ENDBRANCH   7  17
BRANCH  16  22
ATOM     22  C   UNL A   1      33.600  22.152  27.040  1.00  0.00     0.429 C 
ATOM     23  F   UNL A   1      34.346  21.253  27.730  1.00  0.00    -0.167 F 
ATOM     24  F   UNL A   1      34.474  22.950  26.380  1.00  0.00    -0.167 F 
ATOM     25  F   UNL A   1      32.964  22.931  27.942  1.00  0.00    -0.167 F 
ENDBRANCH  16  22
ENDBRANCH   3   6
ENDBRANCH   1   2
BRANCH   1  26
ATOM     26  C   UNL A   1      37.920  19.920  24.767  1.00  0.00     0.042 C 
BRANCH  26  27
ATOM     27  C   UNL A   1      38.988  20.263  25.797  1.00  0.00     0.118 C 
BRANCH  27  28
ATOM     28  N   UNL A   1      40.006  19.220  25.903  1.00  0.00    -0.352 N 
ATOM     29  C   UNL A   1      41.364  19.313  26.092  1.00  0.00     0.251 C 
ATOM     30  H   UNL A   1      39.663  18.301  25.826  1.00  0.00     0.163 HD
ATOM     31  O   UNL A   1      42.074  18.326  25.920  1.00  0.00    -0.269 OA
BRANCH  29  32
ATOM     32  C   UNL A   1      41.970  20.601  26.483  1.00  0.00     0.039 A 
ATOM     33  C   UNL A   1      42.084  20.942  27.829  1.00  0.00     0.014 A 
ATOM     34  C   UNL A   1      42.430  21.477  25.496  1.00  0.00     0.014 A 
ATOM     35  C   UNL A   1      42.458  22.231  28.180  1.00  0.00     0.010 A 
ATOM     36  C   UNL A   1      42.919  22.735  25.860  1.00  0.00     0.010 A 
ATOM     37  C   UNL A   1      42.886  23.142  27.202  1.00  0.00    -0.014 A 
BRANCH  37  38
ATOM     38  C   UNL A   1      43.294  24.507  27.621  1.00  0.00     0.031 A 
ATOM     39  C   UNL A   1      44.731  24.946  27.525  1.00  0.00     0.074 A 
ATOM     40  C   UNL A   1      42.344  25.379  28.012  1.00  0.00     0.049 A 
ATOM     41  N   UNL A   1      45.251  26.114  27.808  1.00  0.00    -0.248 NA
ATOM     42  C   UNL A   1      45.711  23.954  27.054  1.00  0.00     0.031 C 
ATOM     43  C   UNL A   1      40.915  25.073  28.118  1.00  0.00     0.029 A 
ATOM     44  N   UNL A   1      42.424  26.706  28.349  1.00  0.00    -0.354 N 
ATOM     45  C   UNL A   1      46.614  25.989  27.575  1.00  0.00     0.074 A 
ATOM     46  C   UNL A   1      46.850  24.628  27.149  1.00  0.00     0.031 C 
ATOM     47  C   UNL A   1      40.246  26.196  28.414  1.00  0.00     0.029 A 
ATOM     48  C   UNL A   1      41.202  27.280  28.604  1.00  0.00     0.049 A 
ATOM     49  H   UNL A   1      43.274  27.198  28.403  1.00  0.00     0.167 HD
ATOM     50  C   UNL A   1      47.580  26.931  27.696  1.00  0.00     0.031 A 
ATOM     51  C   UNL A   1      40.880  28.537  28.964  1.00  0.00     0.031 A 
ATOM     52  C   UNL A   1      47.336  28.289  28.102  1.00  0.00     0.049 A 
ATOM     53  C   UNL A   1      41.975  29.547  29.135  1.00  0.00     0.074 A 
ATOM     54  C   UNL A   1      48.251  29.319  28.242  1.00  0.00     0.029 A 
ATOM     55  N   UNL A   1      46.092  28.809  28.425  1.00  0.00    -0.354 N 
ATOM     56  N   UNL A   1      43.260  29.409  28.918  1.00  0.00    -0.248 NA
ATOM     57  C   UNL A   1      41.581  30.881  29.607  1.00  0.00     0.031 C 
ATOM     58  C   UNL A   1      47.569  30.446  28.705  1.00  0.00     0.029 A 
ATOM     59  C   UNL A   1      46.220  30.139  28.789  1.00  0.00     0.049 A 
ATOM     60  H   UNL A   1      45.245  28.308  28.400  1.00  0.00     0.167 HD
ATOM     61  C   UNL A   1      43.830  30.637  29.219  1.00  0.00     0.074 A 
ATOM     62  C   UNL A   1      42.746  31.517  29.611  1.00  0.00     0.031 C 
ATOM     63  C   UNL A   1      45.134  30.999  29.181  1.00  0.00     0.031 A 
BRANCH  50  64
ATOM     64  C   UNL A   1      49.001  26.534  27.404  1.00  0.00    -0.014 A 
ATOM     65  C   UNL A   1      49.481  26.595  26.086  1.00  0.00     0.009 A 
ATOM     66  C   UNL A   1      49.831  26.007  28.404  1.00  0.00     0.009 A 
ATOM     67  C   UNL A   1      50.756  26.121  25.771  1.00  0.00     0.001 A 
ATOM     68  C   UNL A   1      51.117  25.559  28.092  1.00  0.00     0.001 A 
ATOM     69  C   UNL A   1      51.574  25.606  26.775  1.00  0.00     0.000 A 
ENDBRANCH  50  64
BRANCH  51  70
ATOM     70  C   UNL A   1      39.452  28.887  29.188  1.00  0.00    -0.014 A 
ATOM     71  C   UNL A   1      38.869  28.724  30.457  1.00  0.00     0.009 A 
ATOM     72  C   UNL A   1      38.648  29.324  28.127  1.00  0.00     0.009 A 
ATOM     73  C   UNL A   1      37.507  28.956  30.649  1.00  0.00     0.001 A 
ATOM     74  C   UNL A   1      37.291  29.588  28.330  1.00  0.00     0.001 A 
ATOM     75  C   UNL A   1      36.719  29.392  29.587  1.00  0.00     0.000 A 
ENDBRANCH  51  70
BRANCH  63  76
ATOM     76  C   UNL A   1      45.479  32.410  29.564  1.00  0.00    -0.014 A 
ATOM     77  C   UNL A   1      45.732  32.725  30.909  1.00  0.00     0.009 A 
ATOM     78  C   UNL A   1      45.447  33.444  28.617  1.00  0.00     0.009 A 
ATOM     79  C   UNL A   1      45.931  34.048  31.301  1.00  0.00     0.001 A 
ATOM     80  C   UNL A   1      45.673  34.764  29.007  1.00  0.00     0.001 A 
ATOM     81  C   UNL A   1      45.905  35.067  30.349  1.00  0.00     0.000 A 
ENDBRANCH  63  76
ENDBRANCH  37  38
ENDBRANCH  29  32
ENDBRANCH  27  28
ENDBRANCH  26  27
ENDBRANCH   1  26
TORSDOF 14
ENDMDL
MODEL 3
REMARK VINA RESULT:     -11.7      1.596      6.183
REMARK SMILES CC(C)CCc1cc2c(cc1Cl)C=C(C(=O)NCCCNC(=O)c1ccc(-c3c4nc(c(-c5ccccc5)c5ccc([nH]5)c(-c5ccccc5)c5nc(c(-c6ccccc6)c6ccc3[nH]6)C=C5)C=C4)cc1)[C@@H](C(F)(F)F)O2
REMARK SMILES IDX 18 1 17 2 15 3 16 4 14 6 6 7 7 8 11 9 8 10 10 11 12 12 9 13
REMARK SMILES IDX 77 14 13 15 72 16 5 17 4 18 2 19 1 20 3 21 73 22 74 23 75 24
REMARK SMILES IDX 76 25 19 26 20 27 21 28 22 29 23 31 24 32 25 33 71 34 26 35
REMARK SMILES IDX 70 36 27 37 28 38 29 39 64 40 30 41 69 42 63 43 65 44 31 45
REMARK SMILES IDX 68 46 62 47 61 48 32 50 54 51 39 52 53 53 40 54 43 55 52 56
REMARK SMILES IDX 66 57 41 58 42 59 51 61 67 62 44 63 33 64 34 65 38 66 35 67
REMARK SMILES IDX 37 68 36 69 55 70 56 71 60 72 57 73 59 74 58 75 45 76 46 77
REMARK SMILES IDX 50 78 47 79 49 80 48 81
REMARK H PARENT 17 5 21 30 65 49 43 60
REMARK Flexibility Score: inf
ROOT
ATOM      1  C   UNL A   1      37.087  21.031  24.794  1.00  0.00     0.118 C 
ENDROOT
BRANCH   1   2
ATOM      2  N   UNL A   1      35.744  20.675  25.227  1.00  0.00    -0.352 N 
ATOM      3  C   UNL A   1      34.514  21.237  25.209  1.00  0.00     0.251 C 
ATOM      4  O   UNL A   1      33.619  20.554  25.718  1.00  0.00    -0.270 OA
ATOM      5  H   UNL A   1      35.728  19.785  25.647  1.00  0.00     0.163 HD
BRANCH   3   6
ATOM      6  C   UNL A   1      34.189  22.577  24.644  1.00  0.00     0.067 C 
ATOM      7  C   UNL A   1      33.483  27.525  23.924  1.00  0.00    -0.026 A 
ATOM      8  C   UNL A   1      33.619  26.410  23.081  1.00  0.00     0.052 A 
ATOM      9  C   UNL A   1      33.693  27.338  25.302  1.00  0.00     0.045 A 
ATOM     10  C   UNL A   1      33.874  25.146  23.604  1.00  0.00     0.128 A 
ATOM     11  C   UNL A   1      33.983  26.067  25.820  1.00  0.00     0.032 A 
ATOM     12  Cl  UNL A   1      33.619  28.643  26.433  1.00  0.00    -0.084 Cl
ATOM     13  C   UNL A   1      34.060  24.962  24.971  1.00  0.00     0.019 A 
ATOM     14  O   UNL A   1      33.957  24.119  22.709  1.00  0.00    -0.475 OA
ATOM     15  C   UNL A   1      34.370  23.627  25.469  1.00  0.00     0.025 C 
ATOM     16  C   UNL A   1      33.666  22.802  23.254  1.00  0.00     0.314 C 
BRANCH   7  17
ATOM     17  C   UNL A   1      33.135  28.862  23.303  1.00  0.00     0.037 C 
BRANCH  17  18
ATOM     18  C   UNL A   1      31.720  28.937  22.697  1.00  0.00     0.008 C 
BRANCH  18  19
ATOM     19  C   UNL A   1      30.565  28.844  23.714  1.00  0.00    -0.017 C 
ATOM     20  C   UNL A   1      29.585  30.010  23.582  1.00  0.00     0.007 C 
ATOM     21  C   UNL A   1      29.821  27.517  23.535  1.00  0.00     0.007 C 
ENDBRANCH  18  19
ENDBRANCH  17  18
ENDBRANCH   7  17
BRANCH  16  22
ATOM     22  C   UNL A   1      32.156  22.510  23.133  1.00  0.00     0.429 C 
ATOM     23  F   UNL A   1      31.534  23.515  22.467  1.00  0.00    -0.167 F 
ATOM     24  F   UNL A   1      31.904  21.375  22.437  1.00  0.00    -0.167 F 
ATOM     25  F   UNL A   1      31.547  22.377  24.331  1.00  0.00    -0.167 F 
ENDBRANCH  16  22
ENDBRANCH   3   6
ENDBRANCH   1   2
BRANCH   1  26
ATOM     26  C   UNL A   1      38.065  19.880  24.971  1.00  0.00     0.042 C 
BRANCH  26  27
ATOM     27  C   UNL A   1      39.138  20.191  26.006  1.00  0.00     0.118 C 
BRANCH  27  28
ATOM     28  N   UNL A   1      40.251  19.246  25.945  1.00  0.00    -0.352 N 
ATOM     29  C   UNL A   1      41.604  19.450  26.072  1.00  0.00     0.251 C 
ATOM     30  H   UNL A   1      39.990  18.310  25.789  1.00  0.00     0.163 HD
ATOM     31  O   UNL A   1      42.389  18.560  25.757  1.00  0.00    -0.269 OA
BRANCH  29  32
ATOM     32  C   UNL A   1      42.114  20.744  26.566  1.00  0.00     0.039 A 
ATOM     33  C   UNL A   1      42.234  20.974  27.935  1.00  0.00     0.014 A 
ATOM     34  C   UNL A   1      42.478  21.739  25.654  1.00  0.00     0.014 A 
ATOM     35  C   UNL A   1      42.512  22.253  28.394  1.00  0.00     0.010 A 
ATOM     36  C   UNL A   1      42.873  22.996  26.121  1.00  0.00     0.010 A 
ATOM     37  C   UNL A   1      42.840  23.279  27.494  1.00  0.00    -0.014 A 
BRANCH  37  38
ATOM     38  C   UNL A   1      43.148  24.630  28.027  1.00  0.00     0.031 A 
ATOM     39  C   UNL A   1      44.572  25.086  28.201  1.00  0.00     0.074 A 
ATOM     40  C   UNL A   1      42.130  25.478  28.277  1.00  0.00     0.049 A 
ATOM     41  N   UNL A   1      45.016  26.247  28.612  1.00  0.00    -0.248 NA
ATOM     42  C   UNL A   1      45.635  24.122  27.873  1.00  0.00     0.031 C 
ATOM     43  C   UNL A   1      40.709  25.156  28.120  1.00  0.00     0.029 A 
ATOM     44  N   UNL A   1      42.129  26.792  28.670  1.00  0.00    -0.354 N 
ATOM     45  C   UNL A   1      46.401  26.144  28.617  1.00  0.00     0.074 A 
ATOM     46  C   UNL A   1      46.729  24.802  28.190  1.00  0.00     0.031 C 
ATOM     47  C   UNL A   1      39.982  26.260  28.334  1.00  0.00     0.029 A 
ATOM     48  C   UNL A   1      40.872  27.345  28.727  1.00  0.00     0.049 A 
ATOM     49  H   UNL A   1      42.949  27.290  28.890  1.00  0.00     0.167 HD
ATOM     50  C   UNL A   1      47.315  27.089  28.939  1.00  0.00     0.031 A 
ATOM     51  C   UNL A   1      40.472  28.584  29.071  1.00  0.00     0.031 A 
ATOM     52  C   UNL A   1      46.983  28.428  29.344  1.00  0.00     0.049 A 
ATOM     53  C   UNL A   1      41.505  29.597  29.467  1.00  0.00     0.074 A 
ATOM     54  C   UNL A   1      47.843  29.460  29.679  1.00  0.00     0.029 A 
ATOM     55  N   UNL A   1      45.694  28.924  29.463  1.00  0.00    -0.354 N 
ATOM     56  N   UNL A   1      42.811  29.479  29.473  1.00  0.00    -0.248 NA
ATOM     57  C   UNL A   1      41.014  30.908  29.910  1.00  0.00     0.031 C 
ATOM     58  C   UNL A   1      47.073  30.563  30.056  1.00  0.00     0.029 A 
ATOM     59  C   UNL A   1      45.735  30.240  29.891  1.00  0.00     0.049 A 
ATOM     60  H   UNL A   1      44.872  28.417  29.272  1.00  0.00     0.167 HD
ATOM     61  C   UNL A   1      43.299  30.700  29.914  1.00  0.00     0.074 A 
ATOM     62  C   UNL A   1      42.150  31.554  30.141  1.00  0.00     0.031 C 
ATOM     63  C   UNL A   1      44.584  31.075  30.118  1.00  0.00     0.031 A 
BRANCH  50  64
ATOM     64  C   UNL A   1      48.772  26.717  28.886  1.00  0.00    -0.014 A 
ATOM     65  C   UNL A   1      49.413  26.256  30.047  1.00  0.00     0.009 A 
ATOM     66  C   UNL A   1      49.533  26.916  27.724  1.00  0.00     0.009 A 
ATOM     67  C   UNL A   1      50.789  26.017  30.051  1.00  0.00     0.001 A 
ATOM     68  C   UNL A   1      50.904  26.650  27.724  1.00  0.00     0.001 A 
ATOM     69  C   UNL A   1      51.532  26.212  28.889  1.00  0.00     0.000 A 
ENDBRANCH  50  64
BRANCH  51  70
ATOM     70  C   UNL A   1      39.022  28.912  29.054  1.00  0.00    -0.014 A 
ATOM     71  C   UNL A   1      38.412  29.381  27.877  1.00  0.00     0.009 A 
ATOM     72  C   UNL A   1      38.255  28.822  30.223  1.00  0.00     0.009 A 
ATOM     73  C   UNL A   1      37.077  29.786  27.881  1.00  0.00     0.001 A 
ATOM     74  C   UNL A   1      36.909  29.196  30.215  1.00  0.00     0.001 A 
ATOM     75  C   UNL A   1      36.324  29.689  29.049  1.00  0.00     0.000 A 
ENDBRANCH  51  70
BRANCH  63  76
ATOM     76  C   UNL A   1      44.834  32.474  30.606  1.00  0.00    -0.014 A 
ATOM     77  C   UNL A   1      44.845  32.739  31.984  1.00  0.00     0.009 A 
ATOM     78  C   UNL A   1      44.951  33.542  29.705  1.00  0.00     0.009 A 
ATOM     79  C   UNL A   1      44.951  34.048  32.452  1.00  0.00     0.001 A 
ATOM     80  C   UNL A   1      45.085  34.849  30.176  1.00  0.00     0.001 A 
ATOM     81  C   UNL A   1      45.075  35.102  31.548  1.00  0.00     0.000 A 
ENDBRANCH  63  76
ENDBRANCH  37  38
ENDBRANCH  29  32
ENDBRANCH  27  28
ENDBRANCH  26  27
ENDBRANCH   1  26
TORSDOF 14
ENDMDL
