MODEL 1
REMARK VINA RESULT:     -12.2      0.000      0.000
REMARK SMILES Cc1cc2c(c(C)c1Cl)C=C(C(=O)NCCCNC(=O)c1ccc(-c3c4nc(c(-c5ccccc5)c5ccc([nH]5)c(-c5ccccc5)c5nc(c(-c6ccccc6)c6ccc3[nH]6)C=C5)C=C4)cc1)[C@@H](C(F)(F)F)O2
REMARK SMILES IDX 16 1 15 2 14 3 12 4 13 5 11 7 1 8 2 9 3 10 8 11 4 12 6 13
REMARK SMILES IDX 9 14 5 15 74 16 7 17 10 18 69 19 70 20 71 21 72 22 73 23
REMARK SMILES IDX 17 24 18 25 19 26 20 28 21 29 22 30 68 31 23 32 67 33 24 34
REMARK SMILES IDX 25 35 26 36 61 37 27 38 66 39 60 40 62 41 28 42 65 43 59 44
REMARK SMILES IDX 58 45 29 47 51 48 36 49 50 50 37 51 40 52 49 53 63 54 38 55
REMARK SMILES IDX 39 56 48 58 64 59 41 60 30 61 31 62 35 63 32 64 34 65 33 66
REMARK SMILES IDX 52 67 53 68 57 69 54 70 56 71 55 72 42 73 43 74 47 75 44 76
REMARK SMILES IDX 46 77 45 78
REMARK H PARENT 14 6 18 27 62 46 40 57
REMARK Flexibility Score: inf
ROOT
ATOM      1  C   UNL A   1      37.739  19.890  24.818  1.00  0.00     0.042 C 
ENDROOT
BRANCH   1   2
ATOM      2  C   UNL A   1      36.415  20.585  25.094  1.00  0.00     0.118 C 
BRANCH   2   3
ATOM      3  N   UNL A   1      35.289  19.671  24.969  1.00  0.00    -0.352 N 
ATOM      4  C   UNL A   1      33.940  19.756  24.920  1.00  0.00     0.251 C 
ATOM      5  O   UNL A   1      33.350  18.677  24.809  1.00  0.00    -0.270 OA
ATOM      6  H   UNL A   1      35.591  18.736  24.904  1.00  0.00     0.163 HD
BRANCH   4   7
ATOM      7  C   UNL A   1      33.159  21.025  24.992  1.00  0.00     0.067 C 
ATOM      8  C   UNL A   1      29.882  26.565  24.090  1.00  0.00     0.046 C 
ATOM      9  C   UNL A   1      30.737  25.335  23.937  1.00  0.00    -0.028 A 
ATOM     10  C   UNL A   1      30.740  24.426  24.997  1.00  0.00     0.052 A 
ATOM     11  C   UNL A   1      31.568  25.084  22.825  1.00  0.00     0.047 A 
ATOM     12  C   UNL A   1      31.528  23.283  24.948  1.00  0.00     0.128 A 
ATOM     13  C   UNL A   1      32.361  23.909  22.753  1.00  0.00    -0.021 A 
ATOM     14  Cl  UNL A   1      31.606  26.248  21.534  1.00  0.00    -0.084 Cl
ATOM     15  C   UNL A   1      32.328  22.998  23.837  1.00  0.00     0.022 A 
ATOM     16  O   UNL A   1      31.422  22.460  26.032  1.00  0.00    -0.475 OA
ATOM     17  C   UNL A   1      33.232  23.604  21.556  1.00  0.00     0.047 C 
ATOM     18  C   UNL A   1      33.067  21.732  23.850  1.00  0.00     0.026 C 
ATOM     19  C   UNL A   1      32.515  21.536  26.243  1.00  0.00     0.314 C 
BRANCH  19  20
ATOM     20  C   UNL A   1      33.531  22.150  27.228  1.00  0.00     0.429 C 
ATOM     21  F   UNL A   1      32.888  22.655  28.311  1.00  0.00    -0.167 F 
ATOM     22  F   UNL A   1      34.415  21.239  27.700  1.00  0.00    -0.167 F 
ATOM     23  F   UNL A   1      34.254  23.151  26.680  1.00  0.00    -0.167 F 
ENDBRANCH  19  20
ENDBRANCH   4   7
ENDBRANCH   2   3
ENDBRANCH   1   2
BRANCH   1  24
ATOM     24  C   UNL A   1      38.853  20.413  25.715  1.00  0.00     0.118 C 
BRANCH  24  25
ATOM     25  N   UNL A   1      39.945  19.450  25.836  1.00  0.00    -0.352 N 
ATOM     26  C   UNL A   1      41.281  19.654  26.071  1.00  0.00     0.251 C 
ATOM     27  H   UNL A   1      39.681  18.507  25.733  1.00  0.00     0.163 HD
ATOM     28  O   UNL A   1      42.088  18.753  25.856  1.00  0.00    -0.269 OA
BRANCH  26  29
ATOM     29  C   UNL A   1      41.746  20.956  26.580  1.00  0.00     0.039 A 
ATOM     30  C   UNL A   1      42.215  21.918  25.684  1.00  0.00     0.014 A 
ATOM     31  C   UNL A   1      41.732  21.217  27.952  1.00  0.00     0.014 A 
ATOM     32  C   UNL A   1      42.608  23.168  26.164  1.00  0.00     0.010 A 
ATOM     33  C   UNL A   1      42.019  22.491  28.415  1.00  0.00     0.010 A 
ATOM     34  C   UNL A   1      42.477  23.474  27.528  1.00  0.00    -0.014 A 
BRANCH  34  35
ATOM     35  C   UNL A   1      42.851  24.804  28.063  1.00  0.00     0.031 A 
ATOM     36  C   UNL A   1      41.790  25.854  28.249  1.00  0.00     0.074 A 
ATOM     37  C   UNL A   1      44.141  25.076  28.338  1.00  0.00     0.049 A 
ATOM     38  N   UNL A   1      41.919  27.093  28.649  1.00  0.00    -0.248 NA
ATOM     39  C   UNL A   1      40.404  25.472  27.922  1.00  0.00     0.031 C 
ATOM     40  C   UNL A   1      45.259  24.142  28.179  1.00  0.00     0.029 A 
ATOM     41  N   UNL A   1      44.728  26.217  28.822  1.00  0.00    -0.354 N 
ATOM     42  C   UNL A   1      40.638  27.630  28.624  1.00  0.00     0.074 A 
ATOM     43  C   UNL A   1      39.757  26.613  28.098  1.00  0.00     0.031 C 
ATOM     44  C   UNL A   1      46.387  24.730  28.610  1.00  0.00     0.029 A 
ATOM     45  C   UNL A   1      46.082  26.095  29.027  1.00  0.00     0.049 A 
ATOM     46  H   UNL A   1      44.228  27.044  29.004  1.00  0.00     0.167 HD
ATOM     47  C   UNL A   1      40.225  28.849  29.037  1.00  0.00     0.031 A 
ATOM     48  C   UNL A   1      46.972  26.984  29.505  1.00  0.00     0.031 A 
ATOM     49  C   UNL A   1      41.100  29.854  29.572  1.00  0.00     0.049 A 
ATOM     50  C   UNL A   1      46.493  28.355  29.897  1.00  0.00     0.074 A 
ATOM     51  C   UNL A   1      40.779  31.117  30.034  1.00  0.00     0.029 A 
ATOM     52  N   UNL A   1      42.469  29.703  29.726  1.00  0.00    -0.354 N 
ATOM     53  N   UNL A   1      45.273  28.835  29.896  1.00  0.00    -0.248 NA
ATOM     54  C   UNL A   1      47.515  29.305  30.358  1.00  0.00     0.031 C 
ATOM     55  C   UNL A   1      41.961  31.748  30.429  1.00  0.00     0.029 A 
ATOM     56  C   UNL A   1      43.009  30.857  30.264  1.00  0.00     0.049 A 
ATOM     57  H   UNL A   1      42.980  28.896  29.490  1.00  0.00     0.167 HD
ATOM     58  C   UNL A   1      45.377  30.131  30.386  1.00  0.00     0.074 A 
ATOM     59  C   UNL A   1      46.776  30.355  30.689  1.00  0.00     0.031 C 
ATOM     60  C   UNL A   1      44.402  31.053  30.569  1.00  0.00     0.031 A 
BRANCH  47  61
ATOM     61  C   UNL A   1      38.756  29.153  28.958  1.00  0.00    -0.014 A 
ATOM     62  C   UNL A   1      37.930  28.988  30.082  1.00  0.00     0.009 A 
ATOM     63  C   UNL A   1      38.204  29.672  27.777  1.00  0.00     0.009 A 
ATOM     64  C   UNL A   1      36.576  29.320  30.019  1.00  0.00     0.001 A 
ATOM     65  C   UNL A   1      36.855  30.029  27.726  1.00  0.00     0.001 A 
ATOM     66  C   UNL A   1      36.042  29.849  28.845  1.00  0.00     0.000 A 
ENDBRANCH  47  61
BRANCH  48  67
ATOM     67  C   UNL A   1      48.399  26.602  29.678  1.00  0.00    -0.014 A 
ATOM     68  C   UNL A   1      49.331  26.882  28.665  1.00  0.00     0.009 A 
ATOM     69  C   UNL A   1      48.838  25.948  30.839  1.00  0.00     0.009 A 
ATOM     70  C   UNL A   1      50.664  26.489  28.800  1.00  0.00     0.001 A 
ATOM     71  C   UNL A   1      50.179  25.584  30.984  1.00  0.00     0.001 A 
ATOM     72  C   UNL A   1      51.088  25.845  29.959  1.00  0.00     0.000 A 
ENDBRANCH  48  67
BRANCH  60  73
ATOM     73  C   UNL A   1      44.799  32.380  31.150  1.00  0.00    -0.014 A 
ATOM     74  C   UNL A   1      45.122  33.466  30.323  1.00  0.00     0.009 A 
ATOM     75  C   UNL A   1      44.766  32.565  32.541  1.00  0.00     0.009 A 
ATOM     76  C   UNL A   1      45.424  34.709  30.882  1.00  0.00     0.001 A 
ATOM     77  C   UNL A   1      45.038  33.817  33.094  1.00  0.00     0.001 A 
ATOM     78  C   UNL A   1      45.373  34.886  32.264  1.00  0.00     0.000 A 
ENDBRANCH  60  73
ENDBRANCH  34  35
ENDBRANCH  26  29
ENDBRANCH  24  25
ENDBRANCH   1  24
TORSDOF 11
ENDMDL
MODEL 2
REMARK VINA RESULT:     -12.2      0.299      5.981
REMARK SMILES Cc1cc2c(c(C)c1Cl)C=C(C(=O)NCCCNC(=O)c1ccc(-c3c4nc(c(-c5ccccc5)c5ccc([nH]5)c(-c5ccccc5)c5nc(c(-c6ccccc6)c6ccc3[nH]6)C=C5)C=C4)cc1)[C@@H](C(F)(F)F)O2
REMARK SMILES IDX 16 1 15 2 14 3 12 4 13 5 11 7 1 8 2 9 3 10 8 11 4 12 6 13
REMARK SMILES IDX 9 14 5 15 74 16 7 17 10 18 69 19 70 20 71 21 72 22 73 23
REMARK SMILES IDX 17 24 18 25 19 26 20 28 21 29 22 30 68 31 23 32 67 33 24 34
REMARK SMILES IDX 25 35 26 36 61 37 27 38 66 39 60 40 62 41 28 42 65 43 59 44
REMARK SMILES IDX 58 45 29 47 51 48 36 49 50 50 37 51 40 52 49 53 63 54 38 55
REMARK SMILES IDX 39 56 48 58 64 59 41 60 30 61 31 62 35 63 32 64 34 65 33 66
REMARK SMILES IDX 52 67 53 68 57 69 54 70 56 71 55 72 42 73 43 74 47 75 44 76
REMARK SMILES IDX 46 77 45 78
REMARK H PARENT 14 6 18 27 62 46 40 57
REMARK Flexibility Score: inf
ROOT
ATOM      1  C   UNL A   1      37.599  19.574  24.848  1.00  0.00     0.042 C 
ENDROOT
BRANCH   1   2
ATOM      2  C   UNL A   1      36.308  20.361  25.004  1.00  0.00     0.118 C 
BRANCH   2   3
ATOM      3  N   UNL A   1      35.140  19.494  24.982  1.00  0.00    -0.352 N 
ATOM      4  C   UNL A   1      33.795  19.637  25.001  1.00  0.00     0.251 C 
ATOM      5  O   UNL A   1      33.155  18.582  24.972  1.00  0.00    -0.270 OA
ATOM      6  H   UNL A   1      35.398  18.545  24.945  1.00  0.00     0.163 HD
BRANCH   4   7
ATOM      7  C   UNL A   1      33.073  20.941  25.053  1.00  0.00     0.067 C 
ATOM      8  C   UNL A   1      30.026  26.597  24.068  1.00  0.00     0.046 C 
ATOM      9  C   UNL A   1      30.822  25.326  23.930  1.00  0.00    -0.028 A 
ATOM     10  C   UNL A   1      30.808  24.447  25.016  1.00  0.00     0.052 A 
ATOM     11  C   UNL A   1      31.614  25.008  22.808  1.00  0.00     0.047 A 
ATOM     12  C   UNL A   1      31.543  23.269  24.982  1.00  0.00     0.128 A 
ATOM     13  C   UNL A   1      32.353  23.796  22.752  1.00  0.00    -0.021 A 
ATOM     14  Cl  UNL A   1      31.675  26.132  21.485  1.00  0.00    -0.084 Cl
ATOM     15  C   UNL A   1      32.304  22.918  23.862  1.00  0.00     0.022 A 
ATOM     16  O   UNL A   1      31.426  22.481  26.091  1.00  0.00    -0.475 OA
ATOM     17  C   UNL A   1      33.181  23.420  21.545  1.00  0.00     0.047 C 
ATOM     18  C   UNL A   1      32.986  21.620  23.894  1.00  0.00     0.026 C 
ATOM     19  C   UNL A   1      32.481  21.515  26.304  1.00  0.00     0.314 C 
BRANCH  19  20
ATOM     20  C   UNL A   1      33.546  22.109  27.248  1.00  0.00     0.429 C 
ATOM     21  F   UNL A   1      32.957  22.604  28.367  1.00  0.00    -0.167 F 
ATOM     22  F   UNL A   1      34.444  21.186  27.667  1.00  0.00    -0.167 F 
ATOM     23  F   UNL A   1      34.250  23.112  26.680  1.00  0.00    -0.167 F 
ENDBRANCH  19  20
ENDBRANCH   4   7
ENDBRANCH   2   3
ENDBRANCH   1   2
BRANCH   1  24
ATOM     24  C   UNL A   1      38.758  20.231  25.585  1.00  0.00     0.118 C 
BRANCH  24  25
ATOM     25  N   UNL A   1      39.869  19.302  25.782  1.00  0.00    -0.352 N 
ATOM     26  C   UNL A   1      41.183  19.548  26.089  1.00  0.00     0.251 C 
ATOM     27  H   UNL A   1      39.638  18.350  25.679  1.00  0.00     0.163 HD
ATOM     28  O   UNL A   1      42.026  18.668  25.933  1.00  0.00    -0.269 OA
BRANCH  26  29
ATOM     29  C   UNL A   1      41.581  20.870  26.602  1.00  0.00     0.039 A 
ATOM     30  C   UNL A   1      42.071  21.833  25.720  1.00  0.00     0.014 A 
ATOM     31  C   UNL A   1      41.484  21.148  27.968  1.00  0.00     0.014 A 
ATOM     32  C   UNL A   1      42.400  23.101  26.201  1.00  0.00     0.010 A 
ATOM     33  C   UNL A   1      41.709  22.436  28.427  1.00  0.00     0.010 A 
ATOM     34  C   UNL A   1      42.186  23.421  27.552  1.00  0.00    -0.014 A 
BRANCH  34  35
ATOM     35  C   UNL A   1      42.491  24.768  28.086  1.00  0.00     0.031 A 
ATOM     36  C   UNL A   1      43.907  25.119  28.452  1.00  0.00     0.074 A 
ATOM     37  C   UNL A   1      41.493  25.653  28.279  1.00  0.00     0.049 A 
ATOM     38  N   UNL A   1      44.371  26.220  28.985  1.00  0.00    -0.248 NA
ATOM     39  C   UNL A   1      44.936  24.091  28.209  1.00  0.00     0.031 C 
ATOM     40  C   UNL A   1      40.079  25.418  27.978  1.00  0.00     0.029 A 
ATOM     41  N   UNL A   1      41.521  26.935  28.763  1.00  0.00    -0.354 N 
ATOM     42  C   UNL A   1      45.737  26.016  29.136  1.00  0.00     0.074 A 
ATOM     43  C   UNL A   1      46.018  24.663  28.713  1.00  0.00     0.031 C 
ATOM     44  C   UNL A   1      39.383  26.537  28.234  1.00  0.00     0.029 A 
ATOM     45  C   UNL A   1      40.291  27.550  28.761  1.00  0.00     0.049 A 
ATOM     46  H   UNL A   1      42.341  27.373  29.082  1.00  0.00     0.167 HD
ATOM     47  C   UNL A   1      46.680  26.890  29.554  1.00  0.00     0.031 A 
ATOM     48  C   UNL A   1      39.941  28.794  29.139  1.00  0.00     0.031 A 
ATOM     49  C   UNL A   1      46.401  28.238  29.961  1.00  0.00     0.049 A 
ATOM     50  C   UNL A   1      41.003  29.723  29.660  1.00  0.00     0.074 A 
ATOM     51  C   UNL A   1      47.289  29.209  30.387  1.00  0.00     0.029 A 
ATOM     52  N   UNL A   1      45.138  28.808  29.981  1.00  0.00    -0.354 N 
ATOM     53  N   UNL A   1      42.295  29.524  29.766  1.00  0.00    -0.248 NA
ATOM     54  C   UNL A   1      40.558  31.049  30.111  1.00  0.00     0.031 C 
ATOM     55  C   UNL A   1      46.557  30.355  30.707  1.00  0.00     0.029 A 
ATOM     56  C   UNL A   1      45.221  30.115  30.426  1.00  0.00     0.049 A 
ATOM     57  H   UNL A   1      44.307  28.352  29.717  1.00  0.00     0.167 HD
ATOM     58  C   UNL A   1      42.819  30.709  30.265  1.00  0.00     0.074 A 
ATOM     59  C   UNL A   1      41.709  31.626  30.424  1.00  0.00     0.031 C 
ATOM     60  C   UNL A   1      44.105  31.012  30.565  1.00  0.00     0.031 A 
BRANCH  47  61
ATOM     61  C   UNL A   1      48.109  26.424  29.561  1.00  0.00    -0.014 A 
ATOM     62  C   UNL A   1      48.650  25.794  30.694  1.00  0.00     0.009 A 
ATOM     63  C   UNL A   1      48.899  26.551  28.409  1.00  0.00     0.009 A 
ATOM     64  C   UNL A   1      49.961  25.317  30.680  1.00  0.00     0.001 A 
ATOM     65  C   UNL A   1      50.202  26.047  28.389  1.00  0.00     0.001 A 
ATOM     66  C   UNL A   1      50.733  25.435  29.524  1.00  0.00     0.000 A 
ENDBRANCH  47  61
BRANCH  48  67
ATOM     67  C   UNL A   1      38.532  29.254  29.004  1.00  0.00    -0.014 A 
ATOM     68  C   UNL A   1      37.643  29.122  30.083  1.00  0.00     0.009 A 
ATOM     69  C   UNL A   1      38.064  29.809  27.804  1.00  0.00     0.009 A 
ATOM     70  C   UNL A   1      36.308  29.511  29.952  1.00  0.00     0.001 A 
ATOM     71  C   UNL A   1      36.735  30.225  27.687  1.00  0.00     0.001 A 
ATOM     72  C   UNL A   1      35.856  30.065  28.757  1.00  0.00     0.000 A 
ENDBRANCH  48  67
BRANCH  60  73
ATOM     73  C   UNL A   1      44.395  32.398  31.066  1.00  0.00    -0.014 A 
ATOM     74  C   UNL A   1      44.430  32.679  32.440  1.00  0.00     0.009 A 
ATOM     75  C   UNL A   1      44.720  33.412  30.152  1.00  0.00     0.009 A 
ATOM     76  C   UNL A   1      44.767  33.958  32.888  1.00  0.00     0.001 A 
ATOM     77  C   UNL A   1      45.086  34.681  30.604  1.00  0.00     0.001 A 
ATOM     78  C   UNL A   1      45.103  34.954  31.971  1.00  0.00     0.000 A 
ENDBRANCH  60  73
ENDBRANCH  34  35
ENDBRANCH  26  29
ENDBRANCH  24  25
ENDBRANCH   1  24
TORSDOF 11
ENDMDL
MODEL 3
REMARK VINA RESULT:     -12.1      2.645      7.429
REMARK SMILES Cc1cc2c(c(C)c1Cl)C=C(C(=O)NCCCNC(=O)c1ccc(-c3c4nc(c(-c5ccccc5)c5ccc([nH]5)c(-c5ccccc5)c5nc(c(-c6ccccc6)c6ccc3[nH]6)C=C5)C=C4)cc1)[C@@H](C(F)(F)F)O2
REMARK SMILES IDX 16 1 15 2 14 3 12 4 13 5 11 7 1 8 2 9 3 10 8 11 4 12 6 13
REMARK SMILES IDX 9 14 5 15 74 16 7 17 10 18 69 19 70 20 71 21 72 22 73 23
REMARK SMILES IDX 17 24 18 25 19 26 20 28 21 29 22 30 68 31 23 32 67 33 24 34
REMARK SMILES IDX 25 35 26 36 61 37 27 38 66 39 60 40 62 41 28 42 65 43 59 44
REMARK SMILES IDX 58 45 29 47 51 48 36 49 50 50 37 51 40 52 49 53 63 54 38 55
REMARK SMILES IDX 39 56 48 58 64 59 41 60 30 61 31 62 35 63 32 64 34 65 33 66
REMARK SMILES IDX 52 67 53 68 57 69 54 70 56 71 55 72 42 73 43 74 47 75 44 76
REMARK SMILES IDX 46 77 45 78
REMARK H PARENT 14 6 18 27 62 46 40 57
REMARK Flexibility Score: inf
ROOT
ATOM      1  C   UNL A   1      34.096  28.500  25.710  1.00  0.00     0.042 C 
ENDROOT
BRANCH   1   2
ATOM      2  C   UNL A   1      33.353  27.397  24.972  1.00  0.00     0.118 C 
BRANCH   2   3
ATOM      3  N   UNL A   1      32.292  26.822  25.785  1.00  0.00    -0.352 N 
ATOM      4  C   UNL A   1      31.893  25.588  26.172  1.00  0.00     0.251 C 
ATOM      5  O   UNL A   1      30.890  25.563  26.892  1.00  0.00    -0.270 OA
ATOM      6  H   UNL A   1      31.703  27.520  26.153  1.00  0.00     0.163 HD
BRANCH   4   7
ATOM      7  C   UNL A   1      32.566  24.313  25.792  1.00  0.00     0.067 C 
ATOM      8  C   UNL A   1      36.451  19.208  24.747  1.00  0.00     0.046 C 
ATOM      9  C   UNL A   1      35.873  20.551  25.108  1.00  0.00    -0.028 A 
ATOM     10  C   UNL A   1      34.483  20.678  25.059  1.00  0.00     0.052 A 
ATOM     11  C   UNL A   1      36.648  21.684  25.431  1.00  0.00     0.047 A 
ATOM     12  C   UNL A   1      33.873  21.892  25.346  1.00  0.00     0.128 A 
ATOM     13  C   UNL A   1      36.035  22.925  25.747  1.00  0.00    -0.021 A 
ATOM     14  Cl  UNL A   1      38.380  21.536  25.433  1.00  0.00    -0.084 Cl
ATOM     15  C   UNL A   1      34.623  23.016  25.706  1.00  0.00     0.022 A 
ATOM     16  O   UNL A   1      32.509  21.882  25.292  1.00  0.00    -0.475 OA
ATOM     17  C   UNL A   1      36.846  24.142  26.128  1.00  0.00     0.047 C 
ATOM     18  C   UNL A   1      33.882  24.232  26.060  1.00  0.00     0.026 C 
ATOM     19  C   UNL A   1      31.865  23.168  25.128  1.00  0.00     0.314 C 
BRANCH  19  20
ATOM     20  C   UNL A   1      31.590  23.424  23.632  1.00  0.00     0.429 C 
ATOM     21  F   UNL A   1      30.328  23.894  23.461  1.00  0.00    -0.167 F 
ATOM     22  F   UNL A   1      32.418  24.355  23.102  1.00  0.00    -0.167 F 
ATOM     23  F   UNL A   1      31.716  22.311  22.878  1.00  0.00    -0.167 F 
ENDBRANCH  19  20
ENDBRANCH   4   7
ENDBRANCH   2   3
ENDBRANCH   1   2
BRANCH   1  24
ATOM     24  C   UNL A   1      33.612  28.648  27.146  1.00  0.00     0.118 C 
BRANCH  24  25
ATOM     25  N   UNL A   1      33.622  30.044  27.577  1.00  0.00    -0.352 N 
ATOM     26  C   UNL A   1      34.554  30.737  28.306  1.00  0.00     0.251 C 
ATOM     27  H   UNL A   1      32.837  30.570  27.302  1.00  0.00     0.163 HD
ATOM     28  O   UNL A   1      34.260  31.817  28.814  1.00  0.00    -0.269 OA
BRANCH  26  29
ATOM     29  C   UNL A   1      35.908  30.183  28.481  1.00  0.00     0.039 A 
ATOM     30  C   UNL A   1      36.830  30.273  27.438  1.00  0.00     0.014 A 
ATOM     31  C   UNL A   1      36.258  29.555  29.679  1.00  0.00     0.014 A 
ATOM     32  C   UNL A   1      38.127  29.792  27.624  1.00  0.00     0.010 A 
ATOM     33  C   UNL A   1      37.572  29.175  29.901  1.00  0.00     0.010 A 
ATOM     34  C   UNL A   1      38.515  29.273  28.870  1.00  0.00    -0.014 A 
BRANCH  34  35
ATOM     35  C   UNL A   1      39.893  28.788  29.111  1.00  0.00     0.031 A 
ATOM     36  C   UNL A   1      40.884  29.680  29.809  1.00  0.00     0.074 A 
ATOM     37  C   UNL A   1      40.262  27.571  28.666  1.00  0.00     0.049 A 
ATOM     38  N   UNL A   1      42.148  29.465  30.065  1.00  0.00    -0.248 NA
ATOM     39  C   UNL A   1      40.396  30.996  30.262  1.00  0.00     0.031 C 
ATOM     40  C   UNL A   1      39.393  26.626  27.960  1.00  0.00     0.029 A 
ATOM     41  N   UNL A   1      41.462  26.915  28.755  1.00  0.00    -0.354 N 
ATOM     42  C   UNL A   1      42.601  30.611  30.705  1.00  0.00     0.074 A 
ATOM     43  C   UNL A   1      41.503  31.550  30.733  1.00  0.00     0.031 C 
ATOM     44  C   UNL A   1      40.075  25.492  27.728  1.00  0.00     0.029 A 
ATOM     45  C   UNL A   1      41.438  25.648  28.224  1.00  0.00     0.049 A 
ATOM     46  H   UNL A   1      42.266  27.314  29.160  1.00  0.00     0.167 HD
ATOM     47  C   UNL A   1      43.813  30.848  31.256  1.00  0.00     0.031 A 
ATOM     48  C   UNL A   1      42.407  24.716  28.152  1.00  0.00     0.031 A 
ATOM     49  C   UNL A   1      44.899  29.910  31.240  1.00  0.00     0.049 A 
ATOM     50  C   UNL A   1      43.765  25.033  28.716  1.00  0.00     0.074 A 
ATOM     51  C   UNL A   1      46.163  30.047  31.784  1.00  0.00     0.029 A 
ATOM     52  N   UNL A   1      44.844  28.654  30.657  1.00  0.00    -0.354 N 
ATOM     53  N   UNL A   1      44.166  26.110  29.347  1.00  0.00    -0.248 NA
ATOM     54  C   UNL A   1      44.802  24.004  28.561  1.00  0.00     0.031 C 
ATOM     55  C   UNL A   1      46.889  28.890  31.492  1.00  0.00     0.029 A 
ATOM     56  C   UNL A   1      46.058  28.011  30.816  1.00  0.00     0.049 A 
ATOM     57  H   UNL A   1      44.059  28.275  30.200  1.00  0.00     0.167 HD
ATOM     58  C   UNL A   1      45.491  25.874  29.692  1.00  0.00     0.074 A 
ATOM     59  C   UNL A   1      45.819  24.547  29.215  1.00  0.00     0.031 C 
ATOM     60  C   UNL A   1      46.358  26.685  30.344  1.00  0.00     0.031 A 
BRANCH  47  61
ATOM     61  C   UNL A   1      44.018  32.163  31.953  1.00  0.00    -0.014 A 
ATOM     62  C   UNL A   1      43.753  32.294  33.326  1.00  0.00     0.009 A 
ATOM     63  C   UNL A   1      44.544  33.260  31.253  1.00  0.00     0.009 A 
ATOM     64  C   UNL A   1      43.994  33.503  33.981  1.00  0.00     0.001 A 
ATOM     65  C   UNL A   1      44.810  34.459  31.917  1.00  0.00     0.001 A 
ATOM     66  C   UNL A   1      44.531  34.581  33.278  1.00  0.00     0.000 A 
ENDBRANCH  47  61
BRANCH  48  67
ATOM     67  C   UNL A   1      42.126  23.381  27.558  1.00  0.00    -0.014 A 
ATOM     68  C   UNL A   1      41.538  22.373  28.338  1.00  0.00     0.009 A 
ATOM     69  C   UNL A   1      42.453  23.100  26.223  1.00  0.00     0.009 A 
ATOM     70  C   UNL A   1      41.309  21.104  27.802  1.00  0.00     0.001 A 
ATOM     71  C   UNL A   1      42.195  21.839  25.681  1.00  0.00     0.001 A 
ATOM     72  C   UNL A   1      41.634  20.839  26.474  1.00  0.00     0.000 A 
ENDBRANCH  48  67
BRANCH  60  73
ATOM     73  C   UNL A   1      47.738  26.154  30.612  1.00  0.00    -0.014 A 
ATOM     74  C   UNL A   1      48.733  26.192  29.625  1.00  0.00     0.009 A 
ATOM     75  C   UNL A   1      48.066  25.692  31.896  1.00  0.00     0.009 A 
ATOM     76  C   UNL A   1      50.027  25.756  29.914  1.00  0.00     0.001 A 
ATOM     77  C   UNL A   1      49.367  25.286  32.191  1.00  0.00     0.001 A 
ATOM     78  C   UNL A   1      50.345  25.313  31.198  1.00  0.00     0.000 A 
ENDBRANCH  60  73
ENDBRANCH  34  35
ENDBRANCH  26  29
ENDBRANCH  24  25
ENDBRANCH   1  24
TORSDOF 11
ENDMDL
