MODEL 1
REMARK VINA RESULT:     -11.7      0.000      0.000
REMARK SMILES COc1ccc(-c2ccc(C(=O)NCc3ccc(C(=O)NCCCNC(=O)c4ccc(-c5c6nc(c(-c7ccccc7)c7ccc([nH]7)c(-c7ccccc7)c7nc(c(-c8ccccc8)c8ccc5[nH]8)C=C7)C=C6)cc4)cc3)o2)c([N+](=O)[O-])c1
REMARK SMILES IDX 19 1 20 2 21 3 18 5 15 6 16 7 77 8 17 9 76 10 14 11 13 12
REMARK SMILES IDX 11 13 12 14 10 16 7 17 8 18 78 19 9 20 6 21 3 22 4 23 83 24
REMARK SMILES IDX 5 25 79 26 2 27 1 28 80 29 81 30 82 31 22 32 23 33 24 34
REMARK SMILES IDX 25 35 26 36 27 38 28 39 29 40 75 41 30 42 74 43 31 44 32 45
REMARK SMILES IDX 33 46 68 47 34 48 73 49 67 50 69 51 35 52 72 53 66 54 65 55
REMARK SMILES IDX 36 57 58 58 43 59 57 60 44 61 47 62 56 63 70 64 45 65 46 66
REMARK SMILES IDX 55 68 71 69 48 70 37 71 38 72 42 73 39 74 41 75 40 76 59 77
REMARK SMILES IDX 60 78 64 79 61 80 63 81 62 82 49 83 50 84 54 85 51 86 53 87
REMARK SMILES IDX 52 88
REMARK H PARENT 21 4 13 15 25 37 69 56 47 67
REMARK Flexibility Score: inf
ROOT
ATOM      1  C   UNL A   1      32.975  29.196  26.919  1.00  0.00     0.251 C 
ATOM      2  O   UNL A   1      33.966  28.895  27.587  1.00  0.00    -0.269 OA
ATOM      3  N   UNL A   1      32.511  30.480  27.033  1.00  0.00    -0.352 N 
ATOM      4  H   UNL A   1      33.017  31.026  27.677  1.00  0.00     0.163 HD
ENDROOT
BRANCH   1   5
ATOM      5  C   UNL A   1      32.382  28.177  26.009  1.00  0.00     0.039 A 
ATOM      6  C   UNL A   1      31.386  26.295  24.131  1.00  0.00    -0.029 A 
ATOM      7  C   UNL A   1      32.363  27.229  23.761  1.00  0.00     0.006 A 
ATOM      8  C   UNL A   1      30.922  26.317  25.454  1.00  0.00     0.006 A 
ATOM      9  C   UNL A   1      32.856  28.153  24.688  1.00  0.00     0.014 A 
ATOM     10  C   UNL A   1      31.438  27.224  26.387  1.00  0.00     0.014 A 
BRANCH   6  11
ATOM     11  C   UNL A   1      30.856  25.324  23.100  1.00  0.00     0.152 C 
BRANCH  11  12
ATOM     12  N   UNL A   1      31.648  25.302  21.890  1.00  0.00    -0.345 N 
ATOM     13  C   UNL A   1      32.794  24.629  21.548  1.00  0.00     0.287 C 
ATOM     14  O   UNL A   1      33.180  24.803  20.385  1.00  0.00    -0.266 OA
ATOM     15  H   UNL A   1      31.297  25.879  21.174  1.00  0.00     0.164 HD
BRANCH  13  16
ATOM     16  C   UNL A   1      33.513  23.791  22.491  1.00  0.00     0.192 A 
ATOM     17  C   UNL A   1      33.689  21.993  23.778  1.00  0.00     0.142 A 
ATOM     18  C   UNL A   1      34.856  22.700  23.946  1.00  0.00     0.052 A 
ATOM     19  O   UNL A   1      32.883  22.629  22.887  1.00  0.00    -0.451 OA
ATOM     20  C   UNL A   1      34.755  23.834  23.103  1.00  0.00     0.057 A 
BRANCH  17  21
ATOM     21  C   UNL A   1      33.198  20.735  24.316  1.00  0.00     0.095 A 
ATOM     22  C   UNL A   1      32.565  18.124  25.222  1.00  0.00     0.125 A 
ATOM     23  C   UNL A   1      32.530  18.437  23.862  1.00  0.00     0.047 A 
ATOM     24  C   UNL A   1      32.873  19.122  26.142  1.00  0.00     0.132 A 
ATOM     25  C   UNL A   1      32.830  19.728  23.412  1.00  0.00     0.023 A 
ATOM     26  C   UNL A   1      33.185  20.419  25.683  1.00  0.00     0.284 A 
BRANCH  22  27
ATOM     27  O   UNL A   1      32.314  16.812  25.511  1.00  0.00    -0.497 OA
ATOM     28  C   UNL A   1      33.105  15.834  24.846  1.00  0.00     0.278 C 
ENDBRANCH  22  27
BRANCH  26  29
ATOM     29  N   UNL A   1      33.504  21.423  26.694  1.00  0.00     0.063 N 
ATOM     30  O   UNL A   1      32.599  22.168  27.088  1.00  0.00    -0.258 OA
ATOM     31  O   UNL A   1      34.669  21.441  27.120  1.00  0.00    -0.258 OA
ENDBRANCH  26  29
ENDBRANCH  17  21
ENDBRANCH  13  16
ENDBRANCH  11  12
ENDBRANCH   6  11
ENDBRANCH   1   5
BRANCH   3  32
ATOM     32  C   UNL A   1      31.423  31.196  26.393  1.00  0.00     0.118 C 
BRANCH  32  33
ATOM     33  C   UNL A   1      31.450  32.677  26.768  1.00  0.00     0.042 C 
BRANCH  33  34
ATOM     34  C   UNL A   1      32.824  33.156  27.237  1.00  0.00     0.118 C 
BRANCH  34  35
ATOM     35  N   UNL A   1      32.735  34.392  28.004  1.00  0.00    -0.352 N 
ATOM     36  C   UNL A   1      33.442  34.804  29.105  1.00  0.00     0.251 C 
ATOM     37  H   UNL A   1      32.062  35.033  27.680  1.00  0.00     0.163 HD
ATOM     38  O   UNL A   1      33.046  35.772  29.749  1.00  0.00    -0.269 OA
BRANCH  36  39
ATOM     39  C   UNL A   1      34.669  34.094  29.525  1.00  0.00     0.039 A 
ATOM     40  C   UNL A   1      35.882  34.440  28.924  1.00  0.00     0.014 A 
ATOM     41  C   UNL A   1      34.622  33.058  30.462  1.00  0.00     0.014 A 
ATOM     42  C   UNL A   1      37.056  33.782  29.300  1.00  0.00     0.010 A 
ATOM     43  C   UNL A   1      35.802  32.454  30.888  1.00  0.00     0.010 A 
ATOM     44  C   UNL A   1      37.030  32.803  30.307  1.00  0.00    -0.014 A 
BRANCH  44  45
ATOM     45  C   UNL A   1      38.280  32.146  30.768  1.00  0.00     0.031 A 
ATOM     46  C   UNL A   1      38.767  30.887  30.105  1.00  0.00     0.074 A 
ATOM     47  C   UNL A   1      38.943  32.656  31.824  1.00  0.00     0.049 A 
ATOM     48  N   UNL A   1      39.812  30.153  30.398  1.00  0.00    -0.248 NA
ATOM     49  C   UNL A   1      37.969  30.370  28.981  1.00  0.00     0.031 C 
ATOM     50  C   UNL A   1      38.552  33.851  32.576  1.00  0.00     0.029 A 
ATOM     51  N   UNL A   1      40.086  32.230  32.453  1.00  0.00    -0.354 N 
ATOM     52  C   UNL A   1      39.780  29.080  29.514  1.00  0.00     0.074 A 
ATOM     53  C   UNL A   1      38.595  29.237  28.700  1.00  0.00     0.031 C 
ATOM     54  C   UNL A   1      39.456  34.079  33.543  1.00  0.00     0.029 A 
ATOM     55  C   UNL A   1      40.462  33.024  33.510  1.00  0.00     0.049 A 
ATOM     56  H   UNL A   1      40.590  31.431  32.173  1.00  0.00     0.167 HD
ATOM     57  C   UNL A   1      40.667  28.064  29.384  1.00  0.00     0.031 A 
ATOM     58  C   UNL A   1      41.496  32.909  34.365  1.00  0.00     0.031 A 
ATOM     59  C   UNL A   1      41.854  27.921  30.183  1.00  0.00     0.049 A 
ATOM     60  C   UNL A   1      42.453  31.760  34.204  1.00  0.00     0.074 A 
ATOM     61  C   UNL A   1      42.853  26.968  30.077  1.00  0.00     0.029 A 
ATOM     62  N   UNL A   1      42.199  28.746  31.242  1.00  0.00    -0.354 N 
ATOM     63  N   UNL A   1      42.458  30.806  33.305  1.00  0.00    -0.248 NA
ATOM     64  C   UNL A   1      43.555  31.679  35.174  1.00  0.00     0.031 C 
ATOM     65  C   UNL A   1      43.768  27.178  31.112  1.00  0.00     0.029 A 
ATOM     66  C   UNL A   1      43.376  28.301  31.821  1.00  0.00     0.049 A 
ATOM     67  H   UNL A   1      41.684  29.530  31.538  1.00  0.00     0.167 HD
ATOM     68  C   UNL A   1      43.580  30.034  33.580  1.00  0.00     0.074 A 
ATOM     69  C   UNL A   1      44.240  30.642  34.715  1.00  0.00     0.031 C 
ATOM     70  C   UNL A   1      44.025  28.921  32.947  1.00  0.00     0.031 A 
BRANCH  57  71
ATOM     71  C   UNL A   1      40.383  27.013  28.346  1.00  0.00    -0.014 A 
ATOM     72  C   UNL A   1      40.919  27.096  27.051  1.00  0.00     0.009 A 
ATOM     73  C   UNL A   1      39.618  25.888  28.691  1.00  0.00     0.009 A 
ATOM     74  C   UNL A   1      40.669  26.090  26.116  1.00  0.00     0.001 A 
ATOM     75  C   UNL A   1      39.395  24.868  27.763  1.00  0.00     0.001 A 
ATOM     76  C   UNL A   1      39.914  24.973  26.474  1.00  0.00     0.000 A 
ENDBRANCH  57  71
BRANCH  58  77
ATOM     77  C   UNL A   1      41.692  33.907  35.450  1.00  0.00    -0.014 A 
ATOM     78  C   UNL A   1      41.106  33.714  36.711  1.00  0.00     0.009 A 
ATOM     79  C   UNL A   1      42.433  35.077  35.222  1.00  0.00     0.009 A 
ATOM     80  C   UNL A   1      41.224  34.688  37.705  1.00  0.00     0.001 A 
ATOM     81  C   UNL A   1      42.579  36.033  36.229  1.00  0.00     0.001 A 
ATOM     82  C   UNL A   1      41.962  35.845  37.464  1.00  0.00     0.000 A 
ENDBRANCH  58  77
BRANCH  70  83
ATOM     83  C   UNL A   1      45.309  28.316  33.441  1.00  0.00    -0.014 A 
ATOM     84  C   UNL A   1      46.554  28.736  32.948  1.00  0.00     0.009 A 
ATOM     85  C   UNL A   1      45.270  27.332  34.442  1.00  0.00     0.009 A 
ATOM     86  C   UNL A   1      47.732  28.153  33.421  1.00  0.00     0.001 A 
ATOM     87  C   UNL A   1      46.450  26.778  34.938  1.00  0.00     0.001 A 
ATOM     88  C   UNL A   1      47.680  27.180  34.419  1.00  0.00     0.000 A 
ENDBRANCH  70  83
ENDBRANCH  44  45
ENDBRANCH  36  39
ENDBRANCH  34  35
ENDBRANCH  33  34
ENDBRANCH  32  33
ENDBRANCH   3  32
TORSDOF 16
ENDMDL
MODEL 2
REMARK VINA RESULT:     -11.7      2.283      3.241
REMARK SMILES COc1ccc(-c2ccc(C(=O)NCc3ccc(C(=O)NCCCNC(=O)c4ccc(-c5c6nc(c(-c7ccccc7)c7ccc([nH]7)c(-c7ccccc7)c7nc(c(-c8ccccc8)c8ccc5[nH]8)C=C7)C=C6)cc4)cc3)o2)c([N+](=O)[O-])c1
REMARK SMILES IDX 19 1 20 2 21 3 18 5 15 6 16 7 77 8 17 9 76 10 14 11 13 12
REMARK SMILES IDX 11 13 12 14 10 16 7 17 8 18 78 19 9 20 6 21 3 22 4 23 83 24
REMARK SMILES IDX 5 25 79 26 2 27 1 28 80 29 81 30 82 31 22 32 23 33 24 34
REMARK SMILES IDX 25 35 26 36 27 38 28 39 29 40 75 41 30 42 74 43 31 44 32 45
REMARK SMILES IDX 33 46 68 47 34 48 73 49 67 50 69 51 35 52 72 53 66 54 65 55
REMARK SMILES IDX 36 57 58 58 43 59 57 60 44 61 47 62 56 63 70 64 45 65 46 66
REMARK SMILES IDX 55 68 71 69 48 70 37 71 38 72 42 73 39 74 41 75 40 76 59 77
REMARK SMILES IDX 60 78 64 79 61 80 63 81 62 82 49 83 50 84 54 85 51 86 53 87
REMARK SMILES IDX 52 88
REMARK H PARENT 21 4 13 15 25 37 69 56 47 67
REMARK Flexibility Score: inf
ROOT
ATOM      1  C   UNL A   1      30.010  29.572  23.103  1.00  0.00     0.251 C 
ATOM      2  O   UNL A   1      29.372  29.979  22.131  1.00  0.00    -0.269 OA
ATOM      3  N   UNL A   1      30.466  30.511  23.989  1.00  0.00    -0.352 N 
ATOM      4  H   UNL A   1      30.255  31.436  23.727  1.00  0.00     0.163 HD
ENDROOT
BRANCH   1   5
ATOM      5  C   UNL A   1      30.200  28.104  23.277  1.00  0.00     0.039 A 
ATOM      6  C   UNL A   1      30.390  25.306  23.719  1.00  0.00    -0.029 A 
ATOM      7  C   UNL A   1      29.387  26.064  24.339  1.00  0.00     0.006 A 
ATOM      8  C   UNL A   1      31.290  25.971  22.874  1.00  0.00     0.006 A 
ATOM      9  C   UNL A   1      29.292  27.442  24.117  1.00  0.00     0.014 A 
ATOM     10  C   UNL A   1      31.174  27.345  22.631  1.00  0.00     0.014 A 
BRANCH   6  11
ATOM     11  C   UNL A   1      30.481  23.823  23.997  1.00  0.00     0.152 C 
BRANCH  11  12
ATOM     12  N   UNL A   1      30.485  23.515  25.410  1.00  0.00    -0.345 N 
ATOM     13  C   UNL A   1      31.412  23.728  26.399  1.00  0.00     0.287 C 
ATOM     14  O   UNL A   1      31.061  23.381  27.534  1.00  0.00    -0.266 OA
ATOM     15  H   UNL A   1      29.666  23.068  25.723  1.00  0.00     0.164 HD
BRANCH  13  16
ATOM     16  C   UNL A   1      32.719  24.300  26.128  1.00  0.00     0.192 A 
ATOM     17  C   UNL A   1      34.904  24.124  25.786  1.00  0.00     0.142 A 
ATOM     18  C   UNL A   1      34.610  25.465  25.708  1.00  0.00     0.052 A 
ATOM     19  O   UNL A   1      33.769  23.412  26.016  1.00  0.00    -0.451 OA
ATOM     20  C   UNL A   1      33.211  25.575  25.899  1.00  0.00     0.057 A 
BRANCH  17  21
ATOM     21  C   UNL A   1      36.131  23.360  25.636  1.00  0.00     0.095 A 
ATOM     22  C   UNL A   1      38.498  21.801  25.725  1.00  0.00     0.125 A 
ATOM     23  C   UNL A   1      38.457  23.074  26.299  1.00  0.00     0.047 A 
ATOM     24  C   UNL A   1      37.372  21.317  25.065  1.00  0.00     0.132 A 
ATOM     25  C   UNL A   1      37.294  23.850  26.246  1.00  0.00     0.023 A 
ATOM     26  C   UNL A   1      36.199  22.098  25.024  1.00  0.00     0.284 A 
BRANCH  22  27
ATOM     27  O   UNL A   1      39.675  21.132  25.909  1.00  0.00    -0.497 OA
ATOM     28  C   UNL A   1      40.847  21.913  26.107  1.00  0.00     0.278 C 
ENDBRANCH  22  27
BRANCH  26  29
ATOM     29  N   UNL A   1      35.049  21.536  24.322  1.00  0.00     0.063 N 
ATOM     30  O   UNL A   1      34.530  20.509  24.774  1.00  0.00    -0.258 OA
ATOM     31  O   UNL A   1      34.645  22.152  23.324  1.00  0.00    -0.258 OA
ENDBRANCH  26  29
ENDBRANCH  17  21
ENDBRANCH  13  16
ENDBRANCH  11  12
ENDBRANCH   6  11
ENDBRANCH   1   5
BRANCH   3  32
ATOM     32  C   UNL A   1      31.199  30.415  25.237  1.00  0.00     0.118 C 
BRANCH  32  33
ATOM     33  C   UNL A   1      30.965  31.652  26.105  1.00  0.00     0.042 C 
BRANCH  33  34
ATOM     34  C   UNL A   1      32.220  32.115  26.845  1.00  0.00     0.118 C 
BRANCH  34  35
ATOM     35  N   UNL A   1      32.158  33.530  27.187  1.00  0.00    -0.352 N 
ATOM     36  C   UNL A   1      32.888  34.255  28.093  1.00  0.00     0.251 C 
ATOM     37  H   UNL A   1      31.485  34.047  26.689  1.00  0.00     0.163 HD
ATOM     38  O   UNL A   1      32.514  35.381  28.407  1.00  0.00    -0.269 OA
BRANCH  36  39
ATOM     39  C   UNL A   1      34.116  33.695  28.696  1.00  0.00     0.039 A 
ATOM     40  C   UNL A   1      35.356  34.144  28.232  1.00  0.00     0.014 A 
ATOM     41  C   UNL A   1      34.055  32.695  29.670  1.00  0.00     0.014 A 
ATOM     42  C   UNL A   1      36.532  33.628  28.781  1.00  0.00     0.010 A 
ATOM     43  C   UNL A   1      35.225  32.234  30.268  1.00  0.00     0.010 A 
ATOM     44  C   UNL A   1      36.476  32.690  29.826  1.00  0.00    -0.014 A 
BRANCH  44  45
ATOM     45  C   UNL A   1      37.716  32.185  30.469  1.00  0.00     0.031 A 
ATOM     46  C   UNL A   1      38.521  31.093  29.819  1.00  0.00     0.074 A 
ATOM     47  C   UNL A   1      38.084  32.675  31.669  1.00  0.00     0.049 A 
ATOM     48  N   UNL A   1      39.606  30.500  30.252  1.00  0.00    -0.248 NA
ATOM     49  C   UNL A   1      38.037  30.584  28.525  1.00  0.00     0.031 C 
ATOM     50  C   UNL A   1      37.367  33.709  32.420  1.00  0.00     0.029 A 
ATOM     51  N   UNL A   1      39.151  32.363  32.473  1.00  0.00    -0.354 N 
ATOM     52  C   UNL A   1      39.916  29.536  29.300  1.00  0.00     0.074 A 
ATOM     53  C   UNL A   1      38.887  29.596  28.286  1.00  0.00     0.031 C 
ATOM     54  C   UNL A   1      38.031  33.968  33.558  1.00  0.00     0.029 A 
ATOM     55  C   UNL A   1      39.191  33.088  33.641  1.00  0.00     0.049 A 
ATOM     56  H   UNL A   1      39.825  31.685  32.237  1.00  0.00     0.167 HD
ATOM     57  C   UNL A   1      40.971  28.687  29.267  1.00  0.00     0.031 A 
ATOM     58  C   UNL A   1      40.060  33.041  34.669  1.00  0.00     0.031 A 
ATOM     59  C   UNL A   1      42.003  28.642  30.269  1.00  0.00     0.049 A 
ATOM     60  C   UNL A   1      41.211  32.076  34.610  1.00  0.00     0.074 A 
ATOM     61  C   UNL A   1      43.152  27.870  30.286  1.00  0.00     0.029 A 
ATOM     62  N   UNL A   1      42.007  29.392  31.434  1.00  0.00    -0.354 N 
ATOM     63  N   UNL A   1      41.539  31.235  33.659  1.00  0.00    -0.248 NA
ATOM     64  C   UNL A   1      42.118  32.061  35.767  1.00  0.00     0.031 C 
ATOM     65  C   UNL A   1      43.818  28.105  31.492  1.00  0.00     0.029 A 
ATOM     66  C   UNL A   1      43.120  29.073  32.195  1.00  0.00     0.049 A 
ATOM     67  H   UNL A   1      41.322  30.052  31.683  1.00  0.00     0.167 HD
ATOM     68  C   UNL A   1      42.708  30.619  34.086  1.00  0.00     0.074 A 
ATOM     69  C   UNL A   1      43.041  31.196  35.372  1.00  0.00     0.031 C 
ATOM     70  C   UNL A   1      43.441  29.661  33.469  1.00  0.00     0.031 A 
BRANCH  57  71
ATOM     71  C   UNL A   1      41.060  27.722  28.117  1.00  0.00    -0.014 A 
ATOM     72  C   UNL A   1      40.486  26.442  28.187  1.00  0.00     0.009 A 
ATOM     73  C   UNL A   1      41.673  28.125  26.920  1.00  0.00     0.009 A 
ATOM     74  C   UNL A   1      40.552  25.577  27.092  1.00  0.00     0.001 A 
ATOM     75  C   UNL A   1      41.710  27.269  25.817  1.00  0.00     0.001 A 
ATOM     76  C   UNL A   1      41.157  25.994  25.906  1.00  0.00     0.000 A 
ENDBRANCH  57  71
BRANCH  58  77
ATOM     77  C   UNL A   1      39.885  33.936  35.844  1.00  0.00    -0.014 A 
ATOM     78  C   UNL A   1      39.083  33.543  36.927  1.00  0.00     0.009 A 
ATOM     79  C   UNL A   1      40.488  35.204  35.875  1.00  0.00     0.009 A 
ATOM     80  C   UNL A   1      38.856  34.415  37.995  1.00  0.00     0.001 A 
ATOM     81  C   UNL A   1      40.287  36.060  36.960  1.00  0.00     0.001 A 
ATOM     82  C   UNL A   1      39.460  35.670  38.012  1.00  0.00     0.000 A 
ENDBRANCH  58  77
BRANCH  70  83
ATOM     83  C   UNL A   1      44.700  29.209  34.155  1.00  0.00    -0.014 A 
ATOM     84  C   UNL A   1      44.724  28.060  34.962  1.00  0.00     0.009 A 
ATOM     85  C   UNL A   1      45.890  29.929  33.962  1.00  0.00     0.009 A 
ATOM     86  C   UNL A   1      45.906  27.666  35.591  1.00  0.00     0.001 A 
ATOM     87  C   UNL A   1      47.077  29.512  34.564  1.00  0.00     0.001 A 
ATOM     88  C   UNL A   1      47.082  28.387  35.388  1.00  0.00     0.000 A 
ENDBRANCH  70  83
ENDBRANCH  44  45
ENDBRANCH  36  39
ENDBRANCH  34  35
ENDBRANCH  33  34
ENDBRANCH  32  33
ENDBRANCH   3  32
TORSDOF 16
ENDMDL
MODEL 3
REMARK VINA RESULT:     -11.7      2.268      6.382
REMARK SMILES COc1ccc(-c2ccc(C(=O)NCc3ccc(C(=O)NCCCNC(=O)c4ccc(-c5c6nc(c(-c7ccccc7)c7ccc([nH]7)c(-c7ccccc7)c7nc(c(-c8ccccc8)c8ccc5[nH]8)C=C7)C=C6)cc4)cc3)o2)c([N+](=O)[O-])c1
REMARK SMILES IDX 19 1 20 2 21 3 18 5 15 6 16 7 77 8 17 9 76 10 14 11 13 12
REMARK SMILES IDX 11 13 12 14 10 16 7 17 8 18 78 19 9 20 6 21 3 22 4 23 83 24
REMARK SMILES IDX 5 25 79 26 2 27 1 28 80 29 81 30 82 31 22 32 23 33 24 34
REMARK SMILES IDX 25 35 26 36 27 38 28 39 29 40 75 41 30 42 74 43 31 44 32 45
REMARK SMILES IDX 33 46 68 47 34 48 73 49 67 50 69 51 35 52 72 53 66 54 65 55
REMARK SMILES IDX 36 57 58 58 43 59 57 60 44 61 47 62 56 63 70 64 45 65 46 66
REMARK SMILES IDX 55 68 71 69 48 70 37 71 38 72 42 73 39 74 41 75 40 76 59 77
REMARK SMILES IDX 60 78 64 79 61 80 63 81 62 82 49 83 50 84 54 85 51 86 53 87
REMARK SMILES IDX 52 88
REMARK H PARENT 21 4 13 15 25 37 69 56 47 67
REMARK Flexibility Score: inf
ROOT
ATOM      1  C   UNL A   1      29.970  29.575  23.202  1.00  0.00     0.251 C 
ATOM      2  O   UNL A   1      29.277  29.992  22.273  1.00  0.00    -0.269 OA
ATOM      3  N   UNL A   1      30.466  30.505  24.077  1.00  0.00    -0.352 N 
ATOM      4  H   UNL A   1      30.233  31.432  23.843  1.00  0.00     0.163 HD
ENDROOT
BRANCH   1   5
ATOM      5  C   UNL A   1      30.183  28.108  23.341  1.00  0.00     0.039 A 
ATOM      6  C   UNL A   1      30.420  25.304  23.723  1.00  0.00    -0.029 A 
ATOM      7  C   UNL A   1      29.438  26.040  24.400  1.00  0.00     0.006 A 
ATOM      8  C   UNL A   1      31.275  25.994  22.852  1.00  0.00     0.006 A 
ATOM      9  C   UNL A   1      29.319  27.421  24.208  1.00  0.00     0.014 A 
ATOM     10  C   UNL A   1      31.135  27.371  22.639  1.00  0.00     0.014 A 
BRANCH   6  11
ATOM     11  C   UNL A   1      30.538  23.817  23.970  1.00  0.00     0.152 C 
BRANCH  11  12
ATOM     12  N   UNL A   1      30.554  23.480  25.376  1.00  0.00    -0.345 N 
ATOM     13  C   UNL A   1      31.491  23.671  26.361  1.00  0.00     0.287 C 
ATOM     14  O   UNL A   1      31.148  23.302  27.492  1.00  0.00    -0.266 OA
ATOM     15  H   UNL A   1      29.737  23.029  25.687  1.00  0.00     0.164 HD
BRANCH  13  16
ATOM     16  C   UNL A   1      32.796  24.246  26.090  1.00  0.00     0.192 A 
ATOM     17  C   UNL A   1      34.983  24.077  25.764  1.00  0.00     0.142 A 
ATOM     18  C   UNL A   1      34.684  25.415  25.667  1.00  0.00     0.052 A 
ATOM     19  O   UNL A   1      33.851  23.362  25.997  1.00  0.00    -0.451 OA
ATOM     20  C   UNL A   1      33.283  25.520  25.847  1.00  0.00     0.057 A 
BRANCH  17  21
ATOM     21  C   UNL A   1      36.215  23.317  25.632  1.00  0.00     0.095 A 
ATOM     22  C   UNL A   1      38.593  21.778  25.757  1.00  0.00     0.125 A 
ATOM     23  C   UNL A   1      38.546  23.066  26.295  1.00  0.00     0.047 A 
ATOM     24  C   UNL A   1      37.469  21.267  25.115  1.00  0.00     0.132 A 
ATOM     25  C   UNL A   1      37.377  23.833  26.224  1.00  0.00     0.023 A 
ATOM     26  C   UNL A   1      36.291  22.040  25.056  1.00  0.00     0.284 A 
BRANCH  22  27
ATOM     27  O   UNL A   1      39.775  21.122  25.956  1.00  0.00    -0.497 OA
ATOM     28  C   UNL A   1      40.936  21.916  26.173  1.00  0.00     0.278 C 
ENDBRANCH  22  27
BRANCH  26  29
ATOM     29  N   UNL A   1      35.143  21.450  24.373  1.00  0.00     0.063 N 
ATOM     30  O   UNL A   1      34.686  20.385  24.805  1.00  0.00    -0.258 OA
ATOM     31  O   UNL A   1      34.675  22.081  23.413  1.00  0.00    -0.258 OA
ENDBRANCH  26  29
ENDBRANCH  17  21
ENDBRANCH  13  16
ENDBRANCH  11  12
ENDBRANCH   6  11
ENDBRANCH   1   5
BRANCH   3  32
ATOM     32  C   UNL A   1      31.268  30.396  25.282  1.00  0.00     0.118 C 
BRANCH  32  33
ATOM     33  C   UNL A   1      31.042  31.598  26.199  1.00  0.00     0.042 C 
BRANCH  33  34
ATOM     34  C   UNL A   1      32.324  32.095  26.866  1.00  0.00     0.118 C 
BRANCH  34  35
ATOM     35  N   UNL A   1      32.243  33.509  27.211  1.00  0.00    -0.352 N 
ATOM     36  C   UNL A   1      32.948  34.237  28.135  1.00  0.00     0.251 C 
ATOM     37  H   UNL A   1      31.578  34.023  26.699  1.00  0.00     0.163 HD
ATOM     38  O   UNL A   1      32.558  35.359  28.444  1.00  0.00    -0.269 OA
BRANCH  36  39
ATOM     39  C   UNL A   1      34.166  33.684  28.764  1.00  0.00     0.039 A 
ATOM     40  C   UNL A   1      34.025  32.822  29.856  1.00  0.00     0.014 A 
ATOM     41  C   UNL A   1      35.440  34.050  28.323  1.00  0.00     0.014 A 
ATOM     42  C   UNL A   1      35.160  32.289  30.472  1.00  0.00     0.010 A 
ATOM     43  C   UNL A   1      36.568  33.462  28.890  1.00  0.00     0.010 A 
ATOM     44  C   UNL A   1      36.441  32.581  29.975  1.00  0.00    -0.014 A 
BRANCH  44  45
ATOM     45  C   UNL A   1      37.653  31.965  30.573  1.00  0.00     0.031 A 
ATOM     46  C   UNL A   1      38.165  32.433  31.907  1.00  0.00     0.074 A 
ATOM     47  C   UNL A   1      38.323  31.022  29.883  1.00  0.00     0.049 A 
ATOM     48  N   UNL A   1      39.228  32.042  32.565  1.00  0.00    -0.248 NA
ATOM     49  C   UNL A   1      37.399  33.492  32.585  1.00  0.00     0.031 C 
ATOM     50  C   UNL A   1      37.949  30.510  28.562  1.00  0.00     0.029 A 
ATOM     51  N   UNL A   1      39.466  30.329  30.194  1.00  0.00    -0.354 N 
ATOM     52  C   UNL A   1      39.270  32.822  33.715  1.00  0.00     0.074 A 
ATOM     53  C   UNL A   1      38.150  33.734  33.649  1.00  0.00     0.031 C 
ATOM     54  C   UNL A   1      38.827  29.563  28.191  1.00  0.00     0.029 A 
ATOM     55  C   UNL A   1      39.850  29.434  29.223  1.00  0.00     0.049 A 
ATOM     56  H   UNL A   1      39.964  30.459  31.033  1.00  0.00     0.167 HD
ATOM     57  C   UNL A   1      40.155  32.772  34.739  1.00  0.00     0.031 A 
ATOM     58  C   UNL A   1      40.913  28.610  29.165  1.00  0.00     0.031 A 
ATOM     59  C   UNL A   1      41.258  31.851  34.810  1.00  0.00     0.049 A 
ATOM     60  C   UNL A   1      41.886  28.591  30.311  1.00  0.00     0.074 A 
ATOM     61  C   UNL A   1      42.165  31.673  35.842  1.00  0.00     0.029 A 
ATOM     62  N   UNL A   1      41.612  30.962  33.808  1.00  0.00    -0.354 N 
ATOM     63  N   UNL A   1      41.860  29.271  31.432  1.00  0.00    -0.248 NA
ATOM     64  C   UNL A   1      43.034  27.681  30.186  1.00  0.00     0.031 C 
ATOM     65  C   UNL A   1      43.105  30.722  35.436  1.00  0.00     0.029 A 
ATOM     66  C   UNL A   1      42.745  30.259  34.181  1.00  0.00     0.049 A 
ATOM     67  H   UNL A   1      41.129  30.848  32.958  1.00  0.00     0.167 HD
ATOM     68  C   UNL A   1      42.964  28.845  32.159  1.00  0.00     0.074 A 
ATOM     69  C   UNL A   1      43.627  27.836  31.361  1.00  0.00     0.031 C 
ATOM     70  C   UNL A   1      43.390  29.253  33.379  1.00  0.00     0.031 A 
BRANCH  57  71
ATOM     71  C   UNL A   1      39.978  33.752  35.867  1.00  0.00    -0.014 A 
ATOM     72  C   UNL A   1      40.573  35.023  35.835  1.00  0.00     0.009 A 
ATOM     73  C   UNL A   1      39.149  33.420  36.950  1.00  0.00     0.009 A 
ATOM     74  C   UNL A   1      40.366  35.928  36.878  1.00  0.00     0.001 A 
ATOM     75  C   UNL A   1      38.919  34.338  37.977  1.00  0.00     0.001 A 
ATOM     76  C   UNL A   1      39.534  35.588  37.945  1.00  0.00     0.000 A 
ENDBRANCH  57  71
BRANCH  58  77
ATOM     77  C   UNL A   1      41.119  27.727  27.986  1.00  0.00    -0.014 A 
ATOM     78  C   UNL A   1      41.780  28.205  26.844  1.00  0.00     0.009 A 
ATOM     79  C   UNL A   1      40.624  26.414  27.980  1.00  0.00     0.009 A 
ATOM     80  C   UNL A   1      41.904  27.402  25.708  1.00  0.00     0.001 A 
ATOM     81  C   UNL A   1      40.781  25.601  26.855  1.00  0.00     0.001 A 
ATOM     82  C   UNL A   1      41.407  26.100  25.715  1.00  0.00     0.000 A 
ENDBRANCH  58  77
BRANCH  70  83
ATOM     83  C   UNL A   1      44.607  28.574  33.945  1.00  0.00    -0.014 A 
ATOM     84  C   UNL A   1      44.504  27.390  34.692  1.00  0.00     0.009 A 
ATOM     85  C   UNL A   1      45.878  29.113  33.695  1.00  0.00     0.009 A 
ATOM     86  C   UNL A   1      45.651  26.783  35.209  1.00  0.00     0.001 A 
ATOM     87  C   UNL A   1      47.024  28.485  34.183  1.00  0.00     0.001 A 
ATOM     88  C   UNL A   1      46.909  27.326  34.950  1.00  0.00     0.000 A 
ENDBRANCH  70  83
ENDBRANCH  44  45
ENDBRANCH  36  39
ENDBRANCH  34  35
ENDBRANCH  33  34
ENDBRANCH  32  33
ENDBRANCH   3  32
TORSDOF 16
ENDMDL
