MODEL 1
REMARK VINA RESULT:     -10.9      0.000      0.000
REMARK SMILES C[C@@H](CNc1cccc(F)c1C(=O)NCCCNC(=O)c1ccc(-c2c3nc(c(-c4ccccc4)c4ccc([nH]4)c(-c4ccccc4)c4nc(c(-c5ccccc5)c5ccc2[nH]5)C=C4)C=C3)cc1)[NH+]1CCCCC1
REMARK SMILES IDX 15 1 14 2 12 3 13 4 11 6 5 7 6 8 7 9 9 10 8 11 10 12 4 13
REMARK SMILES IDX 3 15 2 16 1 17 69 18 70 19 74 20 71 22 73 23 72 24 16 25
REMARK SMILES IDX 17 26 18 27 19 28 20 30 21 31 22 32 68 33 23 34 67 35 24 36
REMARK SMILES IDX 25 37 26 38 61 39 27 40 66 41 60 42 62 43 28 44 65 45 59 46
REMARK SMILES IDX 58 47 29 49 51 50 36 51 50 52 37 53 40 54 49 55 63 56 38 57
REMARK SMILES IDX 39 58 48 60 64 61 41 62 30 63 31 64 35 65 32 66 34 67 33 68
REMARK SMILES IDX 52 69 53 70 57 71 54 72 56 73 55 74 42 75 43 76 47 77 44 78
REMARK SMILES IDX 46 79 45 80
REMARK H PARENT 14 5 4 14 69 21 18 29 62 48 40 59
REMARK Flexibility Score: inf
ROOT
ATOM      1  C   UNL A   1      31.763  29.805  25.906  1.00  0.00     0.118 C 
ENDROOT
BRANCH   1   2
ATOM      2  N   UNL A   1      32.487  29.791  24.647  1.00  0.00    -0.352 N 
ATOM      3  C   UNL A   1      33.307  28.864  24.051  1.00  0.00     0.256 C 
ATOM      4  O   UNL A   1      33.895  29.238  23.032  1.00  0.00    -0.269 OA
ATOM      5  H   UNL A   1      32.365  30.610  24.113  1.00  0.00     0.163 HD
BRANCH   3   6
ATOM      6  C   UNL A   1      33.401  27.435  24.469  1.00  0.00     0.098 A 
ATOM      7  C   UNL A   1      32.948  26.433  23.562  1.00  0.00     0.050 A 
ATOM      8  C   UNL A   1      32.996  25.090  23.971  1.00  0.00     0.027 A 
ATOM      9  C   UNL A   1      33.463  24.726  25.233  1.00  0.00     0.005 A 
ATOM     10  C   UNL A   1      33.914  27.043  25.708  1.00  0.00     0.138 A 
ATOM     11  C   UNL A   1      33.920  25.706  26.103  1.00  0.00     0.040 A 
ATOM     12  F   UNL A   1      34.447  27.926  26.562  1.00  0.00    -0.206 F 
BRANCH   7  13
ATOM     13  N   UNL A   1      32.399  26.770  22.326  1.00  0.00    -0.378 N 
ATOM     14  H   UNL A   1      33.016  26.929  21.576  1.00  0.00     0.160 HD
BRANCH  13  15
ATOM     15  C   UNL A   1      30.969  26.903  22.074  1.00  0.00     0.177 C 
BRANCH  15  16
ATOM     16  C   UNL A   1      30.129  27.340  23.322  1.00  0.00     0.200 C 
ATOM     17  C   UNL A   1      29.243  26.190  23.828  1.00  0.00     0.077 C 
BRANCH  16  18
ATOM     18  N   UNL A   1      29.447  28.661  23.180  1.00  0.00    -0.331 N 
ATOM     19  C   UNL A   1      29.977  29.494  22.095  1.00  0.00     0.262 C 
ATOM     20  C   UNL A   1      27.987  28.531  23.071  1.00  0.00     0.262 C 
ATOM     21  H   UNL A   1      29.660  29.150  24.049  1.00  0.00     0.348 HD
ATOM     22  C   UNL A   1      29.341  30.882  22.047  1.00  0.00     0.062 C 
ATOM     23  C   UNL A   1      27.299  29.900  23.071  1.00  0.00     0.062 C 
ATOM     24  C   UNL A   1      27.829  30.788  21.953  1.00  0.00     0.012 C 
ENDBRANCH  16  18
ENDBRANCH  15  16
ENDBRANCH  13  15
ENDBRANCH   7  13
ENDBRANCH   3   6
ENDBRANCH   1   2
BRANCH   1  25
ATOM     25  C   UNL A   1      31.487  31.251  26.316  1.00  0.00     0.042 C 
BRANCH  25  26
ATOM     26  C   UNL A   1      32.655  31.882  27.067  1.00  0.00     0.118 C 
BRANCH  26  27
ATOM     27  N   UNL A   1      32.387  33.267  27.428  1.00  0.00    -0.352 N 
ATOM     28  C   UNL A   1      33.077  34.080  28.296  1.00  0.00     0.251 C 
ATOM     29  H   UNL A   1      31.605  33.677  26.991  1.00  0.00     0.163 HD
ATOM     30  O   UNL A   1      32.601  35.148  28.658  1.00  0.00    -0.269 OA
BRANCH  28  31
ATOM     31  C   UNL A   1      34.398  33.649  28.802  1.00  0.00     0.039 A 
ATOM     32  C   UNL A   1      34.471  32.912  29.987  1.00  0.00     0.014 A 
ATOM     33  C   UNL A   1      35.562  33.975  28.102  1.00  0.00     0.014 A 
ATOM     34  C   UNL A   1      35.710  32.452  30.442  1.00  0.00     0.010 A 
ATOM     35  C   UNL A   1      36.783  33.453  28.514  1.00  0.00     0.010 A 
ATOM     36  C   UNL A   1      36.871  32.693  29.692  1.00  0.00    -0.014 A 
BRANCH  36  37
ATOM     37  C   UNL A   1      38.205  32.199  30.120  1.00  0.00     0.031 A 
ATOM     38  C   UNL A   1      38.721  30.896  29.569  1.00  0.00     0.074 A 
ATOM     39  C   UNL A   1      38.902  32.858  31.066  1.00  0.00     0.049 A 
ATOM     40  N   UNL A   1      39.771  30.203  29.928  1.00  0.00    -0.248 NA
ATOM     41  C   UNL A   1      37.932  30.274  28.492  1.00  0.00     0.031 C 
ATOM     42  C   UNL A   1      38.505  34.122  31.691  1.00  0.00     0.029 A 
ATOM     43  N   UNL A   1      40.088  32.542  31.684  1.00  0.00    -0.354 N 
ATOM     44  C   UNL A   1      39.746  29.052  29.149  1.00  0.00     0.074 A 
ATOM     45  C   UNL A   1      38.560  29.120  28.326  1.00  0.00     0.031 C 
ATOM     46  C   UNL A   1      39.435  34.477  32.594  1.00  0.00     0.029 A 
ATOM     47  C   UNL A   1      40.465  33.444  32.650  1.00  0.00     0.049 A 
ATOM     48  H   UNL A   1      40.618  31.745  31.456  1.00  0.00     0.167 HD
ATOM     49  C   UNL A   1      40.639  28.036  29.115  1.00  0.00     0.031 A 
ATOM     50  C   UNL A   1      41.509  33.428  33.501  1.00  0.00     0.031 A 
ATOM     51  C   UNL A   1      41.832  27.985  29.915  1.00  0.00     0.049 A 
ATOM     52  C   UNL A   1      42.473  32.271  33.456  1.00  0.00     0.074 A 
ATOM     53  C   UNL A   1      42.831  27.028  29.908  1.00  0.00     0.029 A 
ATOM     54  N   UNL A   1      42.187  28.933  30.861  1.00  0.00    -0.354 N 
ATOM     55  N   UNL A   1      42.467  31.220  32.674  1.00  0.00    -0.248 NA
ATOM     56  C   UNL A   1      43.595  32.305  34.407  1.00  0.00     0.031 C 
ATOM     57  C   UNL A   1      43.763  27.367  30.891  1.00  0.00     0.029 A 
ATOM     58  C   UNL A   1      43.381  28.572  31.459  1.00  0.00     0.049 A 
ATOM     59  H   UNL A   1      41.668  29.742  31.075  1.00  0.00     0.167 HD
ATOM     60  C   UNL A   1      43.606  30.495  33.002  1.00  0.00     0.074 A 
ATOM     61  C   UNL A   1      44.281  31.227  34.054  1.00  0.00     0.031 C 
ATOM     62  C   UNL A   1      44.057  29.330  32.478  1.00  0.00     0.031 A 
BRANCH  49  63
ATOM     63  C   UNL A   1      40.361  26.885  28.188  1.00  0.00    -0.014 A 
ATOM     64  C   UNL A   1      40.903  26.841  26.895  1.00  0.00     0.009 A 
ATOM     65  C   UNL A   1      39.601  25.795  28.643  1.00  0.00     0.009 A 
ATOM     66  C   UNL A   1      40.667  25.741  26.067  1.00  0.00     0.001 A 
ATOM     67  C   UNL A   1      39.393  24.684  27.826  1.00  0.00     0.001 A 
ATOM     68  C   UNL A   1      39.919  24.661  26.535  1.00  0.00     0.000 A 
ENDBRANCH  49  63
BRANCH  50  69
ATOM     69  C   UNL A   1      41.709  34.532  34.478  1.00  0.00    -0.014 A 
ATOM     70  C   UNL A   1      42.482  35.654  34.138  1.00  0.00     0.009 A 
ATOM     71  C   UNL A   1      41.169  34.453  35.772  1.00  0.00     0.009 A 
ATOM     72  C   UNL A   1      42.747  36.648  35.083  1.00  0.00     0.001 A 
ATOM     73  C   UNL A   1      41.405  35.466  36.705  1.00  0.00     0.001 A 
ATOM     74  C   UNL A   1      42.207  36.555  36.364  1.00  0.00     0.000 A 
ENDBRANCH  50  69
BRANCH  62  75
ATOM     75  C   UNL A   1      45.379  28.808  32.962  1.00  0.00    -0.014 A 
ATOM     76  C   UNL A   1      45.470  27.900  34.026  1.00  0.00     0.009 A 
ATOM     77  C   UNL A   1      46.550  29.176  32.277  1.00  0.00     0.009 A 
ATOM     78  C   UNL A   1      46.711  27.387  34.409  1.00  0.00     0.001 A 
ATOM     79  C   UNL A   1      47.783  28.637  32.641  1.00  0.00     0.001 A 
ATOM     80  C   UNL A   1      47.864  27.748  33.711  1.00  0.00     0.000 A 
ENDBRANCH  62  75
ENDBRANCH  36  37
ENDBRANCH  28  31
ENDBRANCH  26  27
ENDBRANCH  25  26
ENDBRANCH   1  25
TORSDOF 14
ENDMDL
MODEL 2
REMARK VINA RESULT:     -10.9      4.714      9.187
REMARK SMILES C[C@@H](CNc1cccc(F)c1C(=O)NCCCNC(=O)c1ccc(-c2c3nc(c(-c4ccccc4)c4ccc([nH]4)c(-c4ccccc4)c4nc(c(-c5ccccc5)c5ccc2[nH]5)C=C4)C=C3)cc1)[NH+]1CCCCC1
REMARK SMILES IDX 15 1 14 2 12 3 13 4 11 6 5 7 6 8 7 9 9 10 8 11 10 12 4 13
REMARK SMILES IDX 3 15 2 16 1 17 69 18 70 19 74 20 71 22 73 23 72 24 16 25
REMARK SMILES IDX 17 26 18 27 19 28 20 30 21 31 22 32 68 33 23 34 67 35 24 36
REMARK SMILES IDX 25 37 26 38 61 39 27 40 66 41 60 42 62 43 28 44 65 45 59 46
REMARK SMILES IDX 58 47 29 49 51 50 36 51 50 52 37 53 40 54 49 55 63 56 38 57
REMARK SMILES IDX 39 58 48 60 64 61 41 62 30 63 31 64 35 65 32 66 34 67 33 68
REMARK SMILES IDX 52 69 53 70 57 71 54 72 56 73 55 74 42 75 43 76 47 77 44 78
REMARK SMILES IDX 46 79 45 80
REMARK H PARENT 14 5 4 14 69 21 18 29 62 48 40 59
REMARK Flexibility Score: inf
ROOT
ATOM      1  C   UNL A   1      36.678  20.929  24.713  1.00  0.00     0.118 C 
ENDROOT
BRANCH   1   2
ATOM      2  N   UNL A   1      35.626  20.873  25.712  1.00  0.00    -0.352 N 
ATOM      3  C   UNL A   1      34.330  20.419  25.680  1.00  0.00     0.256 C 
ATOM      4  O   UNL A   1      33.645  20.665  26.677  1.00  0.00    -0.269 OA
ATOM      5  H   UNL A   1      35.895  21.233  26.588  1.00  0.00     0.163 HD
BRANCH   3   6
ATOM      6  C   UNL A   1      33.775  19.542  24.608  1.00  0.00     0.098 A 
ATOM      7  C   UNL A   1      32.741  20.062  23.776  1.00  0.00     0.050 A 
ATOM      8  C   UNL A   1      32.187  19.223  22.793  1.00  0.00     0.027 A 
ATOM      9  C   UNL A   1      32.619  17.908  22.628  1.00  0.00     0.005 A 
ATOM     10  C   UNL A   1      34.227  18.238  24.388  1.00  0.00     0.138 A 
ATOM     11  C   UNL A   1      33.639  17.416  23.430  1.00  0.00     0.040 A 
ATOM     12  F   UNL A   1      35.262  17.728  25.067  1.00  0.00    -0.206 F 
BRANCH   7  13
ATOM     13  N   UNL A   1      32.231  21.344  23.971  1.00  0.00    -0.378 N 
ATOM     14  H   UNL A   1      31.911  21.580  24.871  1.00  0.00     0.160 HD
BRANCH  13  15
ATOM     15  C   UNL A   1      32.143  22.358  22.927  1.00  0.00     0.177 C 
BRANCH  15  16
ATOM     16  C   UNL A   1      32.743  23.750  23.324  1.00  0.00     0.200 C 
ATOM     17  C   UNL A   1      34.267  23.667  23.509  1.00  0.00     0.077 C 
BRANCH  16  18
ATOM     18  N   UNL A   1      32.002  24.458  24.411  1.00  0.00    -0.331 N 
ATOM     19  C   UNL A   1      32.838  25.347  25.223  1.00  0.00     0.262 C 
ATOM     20  C   UNL A   1      30.816  25.168  23.912  1.00  0.00     0.262 C 
ATOM     21  H   UNL A   1      31.690  23.711  25.031  1.00  0.00     0.348 HD
ATOM     22  C   UNL A   1      32.081  25.966  26.397  1.00  0.00     0.062 C 
ATOM     23  C   UNL A   1      29.994  25.764  25.060  1.00  0.00     0.062 C 
ATOM     24  C   UNL A   1      30.837  26.695  25.922  1.00  0.00     0.012 C 
ENDBRANCH  16  18
ENDBRANCH  15  16
ENDBRANCH  13  15
ENDBRANCH   7  13
ENDBRANCH   3   6
ENDBRANCH   1   2
BRANCH   1  25
ATOM     25  C   UNL A   1      37.690  19.815  24.979  1.00  0.00     0.042 C 
BRANCH  25  26
ATOM     26  C   UNL A   1      38.936  20.314  25.703  1.00  0.00     0.118 C 
BRANCH  26  27
ATOM     27  N   UNL A   1      39.967  19.288  25.783  1.00  0.00    -0.352 N 
ATOM     28  C   UNL A   1      41.308  19.434  26.048  1.00  0.00     0.251 C 
ATOM     29  H   UNL A   1      39.662  18.365  25.626  1.00  0.00     0.163 HD
ATOM     30  O   UNL A   1      42.082  18.502  25.866  1.00  0.00    -0.269 OA
BRANCH  28  31
ATOM     31  C   UNL A   1      41.816  20.732  26.544  1.00  0.00     0.039 A 
ATOM     32  C   UNL A   1      42.235  21.699  25.627  1.00  0.00     0.014 A 
ATOM     33  C   UNL A   1      41.874  20.989  27.916  1.00  0.00     0.014 A 
ATOM     34  C   UNL A   1      42.662  22.949  26.085  1.00  0.00     0.010 A 
ATOM     35  C   UNL A   1      42.225  22.256  28.365  1.00  0.00     0.010 A 
ATOM     36  C   UNL A   1      42.631  23.247  27.456  1.00  0.00    -0.014 A 
BRANCH  36  37
ATOM     37  C   UNL A   1      43.046  24.571  27.986  1.00  0.00     0.031 A 
ATOM     38  C   UNL A   1      41.996  25.608  28.286  1.00  0.00     0.074 A 
ATOM     39  C   UNL A   1      44.353  24.876  28.104  1.00  0.00     0.049 A 
ATOM     40  N   UNL A   1      42.145  26.871  28.593  1.00  0.00    -0.248 NA
ATOM     41  C   UNL A   1      40.592  25.174  28.196  1.00  0.00     0.031 C 
ATOM     42  C   UNL A   1      45.468  23.965  27.831  1.00  0.00     0.029 A 
ATOM     43  N   UNL A   1      44.967  26.050  28.467  1.00  0.00    -0.354 N 
ATOM     44  C   UNL A   1      40.858  27.386  28.697  1.00  0.00     0.074 A 
ATOM     45  C   UNL A   1      39.943  26.313  28.383  1.00  0.00     0.031 C 
ATOM     46  C   UNL A   1      46.626  24.612  28.046  1.00  0.00     0.029 A 
ATOM     47  C   UNL A   1      46.340  25.993  28.420  1.00  0.00     0.049 A 
ATOM     48  H   UNL A   1      44.470  26.856  28.735  1.00  0.00     0.167 HD
ATOM     49  C   UNL A   1      40.475  28.639  29.034  1.00  0.00     0.031 A 
ATOM     50  C   UNL A   1      47.262  26.952  28.631  1.00  0.00     0.031 A 
ATOM     51  C   UNL A   1      41.387  29.697  29.372  1.00  0.00     0.049 A 
ATOM     52  C   UNL A   1      46.804  28.344  28.983  1.00  0.00     0.074 A 
ATOM     53  C   UNL A   1      41.095  30.984  29.788  1.00  0.00     0.029 A 
ATOM     54  N   UNL A   1      42.768  29.587  29.337  1.00  0.00    -0.354 N 
ATOM     55  N   UNL A   1      45.584  28.800  29.132  1.00  0.00    -0.248 NA
ATOM     56  C   UNL A   1      47.852  29.352  29.203  1.00  0.00     0.031 C 
ATOM     57  C   UNL A   1      42.300  31.672  29.949  1.00  0.00     0.029 A 
ATOM     58  C   UNL A   1      43.342  30.792  29.704  1.00  0.00     0.049 A 
ATOM     59  H   UNL A   1      43.266  28.775  29.089  1.00  0.00     0.167 HD
ATOM     60  C   UNL A   1      45.720  30.130  29.513  1.00  0.00     0.074 A 
ATOM     61  C   UNL A   1      47.140  30.407  29.572  1.00  0.00     0.031 C 
ATOM     62  C   UNL A   1      44.756  31.039  29.792  1.00  0.00     0.031 A 
BRANCH  49  63
ATOM     63  C   UNL A   1      39.003  28.945  29.048  1.00  0.00    -0.014 A 
ATOM     64  C   UNL A   1      38.236  28.796  30.214  1.00  0.00     0.009 A 
ATOM     65  C   UNL A   1      38.389  29.458  27.894  1.00  0.00     0.009 A 
ATOM     66  C   UNL A   1      36.880  29.128  30.215  1.00  0.00     0.001 A 
ATOM     67  C   UNL A   1      37.042  29.818  27.906  1.00  0.00     0.001 A 
ATOM     68  C   UNL A   1      36.286  29.646  29.065  1.00  0.00     0.000 A 
ENDBRANCH  49  63
BRANCH  50  69
ATOM     69  C   UNL A   1      48.713  26.648  28.515  1.00  0.00    -0.014 A 
ATOM     70  C   UNL A   1      49.357  26.714  27.269  1.00  0.00     0.009 A 
ATOM     71  C   UNL A   1      49.455  26.245  29.637  1.00  0.00     0.009 A 
ATOM     72  C   UNL A   1      50.698  26.340  27.141  1.00  0.00     0.001 A 
ATOM     73  C   UNL A   1      50.805  25.906  29.513  1.00  0.00     0.001 A 
ATOM     74  C   UNL A   1      51.421  25.939  28.262  1.00  0.00     0.000 A 
ENDBRANCH  50  69
BRANCH  62  75
ATOM     75  C   UNL A   1      45.190  32.395  30.271  1.00  0.00    -0.014 A 
ATOM     76  C   UNL A   1      45.443  32.654  31.626  1.00  0.00     0.009 A 
ATOM     77  C   UNL A   1      45.428  33.408  29.327  1.00  0.00     0.009 A 
ATOM     78  C   UNL A   1      45.905  33.908  32.028  1.00  0.00     0.001 A 
ATOM     79  C   UNL A   1      45.920  34.650  29.729  1.00  0.00     0.001 A 
ATOM     80  C   UNL A   1      46.153  34.901  31.079  1.00  0.00     0.000 A 
ENDBRANCH  62  75
ENDBRANCH  36  37
ENDBRANCH  28  31
ENDBRANCH  26  27
ENDBRANCH  25  26
ENDBRANCH   1  25
TORSDOF 14
ENDMDL
MODEL 3
REMARK VINA RESULT:     -10.9      3.106      7.945
REMARK SMILES C[C@@H](CNc1cccc(F)c1C(=O)NCCCNC(=O)c1ccc(-c2c3nc(c(-c4ccccc4)c4ccc([nH]4)c(-c4ccccc4)c4nc(c(-c5ccccc5)c5ccc2[nH]5)C=C4)C=C3)cc1)[NH+]1CCCCC1
REMARK SMILES IDX 15 1 14 2 12 3 13 4 11 6 5 7 6 8 7 9 9 10 8 11 10 12 4 13
REMARK SMILES IDX 3 15 2 16 1 17 69 18 70 19 74 20 71 22 73 23 72 24 16 25
REMARK SMILES IDX 17 26 18 27 19 28 20 30 21 31 22 32 68 33 23 34 67 35 24 36
REMARK SMILES IDX 25 37 26 38 61 39 27 40 66 41 60 42 62 43 28 44 65 45 59 46
REMARK SMILES IDX 58 47 29 49 51 50 36 51 50 52 37 53 40 54 49 55 63 56 38 57
REMARK SMILES IDX 39 58 48 60 64 61 41 62 30 63 31 64 35 65 32 66 34 67 33 68
REMARK SMILES IDX 52 69 53 70 57 71 54 72 56 73 55 74 42 75 43 76 47 77 44 78
REMARK SMILES IDX 46 79 45 80
REMARK H PARENT 14 5 4 14 69 21 18 29 62 48 40 59
REMARK Flexibility Score: inf
ROOT
ATOM      1  C   UNL A   1      31.542  28.201  26.797  1.00  0.00     0.118 C 
ENDROOT
BRANCH   1   2
ATOM      2  N   UNL A   1      30.972  26.872  26.927  1.00  0.00    -0.352 N 
ATOM      3  C   UNL A   1      30.600  25.920  26.009  1.00  0.00     0.256 C 
ATOM      4  O   UNL A   1      29.993  24.943  26.458  1.00  0.00    -0.269 OA
ATOM      5  H   UNL A   1      30.821  26.598  27.861  1.00  0.00     0.163 HD
BRANCH   3   6
ATOM      6  C   UNL A   1      31.011  25.932  24.575  1.00  0.00     0.098 A 
ATOM      7  C   UNL A   1      31.887  24.907  24.113  1.00  0.00     0.050 A 
ATOM      8  C   UNL A   1      32.309  24.941  22.773  1.00  0.00     0.027 A 
ATOM      9  C   UNL A   1      31.899  25.952  21.904  1.00  0.00     0.005 A 
ATOM     10  C   UNL A   1      30.572  26.904  23.672  1.00  0.00     0.138 A 
ATOM     11  C   UNL A   1      31.031  26.935  22.357  1.00  0.00     0.040 A 
ATOM     12  F   UNL A   1      29.671  27.832  24.018  1.00  0.00    -0.206 F 
BRANCH   7  13
ATOM     13  N   UNL A   1      32.379  23.932  24.978  1.00  0.00    -0.378 N 
ATOM     14  H   UNL A   1      32.281  24.083  25.946  1.00  0.00     0.160 HD
BRANCH  13  15
ATOM     15  C   UNL A   1      33.030  22.703  24.541  1.00  0.00     0.177 C 
BRANCH  15  16
ATOM     16  C   UNL A   1      34.004  22.075  25.597  1.00  0.00     0.200 C 
ATOM     17  C   UNL A   1      33.524  22.352  27.031  1.00  0.00     0.077 C 
BRANCH  16  18
ATOM     18  N   UNL A   1      35.451  22.340  25.342  1.00  0.00    -0.331 N 
ATOM     19  C   UNL A   1      36.018  23.407  26.171  1.00  0.00     0.262 C 
ATOM     20  C   UNL A   1      36.269  21.123  25.426  1.00  0.00     0.262 C 
ATOM     21  H   UNL A   1      35.479  22.678  24.380  1.00  0.00     0.348 HD
ATOM     22  C   UNL A   1      37.465  23.737  25.808  1.00  0.00     0.062 C 
ATOM     23  C   UNL A   1      37.722  21.393  25.021  1.00  0.00     0.062 C 
ATOM     24  C   UNL A   1      38.339  22.497  25.867  1.00  0.00     0.012 C 
ENDBRANCH  16  18
ENDBRANCH  15  16
ENDBRANCH  13  15
ENDBRANCH   7  13
ENDBRANCH   3   6
ENDBRANCH   1   2
BRANCH   1  25
ATOM     25  C   UNL A   1      32.936  28.096  26.181  1.00  0.00     0.042 C 
BRANCH  25  26
ATOM     26  C   UNL A   1      34.036  28.552  27.134  1.00  0.00     0.118 C 
BRANCH  26  27
ATOM     27  N   UNL A   1      33.852  29.933  27.559  1.00  0.00    -0.352 N 
ATOM     28  C   UNL A   1      34.690  30.722  28.311  1.00  0.00     0.251 C 
ATOM     29  H   UNL A   1      33.013  30.360  27.267  1.00  0.00     0.163 HD
ATOM     30  O   UNL A   1      34.296  31.788  28.766  1.00  0.00    -0.269 OA
BRANCH  28  31
ATOM     31  C   UNL A   1      36.071  30.267  28.580  1.00  0.00     0.039 A 
ATOM     32  C   UNL A   1      36.388  29.745  29.837  1.00  0.00     0.014 A 
ATOM     33  C   UNL A   1      37.050  30.357  27.587  1.00  0.00     0.014 A 
ATOM     34  C   UNL A   1      37.676  29.259  30.081  1.00  0.00     0.010 A 
ATOM     35  C   UNL A   1      38.306  29.805  27.806  1.00  0.00     0.010 A 
ATOM     36  C   UNL A   1      38.636  29.258  29.057  1.00  0.00    -0.014 A 
BRANCH  36  37
ATOM     37  C   UNL A   1      40.007  28.726  29.261  1.00  0.00     0.031 A 
ATOM     38  C   UNL A   1      41.079  29.636  29.802  1.00  0.00     0.074 A 
ATOM     39  C   UNL A   1      40.314  27.472  28.874  1.00  0.00     0.049 A 
ATOM     40  N   UNL A   1      42.367  29.430  29.899  1.00  0.00    -0.248 NA
ATOM     41  C   UNL A   1      40.648  30.966  30.262  1.00  0.00     0.031 C 
ATOM     42  C   UNL A   1      39.371  26.496  28.322  1.00  0.00     0.029 A 
ATOM     43  N   UNL A   1      41.517  26.809  28.869  1.00  0.00    -0.354 N 
ATOM     44  C   UNL A   1      42.900  30.613  30.397  1.00  0.00     0.074 A 
ATOM     45  C   UNL A   1      41.805  31.544  30.545  1.00  0.00     0.031 C 
ATOM     46  C   UNL A   1      40.029  25.359  28.042  1.00  0.00     0.029 A 
ATOM     47  C   UNL A   1      41.445  25.540  28.344  1.00  0.00     0.049 A 
ATOM     48  H   UNL A   1      42.351  27.205  29.208  1.00  0.00     0.167 HD
ATOM     49  C   UNL A   1      44.186  30.893  30.712  1.00  0.00     0.031 A 
ATOM     50  C   UNL A   1      42.416  24.635  28.111  1.00  0.00     0.031 A 
ATOM     51  C   UNL A   1      45.268  29.955  30.590  1.00  0.00     0.049 A 
ATOM     52  C   UNL A   1      43.841  24.985  28.451  1.00  0.00     0.074 A 
ATOM     53  C   UNL A   1      46.595  30.124  30.942  1.00  0.00     0.029 A 
ATOM     54  N   UNL A   1      45.145  28.673  30.079  1.00  0.00    -0.354 N 
ATOM     55  N   UNL A   1      44.320  26.087  28.974  1.00  0.00    -0.248 NA
ATOM     56  C   UNL A   1      44.860  23.960  28.176  1.00  0.00     0.031 C 
ATOM     57  C   UNL A   1      47.288  28.963  30.591  1.00  0.00     0.029 A 
ATOM     58  C   UNL A   1      46.379  28.047  30.088  1.00  0.00     0.049 A 
ATOM     59  H   UNL A   1      44.306  28.269  29.759  1.00  0.00     0.167 HD
ATOM     60  C   UNL A   1      45.683  25.869  29.137  1.00  0.00     0.074 A 
ATOM     61  C   UNL A   1      45.955  24.530  28.659  1.00  0.00     0.031 C 
ATOM     62  C   UNL A   1      46.625  26.702  29.642  1.00  0.00     0.031 A 
BRANCH  49  63
ATOM     63  C   UNL A   1      44.502  32.275  31.216  1.00  0.00    -0.014 A 
ATOM     64  C   UNL A   1      44.500  32.571  32.587  1.00  0.00     0.009 A 
ATOM     65  C   UNL A   1      44.876  33.276  30.305  1.00  0.00     0.009 A 
ATOM     66  C   UNL A   1      44.840  33.851  33.034  1.00  0.00     0.001 A 
ATOM     67  C   UNL A   1      45.245  34.543  30.756  1.00  0.00     0.001 A 
ATOM     68  C   UNL A   1      45.219  34.832  32.119  1.00  0.00     0.000 A 
ENDBRANCH  49  63
BRANCH  50  69
ATOM     69  C   UNL A   1      42.090  23.309  27.520  1.00  0.00    -0.014 A 
ATOM     70  C   UNL A   1      41.579  22.277  28.323  1.00  0.00     0.009 A 
ATOM     71  C   UNL A   1      42.330  23.049  26.161  1.00  0.00     0.009 A 
ATOM     72  C   UNL A   1      41.359  21.004  27.791  1.00  0.00     0.001 A 
ATOM     73  C   UNL A   1      42.076  21.785  25.623  1.00  0.00     0.001 A 
ATOM     74  C   UNL A   1      41.605  20.760  26.441  1.00  0.00     0.000 A 
ENDBRANCH  50  69
BRANCH  62  75
ATOM     75  C   UNL A   1      48.022  26.172  29.788  1.00  0.00    -0.014 A 
ATOM     76  C   UNL A   1      48.944  26.218  28.732  1.00  0.00     0.009 A 
ATOM     77  C   UNL A   1      48.443  25.694  31.041  1.00  0.00     0.009 A 
ATOM     78  C   UNL A   1      50.254  25.774  28.922  1.00  0.00     0.001 A 
ATOM     79  C   UNL A   1      49.761  25.281  31.236  1.00  0.00     0.001 A 
ATOM     80  C   UNL A   1      50.663  25.316  30.175  1.00  0.00     0.000 A 
ENDBRANCH  62  75
ENDBRANCH  36  37
ENDBRANCH  28  31
ENDBRANCH  26  27
ENDBRANCH  25  26
ENDBRANCH   1  25
TORSDOF 14
ENDMDL
