MODEL 1
REMARK VINA RESULT:     -11.1      0.000      0.000
REMARK SMILES CC(C)(Cn1ccc2ccc([N+](=O)[O-])cc21)C(=O)NCCCNC(=O)c1ccc(-c2c3nc(c(-c4ccccc4)c4ccc([nH]4)c(-c4ccccc4)c4nc(c(-c5ccccc5)c5ccc2[nH]5)C=C4)C=C3)cc1
REMARK SMILES IDX 20 1 19 2 17 3 18 4 2 6 1 7 3 8 4 9 5 10 6 11 16 12 7 13
REMARK SMILES IDX 8 14 15 15 9 16 11 17 10 18 12 19 13 20 14 21 21 22 22 23
REMARK SMILES IDX 23 24 24 25 25 27 26 28 27 29 73 30 28 31 72 32 29 33 30 34
REMARK SMILES IDX 31 35 66 36 32 37 71 38 65 39 67 40 33 41 70 42 64 43 63 44
REMARK SMILES IDX 34 46 56 47 41 48 55 49 42 50 45 51 54 52 68 53 43 54 44 55
REMARK SMILES IDX 53 57 69 58 46 59 35 60 36 61 40 62 37 63 39 64 38 65 57 66
REMARK SMILES IDX 58 67 62 68 59 69 61 70 60 71 47 72 48 73 52 74 49 75 51 76
REMARK SMILES IDX 50 77
REMARK H PARENT 19 5 23 26 67 45 45 56
REMARK Flexibility Score: inf
ROOT
ATOM      1  C   UNL A   1      36.286  34.076  32.278  1.00  0.00     0.117 C 
ENDROOT
BRANCH   1   2
ATOM      2  N   UNL A   1      35.195  34.878  31.755  1.00  0.00    -0.356 N 
ATOM      3  C   UNL A   1      34.492  34.858  30.593  1.00  0.00     0.227 C 
ATOM      4  O   UNL A   1      33.505  35.599  30.566  1.00  0.00    -0.274 OA
ATOM      5  H   UNL A   1      34.904  35.587  32.373  1.00  0.00     0.163 HD
BRANCH   3   6
ATOM      6  C   UNL A   1      34.879  34.002  29.371  1.00  0.00     0.061 C 
ATOM      7  C   UNL A   1      36.416  34.106  29.182  1.00  0.00     0.023 C 
ATOM      8  C   UNL A   1      34.296  34.575  28.064  1.00  0.00     0.023 C 
BRANCH   6   9
ATOM      9  C   UNL A   1      34.446  32.524  29.569  1.00  0.00     0.138 C 
BRANCH   9  10
ATOM     10  N   UNL A   1      35.320  31.519  28.968  1.00  0.00    -0.346 N 
ATOM     11  C   UNL A   1      35.392  31.254  27.624  1.00  0.00     0.087 A 
ATOM     12  C   UNL A   1      36.180  30.675  29.650  1.00  0.00     0.055 A 
ATOM     13  C   UNL A   1      36.186  30.146  27.446  1.00  0.00     0.028 A 
ATOM     14  C   UNL A   1      36.656  29.743  28.722  1.00  0.00     0.000 A 
ATOM     15  C   UNL A   1      36.524  30.607  31.009  1.00  0.00     0.112 A 
ATOM     16  C   UNL A   1      37.446  28.665  29.170  1.00  0.00     0.017 A 
ATOM     17  C   UNL A   1      37.263  29.494  31.438  1.00  0.00     0.271 A 
ATOM     18  C   UNL A   1      37.722  28.530  30.537  1.00  0.00     0.086 A 
BRANCH  17  19
ATOM     19  N   UNL A   1      37.509  29.315  32.876  1.00  0.00     0.062 N 
ATOM     20  O   UNL A   1      37.639  30.342  33.569  1.00  0.00    -0.258 OA
ATOM     21  O   UNL A   1      37.562  28.164  33.318  1.00  0.00    -0.258 OA
ENDBRANCH  17  19
ENDBRANCH   9  10
ENDBRANCH   6   9
ENDBRANCH   3   6
ENDBRANCH   1   2
BRANCH   1  22
ATOM     22  C   UNL A   1      37.576  34.860  32.510  1.00  0.00     0.042 C 
BRANCH  22  23
ATOM     23  C   UNL A   1      38.867  34.064  32.339  1.00  0.00     0.118 C 
BRANCH  23  24
ATOM     24  N   UNL A   1      39.778  34.608  31.354  1.00  0.00    -0.352 N 
ATOM     25  C   UNL A   1      40.642  34.082  30.437  1.00  0.00     0.251 C 
ATOM     26  H   UNL A   1      39.775  35.592  31.343  1.00  0.00     0.163 HD
ATOM     27  O   UNL A   1      41.138  34.892  29.644  1.00  0.00    -0.269 OA
BRANCH  25  28
ATOM     28  C   UNL A   1      41.078  32.659  30.356  1.00  0.00     0.039 A 
ATOM     29  C   UNL A   1      42.387  32.191  30.452  1.00  0.00     0.014 A 
ATOM     30  C   UNL A   1      40.053  31.721  30.109  1.00  0.00     0.014 A 
ATOM     31  C   UNL A   1      42.671  30.845  30.214  1.00  0.00     0.010 A 
ATOM     32  C   UNL A   1      40.328  30.374  29.887  1.00  0.00     0.010 A 
ATOM     33  C   UNL A   1      41.645  29.941  29.900  1.00  0.00    -0.014 A 
BRANCH  33  34
ATOM     34  C   UNL A   1      41.988  28.523  29.763  1.00  0.00     0.031 A 
ATOM     35  C   UNL A   1      42.709  27.966  30.938  1.00  0.00     0.074 A 
ATOM     36  C   UNL A   1      41.614  27.716  28.747  1.00  0.00     0.049 A 
ATOM     37  N   UNL A   1      43.925  27.534  30.981  1.00  0.00    -0.248 NA
ATOM     38  C   UNL A   1      42.040  28.013  32.249  1.00  0.00     0.031 C 
ATOM     39  C   UNL A   1      40.661  28.012  27.675  1.00  0.00     0.029 A 
ATOM     40  N   UNL A   1      41.943  26.407  28.511  1.00  0.00    -0.354 N 
ATOM     41  C   UNL A   1      44.123  27.079  32.283  1.00  0.00     0.074 A 
ATOM     42  C   UNL A   1      42.992  27.531  33.049  1.00  0.00     0.031 C 
ATOM     43  C   UNL A   1      40.313  26.862  27.053  1.00  0.00     0.029 A 
ATOM     44  C   UNL A   1      41.134  25.780  27.569  1.00  0.00     0.049 A 
ATOM     45  H   UNL A   1      42.687  25.951  28.968  1.00  0.00     0.167 HD
ATOM     46  C   UNL A   1      45.082  26.155  32.564  1.00  0.00     0.031 A 
ATOM     47  C   UNL A   1      41.117  24.461  27.260  1.00  0.00     0.031 A 
ATOM     48  C   UNL A   1      46.018  26.026  31.480  1.00  0.00     0.049 A 
ATOM     49  C   UNL A   1      42.424  23.885  27.638  1.00  0.00     0.074 A 
ATOM     50  C   UNL A   1      47.038  26.781  30.947  1.00  0.00     0.029 A 
ATOM     51  N   UNL A   1      45.666  25.088  30.547  1.00  0.00    -0.354 N 
ATOM     52  N   UNL A   1      43.542  24.191  27.049  1.00  0.00    -0.248 NA
ATOM     53  C   UNL A   1      42.552  23.155  28.891  1.00  0.00     0.031 C 
ATOM     54  C   UNL A   1      47.105  26.420  29.569  1.00  0.00     0.029 A 
ATOM     55  C   UNL A   1      46.163  25.422  29.316  1.00  0.00     0.049 A 
ATOM     56  H   UNL A   1      45.130  24.284  30.735  1.00  0.00     0.167 HD
ATOM     57  C   UNL A   1      44.488  24.099  28.051  1.00  0.00     0.074 A 
ATOM     58  C   UNL A   1      43.866  23.286  29.088  1.00  0.00     0.031 C 
ATOM     59  C   UNL A   1      45.549  24.954  28.089  1.00  0.00     0.031 A 
BRANCH  46  60
ATOM     60  C   UNL A   1      44.902  25.035  33.569  1.00  0.00    -0.014 A 
ATOM     61  C   UNL A   1      44.921  25.228  34.962  1.00  0.00     0.009 A 
ATOM     62  C   UNL A   1      44.401  23.799  33.116  1.00  0.00     0.009 A 
ATOM     63  C   UNL A   1      44.448  24.259  35.854  1.00  0.00     0.001 A 
ATOM     64  C   UNL A   1      43.894  22.840  34.004  1.00  0.00     0.001 A 
ATOM     65  C   UNL A   1      43.913  23.074  35.373  1.00  0.00     0.000 A 
ENDBRANCH  46  60
BRANCH  47  66
ATOM     66  C   UNL A   1      39.966  23.585  26.936  1.00  0.00    -0.014 A 
ATOM     67  C   UNL A   1      40.182  22.235  26.610  1.00  0.00     0.009 A 
ATOM     68  C   UNL A   1      38.716  24.144  26.614  1.00  0.00     0.009 A 
ATOM     69  C   UNL A   1      39.214  21.493  25.923  1.00  0.00     0.001 A 
ATOM     70  C   UNL A   1      37.750  23.402  25.921  1.00  0.00     0.001 A 
ATOM     71  C   UNL A   1      38.009  22.084  25.554  1.00  0.00     0.000 A 
ENDBRANCH  47  66
BRANCH  59  72
ATOM     72  C   UNL A   1      45.974  25.624  26.810  1.00  0.00    -0.014 A 
ATOM     73  C   UNL A   1      47.045  25.048  26.107  1.00  0.00     0.009 A 
ATOM     74  C   UNL A   1      45.454  26.843  26.350  1.00  0.00     0.009 A 
ATOM     75  C   UNL A   1      47.600  25.681  24.995  1.00  0.00     0.001 A 
ATOM     76  C   UNL A   1      45.990  27.463  25.215  1.00  0.00     0.001 A 
ATOM     77  C   UNL A   1      47.071  26.888  24.548  1.00  0.00     0.000 A 
ENDBRANCH  59  72
ENDBRANCH  33  34
ENDBRANCH  25  28
ENDBRANCH  23  24
ENDBRANCH  22  23
ENDBRANCH   1  22
TORSDOF 13
ENDMDL
MODEL 2
REMARK VINA RESULT:     -11.1      3.592      5.395
REMARK SMILES CC(C)(Cn1ccc2ccc([N+](=O)[O-])cc21)C(=O)NCCCNC(=O)c1ccc(-c2c3nc(c(-c4ccccc4)c4ccc([nH]4)c(-c4ccccc4)c4nc(c(-c5ccccc5)c5ccc2[nH]5)C=C4)C=C3)cc1
REMARK SMILES IDX 20 1 19 2 17 3 18 4 2 6 1 7 3 8 4 9 5 10 6 11 16 12 7 13
REMARK SMILES IDX 8 14 15 15 9 16 11 17 10 18 12 19 13 20 14 21 21 22 22 23
REMARK SMILES IDX 23 24 24 25 25 27 26 28 27 29 73 30 28 31 72 32 29 33 30 34
REMARK SMILES IDX 31 35 66 36 32 37 71 38 65 39 67 40 33 41 70 42 64 43 63 44
REMARK SMILES IDX 34 46 56 47 41 48 55 49 42 50 45 51 54 52 68 53 43 54 44 55
REMARK SMILES IDX 53 57 69 58 46 59 35 60 36 61 40 62 37 63 39 64 38 65 57 66
REMARK SMILES IDX 58 67 62 68 59 69 61 70 60 71 47 72 48 73 52 74 49 75 51 76
REMARK SMILES IDX 50 77
REMARK H PARENT 19 5 23 26 67 45 45 56
REMARK Flexibility Score: inf
ROOT
ATOM      1  C   UNL A   1      33.642  30.446  26.983  1.00  0.00     0.117 C 
ENDROOT
BRANCH   1   2
ATOM      2  N   UNL A   1      32.615  29.616  27.585  1.00  0.00    -0.356 N 
ATOM      3  C   UNL A   1      31.925  28.524  27.161  1.00  0.00     0.227 C 
ATOM      4  O   UNL A   1      31.236  27.973  28.024  1.00  0.00    -0.274 OA
ATOM      5  H   UNL A   1      32.364  29.904  28.492  1.00  0.00     0.163 HD
BRANCH   3   6
ATOM      6  C   UNL A   1      31.960  27.998  25.713  1.00  0.00     0.061 C 
ATOM      7  C   UNL A   1      31.306  29.069  24.799  1.00  0.00     0.023 C 
ATOM      8  C   UNL A   1      31.068  26.753  25.536  1.00  0.00     0.023 C 
BRANCH   6   9
ATOM      9  C   UNL A   1      33.416  27.704  25.264  1.00  0.00     0.138 C 
BRANCH   9  10
ATOM     10  N   UNL A   1      33.562  26.770  24.149  1.00  0.00    -0.346 N 
ATOM     11  C   UNL A   1      33.340  27.089  22.833  1.00  0.00     0.087 A 
ATOM     12  C   UNL A   1      33.918  25.436  24.245  1.00  0.00     0.055 A 
ATOM     13  C   UNL A   1      33.409  25.933  22.093  1.00  0.00     0.028 A 
ATOM     14  C   UNL A   1      33.732  24.873  22.978  1.00  0.00     0.000 A 
ATOM     15  C   UNL A   1      34.319  24.663  25.347  1.00  0.00     0.112 A 
ATOM     16  C   UNL A   1      33.881  23.481  22.814  1.00  0.00     0.017 A 
ATOM     17  C   UNL A   1      34.404  23.274  25.169  1.00  0.00     0.271 A 
ATOM     18  C   UNL A   1      34.189  22.681  23.922  1.00  0.00     0.086 A 
BRANCH  17  19
ATOM     19  N   UNL A   1      34.673  22.423  26.337  1.00  0.00     0.062 N 
ATOM     20  O   UNL A   1      34.975  21.234  26.126  1.00  0.00    -0.258 OA
ATOM     21  O   UNL A   1      34.595  22.934  27.459  1.00  0.00    -0.258 OA
ENDBRANCH  17  19
ENDBRANCH   9  10
ENDBRANCH   6   9
ENDBRANCH   3   6
ENDBRANCH   1   2
BRANCH   1  22
ATOM     22  C   UNL A   1      34.709  30.921  27.967  1.00  0.00     0.042 C 
BRANCH  22  23
ATOM     23  C   UNL A   1      34.507  32.326  28.527  1.00  0.00     0.118 C 
BRANCH  23  24
ATOM     24  N   UNL A   1      34.398  32.384  29.970  1.00  0.00    -0.352 N 
ATOM     25  C   UNL A   1      35.211  32.059  31.018  1.00  0.00     0.251 C 
ATOM     26  H   UNL A   1      33.530  32.741  30.267  1.00  0.00     0.163 HD
ATOM     27  O   UNL A   1      34.813  32.416  32.133  1.00  0.00    -0.269 OA
BRANCH  25  28
ATOM     28  C   UNL A   1      36.475  31.273  30.939  1.00  0.00     0.039 A 
ATOM     29  C   UNL A   1      37.754  31.786  30.729  1.00  0.00     0.014 A 
ATOM     30  C   UNL A   1      36.328  29.873  31.041  1.00  0.00     0.014 A 
ATOM     31  C   UNL A   1      38.833  30.923  30.532  1.00  0.00     0.010 A 
ATOM     32  C   UNL A   1      37.404  29.007  30.864  1.00  0.00     0.010 A 
ATOM     33  C   UNL A   1      38.654  29.532  30.568  1.00  0.00    -0.014 A 
BRANCH  33  34
ATOM     34  C   UNL A   1      39.839  28.677  30.459  1.00  0.00     0.031 A 
ATOM     35  C   UNL A   1      40.580  28.517  31.739  1.00  0.00     0.074 A 
ATOM     36  C   UNL A   1      40.212  27.982  29.364  1.00  0.00     0.049 A 
ATOM     37  N   UNL A   1      41.770  28.934  32.015  1.00  0.00    -0.248 NA
ATOM     38  C   UNL A   1      39.864  27.935  32.886  1.00  0.00     0.031 C 
ATOM     39  C   UNL A   1      39.448  27.781  28.130  1.00  0.00     0.029 A 
ATOM     40  N   UNL A   1      41.330  27.217  29.159  1.00  0.00    -0.354 N 
ATOM     41  C   UNL A   1      42.033  28.508  33.315  1.00  0.00     0.074 A 
ATOM     42  C   UNL A   1      40.782  28.034  33.848  1.00  0.00     0.031 C 
ATOM     43  C   UNL A   1      40.006  26.778  27.414  1.00  0.00     0.029 A 
ATOM     44  C   UNL A   1      41.249  26.378  28.053  1.00  0.00     0.049 A 
ATOM     45  H   UNL A   1      42.122  27.259  29.743  1.00  0.00     0.167 HD
ATOM     46  C   UNL A   1      43.310  28.351  33.757  1.00  0.00     0.031 A 
ATOM     47  C   UNL A   1      42.122  25.402  27.705  1.00  0.00     0.031 A 
ATOM     48  C   UNL A   1      44.249  29.001  32.883  1.00  0.00     0.049 A 
ATOM     49  C   UNL A   1      43.426  25.714  28.323  1.00  0.00     0.074 A 
ATOM     50  C   UNL A   1      44.610  30.297  32.592  1.00  0.00     0.029 A 
ATOM     51  N   UNL A   1      44.711  28.205  31.868  1.00  0.00    -0.354 N 
ATOM     52  N   UNL A   1      44.158  26.735  27.985  1.00  0.00    -0.248 NA
ATOM     53  C   UNL A   1      43.818  25.040  29.553  1.00  0.00     0.031 C 
ATOM     54  C   UNL A   1      45.081  30.274  31.246  1.00  0.00     0.029 A 
ATOM     55  C   UNL A   1      45.041  28.960  30.776  1.00  0.00     0.049 A 
ATOM     56  H   UNL A   1      44.794  27.226  31.918  1.00  0.00     0.167 HD
ATOM     57  C   UNL A   1      44.794  27.097  29.155  1.00  0.00     0.074 A 
ATOM     58  C   UNL A   1      44.702  25.927  30.017  1.00  0.00     0.031 C 
ATOM     59  C   UNL A   1      45.045  28.408  29.435  1.00  0.00     0.031 A 
BRANCH  46  60
ATOM     60  C   UNL A   1      43.752  27.224  34.668  1.00  0.00    -0.014 A 
ATOM     61  C   UNL A   1      44.022  27.390  36.038  1.00  0.00     0.009 A 
ATOM     62  C   UNL A   1      43.609  25.897  34.216  1.00  0.00     0.009 A 
ATOM     63  C   UNL A   1      44.121  26.304  36.915  1.00  0.00     0.001 A 
ATOM     64  C   UNL A   1      43.672  24.809  35.097  1.00  0.00     0.001 A 
ATOM     65  C   UNL A   1      43.923  25.014  36.448  1.00  0.00     0.000 A 
ENDBRANCH  46  60
BRANCH  47  66
ATOM     66  C   UNL A   1      41.856  24.063  27.126  1.00  0.00    -0.014 A 
ATOM     67  C   UNL A   1      41.009  23.165  27.797  1.00  0.00     0.009 A 
ATOM     68  C   UNL A   1      42.687  23.548  26.114  1.00  0.00     0.009 A 
ATOM     69  C   UNL A   1      41.045  21.793  27.520  1.00  0.00     0.001 A 
ATOM     70  C   UNL A   1      42.726  22.174  25.842  1.00  0.00     0.001 A 
ATOM     71  C   UNL A   1      41.922  21.294  26.562  1.00  0.00     0.000 A 
ENDBRANCH  47  66
BRANCH  59  72
ATOM     72  C   UNL A   1      45.113  29.384  28.292  1.00  0.00    -0.014 A 
ATOM     73  C   UNL A   1      46.362  29.566  27.674  1.00  0.00     0.009 A 
ATOM     74  C   UNL A   1      44.046  30.203  27.892  1.00  0.00     0.009 A 
ATOM     75  C   UNL A   1      46.550  30.554  26.708  1.00  0.00     0.001 A 
ATOM     76  C   UNL A   1      44.227  31.173  26.899  1.00  0.00     0.001 A 
ATOM     77  C   UNL A   1      45.482  31.356  26.319  1.00  0.00     0.000 A 
ENDBRANCH  59  72
ENDBRANCH  33  34
ENDBRANCH  25  28
ENDBRANCH  23  24
ENDBRANCH  22  23
ENDBRANCH   1  22
TORSDOF 13
ENDMDL
MODEL 3
REMARK VINA RESULT:     -11.0      3.585      5.557
REMARK SMILES CC(C)(Cn1ccc2ccc([N+](=O)[O-])cc21)C(=O)NCCCNC(=O)c1ccc(-c2c3nc(c(-c4ccccc4)c4ccc([nH]4)c(-c4ccccc4)c4nc(c(-c5ccccc5)c5ccc2[nH]5)C=C4)C=C3)cc1
REMARK SMILES IDX 20 1 19 2 17 3 18 4 2 6 1 7 3 8 4 9 5 10 6 11 16 12 7 13
REMARK SMILES IDX 8 14 15 15 9 16 11 17 10 18 12 19 13 20 14 21 21 22 22 23
REMARK SMILES IDX 23 24 24 25 25 27 26 28 27 29 73 30 28 31 72 32 29 33 30 34
REMARK SMILES IDX 31 35 66 36 32 37 71 38 65 39 67 40 33 41 70 42 64 43 63 44
REMARK SMILES IDX 34 46 56 47 41 48 55 49 42 50 45 51 54 52 68 53 43 54 44 55
REMARK SMILES IDX 53 57 69 58 46 59 35 60 36 61 40 62 37 63 39 64 38 65 57 66
REMARK SMILES IDX 58 67 62 68 59 69 61 70 60 71 47 72 48 73 52 74 49 75 51 76
REMARK SMILES IDX 50 77
REMARK H PARENT 19 5 23 26 67 45 45 56
REMARK Flexibility Score: inf
ROOT
ATOM      1  C   UNL A   1      33.084  29.835  26.402  1.00  0.00     0.117 C 
ENDROOT
BRANCH   1   2
ATOM      2  N   UNL A   1      33.749  29.394  25.189  1.00  0.00    -0.356 N 
ATOM      3  C   UNL A   1      33.596  28.317  24.375  1.00  0.00     0.227 C 
ATOM      4  O   UNL A   1      34.239  28.361  23.322  1.00  0.00    -0.274 OA
ATOM      5  H   UNL A   1      34.463  30.005  24.894  1.00  0.00     0.163 HD
BRANCH   3   6
ATOM      6  C   UNL A   1      32.710  27.103  24.717  1.00  0.00     0.061 C 
ATOM      7  C   UNL A   1      32.844  26.072  23.566  1.00  0.00     0.023 C 
ATOM      8  C   UNL A   1      31.213  27.472  24.724  1.00  0.00     0.023 C 
BRANCH   6   9
ATOM      9  C   UNL A   1      33.131  26.475  26.073  1.00  0.00     0.138 C 
BRANCH   9  10
ATOM     10  N   UNL A   1      32.838  25.052  26.233  1.00  0.00    -0.346 N 
ATOM     11  C   UNL A   1      31.601  24.541  26.537  1.00  0.00     0.087 A 
ATOM     12  C   UNL A   1      33.750  24.016  26.129  1.00  0.00     0.055 A 
ATOM     13  C   UNL A   1      31.738  23.194  26.772  1.00  0.00     0.028 A 
ATOM     14  C   UNL A   1      33.099  22.855  26.559  1.00  0.00     0.000 A 
ATOM     15  C   UNL A   1      35.105  24.010  25.761  1.00  0.00     0.112 A 
ATOM     16  C   UNL A   1      33.836  21.662  26.697  1.00  0.00     0.017 A 
ATOM     17  C   UNL A   1      35.829  22.825  25.962  1.00  0.00     0.271 A 
ATOM     18  C   UNL A   1      35.210  21.660  26.424  1.00  0.00     0.086 A 
BRANCH  17  19
ATOM     19  N   UNL A   1      37.280  22.830  25.731  1.00  0.00     0.062 N 
ATOM     20  O   UNL A   1      37.818  23.924  25.475  1.00  0.00    -0.258 OA
ATOM     21  O   UNL A   1      37.885  21.757  25.814  1.00  0.00    -0.258 OA
ENDBRANCH  17  19
ENDBRANCH   9  10
ENDBRANCH   6   9
ENDBRANCH   3   6
ENDBRANCH   1   2
BRANCH   1  22
ATOM     22  C   UNL A   1      34.033  30.105  27.566  1.00  0.00     0.042 C 
BRANCH  22  23
ATOM     23  C   UNL A   1      34.450  31.562  27.749  1.00  0.00     0.118 C 
BRANCH  23  24
ATOM     24  N   UNL A   1      34.446  32.016  29.124  1.00  0.00    -0.352 N 
ATOM     25  C   UNL A   1      35.332  31.972  30.162  1.00  0.00     0.251 C 
ATOM     26  H   UNL A   1      33.604  32.462  29.370  1.00  0.00     0.163 HD
ATOM     27  O   UNL A   1      35.017  32.631  31.161  1.00  0.00    -0.269 OA
BRANCH  25  28
ATOM     28  C   UNL A   1      36.584  31.165  30.217  1.00  0.00     0.039 A 
ATOM     29  C   UNL A   1      37.880  31.638  30.020  1.00  0.00     0.014 A 
ATOM     30  C   UNL A   1      36.407  29.783  30.442  1.00  0.00     0.014 A 
ATOM     31  C   UNL A   1      38.951  30.745  29.956  1.00  0.00     0.010 A 
ATOM     32  C   UNL A   1      37.474  28.890  30.397  1.00  0.00     0.010 A 
ATOM     33  C   UNL A   1      38.745  29.366  30.113  1.00  0.00    -0.014 A 
BRANCH  33  34
ATOM     34  C   UNL A   1      39.918  28.489  30.140  1.00  0.00     0.031 A 
ATOM     35  C   UNL A   1      40.547  28.374  31.483  1.00  0.00     0.074 A 
ATOM     36  C   UNL A   1      40.367  27.740  29.110  1.00  0.00     0.049 A 
ATOM     37  N   UNL A   1      41.718  28.784  31.840  1.00  0.00    -0.248 NA
ATOM     38  C   UNL A   1      39.728  27.855  32.591  1.00  0.00     0.031 C 
ATOM     39  C   UNL A   1      39.704  27.497  27.827  1.00  0.00     0.029 A 
ATOM     40  N   UNL A   1      41.483  26.949  29.033  1.00  0.00    -0.354 N 
ATOM     41  C   UNL A   1      41.864  28.411  33.174  1.00  0.00     0.074 A 
ATOM     42  C   UNL A   1      40.565  27.982  33.621  1.00  0.00     0.031 C 
ATOM     43  C   UNL A   1      40.299  26.454  27.204  1.00  0.00     0.029 A 
ATOM     44  C   UNL A   1      41.477  26.063  27.961  1.00  0.00     0.049 A 
ATOM     45  H   UNL A   1      42.224  27.004  29.679  1.00  0.00     0.167 HD
ATOM     46  C   UNL A   1      43.098  28.254  33.727  1.00  0.00     0.031 A 
ATOM     47  C   UNL A   1      42.357  25.059  27.730  1.00  0.00     0.031 A 
ATOM     48  C   UNL A   1      44.118  28.850  32.908  1.00  0.00     0.049 A 
ATOM     49  C   UNL A   1      43.611  25.377  28.440  1.00  0.00     0.074 A 
ATOM     50  C   UNL A   1      44.527  30.125  32.593  1.00  0.00     0.029 A 
ATOM     51  N   UNL A   1      44.646  28.002  31.971  1.00  0.00    -0.354 N 
ATOM     52  N   UNL A   1      44.388  26.370  28.121  1.00  0.00    -0.248 NA
ATOM     53  C   UNL A   1      43.887  24.752  29.727  1.00  0.00     0.031 C 
ATOM     54  C   UNL A   1      45.107  30.035  31.293  1.00  0.00     0.029 A 
ATOM     55  C   UNL A   1      45.081  28.702  30.878  1.00  0.00     0.049 A 
ATOM     56  H   UNL A   1      44.706  27.025  32.069  1.00  0.00     0.167 HD
ATOM     57  C   UNL A   1      44.933  26.774  29.324  1.00  0.00     0.074 A 
ATOM     58  C   UNL A   1      44.746  25.644  30.224  1.00  0.00     0.031 C 
ATOM     59  C   UNL A   1      45.185  28.092  29.567  1.00  0.00     0.031 A 
BRANCH  46  60
ATOM     60  C   UNL A   1      43.441  27.162  34.719  1.00  0.00    -0.014 A 
ATOM     61  C   UNL A   1      43.643  27.392  36.092  1.00  0.00     0.009 A 
ATOM     62  C   UNL A   1      43.265  25.819  34.330  1.00  0.00     0.009 A 
ATOM     63  C   UNL A   1      43.647  26.352  37.029  1.00  0.00     0.001 A 
ATOM     64  C   UNL A   1      43.233  24.779  35.269  1.00  0.00     0.001 A 
ATOM     65  C   UNL A   1      43.419  25.047  36.619  1.00  0.00     0.000 A 
ENDBRANCH  46  60
BRANCH  47  66
ATOM     66  C   UNL A   1      42.113  23.700  27.188  1.00  0.00    -0.014 A 
ATOM     67  C   UNL A   1      41.375  22.769  27.938  1.00  0.00     0.009 A 
ATOM     68  C   UNL A   1      42.881  23.215  26.114  1.00  0.00     0.009 A 
ATOM     69  C   UNL A   1      41.460  21.397  27.672  1.00  0.00     0.001 A 
ATOM     70  C   UNL A   1      42.969  21.841  25.852  1.00  0.00     0.001 A 
ATOM     71  C   UNL A   1      42.277  20.931  26.647  1.00  0.00     0.000 A 
ENDBRANCH  47  66
BRANCH  59  72
ATOM     72  C   UNL A   1      45.366  29.015  28.393  1.00  0.00    -0.014 A 
ATOM     73  C   UNL A   1      46.667  29.159  27.883  1.00  0.00     0.009 A 
ATOM     74  C   UNL A   1      44.349  29.823  27.863  1.00  0.00     0.009 A 
ATOM     75  C   UNL A   1      46.953  30.102  26.895  1.00  0.00     0.001 A 
ATOM     76  C   UNL A   1      44.629  30.746  26.848  1.00  0.00     0.001 A 
ATOM     77  C   UNL A   1      45.933  30.894  26.376  1.00  0.00     0.000 A 
ENDBRANCH  59  72
ENDBRANCH  33  34
ENDBRANCH  25  28
ENDBRANCH  23  24
ENDBRANCH  22  23
ENDBRANCH   1  22
TORSDOF 13
ENDMDL
