MODEL 1
REMARK VINA RESULT:     -11.5      0.000      0.000
REMARK SMILES O=C(CNc1nc(-c2ccccc2)c(-c2ccccc2)s1)NCCCNC(=O)c1ccc(-c2c3nc(c(-c4ccccc4)c4ccc([nH]4)c(-c4ccccc4)c4nc(c(-c5ccccc5)c5ccc2[nH]5)C=C4)C=C3)cc1
REMARK SMILES IDX 23 1 22 2 1 3 2 4 3 6 4 7 5 9 6 10 21 11 7 12 14 13 8 14
REMARK SMILES IDX 9 15 13 16 10 17 12 18 11 19 15 20 16 21 20 22 17 23 19 24
REMARK SMILES IDX 18 25 24 26 25 27 26 28 27 29 28 31 29 32 30 33 76 34 31 35
REMARK SMILES IDX 75 36 32 37 33 38 34 39 69 40 35 41 74 42 68 43 70 44 36 45
REMARK SMILES IDX 73 46 67 47 66 48 37 50 59 51 44 52 58 53 45 54 48 55 57 56
REMARK SMILES IDX 71 57 46 58 47 59 56 61 72 62 49 63 38 64 39 65 43 66 40 67
REMARK SMILES IDX 42 68 41 69 60 70 61 71 65 72 62 73 64 74 63 75 50 76 51 77
REMARK SMILES IDX 55 78 52 79 54 80 53 81
REMARK H PARENT 22 5 4 8 26 30 70 49 48 60
REMARK Flexibility Score: inf
ROOT
ATOM      1  C   UNL A   1      31.846  28.117  27.368  1.00  0.00     0.117 C 
ENDROOT
BRANCH   1   2
ATOM      2  N   UNL A   1      30.985  26.971  27.180  1.00  0.00    -0.355 N 
ATOM      3  O   UNL A   1      30.697  27.191  24.907  1.00  0.00    -0.273 OA
ATOM      4  C   UNL A   1      30.521  26.558  25.944  1.00  0.00     0.239 C 
ATOM      5  H   UNL A   1      30.713  26.458  27.974  1.00  0.00     0.163 HD
BRANCH   4   6
ATOM      6  C   UNL A   1      29.735  25.234  25.997  1.00  0.00     0.215 C 
BRANCH   6   7
ATOM      7  N   UNL A   1      30.496  24.253  26.762  1.00  0.00    -0.352 N 
ATOM      8  H   UNL A   1      30.339  24.176  27.732  1.00  0.00     0.163 HD
BRANCH   7   9
ATOM      9  C   UNL A   1      31.407  23.451  26.185  1.00  0.00     0.184 A 
ATOM     10  N   UNL A   1      31.199  22.222  25.781  1.00  0.00    -0.220 NA
ATOM     11  S   UNL A   1      33.013  24.031  25.973  1.00  0.00    -0.096 S 
ATOM     12  C   UNL A   1      32.375  21.680  25.283  1.00  0.00     0.091 A 
ATOM     13  C   UNL A   1      33.490  22.500  25.364  1.00  0.00     0.064 A 
BRANCH  12  14
ATOM     14  C   UNL A   1      32.397  20.348  24.698  1.00  0.00     0.002 A 
ATOM     15  C   UNL A   1      32.637  19.215  25.487  1.00  0.00     0.010 A 
ATOM     16  C   UNL A   1      32.237  20.201  23.316  1.00  0.00     0.010 A 
ATOM     17  C   UNL A   1      32.750  17.956  24.893  1.00  0.00     0.001 A 
ATOM     18  C   UNL A   1      32.355  18.943  22.723  1.00  0.00     0.001 A 
ATOM     19  C   UNL A   1      32.618  17.822  23.512  1.00  0.00     0.000 A 
ENDBRANCH  12  14
BRANCH  13  20
ATOM     20  C   UNL A   1      34.886  22.271  24.993  1.00  0.00    -0.006 A 
ATOM     21  C   UNL A   1      35.681  21.390  25.740  1.00  0.00     0.009 A 
ATOM     22  C   UNL A   1      35.434  22.885  23.859  1.00  0.00     0.009 A 
ATOM     23  C   UNL A   1      36.998  21.127  25.360  1.00  0.00     0.001 A 
ATOM     24  C   UNL A   1      36.751  22.622  23.480  1.00  0.00     0.001 A 
ATOM     25  C   UNL A   1      37.532  21.742  24.229  1.00  0.00     0.000 A 
ENDBRANCH  13  20
ENDBRANCH   7   9
ENDBRANCH   6   7
ENDBRANCH   4   6
ENDBRANCH   1   2
BRANCH   1  26
ATOM     26  C   UNL A   1      33.266  27.896  26.857  1.00  0.00     0.042 C 
BRANCH  26  27
ATOM     27  C   UNL A   1      33.875  29.072  26.095  1.00  0.00     0.118 C 
BRANCH  27  28
ATOM     28  N   UNL A   1      33.722  30.350  26.775  1.00  0.00    -0.352 N 
ATOM     29  C   UNL A   1      34.502  30.966  27.721  1.00  0.00     0.251 C 
ATOM     30  H   UNL A   1      32.922  30.859  26.511  1.00  0.00     0.163 HD
ATOM     31  O   UNL A   1      34.106  32.023  28.214  1.00  0.00    -0.269 OA
BRANCH  29  32
ATOM     32  C   UNL A   1      35.786  30.388  28.185  1.00  0.00     0.039 A 
ATOM     33  C   UNL A   1      36.896  30.486  27.336  1.00  0.00     0.014 A 
ATOM     34  C   UNL A   1      35.912  29.707  29.399  1.00  0.00     0.014 A 
ATOM     35  C   UNL A   1      38.131  29.957  27.724  1.00  0.00     0.010 A 
ATOM     36  C   UNL A   1      37.161  29.235  29.815  1.00  0.00     0.010 A 
ATOM     37  C   UNL A   1      38.284  29.353  28.982  1.00  0.00    -0.014 A 
BRANCH  37  38
ATOM     38  C   UNL A   1      39.614  28.863  29.427  1.00  0.00     0.031 A 
ATOM     39  C   UNL A   1      40.455  29.663  30.385  1.00  0.00     0.074 A 
ATOM     40  C   UNL A   1      40.086  27.697  28.944  1.00  0.00     0.049 A 
ATOM     41  N   UNL A   1      41.627  29.371  30.895  1.00  0.00    -0.248 NA
ATOM     42  C   UNL A   1      39.923  30.966  30.810  1.00  0.00     0.031 C 
ATOM     43  C   UNL A   1      39.400  26.842  27.973  1.00  0.00     0.029 A 
ATOM     44  N   UNL A   1      41.255  27.026  29.209  1.00  0.00    -0.354 N 
ATOM     45  C   UNL A   1      41.977  30.457  31.688  1.00  0.00     0.074 A 
ATOM     46  C   UNL A   1      40.914  31.431  31.559  1.00  0.00     0.031 C 
ATOM     47  C   UNL A   1      40.142  25.746  27.751  1.00  0.00     0.029 A 
ATOM     48  C   UNL A   1      41.366  25.830  28.542  1.00  0.00     0.049 A 
ATOM     49  H   UNL A   1      41.946  27.370  29.820  1.00  0.00     0.167 HD
ATOM     50  C   UNL A   1      43.073  30.625  32.467  1.00  0.00     0.031 A 
ATOM     51  C   UNL A   1      42.338  24.900  28.569  1.00  0.00     0.031 A 
ATOM     52  C   UNL A   1      44.129  29.658  32.612  1.00  0.00     0.049 A 
ATOM     53  C   UNL A   1      43.532  25.099  29.458  1.00  0.00     0.074 A 
ATOM     54  C   UNL A   1      45.251  29.719  33.421  1.00  0.00     0.029 A 
ATOM     55  N   UNL A   1      44.196  28.453  31.929  1.00  0.00    -0.354 N 
ATOM     56  N   UNL A   1      43.810  26.099  30.256  1.00  0.00    -0.248 NA
ATOM     57  C   UNL A   1      44.537  24.026  29.460  1.00  0.00     0.031 C 
ATOM     58  C   UNL A   1      46.015  28.567  33.202  1.00  0.00     0.029 A 
ATOM     59  C   UNL A   1      45.346  27.769  32.289  1.00  0.00     0.049 A 
ATOM     60  H   UNL A   1      43.525  28.131  31.285  1.00  0.00     0.167 HD
ATOM     61  C   UNL A   1      45.008  25.767  30.874  1.00  0.00     0.074 A 
ATOM     62  C   UNL A   1      45.395  24.465  30.372  1.00  0.00     0.031 C 
ATOM     63  C   UNL A   1      45.723  26.478  31.779  1.00  0.00     0.031 A 
BRANCH  50  64
ATOM     64  C   UNL A   1      43.185  31.915  33.229  1.00  0.00    -0.014 A 
ATOM     65  C   UNL A   1      43.852  33.022  32.683  1.00  0.00     0.009 A 
ATOM     66  C   UNL A   1      42.584  32.038  34.491  1.00  0.00     0.009 A 
ATOM     67  C   UNL A   1      43.947  34.217  33.400  1.00  0.00     0.001 A 
ATOM     68  C   UNL A   1      42.658  33.241  35.195  1.00  0.00     0.001 A 
ATOM     69  C   UNL A   1      43.347  34.326  34.654  1.00  0.00     0.000 A 
ENDBRANCH  50  64
BRANCH  51  70
ATOM     70  C   UNL A   1      42.205  23.666  27.753  1.00  0.00    -0.014 A 
ATOM     71  C   UNL A   1      41.611  22.517  28.297  1.00  0.00     0.009 A 
ATOM     72  C   UNL A   1      42.675  23.630  26.431  1.00  0.00     0.009 A 
ATOM     73  C   UNL A   1      41.514  21.347  27.541  1.00  0.00     0.001 A 
ATOM     74  C   UNL A   1      42.553  22.466  25.670  1.00  0.00     0.001 A 
ATOM     75  C   UNL A   1      41.981  21.324  26.228  1.00  0.00     0.000 A 
ENDBRANCH  51  70
BRANCH  63  76
ATOM     76  C   UNL A   1      46.981  25.845  32.302  1.00  0.00    -0.014 A 
ATOM     77  C   UNL A   1      48.209  26.013  31.645  1.00  0.00     0.009 A 
ATOM     78  C   UNL A   1      46.937  25.078  33.478  1.00  0.00     0.009 A 
ATOM     79  C   UNL A   1      49.362  25.395  32.134  1.00  0.00     0.001 A 
ATOM     80  C   UNL A   1      48.095  24.482  33.978  1.00  0.00     0.001 A 
ATOM     81  C   UNL A   1      49.305  24.632  33.300  1.00  0.00     0.000 A 
ENDBRANCH  63  76
ENDBRANCH  37  38
ENDBRANCH  29  32
ENDBRANCH  27  28
ENDBRANCH  26  27
ENDBRANCH   1  26
TORSDOF 14
ENDMDL
MODEL 2
REMARK VINA RESULT:     -11.5      1.697      6.145
REMARK SMILES O=C(CNc1nc(-c2ccccc2)c(-c2ccccc2)s1)NCCCNC(=O)c1ccc(-c2c3nc(c(-c4ccccc4)c4ccc([nH]4)c(-c4ccccc4)c4nc(c(-c5ccccc5)c5ccc2[nH]5)C=C4)C=C3)cc1
REMARK SMILES IDX 23 1 22 2 1 3 2 4 3 6 4 7 5 9 6 10 21 11 7 12 14 13 8 14
REMARK SMILES IDX 9 15 13 16 10 17 12 18 11 19 15 20 16 21 20 22 17 23 19 24
REMARK SMILES IDX 18 25 24 26 25 27 26 28 27 29 28 31 29 32 30 33 76 34 31 35
REMARK SMILES IDX 75 36 32 37 33 38 34 39 69 40 35 41 74 42 68 43 70 44 36 45
REMARK SMILES IDX 73 46 67 47 66 48 37 50 59 51 44 52 58 53 45 54 48 55 57 56
REMARK SMILES IDX 71 57 46 58 47 59 56 61 72 62 49 63 38 64 39 65 43 66 40 67
REMARK SMILES IDX 42 68 41 69 60 70 61 71 65 72 62 73 64 74 63 75 50 76 51 77
REMARK SMILES IDX 55 78 52 79 54 80 53 81
REMARK H PARENT 22 5 4 8 26 30 70 49 48 60
REMARK Flexibility Score: inf
ROOT
ATOM      1  C   UNL A   1      31.405  28.550  25.790  1.00  0.00     0.117 C 
ENDROOT
BRANCH   1   2
ATOM      2  N   UNL A   1      31.785  27.908  24.551  1.00  0.00    -0.355 N 
ATOM      3  O   UNL A   1      29.685  27.196  23.933  1.00  0.00    -0.273 OA
ATOM      4  C   UNL A   1      30.879  27.326  23.681  1.00  0.00     0.239 C 
ATOM      5  H   UNL A   1      32.740  27.881  24.314  1.00  0.00     0.163 HD
BRANCH   4   6
ATOM      6  C   UNL A   1      31.521  26.833  22.370  1.00  0.00     0.215 C 
BRANCH   6   7
ATOM      7  N   UNL A   1      31.324  25.393  22.250  1.00  0.00    -0.352 N 
ATOM      8  H   UNL A   1      30.546  25.057  21.748  1.00  0.00     0.163 HD
BRANCH   7   9
ATOM      9  C   UNL A   1      32.172  24.510  22.803  1.00  0.00     0.184 A 
ATOM     10  N   UNL A   1      31.874  23.288  23.172  1.00  0.00    -0.220 NA
ATOM     11  S   UNL A   1      33.794  24.993  23.113  1.00  0.00    -0.096 S 
ATOM     12  C   UNL A   1      32.979  22.683  23.752  1.00  0.00     0.091 A 
ATOM     13  C   UNL A   1      34.105  23.484  23.866  1.00  0.00     0.064 A 
BRANCH  12  14
ATOM     14  C   UNL A   1      32.934  21.293  24.179  1.00  0.00     0.002 A 
ATOM     15  C   UNL A   1      32.611  20.269  23.278  1.00  0.00     0.010 A 
ATOM     16  C   UNL A   1      33.157  20.980  25.524  1.00  0.00     0.010 A 
ATOM     17  C   UNL A   1      32.480  18.954  23.728  1.00  0.00     0.001 A 
ATOM     18  C   UNL A   1      33.020  19.665  25.973  1.00  0.00     0.001 A 
ATOM     19  C   UNL A   1      32.676  18.654  25.075  1.00  0.00     0.000 A 
ENDBRANCH  12  14
BRANCH  13  20
ATOM     20  C   UNL A   1      35.420  23.223  24.451  1.00  0.00    -0.006 A 
ATOM     21  C   UNL A   1      35.893  24.013  25.509  1.00  0.00     0.009 A 
ATOM     22  C   UNL A   1      36.202  22.151  24.000  1.00  0.00     0.009 A 
ATOM     23  C   UNL A   1      37.124  23.735  26.106  1.00  0.00     0.001 A 
ATOM     24  C   UNL A   1      37.433  21.875  24.597  1.00  0.00     0.001 A 
ATOM     25  C   UNL A   1      37.893  22.665  25.650  1.00  0.00     0.000 A 
ENDBRANCH  13  20
ENDBRANCH   7   9
ENDBRANCH   6   7
ENDBRANCH   4   6
ENDBRANCH   1   2
BRANCH   1  26
ATOM     26  C   UNL A   1      32.082  27.945  27.015  1.00  0.00     0.042 C 
BRANCH  26  27
ATOM     27  C   UNL A   1      33.484  28.473  27.311  1.00  0.00     0.118 C 
BRANCH  27  28
ATOM     28  N   UNL A   1      33.516  29.889  27.648  1.00  0.00    -0.352 N 
ATOM     29  C   UNL A   1      34.518  30.669  28.168  1.00  0.00     0.251 C 
ATOM     30  H   UNL A   1      32.675  30.369  27.474  1.00  0.00     0.163 HD
ATOM     31  O   UNL A   1      34.266  31.841  28.453  1.00  0.00    -0.269 OA
BRANCH  29  32
ATOM     32  C   UNL A   1      35.880  30.140  28.423  1.00  0.00     0.039 A 
ATOM     33  C   UNL A   1      36.811  30.190  27.377  1.00  0.00     0.014 A 
ATOM     34  C   UNL A   1      36.244  29.548  29.636  1.00  0.00     0.014 A 
ATOM     35  C   UNL A   1      38.109  29.704  27.564  1.00  0.00     0.010 A 
ATOM     36  C   UNL A   1      37.560  29.121  29.843  1.00  0.00     0.010 A 
ATOM     37  C   UNL A   1      38.506  29.192  28.809  1.00  0.00    -0.014 A 
BRANCH  37  38
ATOM     38  C   UNL A   1      39.907  28.750  29.031  1.00  0.00     0.031 A 
ATOM     39  C   UNL A   1      40.358  27.370  28.633  1.00  0.00     0.074 A 
ATOM     40  C   UNL A   1      40.781  29.588  29.622  1.00  0.00     0.049 A 
ATOM     41  N   UNL A   1      41.549  26.831  28.732  1.00  0.00    -0.248 NA
ATOM     42  C   UNL A   1      39.337  26.472  28.071  1.00  0.00     0.031 C 
ATOM     43  C   UNL A   1      40.470  30.936  30.103  1.00  0.00     0.029 A 
ATOM     44  N   UNL A   1      42.113  29.431  29.915  1.00  0.00    -0.354 N 
ATOM     45  C   UNL A   1      41.418  25.531  28.258  1.00  0.00     0.074 A 
ATOM     46  C   UNL A   1      40.024  25.349  27.912  1.00  0.00     0.031 C 
ATOM     47  C   UNL A   1      41.586  31.494  30.598  1.00  0.00     0.029 A 
ATOM     48  C   UNL A   1      42.684  30.538  30.494  1.00  0.00     0.049 A 
ATOM     49  H   UNL A   1      42.612  28.603  29.727  1.00  0.00     0.167 HD
ATOM     50  C   UNL A   1      42.370  24.580  28.107  1.00  0.00     0.031 A 
ATOM     51  C   UNL A   1      43.950  30.766  30.889  1.00  0.00     0.031 A 
ATOM     52  C   UNL A   1      43.760  24.754  28.437  1.00  0.00     0.049 A 
ATOM     53  C   UNL A   1      44.992  29.703  30.690  1.00  0.00     0.074 A 
ATOM     54  C   UNL A   1      44.806  23.864  28.267  1.00  0.00     0.029 A 
ATOM     55  N   UNL A   1      44.299  25.897  29.008  1.00  0.00    -0.354 N 
ATOM     56  N   UNL A   1      44.864  28.507  30.173  1.00  0.00    -0.248 NA
ATOM     57  C   UNL A   1      46.360  30.034  31.115  1.00  0.00     0.031 C 
ATOM     58  C   UNL A   1      45.972  24.453  28.767  1.00  0.00     0.029 A 
ATOM     59  C   UNL A   1      45.659  25.729  29.208  1.00  0.00     0.049 A 
ATOM     60  H   UNL A   1      43.789  26.708  29.236  1.00  0.00     0.167 HD
ATOM     61  C   UNL A   1      46.136  27.951  30.188  1.00  0.00     0.074 A 
ATOM     62  C   UNL A   1      47.025  28.948  30.748  1.00  0.00     0.031 C 
ATOM     63  C   UNL A   1      46.532  26.724  29.771  1.00  0.00     0.031 A 
BRANCH  50  64
ATOM     64  C   UNL A   1      41.934  23.251  27.557  1.00  0.00    -0.014 A 
ATOM     65  C   UNL A   1      41.963  22.993  26.178  1.00  0.00     0.009 A 
ATOM     66  C   UNL A   1      41.525  22.231  28.430  1.00  0.00     0.009 A 
ATOM     67  C   UNL A   1      41.557  21.753  25.680  1.00  0.00     0.001 A 
ATOM     68  C   UNL A   1      41.144  20.984  27.932  1.00  0.00     0.001 A 
ATOM     69  C   UNL A   1      41.152  20.749  26.558  1.00  0.00     0.000 A 
ENDBRANCH  50  64
BRANCH  51  70
ATOM     70  C   UNL A   1      44.317  32.078  31.479  1.00  0.00    -0.014 A 
ATOM     71  C   UNL A   1      44.742  33.132  30.655  1.00  0.00     0.009 A 
ATOM     72  C   UNL A   1      44.250  32.281  32.866  1.00  0.00     0.009 A 
ATOM     73  C   UNL A   1      45.117  34.357  31.212  1.00  0.00     0.001 A 
ATOM     74  C   UNL A   1      44.602  33.515  33.417  1.00  0.00     0.001 A 
ATOM     75  C   UNL A   1      45.043  34.548  32.591  1.00  0.00     0.000 A 
ENDBRANCH  51  70
BRANCH  63  76
ATOM     76  C   UNL A   1      47.996  26.406  29.882  1.00  0.00    -0.014 A 
ATOM     77  C   UNL A   1      48.530  25.823  31.041  1.00  0.00     0.009 A 
ATOM     78  C   UNL A   1      48.852  26.686  28.805  1.00  0.00     0.009 A 
ATOM     79  C   UNL A   1      49.898  25.560  31.134  1.00  0.00     0.001 A 
ATOM     80  C   UNL A   1      50.215  26.398  28.891  1.00  0.00     0.001 A 
ATOM     81  C   UNL A   1      50.739  25.846  30.059  1.00  0.00     0.000 A 
ENDBRANCH  63  76
ENDBRANCH  37  38
ENDBRANCH  29  32
ENDBRANCH  27  28
ENDBRANCH  26  27
ENDBRANCH   1  26
TORSDOF 14
ENDMDL
MODEL 3
REMARK VINA RESULT:     -11.3      1.191      2.587
REMARK SMILES O=C(CNc1nc(-c2ccccc2)c(-c2ccccc2)s1)NCCCNC(=O)c1ccc(-c2c3nc(c(-c4ccccc4)c4ccc([nH]4)c(-c4ccccc4)c4nc(c(-c5ccccc5)c5ccc2[nH]5)C=C4)C=C3)cc1
REMARK SMILES IDX 23 1 22 2 1 3 2 4 3 6 4 7 5 9 6 10 21 11 7 12 14 13 8 14
REMARK SMILES IDX 9 15 13 16 10 17 12 18 11 19 15 20 16 21 20 22 17 23 19 24
REMARK SMILES IDX 18 25 24 26 25 27 26 28 27 29 28 31 29 32 30 33 76 34 31 35
REMARK SMILES IDX 75 36 32 37 33 38 34 39 69 40 35 41 74 42 68 43 70 44 36 45
REMARK SMILES IDX 73 46 67 47 66 48 37 50 59 51 44 52 58 53 45 54 48 55 57 56
REMARK SMILES IDX 71 57 46 58 47 59 56 61 72 62 49 63 38 64 39 65 43 66 40 67
REMARK SMILES IDX 42 68 41 69 60 70 61 71 65 72 62 73 64 74 63 75 50 76 51 77
REMARK SMILES IDX 55 78 52 79 54 80 53 81
REMARK H PARENT 22 5 4 8 26 30 70 49 48 60
REMARK Flexibility Score: inf
ROOT
ATOM      1  C   UNL A   1      31.794  28.345  27.525  1.00  0.00     0.117 C 
ENDROOT
BRANCH   1   2
ATOM      2  N   UNL A   1      31.073  27.148  27.154  1.00  0.00    -0.355 N 
ATOM      3  O   UNL A   1      30.818  27.640  24.920  1.00  0.00    -0.273 OA
ATOM      4  C   UNL A   1      30.688  26.857  25.856  1.00  0.00     0.239 C 
ATOM      5  H   UNL A   1      30.841  26.506  27.863  1.00  0.00     0.163 HD
BRANCH   4   6
ATOM      6  C   UNL A   1      30.056  25.461  25.705  1.00  0.00     0.215 C 
BRANCH   6   7
ATOM      7  N   UNL A   1      30.743  24.523  26.585  1.00  0.00    -0.352 N 
ATOM      8  H   UNL A   1      30.611  24.597  27.559  1.00  0.00     0.163 HD
BRANCH   7   9
ATOM      9  C   UNL A   1      31.552  23.562  26.109  1.00  0.00     0.184 A 
ATOM     10  N   UNL A   1      32.826  23.698  25.836  1.00  0.00    -0.220 NA
ATOM     11  S   UNL A   1      30.893  22.009  25.774  1.00  0.00    -0.096 S 
ATOM     12  C   UNL A   1      33.330  22.516  25.313  1.00  0.00     0.091 A 
ATOM     13  C   UNL A   1      32.404  21.497  25.145  1.00  0.00     0.064 A 
BRANCH  12  14
ATOM     14  C   UNL A   1      34.743  22.379  24.997  1.00  0.00     0.002 A 
ATOM     15  C   UNL A   1      35.279  22.929  23.826  1.00  0.00     0.010 A 
ATOM     16  C   UNL A   1      35.568  21.632  25.846  1.00  0.00     0.010 A 
ATOM     17  C   UNL A   1      36.617  22.704  23.492  1.00  0.00     0.001 A 
ATOM     18  C   UNL A   1      36.903  21.404  25.508  1.00  0.00     0.001 A 
ATOM     19  C   UNL A   1      37.425  21.936  24.329  1.00  0.00     0.000 A 
ENDBRANCH  12  14
BRANCH  13  20
ATOM     20  C   UNL A   1      32.541  20.150  24.592  1.00  0.00    -0.006 A 
ATOM     21  C   UNL A   1      32.877  19.074  25.425  1.00  0.00     0.009 A 
ATOM     22  C   UNL A   1      32.289  19.907  23.235  1.00  0.00     0.009 A 
ATOM     23  C   UNL A   1      32.957  17.778  24.913  1.00  0.00     0.001 A 
ATOM     24  C   UNL A   1      32.369  18.610  22.724  1.00  0.00     0.001 A 
ATOM     25  C   UNL A   1      32.702  17.547  23.562  1.00  0.00     0.000 A 
ENDBRANCH  13  20
ENDBRANCH   7   9
ENDBRANCH   6   7
ENDBRANCH   4   6
ENDBRANCH   1   2
BRANCH   1  26
ATOM     26  C   UNL A   1      33.291  28.258  27.247  1.00  0.00     0.042 C 
BRANCH  26  27
ATOM     27  C   UNL A   1      33.941  29.555  26.769  1.00  0.00     0.118 C 
BRANCH  27  28
ATOM     28  N   UNL A   1      33.821  30.652  27.717  1.00  0.00    -0.352 N 
ATOM     29  C   UNL A   1      34.690  31.118  28.670  1.00  0.00     0.251 C 
ATOM     30  H   UNL A   1      32.970  31.145  27.666  1.00  0.00     0.163 HD
ATOM     31  O   UNL A   1      34.315  32.020  29.421  1.00  0.00    -0.269 OA
BRANCH  29  32
ATOM     32  C   UNL A   1      36.051  30.553  28.843  1.00  0.00     0.039 A 
ATOM     33  C   UNL A   1      36.932  30.618  27.756  1.00  0.00     0.014 A 
ATOM     34  C   UNL A   1      36.459  29.915  30.018  1.00  0.00     0.014 A 
ATOM     35  C   UNL A   1      38.226  30.100  27.866  1.00  0.00     0.010 A 
ATOM     36  C   UNL A   1      37.773  29.455  30.149  1.00  0.00     0.010 A 
ATOM     37  C   UNL A   1      38.671  29.540  29.074  1.00  0.00    -0.014 A 
BRANCH  37  38
ATOM     38  C   UNL A   1      40.070  29.063  29.214  1.00  0.00     0.031 A 
ATOM     39  C   UNL A   1      41.138  29.947  29.800  1.00  0.00     0.074 A 
ATOM     40  C   UNL A   1      40.396  27.827  28.785  1.00  0.00     0.049 A 
ATOM     41  N   UNL A   1      42.403  29.680  30.018  1.00  0.00    -0.248 NA
ATOM     42  C   UNL A   1      40.740  31.314  30.172  1.00  0.00     0.031 C 
ATOM     43  C   UNL A   1      39.474  26.880  28.153  1.00  0.00     0.029 A 
ATOM     44  N   UNL A   1      41.591  27.153  28.820  1.00  0.00    -0.354 N 
ATOM     45  C   UNL A   1      42.953  30.846  30.537  1.00  0.00     0.074 A 
ATOM     46  C   UNL A   1      41.895  31.834  30.563  1.00  0.00     0.031 C 
ATOM     47  C   UNL A   1      40.130  25.738  27.893  1.00  0.00     0.029 A 
ATOM     48  C   UNL A   1      41.520  25.878  28.314  1.00  0.00     0.049 A 
ATOM     49  H   UNL A   1      42.421  27.547  29.176  1.00  0.00     0.167 HD
ATOM     50  C   UNL A   1      44.216  31.072  30.971  1.00  0.00     0.031 A 
ATOM     51  C   UNL A   1      42.462  24.924  28.208  1.00  0.00     0.031 A 
ATOM     52  C   UNL A   1      45.272  30.093  30.960  1.00  0.00     0.049 A 
ATOM     53  C   UNL A   1      43.850  25.191  28.717  1.00  0.00     0.074 A 
ATOM     54  C   UNL A   1      46.568  30.217  31.430  1.00  0.00     0.029 A 
ATOM     55  N   UNL A   1      45.153  28.809  30.452  1.00  0.00    -0.354 N 
ATOM     56  N   UNL A   1      44.332  26.275  29.271  1.00  0.00    -0.248 NA
ATOM     57  C   UNL A   1      44.818  24.091  28.598  1.00  0.00     0.031 C 
ATOM     58  C   UNL A   1      47.245  29.019  31.174  1.00  0.00     0.029 A 
ATOM     59  C   UNL A   1      46.356  28.135  30.585  1.00  0.00     0.049 A 
ATOM     60  H   UNL A   1      44.334  28.432  30.057  1.00  0.00     0.167 HD
ATOM     61  C   UNL A   1      45.651  25.980  29.591  1.00  0.00     0.074 A 
ATOM     62  C   UNL A   1      45.888  24.611  29.184  1.00  0.00     0.031 C 
ATOM     63  C   UNL A   1      46.582  26.775  30.172  1.00  0.00     0.031 A 
BRANCH  50  64
ATOM     64  C   UNL A   1      44.529  32.445  31.496  1.00  0.00    -0.014 A 
ATOM     65  C   UNL A   1      44.465  32.727  32.869  1.00  0.00     0.009 A 
ATOM     66  C   UNL A   1      44.928  33.459  30.611  1.00  0.00     0.009 A 
ATOM     67  C   UNL A   1      44.760  34.007  33.344  1.00  0.00     0.001 A 
ATOM     68  C   UNL A   1      45.247  34.731  31.091  1.00  0.00     0.001 A 
ATOM     69  C   UNL A   1      45.154  35.006  32.454  1.00  0.00     0.000 A 
ENDBRANCH  50  64
BRANCH  51  70
ATOM     70  C   UNL A   1      42.115  23.601  27.629  1.00  0.00    -0.014 A 
ATOM     71  C   UNL A   1      42.357  23.336  26.273  1.00  0.00     0.009 A 
ATOM     72  C   UNL A   1      41.537  22.602  28.427  1.00  0.00     0.009 A 
ATOM     73  C   UNL A   1      42.002  22.104  25.720  1.00  0.00     0.001 A 
ATOM     74  C   UNL A   1      41.206  21.362  27.877  1.00  0.00     0.001 A 
ATOM     75  C   UNL A   1      41.431  21.117  26.523  1.00  0.00     0.000 A 
ENDBRANCH  51  70
BRANCH  63  76
ATOM     76  C   UNL A   1      47.933  26.169  30.425  1.00  0.00    -0.014 A 
ATOM     77  C   UNL A   1      48.898  26.088  29.410  1.00  0.00     0.009 A 
ATOM     78  C   UNL A   1      48.247  25.682  31.704  1.00  0.00     0.009 A 
ATOM     79  C   UNL A   1      50.138  25.497  29.659  1.00  0.00     0.001 A 
ATOM     80  C   UNL A   1      49.497  25.114  31.957  1.00  0.00     0.001 A 
ATOM     81  C   UNL A   1      50.437  25.012  30.932  1.00  0.00     0.000 A 
ENDBRANCH  63  76
ENDBRANCH  37  38
ENDBRANCH  29  32
ENDBRANCH  27  28
ENDBRANCH  26  27
ENDBRANCH   1  26
TORSDOF 14
ENDMDL
