MODEL 1
REMARK VINA RESULT:     -11.4      0.000      0.000
REMARK SMILES CC1(C)CCSC[C@@]1(Nc1ccccc1Br)C(=O)NCCCNC(=O)c1ccc(-c2c3nc(c(-c4ccccc4)c4ccc([nH]4)c(-c4ccccc4)c4nc(c(-c5ccccc5)c5ccc2[nH]5)C=C4)C=C3)cc1
REMARK SMILES IDX 21 1 20 2 19 3 17 4 18 5 8 7 1 8 2 9 3 10 4 11 5 12 7 13
REMARK SMILES IDX 6 14 9 15 10 17 11 18 15 19 12 20 14 21 16 22 13 23 22 24
REMARK SMILES IDX 23 25 24 26 25 28 26 29 27 30 73 31 28 32 72 33 29 34 30 35
REMARK SMILES IDX 31 36 66 37 32 38 71 39 65 40 67 41 33 42 70 43 64 44 63 45
REMARK SMILES IDX 34 47 56 48 41 49 55 50 42 51 45 52 54 53 68 54 43 55 44 56
REMARK SMILES IDX 53 58 69 59 46 60 35 61 36 62 40 63 37 64 39 65 38 66 57 67
REMARK SMILES IDX 58 68 62 69 59 70 61 71 60 72 47 73 48 74 52 75 49 76 51 77
REMARK SMILES IDX 50 78
REMARK H PARENT 19 6 9 16 23 27 67 46 45 57
REMARK Flexibility Score: inf
ROOT
ATOM      1  C   UNL A   1      31.386  31.052  26.058  1.00  0.00     0.042 C 
ENDROOT
BRANCH   1   2
ATOM      2  C   UNL A   1      31.830  29.757  25.397  1.00  0.00     0.117 C 
BRANCH   2   3
ATOM      3  N   UNL A   1      31.713  28.633  26.308  1.00  0.00    -0.354 N 
ATOM      4  C   UNL A   1      31.376  27.327  26.118  1.00  0.00     0.247 C 
ATOM      5  O   UNL A   1      30.814  26.836  27.101  1.00  0.00    -0.272 OA
ATOM      6  H   UNL A   1      31.918  28.859  27.245  1.00  0.00     0.163 HD
BRANCH   4   7
ATOM      7  C   UNL A   1      31.561  26.552  24.754  1.00  0.00     0.131 C 
ATOM      8  C   UNL A   1      34.037  26.190  25.715  1.00  0.00     0.014 C 
ATOM      9  C   UNL A   1      33.153  26.418  24.457  1.00  0.00    -0.002 C 
ATOM     10  C   UNL A   1      33.718  27.736  23.842  1.00  0.00     0.014 C 
ATOM     11  C   UNL A   1      33.495  25.278  23.451  1.00  0.00     0.020 C 
ATOM     12  C   UNL A   1      32.902  23.914  23.775  1.00  0.00     0.070 C 
ATOM     13  C   UNL A   1      30.766  25.205  24.815  1.00  0.00     0.108 C 
ATOM     14  S   UNL A   1      31.123  23.990  23.512  1.00  0.00    -0.159 SA
BRANCH   7  15
ATOM     15  N   UNL A   1      30.971  27.370  23.601  1.00  0.00    -0.369 N 
ATOM     16  H   UNL A   1      31.583  27.698  22.902  1.00  0.00     0.161 HD
BRANCH  15  17
ATOM     17  C   UNL A   1      29.609  27.677  23.486  1.00  0.00     0.049 A 
ATOM     18  C   UNL A   1      28.670  26.703  23.876  1.00  0.00     0.027 A 
ATOM     19  C   UNL A   1      29.091  28.880  22.975  1.00  0.00     0.041 A 
ATOM     20  C   UNL A   1      27.297  26.958  23.896  1.00  0.00     0.002 A 
ATOM     21  C   UNL A   1      27.713  29.152  23.022  1.00  0.00     0.018 A 
ATOM     22  Br  UNL A   1      30.139  30.117  21.981  1.00  0.00    -0.049 Br
ATOM     23  C   UNL A   1      26.819  28.199  23.502  1.00  0.00     0.001 A 
ENDBRANCH  15  17
ENDBRANCH   7  15
ENDBRANCH   4   7
ENDBRANCH   2   3
ENDBRANCH   1   2
BRANCH   1  24
ATOM     24  C   UNL A   1      32.418  31.572  27.041  1.00  0.00     0.118 C 
BRANCH  24  25
ATOM     25  N   UNL A   1      32.287  33.011  27.234  1.00  0.00    -0.352 N 
ATOM     26  C   UNL A   1      32.972  33.834  28.092  1.00  0.00     0.251 C 
ATOM     27  H   UNL A   1      31.613  33.454  26.669  1.00  0.00     0.163 HD
ATOM     28  O   UNL A   1      32.529  34.941  28.375  1.00  0.00    -0.269 OA
BRANCH  26  29
ATOM     29  C   UNL A   1      34.249  33.370  28.666  1.00  0.00     0.039 A 
ATOM     30  C   UNL A   1      34.253  32.671  29.876  1.00  0.00     0.014 A 
ATOM     31  C   UNL A   1      35.446  33.642  28.003  1.00  0.00     0.014 A 
ATOM     32  C   UNL A   1      35.462  32.202  30.390  1.00  0.00     0.010 A 
ATOM     33  C   UNL A   1      36.628  33.078  28.453  1.00  0.00     0.010 A 
ATOM     34  C   UNL A   1      36.654  32.379  29.666  1.00  0.00    -0.014 A 
BRANCH  34  35
ATOM     35  C   UNL A   1      37.960  31.901  30.177  1.00  0.00     0.031 A 
ATOM     36  C   UNL A   1      38.544  30.629  29.624  1.00  0.00     0.074 A 
ATOM     37  C   UNL A   1      38.569  32.558  31.181  1.00  0.00     0.049 A 
ATOM     38  N   UNL A   1      39.608  29.972  30.010  1.00  0.00    -0.248 NA
ATOM     39  C   UNL A   1      37.814  29.986  28.516  1.00  0.00     0.031 C 
ATOM     40  C   UNL A   1      38.072  33.772  31.833  1.00  0.00     0.029 A 
ATOM     41  N   UNL A   1      39.742  32.285  31.837  1.00  0.00    -0.354 N 
ATOM     42  C   UNL A   1      39.652  28.832  29.217  1.00  0.00     0.074 A 
ATOM     43  C   UNL A   1      38.481  28.852  28.370  1.00  0.00     0.031 C 
ATOM     44  C   UNL A   1      38.948  34.155  32.776  1.00  0.00     0.029 A 
ATOM     45  C   UNL A   1      40.046  33.195  32.821  1.00  0.00     0.049 A 
ATOM     46  H   UNL A   1      40.311  31.511  31.624  1.00  0.00     0.167 HD
ATOM     47  C   UNL A   1      40.599  27.867  29.175  1.00  0.00     0.031 A 
ATOM     48  C   UNL A   1      41.092  33.242  33.666  1.00  0.00     0.031 A 
ATOM     49  C   UNL A   1      41.783  27.871  29.988  1.00  0.00     0.049 A 
ATOM     50  C   UNL A   1      42.144  32.172  33.579  1.00  0.00     0.074 A 
ATOM     51  C   UNL A   1      42.834  26.975  29.986  1.00  0.00     0.029 A 
ATOM     52  N   UNL A   1      42.074  28.835  30.941  1.00  0.00    -0.354 N 
ATOM     53  N   UNL A   1      42.200  31.130  32.785  1.00  0.00    -0.248 NA
ATOM     54  C   UNL A   1      43.287  32.294  34.496  1.00  0.00     0.031 C 
ATOM     55  C   UNL A   1      43.751  27.379  30.962  1.00  0.00     0.029 A 
ATOM     56  C   UNL A   1      43.288  28.551  31.537  1.00  0.00     0.049 A 
ATOM     57  H   UNL A   1      41.502  29.605  31.160  1.00  0.00     0.167 HD
ATOM     58  C   UNL A   1      43.393  30.488  33.087  1.00  0.00     0.074 A 
ATOM     59  C   UNL A   1      44.039  31.269  34.123  1.00  0.00     0.031 C 
ATOM     60  C   UNL A   1      43.910  29.353  32.558  1.00  0.00     0.031 A 
BRANCH  47  61
ATOM     61  C   UNL A   1      40.397  26.739  28.202  1.00  0.00    -0.014 A 
ATOM     62  C   UNL A   1      40.991  26.764  26.930  1.00  0.00     0.009 A 
ATOM     63  C   UNL A   1      39.631  25.623  28.571  1.00  0.00     0.009 A 
ATOM     64  C   UNL A   1      40.793  25.712  26.034  1.00  0.00     0.001 A 
ATOM     65  C   UNL A   1      39.459  24.557  27.684  1.00  0.00     0.001 A 
ATOM     66  C   UNL A   1      40.032  24.608  26.414  1.00  0.00     0.000 A 
ENDBRANCH  47  61
BRANCH  48  67
ATOM     67  C   UNL A   1      41.212  34.347  34.650  1.00  0.00    -0.014 A 
ATOM     68  C   UNL A   1      40.651  34.223  35.932  1.00  0.00     0.009 A 
ATOM     69  C   UNL A   1      41.873  35.539  34.313  1.00  0.00     0.009 A 
ATOM     70  C   UNL A   1      40.718  35.282  36.841  1.00  0.00     0.001 A 
ATOM     71  C   UNL A   1      41.963  36.585  35.235  1.00  0.00     0.001 A 
ATOM     72  C   UNL A   1      41.375  36.460  36.492  1.00  0.00     0.000 A 
ENDBRANCH  48  67
BRANCH  60  73
ATOM     73  C   UNL A   1      45.254  28.916  33.062  1.00  0.00    -0.014 A 
ATOM     74  C   UNL A   1      45.372  28.048  34.157  1.00  0.00     0.009 A 
ATOM     75  C   UNL A   1      46.416  29.346  32.402  1.00  0.00     0.009 A 
ATOM     76  C   UNL A   1      46.632  27.643  34.601  1.00  0.00     0.001 A 
ATOM     77  C   UNL A   1      47.672  28.918  32.830  1.00  0.00     0.001 A 
ATOM     78  C   UNL A   1      47.779  28.074  33.935  1.00  0.00     0.000 A 
ENDBRANCH  60  73
ENDBRANCH  34  35
ENDBRANCH  26  29
ENDBRANCH  24  25
ENDBRANCH   1  24
TORSDOF 12
ENDMDL
MODEL 2
REMARK VINA RESULT:     -11.4      3.183      7.827
REMARK SMILES CC1(C)CCSC[C@@]1(Nc1ccccc1Br)C(=O)NCCCNC(=O)c1ccc(-c2c3nc(c(-c4ccccc4)c4ccc([nH]4)c(-c4ccccc4)c4nc(c(-c5ccccc5)c5ccc2[nH]5)C=C4)C=C3)cc1
REMARK SMILES IDX 21 1 20 2 19 3 17 4 18 5 8 7 1 8 2 9 3 10 4 11 5 12 7 13
REMARK SMILES IDX 6 14 9 15 10 17 11 18 15 19 12 20 14 21 16 22 13 23 22 24
REMARK SMILES IDX 23 25 24 26 25 28 26 29 27 30 73 31 28 32 72 33 29 34 30 35
REMARK SMILES IDX 31 36 66 37 32 38 71 39 65 40 67 41 33 42 70 43 64 44 63 45
REMARK SMILES IDX 34 47 56 48 41 49 55 50 42 51 45 52 54 53 68 54 43 55 44 56
REMARK SMILES IDX 53 58 69 59 46 60 35 61 36 62 40 63 37 64 39 65 38 66 57 67
REMARK SMILES IDX 58 68 62 69 59 70 61 71 60 72 47 73 48 74 52 75 49 76 51 77
REMARK SMILES IDX 50 78
REMARK H PARENT 19 6 9 16 23 27 67 46 45 57
REMARK Flexibility Score: inf
ROOT
ATOM      1  C   UNL A   1      33.726  28.328  25.252  1.00  0.00     0.042 C 
ENDROOT
BRANCH   1   2
ATOM      2  C   UNL A   1      32.985  27.046  24.908  1.00  0.00     0.117 C 
BRANCH   2   3
ATOM      3  N   UNL A   1      32.738  26.246  26.094  1.00  0.00    -0.354 N 
ATOM      4  C   UNL A   1      32.580  24.906  26.280  1.00  0.00     0.247 C 
ATOM      5  O   UNL A   1      31.830  24.646  27.226  1.00  0.00    -0.272 OA
ATOM      6  H   UNL A   1      32.673  26.774  26.923  1.00  0.00     0.163 HD
BRANCH   4   7
ATOM      7  C   UNL A   1      33.178  23.799  25.326  1.00  0.00     0.131 C 
ATOM      8  C   UNL A   1      30.684  23.815  24.344  1.00  0.00     0.014 C 
ATOM      9  C   UNL A   1      31.943  22.966  24.676  1.00  0.00    -0.002 C 
ATOM     10  C   UNL A   1      31.411  21.890  25.673  1.00  0.00     0.014 C 
ATOM     11  C   UNL A   1      32.334  22.207  23.373  1.00  0.00     0.020 C 
ATOM     12  C   UNL A   1      33.025  23.044  22.306  1.00  0.00     0.070 C 
ATOM     13  C   UNL A   1      34.154  24.472  24.305  1.00  0.00     0.108 C 
ATOM     14  S   UNL A   1      34.677  23.459  22.890  1.00  0.00    -0.159 SA
BRANCH   7  15
ATOM     15  N   UNL A   1      34.000  22.793  26.139  1.00  0.00    -0.369 N 
ATOM     16  H   UNL A   1      33.545  22.284  26.848  1.00  0.00     0.161 HD
BRANCH  15  17
ATOM     17  C   UNL A   1      35.365  22.558  25.926  1.00  0.00     0.049 A 
ATOM     18  C   UNL A   1      36.261  23.632  26.087  1.00  0.00     0.027 A 
ATOM     19  C   UNL A   1      35.921  21.330  25.525  1.00  0.00     0.041 A 
ATOM     20  C   UNL A   1      37.645  23.467  26.000  1.00  0.00     0.002 A 
ATOM     21  C   UNL A   1      37.314  21.152  25.466  1.00  0.00     0.018 A 
ATOM     22  Br  UNL A   1      34.880  19.907  24.813  1.00  0.00    -0.049 Br
ATOM     23  C   UNL A   1      38.175  22.216  25.724  1.00  0.00     0.001 A 
ENDBRANCH  15  17
ENDBRANCH   7  15
ENDBRANCH   4   7
ENDBRANCH   2   3
ENDBRANCH   1   2
BRANCH   1  24
ATOM     24  C   UNL A   1      33.892  28.506  26.750  1.00  0.00     0.118 C 
BRANCH  24  25
ATOM     25  N   UNL A   1      33.741  29.903  27.137  1.00  0.00    -0.352 N 
ATOM     26  C   UNL A   1      34.514  30.653  27.987  1.00  0.00     0.251 C 
ATOM     27  H   UNL A   1      32.977  30.374  26.731  1.00  0.00     0.163 HD
ATOM     28  O   UNL A   1      34.080  31.695  28.464  1.00  0.00    -0.269 OA
BRANCH  26  29
ATOM     29  C   UNL A   1      35.876  30.191  28.314  1.00  0.00     0.039 A 
ATOM     30  C   UNL A   1      36.142  29.653  29.575  1.00  0.00     0.014 A 
ATOM     31  C   UNL A   1      36.893  30.306  27.365  1.00  0.00     0.014 A 
ATOM     32  C   UNL A   1      37.424  29.182  29.861  1.00  0.00     0.010 A 
ATOM     33  C   UNL A   1      38.131  29.734  27.609  1.00  0.00     0.010 A 
ATOM     34  C   UNL A   1      38.419  29.195  28.869  1.00  0.00    -0.014 A 
BRANCH  34  35
ATOM     35  C   UNL A   1      39.793  28.710  29.130  1.00  0.00     0.031 A 
ATOM     36  C   UNL A   1      40.793  29.640  29.764  1.00  0.00     0.074 A 
ATOM     37  C   UNL A   1      40.159  27.479  28.728  1.00  0.00     0.049 A 
ATOM     38  N   UNL A   1      42.072  29.461  29.971  1.00  0.00    -0.248 NA
ATOM     39  C   UNL A   1      40.298  30.964  30.185  1.00  0.00     0.031 C 
ATOM     40  C   UNL A   1      39.292  26.507  28.055  1.00  0.00     0.029 A 
ATOM     41  N   UNL A   1      41.368  26.838  28.819  1.00  0.00    -0.354 N 
ATOM     42  C   UNL A   1      42.534  30.655  30.512  1.00  0.00     0.074 A 
ATOM     43  C   UNL A   1      41.417  31.570  30.548  1.00  0.00     0.031 C 
ATOM     44  C   UNL A   1      39.990  25.384  27.821  1.00  0.00     0.029 A 
ATOM     45  C   UNL A   1      41.359  25.569  28.291  1.00  0.00     0.049 A 
ATOM     46  H   UNL A   1      42.166  27.247  29.224  1.00  0.00     0.167 HD
ATOM     47  C   UNL A   1      43.773  30.954  30.968  1.00  0.00     0.031 A 
ATOM     48  C   UNL A   1      42.348  24.663  28.193  1.00  0.00     0.031 A 
ATOM     49  C   UNL A   1      44.871  30.028  30.968  1.00  0.00     0.049 A 
ATOM     50  C   UNL A   1      43.708  25.011  28.732  1.00  0.00     0.074 A 
ATOM     51  C   UNL A   1      46.151  30.207  31.458  1.00  0.00     0.029 A 
ATOM     52  N   UNL A   1      44.807  28.738  30.465  1.00  0.00    -0.354 N 
ATOM     53  N   UNL A   1      44.114  26.125  29.293  1.00  0.00    -0.248 NA
ATOM     54  C   UNL A   1      44.741  23.970  28.639  1.00  0.00     0.031 C 
ATOM     55  C   UNL A   1      46.874  29.034  31.222  1.00  0.00     0.029 A 
ATOM     56  C   UNL A   1      46.028  28.111  30.627  1.00  0.00     0.049 A 
ATOM     57  H   UNL A   1      44.011  28.330  30.052  1.00  0.00     0.167 HD
ATOM     58  C   UNL A   1      45.440  25.909  29.643  1.00  0.00     0.074 A 
ATOM     59  C   UNL A   1      45.763  24.553  29.249  1.00  0.00     0.031 C 
ATOM     60  C   UNL A   1      46.316  26.757  30.235  1.00  0.00     0.031 A 
BRANCH  47  61
ATOM     61  C   UNL A   1      43.994  32.335  31.518  1.00  0.00    -0.014 A 
ATOM     62  C   UNL A   1      43.802  32.609  32.883  1.00  0.00     0.009 A 
ATOM     63  C   UNL A   1      44.429  33.366  30.674  1.00  0.00     0.009 A 
ATOM     64  C   UNL A   1      44.008  33.896  33.382  1.00  0.00     0.001 A 
ATOM     65  C   UNL A   1      44.663  34.647  31.181  1.00  0.00     0.001 A 
ATOM     66  C   UNL A   1      44.443  34.912  32.532  1.00  0.00     0.000 A 
ENDBRANCH  47  61
BRANCH  48  67
ATOM     67  C   UNL A   1      42.091  23.333  27.584  1.00  0.00    -0.014 A 
ATOM     68  C   UNL A   1      42.432  23.087  26.244  1.00  0.00     0.009 A 
ATOM     69  C   UNL A   1      41.488  22.307  28.328  1.00  0.00     0.009 A 
ATOM     70  C   UNL A   1      42.143  21.854  25.654  1.00  0.00     0.001 A 
ATOM     71  C   UNL A   1      41.227  21.066  27.744  1.00  0.00     0.001 A 
ATOM     72  C   UNL A   1      41.543  20.844  26.405  1.00  0.00     0.000 A 
ENDBRANCH  48  67
BRANCH  60  73
ATOM     73  C   UNL A   1      47.688  26.225  30.528  1.00  0.00    -0.014 A 
ATOM     74  C   UNL A   1      48.695  26.237  29.552  1.00  0.00     0.009 A 
ATOM     75  C   UNL A   1      47.986  25.747  31.814  1.00  0.00     0.009 A 
ATOM     76  C   UNL A   1      49.968  25.750  29.850  1.00  0.00     0.001 A 
ATOM     77  C   UNL A   1      49.267  25.287  32.117  1.00  0.00     0.001 A 
ATOM     78  C   UNL A   1      50.254  25.280  31.132  1.00  0.00     0.000 A 
ENDBRANCH  60  73
ENDBRANCH  34  35
ENDBRANCH  26  29
ENDBRANCH  24  25
ENDBRANCH   1  24
TORSDOF 12
ENDMDL
MODEL 3
REMARK VINA RESULT:     -11.4      2.833      7.642
REMARK SMILES CC1(C)CCSC[C@@]1(Nc1ccccc1Br)C(=O)NCCCNC(=O)c1ccc(-c2c3nc(c(-c4ccccc4)c4ccc([nH]4)c(-c4ccccc4)c4nc(c(-c5ccccc5)c5ccc2[nH]5)C=C4)C=C3)cc1
REMARK SMILES IDX 21 1 20 2 19 3 17 4 18 5 8 7 1 8 2 9 3 10 4 11 5 12 7 13
REMARK SMILES IDX 6 14 9 15 10 17 11 18 15 19 12 20 14 21 16 22 13 23 22 24
REMARK SMILES IDX 23 25 24 26 25 28 26 29 27 30 73 31 28 32 72 33 29 34 30 35
REMARK SMILES IDX 31 36 66 37 32 38 71 39 65 40 67 41 33 42 70 43 64 44 63 45
REMARK SMILES IDX 34 47 56 48 41 49 55 50 42 51 45 52 54 53 68 54 43 55 44 56
REMARK SMILES IDX 53 58 69 59 46 60 35 61 36 62 40 63 37 64 39 65 38 66 57 67
REMARK SMILES IDX 58 68 62 69 59 70 61 71 60 72 47 73 48 74 52 75 49 76 51 77
REMARK SMILES IDX 50 78
REMARK H PARENT 19 6 9 16 23 27 67 46 45 57
REMARK Flexibility Score: inf
ROOT
ATOM      1  C   UNL A   1      33.607  28.456  24.697  1.00  0.00     0.042 C 
ENDROOT
BRANCH   1   2
ATOM      2  C   UNL A   1      32.675  27.265  24.551  1.00  0.00     0.117 C 
BRANCH   2   3
ATOM      3  N   UNL A   1      32.528  26.553  25.808  1.00  0.00    -0.354 N 
ATOM      4  C   UNL A   1      32.468  25.226  26.110  1.00  0.00     0.247 C 
ATOM      5  O   UNL A   1      31.774  25.000  27.105  1.00  0.00    -0.272 OA
ATOM      6  H   UNL A   1      32.460  27.144  26.593  1.00  0.00     0.163 HD
BRANCH   4   7
ATOM      7  C   UNL A   1      33.102  24.084  25.224  1.00  0.00     0.131 C 
ATOM      8  C   UNL A   1      30.649  24.059  24.145  1.00  0.00     0.014 C 
ATOM      9  C   UNL A   1      31.892  23.225  24.559  1.00  0.00    -0.002 C 
ATOM     10  C   UNL A   1      31.321  22.188  25.575  1.00  0.00     0.014 C 
ATOM     11  C   UNL A   1      32.334  22.416  23.302  1.00  0.00     0.020 C 
ATOM     12  C   UNL A   1      33.067  23.211  22.232  1.00  0.00     0.070 C 
ATOM     13  C   UNL A   1      34.118  24.717  24.216  1.00  0.00     0.108 C 
ATOM     14  S   UNL A   1      34.695  23.650  22.863  1.00  0.00    -0.159 SA
BRANCH   7  15
ATOM     15  N   UNL A   1      33.891  23.111  26.106  1.00  0.00    -0.369 N 
ATOM     16  H   UNL A   1      33.423  22.679  26.857  1.00  0.00     0.161 HD
BRANCH  15  17
ATOM     17  C   UNL A   1      35.242  22.803  25.902  1.00  0.00     0.049 A 
ATOM     18  C   UNL A   1      36.191  23.834  26.039  1.00  0.00     0.027 A 
ATOM     19  C   UNL A   1      35.736  21.539  25.532  1.00  0.00     0.041 A 
ATOM     20  C   UNL A   1      37.565  23.598  25.958  1.00  0.00     0.002 A 
ATOM     21  C   UNL A   1      37.118  21.290  25.480  1.00  0.00     0.018 A 
ATOM     22  Br  UNL A   1      34.626  20.152  24.854  1.00  0.00    -0.049 Br
ATOM     23  C   UNL A   1      38.032  22.315  25.713  1.00  0.00     0.001 A 
ENDBRANCH  15  17
ENDBRANCH   7  15
ENDBRANCH   4   7
ENDBRANCH   2   3
ENDBRANCH   1   2
BRANCH   1  24
ATOM     24  C   UNL A   1      34.048  28.662  26.134  1.00  0.00     0.118 C 
BRANCH  24  25
ATOM     25  N   UNL A   1      33.856  30.045  26.554  1.00  0.00    -0.352 N 
ATOM     26  C   UNL A   1      34.500  30.746  27.542  1.00  0.00     0.251 C 
ATOM     27  H   UNL A   1      33.167  30.545  26.059  1.00  0.00     0.163 HD
ATOM     28  O   UNL A   1      34.010  31.774  27.994  1.00  0.00    -0.269 OA
BRANCH  26  29
ATOM     29  C   UNL A   1      35.792  30.247  28.050  1.00  0.00     0.039 A 
ATOM     30  C   UNL A   1      35.869  29.701  29.334  1.00  0.00     0.014 A 
ATOM     31  C   UNL A   1      36.932  30.334  27.249  1.00  0.00     0.014 A 
ATOM     32  C   UNL A   1      37.087  29.196  29.790  1.00  0.00     0.010 A 
ATOM     33  C   UNL A   1      38.109  29.729  27.657  1.00  0.00     0.010 A 
ATOM     34  C   UNL A   1      38.208  29.182  28.943  1.00  0.00    -0.014 A 
BRANCH  34  35
ATOM     35  C   UNL A   1      39.521  28.660  29.387  1.00  0.00     0.031 A 
ATOM     36  C   UNL A   1      40.381  29.506  30.288  1.00  0.00     0.074 A 
ATOM     37  C   UNL A   1      39.967  27.480  28.921  1.00  0.00     0.049 A 
ATOM     38  N   UNL A   1      41.606  29.295  30.696  1.00  0.00    -0.248 NA
ATOM     39  C   UNL A   1      39.803  30.778  30.760  1.00  0.00     0.031 C 
ATOM     40  C   UNL A   1      39.245  26.597  28.001  1.00  0.00     0.029 A 
ATOM     41  N   UNL A   1      41.148  26.823  29.152  1.00  0.00    -0.354 N 
ATOM     42  C   UNL A   1      41.950  30.418  31.441  1.00  0.00     0.074 A 
ATOM     43  C   UNL A   1      40.833  31.331  31.381  1.00  0.00     0.031 C 
ATOM     44  C   UNL A   1      39.986  25.501  27.770  1.00  0.00     0.029 A 
ATOM     45  C   UNL A   1      41.248  25.622  28.492  1.00  0.00     0.049 A 
ATOM     46  H   UNL A   1      41.858  27.178  29.735  1.00  0.00     0.167 HD
ATOM     47  C   UNL A   1      43.085  30.654  32.139  1.00  0.00     0.031 A 
ATOM     48  C   UNL A   1      42.251  24.725  28.470  1.00  0.00     0.031 A 
ATOM     49  C   UNL A   1      44.177  29.725  32.230  1.00  0.00     0.049 A 
ATOM     50  C   UNL A   1      43.489  25.000  29.276  1.00  0.00     0.074 A 
ATOM     51  C   UNL A   1      45.348  29.838  32.955  1.00  0.00     0.029 A 
ATOM     52  N   UNL A   1      44.219  28.501  31.582  1.00  0.00    -0.354 N 
ATOM     53  N   UNL A   1      43.777  26.041  30.021  1.00  0.00    -0.248 NA
ATOM     54  C   UNL A   1      44.536  23.968  29.252  1.00  0.00     0.031 C 
ATOM     55  C   UNL A   1      46.116  28.693  32.721  1.00  0.00     0.029 A 
ATOM     56  C   UNL A   1      45.400  27.850  31.886  1.00  0.00     0.049 A 
ATOM     57  H   UNL A   1      43.514  28.147  30.992  1.00  0.00     0.167 HD
ATOM     58  C   UNL A   1      45.022  25.777  30.574  1.00  0.00     0.074 A 
ATOM     59  C   UNL A   1      45.426  24.471  30.094  1.00  0.00     0.031 C 
ATOM     60  C   UNL A   1      45.769  26.546  31.403  1.00  0.00     0.031 A 
BRANCH  47  61
ATOM     61  C   UNL A   1      43.189  31.962  32.871  1.00  0.00    -0.014 A 
ATOM     62  C   UNL A   1      43.746  33.095  32.254  1.00  0.00     0.009 A 
ATOM     63  C   UNL A   1      42.696  32.076  34.179  1.00  0.00     0.009 A 
ATOM     64  C   UNL A   1      43.840  34.304  32.945  1.00  0.00     0.001 A 
ATOM     65  C   UNL A   1      42.763  33.295  34.858  1.00  0.00     0.001 A 
ATOM     66  C   UNL A   1      43.344  34.404  34.244  1.00  0.00     0.000 A 
ENDBRANCH  47  61
BRANCH  48  67
ATOM     67  C   UNL A   1      42.121  23.474  27.679  1.00  0.00    -0.014 A 
ATOM     68  C   UNL A   1      41.491  22.347  28.231  1.00  0.00     0.009 A 
ATOM     69  C   UNL A   1      42.638  23.392  26.377  1.00  0.00     0.009 A 
ATOM     70  C   UNL A   1      41.415  21.153  27.508  1.00  0.00     0.001 A 
ATOM     71  C   UNL A   1      42.535  22.206  25.647  1.00  0.00     0.001 A 
ATOM     72  C   UNL A   1      41.935  21.085  26.216  1.00  0.00     0.000 A 
ENDBRANCH  48  67
BRANCH  60  73
ATOM     73  C   UNL A   1      47.075  25.974  31.872  1.00  0.00    -0.014 A 
ATOM     74  C   UNL A   1      48.242  26.104  31.106  1.00  0.00     0.009 A 
ATOM     75  C   UNL A   1      47.142  25.336  33.121  1.00  0.00     0.009 A 
ATOM     76  C   UNL A   1      49.448  25.576  31.568  1.00  0.00     0.001 A 
ATOM     77  C   UNL A   1      48.355  24.834  33.592  1.00  0.00     0.001 A 
ATOM     78  C   UNL A   1      49.505  24.947  32.812  1.00  0.00     0.000 A 
ENDBRANCH  60  73
ENDBRANCH  34  35
ENDBRANCH  26  29
ENDBRANCH  24  25
ENDBRANCH   1  24
TORSDOF 12
ENDMDL
