MODEL 1
REMARK VINA RESULT:     -10.5      0.000      0.000
REMARK SMILES COc1ccc(Cl)c(C[C@H]([NH3+])C(=O)NCCCNC(=O)c2ccc(-c3c4nc(c(-c5ccccc5)c5ccc([nH]5)c(-c5ccccc5)c5nc(c(-c6ccccc6)c6ccc3[nH]6)C=C5)C=C4)cc2)c1F
REMARK SMILES IDX 15 1 14 2 12 3 13 4 10 6 9 7 8 8 3 9 4 10 69 11 5 12 70 13
REMARK SMILES IDX 6 14 7 15 2 16 1 17 11 18 16 22 17 23 18 24 19 25 20 27
REMARK SMILES IDX 21 28 22 29 68 30 23 31 67 32 24 33 25 34 26 35 61 36 27 37
REMARK SMILES IDX 66 38 60 39 62 40 28 41 65 42 59 43 58 44 29 46 51 47 36 48
REMARK SMILES IDX 50 49 37 50 40 51 49 52 63 53 38 54 39 55 48 57 64 58 41 59
REMARK SMILES IDX 30 60 31 61 35 62 32 63 34 64 33 65 52 66 53 67 57 68 54 69
REMARK SMILES IDX 56 70 55 71 42 72 43 73 47 74 44 75 46 76 45 77
REMARK H PARENT 14 5 11 19 11 20 11 21 18 26 62 45 40 56
REMARK Flexibility Score: inf
ROOT
ATOM      1  C   UNL A   1      31.733  30.455  25.480  1.00  0.00     0.118 C 
ENDROOT
BRANCH   1   2
ATOM      2  N   UNL A   1      31.444  29.112  25.946  1.00  0.00    -0.351 N 
ATOM      3  C   UNL A   1      31.487  27.918  25.290  1.00  0.00     0.278 C 
ATOM      4  O   UNL A   1      31.012  26.937  25.869  1.00  0.00    -0.268 OA
ATOM      5  H   UNL A   1      31.174  29.053  26.892  1.00  0.00     0.163 HD
BRANCH   3   6
ATOM      6  C   UNL A   1      32.065  27.810  23.864  1.00  0.00     0.275 C 
BRANCH   6   7
ATOM      7  C   UNL A   1      30.979  27.405  22.840  1.00  0.00     0.115 C 
BRANCH   7   8
ATOM      8  C   UNL A   1      29.783  28.327  22.796  1.00  0.00     0.017 A 
ATOM      9  C   UNL A   1      28.855  30.483  22.110  1.00  0.00     0.154 A 
ATOM     10  C   UNL A   1      27.628  30.134  22.666  1.00  0.00     0.051 A 
ATOM     11  C   UNL A   1      29.928  29.592  22.206  1.00  0.00     0.169 A 
ATOM     12  C   UNL A   1      27.455  28.877  23.244  1.00  0.00     0.025 A 
ATOM     13  F   UNL A   1      31.132  29.941  21.724  1.00  0.00    -0.203 F 
ATOM     14  C   UNL A   1      28.519  27.972  23.290  1.00  0.00     0.047 A 
ATOM     15  Cl  UNL A   1      28.187  26.403  23.926  1.00  0.00    -0.084 Cl
BRANCH   9  16
ATOM     16  O   UNL A   1      28.916  31.724  21.534  1.00  0.00    -0.494 OA
ATOM     17  C   UNL A   1      28.706  32.797  22.451  1.00  0.00     0.278 C 
ENDBRANCH   9  16
ENDBRANCH   7   8
ENDBRANCH   6   7
BRANCH   6  18
ATOM     18  N   UNL A   1      33.234  26.898  23.869  1.00  0.00    -0.347 N 
ATOM     19  H   UNL A   1      33.623  26.849  24.811  1.00  0.00     0.345 HD
ATOM     20  H   UNL A   1      33.943  27.252  23.226  1.00  0.00     0.345 HD
ATOM     21  H   UNL A   1      32.940  25.968  23.572  1.00  0.00     0.345 HD
ENDBRANCH   6  18
ENDBRANCH   3   6
ENDBRANCH   1   2
BRANCH   1  22
ATOM     22  C   UNL A   1      31.439  31.485  26.560  1.00  0.00     0.042 C 
BRANCH  22  23
ATOM     23  C   UNL A   1      32.693  32.150  27.113  1.00  0.00     0.118 C 
BRANCH  23  24
ATOM     24  N   UNL A   1      32.470  33.543  27.482  1.00  0.00    -0.352 N 
ATOM     25  C   UNL A   1      33.159  34.340  28.361  1.00  0.00     0.251 C 
ATOM     26  H   UNL A   1      31.709  33.977  27.033  1.00  0.00     0.163 HD
ATOM     27  O   UNL A   1      32.698  35.429  28.693  1.00  0.00    -0.269 OA
BRANCH  25  28
ATOM     28  C   UNL A   1      34.439  33.875  28.930  1.00  0.00     0.039 A 
ATOM     29  C   UNL A   1      34.428  33.159  30.128  1.00  0.00     0.014 A 
ATOM     30  C   UNL A   1      35.647  34.133  28.275  1.00  0.00     0.014 A 
ATOM     31  C   UNL A   1      35.618  32.626  30.623  1.00  0.00     0.010 A 
ATOM     32  C   UNL A   1      36.815  33.524  28.719  1.00  0.00     0.010 A 
ATOM     33  C   UNL A   1      36.812  32.760  29.896  1.00  0.00    -0.014 A 
BRANCH  33  34
ATOM     34  C   UNL A   1      38.062  32.091  30.333  1.00  0.00     0.031 A 
ATOM     35  C   UNL A   1      38.978  32.759  31.321  1.00  0.00     0.074 A 
ATOM     36  C   UNL A   1      38.410  30.911  29.781  1.00  0.00     0.049 A 
ATOM     37  N   UNL A   1      40.142  32.360  31.767  1.00  0.00    -0.248 NA
ATOM     38  C   UNL A   1      38.537  34.055  31.863  1.00  0.00     0.031 C 
ATOM     39  C   UNL A   1      37.629  30.177  28.783  1.00  0.00     0.029 A 
ATOM     40  N   UNL A   1      39.518  30.125  29.977  1.00  0.00    -0.354 N 
ATOM     41  C   UNL A   1      40.578  33.360  32.627  1.00  0.00     0.074 A 
ATOM     42  C   UNL A   1      39.580  34.407  32.600  1.00  0.00     0.031 C 
ATOM     43  C   UNL A   1      38.267  29.036  28.477  1.00  0.00     0.029 A 
ATOM     44  C   UNL A   1      39.523  28.981  29.216  1.00  0.00     0.049 A 
ATOM     45  H   UNL A   1      40.241  30.359  30.604  1.00  0.00     0.167 HD
ATOM     46  C   UNL A   1      41.700  33.396  33.384  1.00  0.00     0.031 A 
ATOM     47  C   UNL A   1      40.443  28.002  29.113  1.00  0.00     0.031 A 
ATOM     48  C   UNL A   1      42.693  32.355  33.408  1.00  0.00     0.049 A 
ATOM     49  C   UNL A   1      41.699  28.087  29.934  1.00  0.00     0.074 A 
ATOM     50  C   UNL A   1      43.837  32.275  34.184  1.00  0.00     0.029 A 
ATOM     51  N   UNL A   1      42.665  31.219  32.616  1.00  0.00    -0.354 N 
ATOM     52  N   UNL A   1      42.061  29.004  30.799  1.00  0.00    -0.248 NA
ATOM     53  C   UNL A   1      42.670  26.996  29.770  1.00  0.00     0.031 C 
ATOM     54  C   UNL A   1      44.535  31.121  33.814  1.00  0.00     0.029 A 
ATOM     55  C   UNL A   1      43.792  30.448  32.857  1.00  0.00     0.049 A 
ATOM     56  H   UNL A   1      41.952  30.992  31.977  1.00  0.00     0.167 HD
ATOM     57  C   UNL A   1      43.288  28.589  31.299  1.00  0.00     0.074 A 
ATOM     58  C   UNL A   1      43.597  27.327  30.657  1.00  0.00     0.031 C 
ATOM     59  C   UNL A   1      44.089  29.198  32.206  1.00  0.00     0.031 A 
BRANCH  46  60
ATOM     60  C   UNL A   1      41.919  34.613  34.241  1.00  0.00    -0.014 A 
ATOM     61  C   UNL A   1      41.426  34.678  35.556  1.00  0.00     0.009 A 
ATOM     62  C   UNL A   1      42.659  35.695  33.741  1.00  0.00     0.009 A 
ATOM     63  C   UNL A   1      41.638  35.817  36.336  1.00  0.00     0.001 A 
ATOM     64  C   UNL A   1      42.897  36.819  34.535  1.00  0.00     0.001 A 
ATOM     65  C   UNL A   1      42.378  36.883  35.827  1.00  0.00     0.000 A 
ENDBRANCH  46  60
BRANCH  47  66
ATOM     66  C   UNL A   1      40.213  26.856  28.194  1.00  0.00    -0.014 A 
ATOM     67  C   UNL A   1      39.510  25.723  28.631  1.00  0.00     0.009 A 
ATOM     68  C   UNL A   1      40.706  26.883  26.879  1.00  0.00     0.009 A 
ATOM     69  C   UNL A   1      39.332  24.629  27.780  1.00  0.00     0.001 A 
ATOM     70  C   UNL A   1      40.497  25.802  26.022  1.00  0.00     0.001 A 
ATOM     71  C   UNL A   1      39.821  24.671  26.475  1.00  0.00     0.000 A 
ENDBRANCH  47  66
BRANCH  59  72
ATOM     72  C   UNL A   1      45.364  28.495  32.580  1.00  0.00    -0.014 A 
ATOM     73  C   UNL A   1      45.390  27.517  33.587  1.00  0.00     0.009 A 
ATOM     74  C   UNL A   1      46.549  28.787  31.886  1.00  0.00     0.009 A 
ATOM     75  C   UNL A   1      46.585  26.872  33.915  1.00  0.00     0.001 A 
ATOM     76  C   UNL A   1      47.734  28.117  32.192  1.00  0.00     0.001 A 
ATOM     77  C   UNL A   1      47.753  27.167  33.213  1.00  0.00     0.000 A 
ENDBRANCH  59  72
ENDBRANCH  33  34
ENDBRANCH  25  28
ENDBRANCH  23  24
ENDBRANCH  22  23
ENDBRANCH   1  22
TORSDOF 14
ENDMDL
MODEL 2
REMARK VINA RESULT:     -10.4      0.618      6.156
REMARK SMILES COc1ccc(Cl)c(C[C@H]([NH3+])C(=O)NCCCNC(=O)c2ccc(-c3c4nc(c(-c5ccccc5)c5ccc([nH]5)c(-c5ccccc5)c5nc(c(-c6ccccc6)c6ccc3[nH]6)C=C5)C=C4)cc2)c1F
REMARK SMILES IDX 15 1 14 2 12 3 13 4 10 6 9 7 8 8 3 9 4 10 69 11 5 12 70 13
REMARK SMILES IDX 6 14 7 15 2 16 1 17 11 18 16 22 17 23 18 24 19 25 20 27
REMARK SMILES IDX 21 28 22 29 68 30 23 31 67 32 24 33 25 34 26 35 61 36 27 37
REMARK SMILES IDX 66 38 60 39 62 40 28 41 65 42 59 43 58 44 29 46 51 47 36 48
REMARK SMILES IDX 50 49 37 50 40 51 49 52 63 53 38 54 39 55 48 57 64 58 41 59
REMARK SMILES IDX 30 60 31 61 35 62 32 63 34 64 33 65 52 66 53 67 57 68 54 69
REMARK SMILES IDX 56 70 55 71 42 72 43 73 47 74 44 75 46 76 45 77
REMARK H PARENT 14 5 11 19 11 20 11 21 18 26 62 45 40 56
REMARK Flexibility Score: inf
ROOT
ATOM      1  C   UNL A   1      31.853  30.344  25.637  1.00  0.00     0.118 C 
ENDROOT
BRANCH   1   2
ATOM      2  N   UNL A   1      31.562  28.972  26.007  1.00  0.00    -0.351 N 
ATOM      3  C   UNL A   1      31.545  27.835  25.256  1.00  0.00     0.278 C 
ATOM      4  O   UNL A   1      31.082  26.818  25.778  1.00  0.00    -0.268 OA
ATOM      5  H   UNL A   1      31.341  28.840  26.958  1.00  0.00     0.163 HD
BRANCH   3   6
ATOM      6  C   UNL A   1      32.044  27.835  23.796  1.00  0.00     0.275 C 
BRANCH   6   7
ATOM      7  C   UNL A   1      30.930  27.401  22.815  1.00  0.00     0.115 C 
BRANCH   7   8
ATOM      8  C   UNL A   1      29.736  28.326  22.772  1.00  0.00     0.017 A 
ATOM      9  C   UNL A   1      28.812  30.483  22.085  1.00  0.00     0.154 A 
ATOM     10  C   UNL A   1      27.584  30.138  22.644  1.00  0.00     0.051 A 
ATOM     11  C   UNL A   1      29.883  29.590  22.181  1.00  0.00     0.169 A 
ATOM     12  C   UNL A   1      27.410  28.881  23.224  1.00  0.00     0.025 A 
ATOM     13  F   UNL A   1      31.086  29.935  21.696  1.00  0.00    -0.203 F 
ATOM     14  C   UNL A   1      28.472  27.974  23.269  1.00  0.00     0.047 A 
ATOM     15  Cl  UNL A   1      28.137  26.407  23.907  1.00  0.00    -0.084 Cl
BRANCH   9  16
ATOM     16  O   UNL A   1      28.874  31.723  21.508  1.00  0.00    -0.494 OA
ATOM     17  C   UNL A   1      28.700  32.798  22.430  1.00  0.00     0.278 C 
ENDBRANCH   9  16
ENDBRANCH   7   8
ENDBRANCH   6   7
BRANCH   6  18
ATOM     18  N   UNL A   1      33.271  27.011  23.690  1.00  0.00    -0.347 N 
ATOM     19  H   UNL A   1      33.013  26.036  23.531  1.00  0.00     0.345 HD
ATOM     20  H   UNL A   1      33.806  27.084  24.557  1.00  0.00     0.345 HD
ATOM     21  H   UNL A   1      33.839  27.344  22.912  1.00  0.00     0.345 HD
ENDBRANCH   6  18
ENDBRANCH   3   6
ENDBRANCH   1   2
BRANCH   1  22
ATOM     22  C   UNL A   1      31.620  31.289  26.805  1.00  0.00     0.042 C 
BRANCH  22  23
ATOM     23  C   UNL A   1      32.862  32.082  27.192  1.00  0.00     0.118 C 
BRANCH  23  24
ATOM     24  N   UNL A   1      32.558  33.469  27.522  1.00  0.00    -0.352 N 
ATOM     25  C   UNL A   1      33.174  34.317  28.408  1.00  0.00     0.251 C 
ATOM     26  H   UNL A   1      31.795  33.856  27.036  1.00  0.00     0.163 HD
ATOM     27  O   UNL A   1      32.650  35.389  28.699  1.00  0.00    -0.269 OA
BRANCH  25  28
ATOM     28  C   UNL A   1      34.453  33.927  29.034  1.00  0.00     0.039 A 
ATOM     29  C   UNL A   1      34.430  33.176  30.211  1.00  0.00     0.014 A 
ATOM     30  C   UNL A   1      35.672  34.289  28.454  1.00  0.00     0.014 A 
ATOM     31  C   UNL A   1      35.628  32.713  30.757  1.00  0.00     0.010 A 
ATOM     32  C   UNL A   1      36.856  33.751  28.945  1.00  0.00     0.010 A 
ATOM     33  C   UNL A   1      36.846  32.954  30.100  1.00  0.00    -0.014 A 
BRANCH  33  34
ATOM     34  C   UNL A   1      38.116  32.361  30.587  1.00  0.00     0.031 A 
ATOM     35  C   UNL A   1      38.629  31.074  30.003  1.00  0.00     0.074 A 
ATOM     36  C   UNL A   1      38.771  32.947  31.610  1.00  0.00     0.049 A 
ATOM     37  N   UNL A   1      39.679  30.373  30.346  1.00  0.00    -0.248 NA
ATOM     38  C   UNL A   1      37.846  30.486  28.903  1.00  0.00     0.031 C 
ATOM     39  C   UNL A   1      38.359  34.177  32.289  1.00  0.00     0.029 A 
ATOM     40  N   UNL A   1      39.922  32.578  32.262  1.00  0.00    -0.354 N 
ATOM     41  C   UNL A   1      39.675  29.258  29.518  1.00  0.00     0.074 A 
ATOM     42  C   UNL A   1      38.490  29.348  28.692  1.00  0.00     0.031 C 
ATOM     43  C   UNL A   1      39.257  34.476  33.241  1.00  0.00     0.029 A 
ATOM     44  C   UNL A   1      40.280  33.436  33.274  1.00  0.00     0.049 A 
ATOM     45  H   UNL A   1      40.441  31.775  32.026  1.00  0.00     0.167 HD
ATOM     46  C   UNL A   1      40.583  28.258  29.440  1.00  0.00     0.031 A 
ATOM     47  C   UNL A   1      41.307  33.384  34.142  1.00  0.00     0.031 A 
ATOM     48  C   UNL A   1      41.760  28.167  30.263  1.00  0.00     0.049 A 
ATOM     49  C   UNL A   1      42.279  32.240  34.061  1.00  0.00     0.074 A 
ATOM     50  C   UNL A   1      42.770  27.221  30.222  1.00  0.00     0.029 A 
ATOM     51  N   UNL A   1      42.080  29.050  31.282  1.00  0.00    -0.354 N 
ATOM     52  N   UNL A   1      42.302  31.233  33.222  1.00  0.00    -0.248 NA
ATOM     53  C   UNL A   1      43.373  32.232  35.042  1.00  0.00     0.031 C 
ATOM     54  C   UNL A   1      43.667  27.495  31.258  1.00  0.00     0.029 A 
ATOM     55  C   UNL A   1      43.254  28.650  31.902  1.00  0.00     0.049 A 
ATOM     56  H   UNL A   1      41.553  29.844  31.530  1.00  0.00     0.167 HD
ATOM     57  C   UNL A   1      43.423  30.485  33.558  1.00  0.00     0.074 A 
ATOM     58  C   UNL A   1      44.065  31.168  34.662  1.00  0.00     0.031 C 
ATOM     59  C   UNL A   1      43.878  29.335  33.004  1.00  0.00     0.031 A 
BRANCH  46  60
ATOM     60  C   UNL A   1      40.331  27.168  28.433  1.00  0.00    -0.014 A 
ATOM     61  C   UNL A   1      40.849  27.246  27.129  1.00  0.00     0.009 A 
ATOM     62  C   UNL A   1      39.595  26.032  28.804  1.00  0.00     0.009 A 
ATOM     63  C   UNL A   1      40.602  26.226  26.208  1.00  0.00     0.001 A 
ATOM     64  C   UNL A   1      39.378  24.999  27.890  1.00  0.00     0.001 A 
ATOM     65  C   UNL A   1      39.872  25.101  26.590  1.00  0.00     0.000 A 
ENDBRANCH  46  60
BRANCH  47  66
ATOM     66  C   UNL A   1      41.471  34.447  35.169  1.00  0.00    -0.014 A 
ATOM     67  C   UNL A   1      42.293  35.557  34.920  1.00  0.00     0.009 A 
ATOM     68  C   UNL A   1      40.818  34.352  36.408  1.00  0.00     0.009 A 
ATOM     69  C   UNL A   1      42.481  36.534  35.901  1.00  0.00     0.001 A 
ATOM     70  C   UNL A   1      40.981  35.347  37.373  1.00  0.00     0.001 A 
ATOM     71  C   UNL A   1      41.821  36.430  37.125  1.00  0.00     0.000 A 
ENDBRANCH  47  66
BRANCH  59  72
ATOM     72  C   UNL A   1      45.148  28.757  33.565  1.00  0.00    -0.014 A 
ATOM     73  C   UNL A   1      45.123  27.808  34.599  1.00  0.00     0.009 A 
ATOM     74  C   UNL A   1      46.385  29.138  33.022  1.00  0.00     0.009 A 
ATOM     75  C   UNL A   1      46.315  27.280  35.102  1.00  0.00     0.001 A 
ATOM     76  C   UNL A   1      47.571  28.584  33.503  1.00  0.00     0.001 A 
ATOM     77  C   UNL A   1      47.536  27.663  34.549  1.00  0.00     0.000 A 
ENDBRANCH  59  72
ENDBRANCH  33  34
ENDBRANCH  25  28
ENDBRANCH  23  24
ENDBRANCH  22  23
ENDBRANCH   1  22
TORSDOF 14
ENDMDL
MODEL 3
REMARK VINA RESULT:     -10.4      4.389      9.059
REMARK SMILES COc1ccc(Cl)c(C[C@H]([NH3+])C(=O)NCCCNC(=O)c2ccc(-c3c4nc(c(-c5ccccc5)c5ccc([nH]5)c(-c5ccccc5)c5nc(c(-c6ccccc6)c6ccc3[nH]6)C=C5)C=C4)cc2)c1F
REMARK SMILES IDX 15 1 14 2 12 3 13 4 10 6 9 7 8 8 3 9 4 10 69 11 5 12 70 13
REMARK SMILES IDX 6 14 7 15 2 16 1 17 11 18 16 22 17 23 18 24 19 25 20 27
REMARK SMILES IDX 21 28 22 29 68 30 23 31 67 32 24 33 25 34 26 35 61 36 27 37
REMARK SMILES IDX 66 38 60 39 62 40 28 41 65 42 59 43 58 44 29 46 51 47 36 48
REMARK SMILES IDX 50 49 37 50 40 51 49 52 63 53 38 54 39 55 48 57 64 58 41 59
REMARK SMILES IDX 30 60 31 61 35 62 32 63 34 64 33 65 52 66 53 67 57 68 54 69
REMARK SMILES IDX 56 70 55 71 42 72 43 73 47 74 44 75 46 76 45 77
REMARK H PARENT 14 5 11 19 11 20 11 21 18 26 62 45 40 56
REMARK Flexibility Score: inf
ROOT
ATOM      1  C   UNL A   1      36.361  21.558  25.009  1.00  0.00     0.118 C 
ENDROOT
BRANCH   1   2
ATOM      2  N   UNL A   1      35.731  21.645  26.313  1.00  0.00    -0.351 N 
ATOM      3  C   UNL A   1      34.443  21.413  26.691  1.00  0.00     0.278 C 
ATOM      4  O   UNL A   1      34.122  21.740  27.837  1.00  0.00    -0.268 OA
ATOM      5  H   UNL A   1      36.333  21.916  27.044  1.00  0.00     0.163 HD
BRANCH   3   6
ATOM      6  C   UNL A   1      33.419  20.805  25.711  1.00  0.00     0.275 C 
BRANCH   6   7
ATOM      7  C   UNL A   1      32.284  21.804  25.385  1.00  0.00     0.115 C 
BRANCH   7   8
ATOM      8  C   UNL A   1      32.649  22.859  24.366  1.00  0.00     0.017 A 
ATOM      9  C   UNL A   1      33.500  25.109  23.929  1.00  0.00     0.154 A 
ATOM     10  C   UNL A   1      33.351  24.903  22.560  1.00  0.00     0.051 A 
ATOM     11  C   UNL A   1      33.120  24.100  24.819  1.00  0.00     0.169 A 
ATOM     12  C   UNL A   1      32.898  23.671  22.086  1.00  0.00     0.025 A 
ATOM     13  F   UNL A   1      33.206  24.310  26.142  1.00  0.00    -0.203 F 
ATOM     14  C   UNL A   1      32.571  22.650  22.981  1.00  0.00     0.047 A 
ATOM     15  Cl  UNL A   1      32.123  21.127  22.303  1.00  0.00    -0.084 Cl
BRANCH   9  16
ATOM     16  O   UNL A   1      33.983  26.337  24.295  1.00  0.00    -0.494 OA
ATOM     17  C   UNL A   1      32.968  27.279  24.637  1.00  0.00     0.278 C 
ENDBRANCH   9  16
ENDBRANCH   7   8
ENDBRANCH   6   7
BRANCH   6  18
ATOM     18  N   UNL A   1      32.926  19.513  26.243  1.00  0.00    -0.347 N 
ATOM     19  H   UNL A   1      32.693  19.619  27.231  1.00  0.00     0.345 HD
ATOM     20  H   UNL A   1      33.653  18.804  26.139  1.00  0.00     0.345 HD
ATOM     21  H   UNL A   1      32.095  19.227  25.726  1.00  0.00     0.345 HD
ENDBRANCH   6  18
ENDBRANCH   3   6
ENDBRANCH   1   2
BRANCH   1  22
ATOM     22  C   UNL A   1      37.420  20.466  24.983  1.00  0.00     0.042 C 
BRANCH  22  23
ATOM     23  C   UNL A   1      38.700  20.853  25.711  1.00  0.00     0.118 C 
BRANCH  23  24
ATOM     24  N   UNL A   1      39.669  19.765  25.755  1.00  0.00    -0.352 N 
ATOM     25  C   UNL A   1      41.010  19.792  26.044  1.00  0.00     0.251 C 
ATOM     26  H   UNL A   1      39.305  18.874  25.545  1.00  0.00     0.163 HD
ATOM     27  O   UNL A   1      41.705  18.802  25.832  1.00  0.00    -0.269 OA
BRANCH  25  28
ATOM     28  C   UNL A   1      41.623  21.023  26.580  1.00  0.00     0.039 A 
ATOM     29  C   UNL A   1      42.157  21.958  25.691  1.00  0.00     0.014 A 
ATOM     30  C   UNL A   1      41.658  21.262  27.957  1.00  0.00     0.014 A 
ATOM     31  C   UNL A   1      42.646  23.171  26.178  1.00  0.00     0.010 A 
ATOM     32  C   UNL A   1      42.059  22.506  28.431  1.00  0.00     0.010 A 
ATOM     33  C   UNL A   1      42.554  23.475  27.545  1.00  0.00    -0.014 A 
BRANCH  33  34
ATOM     34  C   UNL A   1      42.944  24.808  28.068  1.00  0.00     0.031 A 
ATOM     35  C   UNL A   1      41.901  25.860  28.322  1.00  0.00     0.074 A 
ATOM     36  C   UNL A   1      44.250  25.095  28.244  1.00  0.00     0.049 A 
ATOM     37  N   UNL A   1      42.058  27.100  28.712  1.00  0.00    -0.248 NA
ATOM     38  C   UNL A   1      40.499  25.476  28.087  1.00  0.00     0.031 C 
ATOM     39  C   UNL A   1      45.362  24.175  27.997  1.00  0.00     0.029 A 
ATOM     40  N   UNL A   1      44.862  26.249  28.665  1.00  0.00    -0.354 N 
ATOM     41  C   UNL A   1      40.781  27.646  28.754  1.00  0.00     0.074 A 
ATOM     42  C   UNL A   1      39.867  26.621  28.300  1.00  0.00     0.031 C 
ATOM     43  C   UNL A   1      46.516  24.790  28.298  1.00  0.00     0.029 A 
ATOM     44  C   UNL A   1      46.232  26.160  28.710  1.00  0.00     0.049 A 
ATOM     45  H   UNL A   1      44.365  27.063  28.911  1.00  0.00     0.167 HD
ATOM     46  C   UNL A   1      40.402  28.883  29.150  1.00  0.00     0.031 A 
ATOM     47  C   UNL A   1      47.159  27.082  29.034  1.00  0.00     0.031 A 
ATOM     48  C   UNL A   1      41.312  29.904  29.599  1.00  0.00     0.049 A 
ATOM     49  C   UNL A   1      46.713  28.461  29.431  1.00  0.00     0.074 A 
ATOM     50  C   UNL A   1      41.020  31.171  30.074  1.00  0.00     0.029 A 
ATOM     51  N   UNL A   1      42.692  29.776  29.621  1.00  0.00    -0.354 N 
ATOM     52  N   UNL A   1      45.496  28.938  29.537  1.00  0.00    -0.248 NA
ATOM     53  C   UNL A   1      47.770  29.427  29.761  1.00  0.00     0.031 C 
ATOM     54  C   UNL A   1      42.225  31.833  30.321  1.00  0.00     0.029 A 
ATOM     55  C   UNL A   1      43.268  30.956  30.067  1.00  0.00     0.049 A 
ATOM     56  H   UNL A   1      43.190  28.969  29.360  1.00  0.00     0.167 HD
ATOM     57  C   UNL A   1      45.641  30.250  29.969  1.00  0.00     0.074 A 
ATOM     58  C   UNL A   1      47.061  30.486  30.126  1.00  0.00     0.031 C 
ATOM     59  C   UNL A   1      44.683  31.178  30.211  1.00  0.00     0.031 A 
BRANCH  46  60
ATOM     60  C   UNL A   1      38.933  29.207  29.102  1.00  0.00    -0.014 A 
ATOM     61  C   UNL A   1      38.111  29.036  30.229  1.00  0.00     0.009 A 
ATOM     62  C   UNL A   1      38.371  29.726  27.926  1.00  0.00     0.009 A 
ATOM     63  C   UNL A   1      36.750  29.341  30.165  1.00  0.00     0.001 A 
ATOM     64  C   UNL A   1      37.016  30.059  27.875  1.00  0.00     0.001 A 
ATOM     65  C   UNL A   1      36.205  29.857  28.991  1.00  0.00     0.000 A 
ENDBRANCH  46  60
BRANCH  47  66
ATOM     66  C   UNL A   1      48.604  26.734  28.993  1.00  0.00    -0.014 A 
ATOM     67  C   UNL A   1      49.350  26.927  27.820  1.00  0.00     0.009 A 
ATOM     68  C   UNL A   1      49.244  26.198  30.122  1.00  0.00     0.009 A 
ATOM     69  C   UNL A   1      50.697  26.561  27.769  1.00  0.00     0.001 A 
ATOM     70  C   UNL A   1      50.598  25.864  30.077  1.00  0.00     0.001 A 
ATOM     71  C   UNL A   1      51.321  26.034  28.899  1.00  0.00     0.000 A 
ENDBRANCH  47  66
BRANCH  59  72
ATOM     72  C   UNL A   1      45.139  32.526  30.699  1.00  0.00    -0.014 A 
ATOM     73  C   UNL A   1      45.318  32.784  32.067  1.00  0.00     0.009 A 
ATOM     74  C   UNL A   1      45.432  33.538  29.772  1.00  0.00     0.009 A 
ATOM     75  C   UNL A   1      45.747  34.042  32.498  1.00  0.00     0.001 A 
ATOM     76  C   UNL A   1      45.893  34.783  30.204  1.00  0.00     0.001 A 
ATOM     77  C   UNL A   1      46.040  35.036  31.567  1.00  0.00     0.000 A 
ENDBRANCH  59  72
ENDBRANCH  33  34
ENDBRANCH  25  28
ENDBRANCH  23  24
ENDBRANCH  22  23
ENDBRANCH   1  22
TORSDOF 14
ENDMDL
