MODEL 1
REMARK VINA RESULT:     -10.9      0.000      0.000
REMARK SMILES Cc1cnc(S[C@H]2CC[C@@]([NH2+]C(C)C)(C(=O)NCCCNC(=O)c3ccc(-c4c5nc(c(-c6ccccc6)c6ccc([nH]6)c(-c6ccccc6)c6nc(c(-c7ccccc7)c7ccc4[nH]7)C=C6)C=C5)cc3)C2)nc1
REMARK SMILES IDX 19 1 18 2 17 3 15 4 16 5 10 7 7 8 8 9 72 10 9 11 6 12 5 13
REMARK SMILES IDX 1 14 2 15 3 16 74 17 4 18 73 19 11 20 12 23 13 24 14 25
REMARK SMILES IDX 20 26 21 27 22 28 23 30 24 31 25 32 71 33 26 34 70 35 27 36
REMARK SMILES IDX 28 37 29 38 64 39 30 40 69 41 63 42 65 43 31 44 68 45 62 46
REMARK SMILES IDX 61 47 32 49 54 50 39 51 53 52 40 53 43 54 52 55 66 56 41 57
REMARK SMILES IDX 42 58 51 60 67 61 44 62 33 63 34 64 38 65 35 66 37 67 36 68
REMARK SMILES IDX 55 69 56 70 60 71 57 72 59 73 58 74 45 75 46 76 50 77 47 78
REMARK SMILES IDX 49 79 48 80
REMARK H PARENT 17 6 11 21 11 22 21 29 65 48 43 59
REMARK Flexibility Score: inf
ROOT
ATOM      1  C   UNL A   1      37.527  20.059  25.012  1.00  0.00     0.042 C 
ENDROOT
BRANCH   1   2
ATOM      2  C   UNL A   1      36.500  21.154  24.748  1.00  0.00     0.118 C 
BRANCH   2   3
ATOM      3  N   UNL A   1      35.887  21.647  25.968  1.00  0.00    -0.351 N 
ATOM      4  C   UNL A   1      34.607  21.499  26.428  1.00  0.00     0.281 C 
ATOM      5  O   UNL A   1      34.419  21.771  27.617  1.00  0.00    -0.268 OA
ATOM      6  H   UNL A   1      36.483  22.167  26.555  1.00  0.00     0.163 HD
BRANCH   4   7
ATOM      7  C   UNL A   1      33.483  20.893  25.515  1.00  0.00     0.176 C 
ATOM      8  C   UNL A   1      31.877  22.693  24.953  1.00  0.00     0.062 C 
ATOM      9  C   UNL A   1      32.503  22.225  23.647  1.00  0.00     0.022 C 
ATOM     10  C   UNL A   1      32.071  21.451  25.839  1.00  0.00     0.094 C 
ATOM     11  C   UNL A   1      33.688  21.341  24.039  1.00  0.00     0.080 C 
BRANCH   8  12
ATOM     12  S   UNL A   1      32.718  24.111  25.740  1.00  0.00    -0.083 SA
BRANCH  12  13
ATOM     13  C   UNL A   1      32.018  25.534  24.971  1.00  0.00     0.187 A 
ATOM     14  C   UNL A   1      30.002  28.905  23.498  1.00  0.00     0.048 C 
ATOM     15  C   UNL A   1      30.724  27.703  23.993  1.00  0.00    -0.014 A 
ATOM     16  C   UNL A   1      32.061  27.722  24.338  1.00  0.00     0.119 A 
ATOM     17  C   UNL A   1      30.101  26.489  24.164  1.00  0.00     0.119 A 
ATOM     18  N   UNL A   1      32.734  26.658  24.826  1.00  0.00    -0.231 NA
ATOM     19  N   UNL A   1      30.720  25.403  24.649  1.00  0.00    -0.231 NA
ENDBRANCH  12  13
ENDBRANCH   8  12
BRANCH   7  20
ATOM     20  N   UNL A   1      33.535  19.407  25.630  1.00  0.00    -0.332 N 
ATOM     21  H   UNL A   1      32.677  19.101  26.088  1.00  0.00     0.347 HD
ATOM     22  H   UNL A   1      34.387  19.205  26.152  1.00  0.00     0.347 HD
BRANCH  20  23
ATOM     23  C   UNL A   1      33.662  18.658  24.366  1.00  0.00     0.176 C 
ATOM     24  C   UNL A   1      34.766  17.603  24.385  1.00  0.00     0.075 C 
ATOM     25  C   UNL A   1      32.314  17.982  24.092  1.00  0.00     0.075 C 
ENDBRANCH  20  23
ENDBRANCH   7  20
ENDBRANCH   4   7
ENDBRANCH   2   3
ENDBRANCH   1   2
BRANCH   1  26
ATOM     26  C   UNL A   1      38.776  20.535  25.742  1.00  0.00     0.118 C 
BRANCH  26  27
ATOM     27  N   UNL A   1      39.823  19.524  25.788  1.00  0.00    -0.352 N 
ATOM     28  C   UNL A   1      41.155  19.646  26.094  1.00  0.00     0.251 C 
ATOM     29  H   UNL A   1      39.529  18.611  25.565  1.00  0.00     0.163 HD
ATOM     30  O   UNL A   1      41.915  18.700  25.902  1.00  0.00    -0.269 OA
BRANCH  28  31
ATOM     31  C   UNL A   1      41.688  20.919  26.626  1.00  0.00     0.039 A 
ATOM     32  C   UNL A   1      42.232  21.847  25.733  1.00  0.00     0.014 A 
ATOM     33  C   UNL A   1      41.669  21.196  27.994  1.00  0.00     0.014 A 
ATOM     34  C   UNL A   1      42.688  23.079  26.205  1.00  0.00     0.010 A 
ATOM     35  C   UNL A   1      42.042  22.457  28.452  1.00  0.00     0.010 A 
ATOM     36  C   UNL A   1      42.558  23.412  27.563  1.00  0.00    -0.014 A 
BRANCH  36  37
ATOM     37  C   UNL A   1      42.952  24.751  28.071  1.00  0.00     0.031 A 
ATOM     38  C   UNL A   1      41.909  25.806  28.322  1.00  0.00     0.074 A 
ATOM     39  C   UNL A   1      44.257  25.039  28.248  1.00  0.00     0.049 A 
ATOM     40  N   UNL A   1      42.067  27.047  28.712  1.00  0.00    -0.248 NA
ATOM     41  C   UNL A   1      40.508  25.426  28.084  1.00  0.00     0.031 C 
ATOM     42  C   UNL A   1      45.370  24.118  28.006  1.00  0.00     0.029 A 
ATOM     43  N   UNL A   1      44.868  26.194  28.669  1.00  0.00    -0.354 N 
ATOM     44  C   UNL A   1      40.792  27.596  28.748  1.00  0.00     0.074 A 
ATOM     45  C   UNL A   1      39.878  26.573  28.291  1.00  0.00     0.031 C 
ATOM     46  C   UNL A   1      46.524  24.733  28.313  1.00  0.00     0.029 A 
ATOM     47  C   UNL A   1      46.238  26.104  28.725  1.00  0.00     0.049 A 
ATOM     48  H   UNL A   1      44.372  27.009  28.910  1.00  0.00     0.167 HD
ATOM     49  C   UNL A   1      40.411  28.833  29.145  1.00  0.00     0.031 A 
ATOM     50  C   UNL A   1      47.164  27.023  29.059  1.00  0.00     0.031 A 
ATOM     51  C   UNL A   1      41.319  29.851  29.602  1.00  0.00     0.049 A 
ATOM     52  C   UNL A   1      46.718  28.400  29.465  1.00  0.00     0.074 A 
ATOM     53  C   UNL A   1      41.026  31.119  30.074  1.00  0.00     0.029 A 
ATOM     54  N   UNL A   1      42.699  29.721  29.638  1.00  0.00    -0.354 N 
ATOM     55  N   UNL A   1      45.502  28.881  29.559  1.00  0.00    -0.248 NA
ATOM     56  C   UNL A   1      47.774  29.359  29.819  1.00  0.00     0.031 C 
ATOM     57  C   UNL A   1      42.231  31.777  30.336  1.00  0.00     0.029 A 
ATOM     58  C   UNL A   1      43.272  30.896  30.095  1.00  0.00     0.049 A 
ATOM     59  H   UNL A   1      43.197  28.913  29.378  1.00  0.00     0.167 HD
ATOM     60  C   UNL A   1      45.645  30.186  30.015  1.00  0.00     0.074 A 
ATOM     61  C   UNL A   1      47.064  30.415  30.192  1.00  0.00     0.031 C 
ATOM     62  C   UNL A   1      44.687  31.111  30.265  1.00  0.00     0.031 A 
BRANCH  49  63
ATOM     63  C   UNL A   1      38.943  29.160  29.089  1.00  0.00    -0.014 A 
ATOM     64  C   UNL A   1      38.113  28.984  30.209  1.00  0.00     0.009 A 
ATOM     65  C   UNL A   1      38.389  29.685  27.911  1.00  0.00     0.009 A 
ATOM     66  C   UNL A   1      36.752  29.290  30.136  1.00  0.00     0.001 A 
ATOM     67  C   UNL A   1      37.035  30.021  27.852  1.00  0.00     0.001 A 
ATOM     68  C   UNL A   1      36.216  29.813  28.961  1.00  0.00     0.000 A 
ENDBRANCH  49  63
BRANCH  50  69
ATOM     69  C   UNL A   1      48.608  26.671  29.032  1.00  0.00    -0.014 A 
ATOM     70  C   UNL A   1      49.235  26.139  30.170  1.00  0.00     0.009 A 
ATOM     71  C   UNL A   1      49.374  26.877  27.873  1.00  0.00     0.009 A 
ATOM     72  C   UNL A   1      50.601  25.851  30.158  1.00  0.00     0.001 A 
ATOM     73  C   UNL A   1      50.732  26.557  27.853  1.00  0.00     0.001 A 
ATOM     74  C   UNL A   1      51.348  26.055  28.998  1.00  0.00     0.000 A 
ENDBRANCH  50  69
BRANCH  62  75
ATOM     75  C   UNL A   1      45.137  32.444  30.797  1.00  0.00    -0.014 A 
ATOM     76  C   UNL A   1      45.342  32.655  32.169  1.00  0.00     0.009 A 
ATOM     77  C   UNL A   1      45.399  33.493  29.901  1.00  0.00     0.009 A 
ATOM     78  C   UNL A   1      45.765  33.902  32.636  1.00  0.00     0.001 A 
ATOM     79  C   UNL A   1      45.855  34.727  30.367  1.00  0.00     0.001 A 
ATOM     80  C   UNL A   1      46.027  34.934  31.735  1.00  0.00     0.000 A 
ENDBRANCH  62  75
ENDBRANCH  36  37
ENDBRANCH  28  31
ENDBRANCH  26  27
ENDBRANCH   1  26
TORSDOF 14
ENDMDL
MODEL 2
REMARK VINA RESULT:     -10.9      0.540      5.958
REMARK SMILES Cc1cnc(S[C@H]2CC[C@@]([NH2+]C(C)C)(C(=O)NCCCNC(=O)c3ccc(-c4c5nc(c(-c6ccccc6)c6ccc([nH]6)c(-c6ccccc6)c6nc(c(-c7ccccc7)c7ccc4[nH]7)C=C6)C=C5)cc3)C2)nc1
REMARK SMILES IDX 19 1 18 2 17 3 15 4 16 5 10 7 7 8 8 9 72 10 9 11 6 12 5 13
REMARK SMILES IDX 1 14 2 15 3 16 74 17 4 18 73 19 11 20 12 23 13 24 14 25
REMARK SMILES IDX 20 26 21 27 22 28 23 30 24 31 25 32 71 33 26 34 70 35 27 36
REMARK SMILES IDX 28 37 29 38 64 39 30 40 69 41 63 42 65 43 31 44 68 45 62 46
REMARK SMILES IDX 61 47 32 49 54 50 39 51 53 52 40 53 43 54 52 55 66 56 41 57
REMARK SMILES IDX 42 58 51 60 67 61 44 62 33 63 34 64 38 65 35 66 37 67 36 68
REMARK SMILES IDX 55 69 56 70 60 71 57 72 59 73 58 74 45 75 46 76 50 77 47 78
REMARK SMILES IDX 49 79 48 80
REMARK H PARENT 17 6 11 21 11 22 21 29 65 48 43 59
REMARK Flexibility Score: inf
ROOT
ATOM      1  C   UNL A   1      37.712  19.825  25.033  1.00  0.00     0.042 C 
ENDROOT
BRANCH   1   2
ATOM      2  C   UNL A   1      36.628  20.863  24.764  1.00  0.00     0.118 C 
BRANCH   2   3
ATOM      3  N   UNL A   1      36.079  21.423  25.986  1.00  0.00    -0.351 N 
ATOM      4  C   UNL A   1      34.789  21.439  26.442  1.00  0.00     0.281 C 
ATOM      5  O   UNL A   1      34.633  21.725  27.632  1.00  0.00    -0.268 OA
ATOM      6  H   UNL A   1      36.735  21.857  26.578  1.00  0.00     0.163 HD
BRANCH   4   7
ATOM      7  C   UNL A   1      33.600  20.990  25.521  1.00  0.00     0.176 C 
ATOM      8  C   UNL A   1      32.186  22.969  25.049  1.00  0.00     0.062 C 
ATOM      9  C   UNL A   1      32.748  22.489  23.718  1.00  0.00     0.022 C 
ATOM     10  C   UNL A   1      32.256  21.680  25.884  1.00  0.00     0.094 C 
ATOM     11  C   UNL A   1      33.837  21.471  24.061  1.00  0.00     0.080 C 
BRANCH   8  12
ATOM     12  S   UNL A   1      33.179  24.260  25.877  1.00  0.00    -0.083 SA
BRANCH  12  13
ATOM     13  C   UNL A   1      32.549  25.782  25.254  1.00  0.00     0.187 A 
ATOM     14  C   UNL A   1      30.749  29.413  24.168  1.00  0.00     0.048 C 
ATOM     15  C   UNL A   1      31.390  28.119  24.525  1.00  0.00    -0.014 A 
ATOM     16  C   UNL A   1      32.754  27.980  24.692  1.00  0.00     0.119 A 
ATOM     17  C   UNL A   1      30.663  26.972  24.736  1.00  0.00     0.119 A 
ATOM     18  N   UNL A   1      33.361  26.830  25.052  1.00  0.00    -0.231 NA
ATOM     19  N   UNL A   1      31.214  25.805  25.100  1.00  0.00    -0.231 NA
ENDBRANCH  12  13
ENDBRANCH   8  12
BRANCH   7  20
ATOM     20  N   UNL A   1      33.496  19.503  25.580  1.00  0.00    -0.332 N 
ATOM     21  H   UNL A   1      32.581  19.270  25.965  1.00  0.00     0.347 HD
ATOM     22  H   UNL A   1      34.284  19.198  26.149  1.00  0.00     0.347 HD
BRANCH  20  23
ATOM     23  C   UNL A   1      33.637  18.788  24.298  1.00  0.00     0.176 C 
ATOM     24  C   UNL A   1      34.713  17.703  24.315  1.00  0.00     0.075 C 
ATOM     25  C   UNL A   1      32.280  18.158  23.967  1.00  0.00     0.075 C 
ENDBRANCH  20  23
ENDBRANCH   7  20
ENDBRANCH   4   7
ENDBRANCH   2   3
ENDBRANCH   1   2
BRANCH   1  26
ATOM     26  C   UNL A   1      38.906  20.357  25.814  1.00  0.00     0.118 C 
BRANCH  26  27
ATOM     27  N   UNL A   1      40.037  19.440  25.807  1.00  0.00    -0.352 N 
ATOM     28  C   UNL A   1      41.363  19.672  26.072  1.00  0.00     0.251 C 
ATOM     29  H   UNL A   1      39.816  18.507  25.579  1.00  0.00     0.163 HD
ATOM     30  O   UNL A   1      42.195  18.798  25.839  1.00  0.00    -0.269 OA
BRANCH  28  31
ATOM     31  C   UNL A   1      41.803  20.978  26.608  1.00  0.00     0.039 A 
ATOM     32  C   UNL A   1      42.256  21.955  25.717  1.00  0.00     0.014 A 
ATOM     33  C   UNL A   1      41.786  21.240  27.980  1.00  0.00     0.014 A 
ATOM     34  C   UNL A   1      42.620  23.215  26.194  1.00  0.00     0.010 A 
ATOM     35  C   UNL A   1      42.064  22.522  28.445  1.00  0.00     0.010 A 
ATOM     36  C   UNL A   1      42.489  23.523  27.557  1.00  0.00    -0.014 A 
BRANCH  36  37
ATOM     37  C   UNL A   1      42.783  24.885  28.073  1.00  0.00     0.031 A 
ATOM     38  C   UNL A   1      44.184  25.261  28.474  1.00  0.00     0.074 A 
ATOM     39  C   UNL A   1      41.777  25.767  28.236  1.00  0.00     0.049 A 
ATOM     40  N   UNL A   1      44.622  26.380  28.994  1.00  0.00    -0.248 NA
ATOM     41  C   UNL A   1      45.225  24.238  28.289  1.00  0.00     0.031 C 
ATOM     42  C   UNL A   1      40.369  25.517  27.920  1.00  0.00     0.029 A 
ATOM     43  N   UNL A   1      41.785  27.054  28.716  1.00  0.00    -0.354 N 
ATOM     44  C   UNL A   1      45.980  26.189  29.212  1.00  0.00     0.074 A 
ATOM     45  C   UNL A   1      46.284  24.831  28.819  1.00  0.00     0.031 C 
ATOM     46  C   UNL A   1      39.656  26.624  28.184  1.00  0.00     0.029 A 
ATOM     47  C   UNL A   1      40.545  27.643  28.734  1.00  0.00     0.049 A 
ATOM     48  H   UNL A   1      42.603  27.511  29.019  1.00  0.00     0.167 HD
ATOM     49  C   UNL A   1      46.898  27.069  29.678  1.00  0.00     0.031 A 
ATOM     50  C   UNL A   1      40.161  28.864  29.155  1.00  0.00     0.031 A 
ATOM     51  C   UNL A   1      46.597  28.421  30.068  1.00  0.00     0.049 A 
ATOM     52  C   UNL A   1      41.193  29.811  29.699  1.00  0.00     0.074 A 
ATOM     53  C   UNL A   1      47.465  29.406  30.505  1.00  0.00     0.029 A 
ATOM     54  N   UNL A   1      45.326  28.977  30.075  1.00  0.00    -0.354 N 
ATOM     55  N   UNL A   1      42.485  29.638  29.833  1.00  0.00    -0.248 NA
ATOM     56  C   UNL A   1      40.712  31.128  30.141  1.00  0.00     0.031 C 
ATOM     57  C   UNL A   1      46.713  30.537  30.835  1.00  0.00     0.029 A 
ATOM     58  C   UNL A   1      45.385  30.281  30.538  1.00  0.00     0.049 A 
ATOM     59  H   UNL A   1      44.505  28.513  29.793  1.00  0.00     0.167 HD
ATOM     60  C   UNL A   1      42.977  30.833  30.344  1.00  0.00     0.074 A 
ATOM     61  C   UNL A   1      41.846  31.727  30.480  1.00  0.00     0.031 C 
ATOM     62  C   UNL A   1      44.251  31.160  30.669  1.00  0.00     0.031 A 
BRANCH  49  63
ATOM     63  C   UNL A   1      48.318  26.589  29.806  1.00  0.00    -0.014 A 
ATOM     64  C   UNL A   1      49.250  26.788  28.774  1.00  0.00     0.009 A 
ATOM     65  C   UNL A   1      48.741  25.963  30.989  1.00  0.00     0.009 A 
ATOM     66  C   UNL A   1      50.564  26.333  28.909  1.00  0.00     0.001 A 
ATOM     67  C   UNL A   1      50.063  25.539  31.135  1.00  0.00     0.001 A 
ATOM     68  C   UNL A   1      50.971  25.715  30.090  1.00  0.00     0.000 A 
ENDBRANCH  49  63
BRANCH  50  69
ATOM     69  C   UNL A   1      38.731  29.266  29.071  1.00  0.00    -0.014 A 
ATOM     70  C   UNL A   1      37.884  29.126  30.182  1.00  0.00     0.009 A 
ATOM     71  C   UNL A   1      38.202  29.781  27.877  1.00  0.00     0.009 A 
ATOM     72  C   UNL A   1      36.532  29.462  30.088  1.00  0.00     0.001 A 
ATOM     73  C   UNL A   1      36.858  30.149  27.797  1.00  0.00     0.001 A 
ATOM     74  C   UNL A   1      36.020  29.979  28.898  1.00  0.00     0.000 A 
ENDBRANCH  50  69
BRANCH  62  75
ATOM     75  C   UNL A   1      44.499  32.558  31.167  1.00  0.00    -0.014 A 
ATOM     76  C   UNL A   1      44.466  32.866  32.536  1.00  0.00     0.009 A 
ATOM     77  C   UNL A   1      44.812  33.573  30.249  1.00  0.00     0.009 A 
ATOM     78  C   UNL A   1      44.705  34.171  32.971  1.00  0.00     0.001 A 
ATOM     79  C   UNL A   1      45.084  34.869  30.690  1.00  0.00     0.001 A 
ATOM     80  C   UNL A   1      45.020  35.170  32.049  1.00  0.00     0.000 A 
ENDBRANCH  62  75
ENDBRANCH  36  37
ENDBRANCH  28  31
ENDBRANCH  26  27
ENDBRANCH   1  26
TORSDOF 14
ENDMDL
MODEL 3
REMARK VINA RESULT:     -10.9      3.588      9.164
REMARK SMILES Cc1cnc(S[C@H]2CC[C@@]([NH2+]C(C)C)(C(=O)NCCCNC(=O)c3ccc(-c4c5nc(c(-c6ccccc6)c6ccc([nH]6)c(-c6ccccc6)c6nc(c(-c7ccccc7)c7ccc4[nH]7)C=C6)C=C5)cc3)C2)nc1
REMARK SMILES IDX 19 1 18 2 17 3 15 4 16 5 10 7 7 8 8 9 72 10 9 11 6 12 5 13
REMARK SMILES IDX 1 14 2 15 3 16 74 17 4 18 73 19 11 20 12 23 13 24 14 25
REMARK SMILES IDX 20 26 21 27 22 28 23 30 24 31 25 32 71 33 26 34 70 35 27 36
REMARK SMILES IDX 28 37 29 38 64 39 30 40 69 41 63 42 65 43 31 44 68 45 62 46
REMARK SMILES IDX 61 47 32 49 54 50 39 51 53 52 40 53 43 54 52 55 66 56 41 57
REMARK SMILES IDX 42 58 51 60 67 61 44 62 33 63 34 64 38 65 35 66 37 67 36 68
REMARK SMILES IDX 55 69 56 70 60 71 57 72 59 73 58 74 45 75 46 76 50 77 47 78
REMARK SMILES IDX 49 79 48 80
REMARK H PARENT 17 6 11 21 11 22 21 29 65 48 43 59
REMARK Flexibility Score: inf
ROOT
ATOM      1  C   UNL A   1      31.410  31.613  26.201  1.00  0.00     0.042 C 
ENDROOT
BRANCH   1   2
ATOM      2  C   UNL A   1      31.461  30.107  25.968  1.00  0.00     0.118 C 
BRANCH   2   3
ATOM      3  N   UNL A   1      32.530  29.720  25.065  1.00  0.00    -0.351 N 
ATOM      4  C   UNL A   1      32.466  29.200  23.801  1.00  0.00     0.281 C 
ATOM      5  O   UNL A   1      33.512  29.223  23.147  1.00  0.00    -0.268 OA
ATOM      6  H   UNL A   1      33.441  29.854  25.415  1.00  0.00     0.163 HD
BRANCH   4   7
ATOM      7  C   UNL A   1      31.101  28.723  23.191  1.00  0.00     0.176 C 
ATOM      8  C   UNL A   1      31.189  26.264  22.903  1.00  0.00     0.062 C 
ATOM      9  C   UNL A   1      30.075  26.561  23.896  1.00  0.00     0.022 C 
ATOM     10  C   UNL A   1      31.268  27.595  22.137  1.00  0.00     0.094 C 
ATOM     11  C   UNL A   1      30.234  28.033  24.283  1.00  0.00     0.080 C 
BRANCH   8  12
ATOM     12  S   UNL A   1      32.818  25.925  23.659  1.00  0.00    -0.083 SA
BRANCH  12  13
ATOM     13  C   UNL A   1      32.825  24.188  23.953  1.00  0.00     0.187 A 
ATOM     14  C   UNL A   1      32.966  20.001  24.173  1.00  0.00     0.048 C 
ATOM     15  C   UNL A   1      32.895  21.485  24.115  1.00  0.00    -0.014 A 
ATOM     16  C   UNL A   1      33.647  22.304  24.934  1.00  0.00     0.119 A 
ATOM     17  C   UNL A   1      32.088  22.149  23.221  1.00  0.00     0.119 A 
ATOM     18  N   UNL A   1      33.633  23.652  24.879  1.00  0.00    -0.231 NA
ATOM     19  N   UNL A   1      32.038  23.485  23.121  1.00  0.00    -0.231 NA
ENDBRANCH  12  13
ENDBRANCH   8  12
BRANCH   7  20
ATOM     20  N   UNL A   1      30.398  29.912  22.627  1.00  0.00    -0.332 N 
ATOM     21  H   UNL A   1      30.362  29.801  21.615  1.00  0.00     0.347 HD
ATOM     22  H   UNL A   1      30.933  30.719  22.945  1.00  0.00     0.347 HD
BRANCH  20  23
ATOM     23  C   UNL A   1      29.021  30.142  23.103  1.00  0.00     0.176 C 
ATOM     24  C   UNL A   1      28.773  31.563  23.606  1.00  0.00     0.075 C 
ATOM     25  C   UNL A   1      28.073  29.840  21.937  1.00  0.00     0.075 C 
ENDBRANCH  20  23
ENDBRANCH   7  20
ENDBRANCH   4   7
ENDBRANCH   2   3
ENDBRANCH   1   2
BRANCH   1  26
ATOM     26  C   UNL A   1      32.622  32.173  26.933  1.00  0.00     0.118 C 
BRANCH  26  27
ATOM     27  N   UNL A   1      32.393  33.511  27.461  1.00  0.00    -0.352 N 
ATOM     28  C   UNL A   1      33.110  34.231  28.383  1.00  0.00     0.251 C 
ATOM     29  H   UNL A   1      31.600  33.971  27.100  1.00  0.00     0.163 HD
ATOM     30  O   UNL A   1      32.652  35.279  28.832  1.00  0.00    -0.269 OA
BRANCH  28  31
ATOM     31  C   UNL A   1      34.420  33.739  28.864  1.00  0.00     0.039 A 
ATOM     32  C   UNL A   1      34.474  33.041  30.074  1.00  0.00     0.014 A 
ATOM     33  C   UNL A   1      35.591  33.973  28.140  1.00  0.00     0.014 A 
ATOM     34  C   UNL A   1      35.689  32.518  30.519  1.00  0.00     0.010 A 
ATOM     35  C   UNL A   1      36.783  33.375  28.538  1.00  0.00     0.010 A 
ATOM     36  C   UNL A   1      36.847  32.644  29.734  1.00  0.00    -0.014 A 
BRANCH  36  37
ATOM     37  C   UNL A   1      38.129  32.015  30.144  1.00  0.00     0.031 A 
ATOM     38  C   UNL A   1      39.060  32.729  31.085  1.00  0.00     0.074 A 
ATOM     39  C   UNL A   1      38.484  30.825  29.620  1.00  0.00     0.049 A 
ATOM     40  N   UNL A   1      40.244  32.364  31.511  1.00  0.00    -0.248 NA
ATOM     41  C   UNL A   1      38.616  34.035  31.596  1.00  0.00     0.031 C 
ATOM     42  C   UNL A   1      37.689  30.044  28.670  1.00  0.00     0.029 A 
ATOM     43  N   UNL A   1      39.611  30.065  29.811  1.00  0.00    -0.354 N 
ATOM     44  C   UNL A   1      40.688  33.398  32.324  1.00  0.00     0.074 A 
ATOM     45  C   UNL A   1      39.674  34.429  32.289  1.00  0.00     0.031 C 
ATOM     46  C   UNL A   1      38.337  28.904  28.386  1.00  0.00     0.029 A 
ATOM     47  C   UNL A   1      39.615  28.894  29.093  1.00  0.00     0.049 A 
ATOM     48  H   UNL A   1      40.348  30.333  30.406  1.00  0.00     0.167 HD
ATOM     49  C   UNL A   1      41.828  33.478  33.050  1.00  0.00     0.031 A 
ATOM     50  C   UNL A   1      40.544  27.923  29.003  1.00  0.00     0.031 A 
ATOM     51  C   UNL A   1      42.838  32.453  33.087  1.00  0.00     0.049 A 
ATOM     52  C   UNL A   1      41.816  28.050  29.794  1.00  0.00     0.074 A 
ATOM     53  C   UNL A   1      44.004  32.418  33.831  1.00  0.00     0.029 A 
ATOM     54  N   UNL A   1      42.804  31.284  32.340  1.00  0.00    -0.354 N 
ATOM     55  N   UNL A   1      42.190  29.004  30.612  1.00  0.00    -0.248 NA
ATOM     56  C   UNL A   1      42.792  26.959  29.656  1.00  0.00     0.031 C 
ATOM     57  C   UNL A   1      44.706  31.258  33.489  1.00  0.00     0.029 A 
ATOM     58  C   UNL A   1      43.944  30.536  32.584  1.00  0.00     0.049 A 
ATOM     59  H   UNL A   1      42.078  31.025  31.729  1.00  0.00     0.167 HD
ATOM     60  C   UNL A   1      43.427  28.613  31.110  1.00  0.00     0.074 A 
ATOM     61  C   UNL A   1      43.731  27.329  30.515  1.00  0.00     0.031 C 
ATOM     62  C   UNL A   1      44.236  29.260  31.984  1.00  0.00     0.031 A 
BRANCH  49  63
ATOM     63  C   UNL A   1      42.052  34.728  33.858  1.00  0.00    -0.014 A 
ATOM     64  C   UNL A   1      41.618  34.823  35.190  1.00  0.00     0.009 A 
ATOM     65  C   UNL A   1      42.739  35.813  33.291  1.00  0.00     0.009 A 
ATOM     66  C   UNL A   1      41.831  35.993  35.924  1.00  0.00     0.001 A 
ATOM     67  C   UNL A   1      42.980  36.968  34.036  1.00  0.00     0.001 A 
ATOM     68  C   UNL A   1      42.517  37.061  35.348  1.00  0.00     0.000 A 
ENDBRANCH  49  63
BRANCH  50  69
ATOM     69  C   UNL A   1      40.306  26.739  28.136  1.00  0.00    -0.014 A 
ATOM     70  C   UNL A   1      39.604  25.625  28.625  1.00  0.00     0.009 A 
ATOM     71  C   UNL A   1      40.788  26.708  26.818  1.00  0.00     0.009 A 
ATOM     72  C   UNL A   1      39.420  24.496  27.825  1.00  0.00     0.001 A 
ATOM     73  C   UNL A   1      40.573  25.591  26.009  1.00  0.00     0.001 A 
ATOM     74  C   UNL A   1      39.899  24.481  26.516  1.00  0.00     0.000 A 
ENDBRANCH  50  69
BRANCH  62  75
ATOM     75  C   UNL A   1      45.512  28.571  32.382  1.00  0.00    -0.014 A 
ATOM     76  C   UNL A   1      46.713  28.797  31.691  1.00  0.00     0.009 A 
ATOM     77  C   UNL A   1      45.518  27.714  33.494  1.00  0.00     0.009 A 
ATOM     78  C   UNL A   1      47.886  28.147  32.085  1.00  0.00     0.001 A 
ATOM     79  C   UNL A   1      46.699  27.093  33.906  1.00  0.00     0.001 A 
ATOM     80  C   UNL A   1      47.879  27.302  33.195  1.00  0.00     0.000 A 
ENDBRANCH  62  75
ENDBRANCH  36  37
ENDBRANCH  28  31
ENDBRANCH  26  27
ENDBRANCH   1  26
TORSDOF 14
ENDMDL
