MODEL 1
REMARK VINA RESULT:     -12.6      0.000      0.000
REMARK SMILES Cc1nn(C(C)C)cc1-c1cnccc1C(=O)NCCCNC(=O)c1ccc(-c2c3nc(c(-c4ccccc4)c4ccc([nH]4)c(-c4ccccc4)c4nc(c(-c5ccccc5)c5ccc2[nH]5)C=C4)C=C3)cc1
REMARK SMILES IDX 20 1 19 2 18 3 16 4 17 5 15 7 10 8 11 9 12 10 14 11 13 12
REMARK SMILES IDX 9 13 1 14 2 15 3 16 4 17 8 18 5 19 6 20 7 21 21 22 22 23
REMARK SMILES IDX 23 24 24 26 25 27 26 28 72 29 27 30 71 31 28 32 29 33 30 34
REMARK SMILES IDX 65 35 31 36 70 37 64 38 66 39 32 40 69 41 63 42 62 43 33 45
REMARK SMILES IDX 55 46 40 47 54 48 41 49 44 50 53 51 67 52 42 53 43 54 52 56
REMARK SMILES IDX 68 57 45 58 34 59 35 60 39 61 36 62 38 63 37 64 56 65 57 66
REMARK SMILES IDX 61 67 58 68 60 69 59 70 46 71 47 72 51 73 48 74 50 75 49 76
REMARK H PARENT 18 6 22 25 66 44 44 55
REMARK Flexibility Score: inf
ROOT
ATOM      1  C   UNL A   1      37.890  20.408  25.015  1.00  0.00     0.042 C 
ENDROOT
BRANCH   1   2
ATOM      2  C   UNL A   1      36.907  21.548  25.006  1.00  0.00     0.118 C 
BRANCH   2   3
ATOM      3  N   UNL A   1      36.380  22.095  23.802  1.00  0.00    -0.352 N 
ATOM      4  C   UNL A   1      35.228  22.853  23.710  1.00  0.00     0.252 C 
ATOM      5  O   UNL A   1      35.065  23.457  22.645  1.00  0.00    -0.269 OA
ATOM      6  H   UNL A   1      36.873  21.919  22.969  1.00  0.00     0.163 HD
BRANCH   4   7
ATOM      7  C   UNL A   1      34.112  22.896  24.740  1.00  0.00     0.050 A 
ATOM      8  C   UNL A   1      33.108  21.964  25.106  1.00  0.00     0.016 A 
ATOM      9  C   UNL A   1      32.203  22.370  26.098  1.00  0.00     0.120 A 
ATOM     10  N   UNL A   1      32.206  23.561  26.738  1.00  0.00    -0.264 NA
ATOM     11  C   UNL A   1      34.125  24.134  25.428  1.00  0.00     0.034 A 
ATOM     12  C   UNL A   1      33.176  24.417  26.393  1.00  0.00     0.112 A 
BRANCH   8  13
ATOM     13  C   UNL A   1      32.807  20.654  24.536  1.00  0.00     0.025 A 
ATOM     14  C   UNL A   1      31.981  21.272  22.107  1.00  0.00     0.069 C 
ATOM     15  C   UNL A   1      32.283  20.344  23.235  1.00  0.00     0.067 A 
ATOM     16  N   UNL A   1      32.263  19.026  23.017  1.00  0.00    -0.177 NA
ATOM     17  N   UNL A   1      32.739  18.481  24.155  1.00  0.00    -0.269 N 
ATOM     18  C   UNL A   1      33.050  19.423  25.110  1.00  0.00     0.118 A 
BRANCH  17  19
ATOM     19  C   UNL A   1      33.010  17.044  24.206  1.00  0.00     0.101 C 
ATOM     20  C   UNL A   1      34.139  16.612  23.280  1.00  0.00     0.033 C 
ATOM     21  C   UNL A   1      33.329  16.575  25.619  1.00  0.00     0.033 C 
ENDBRANCH  17  19
ENDBRANCH   8  13
ENDBRANCH   4   7
ENDBRANCH   2   3
ENDBRANCH   1   2
BRANCH   1  22
ATOM     22  C   UNL A   1      39.144  20.667  25.796  1.00  0.00     0.118 C 
BRANCH  22  23
ATOM     23  N   UNL A   1      40.051  19.515  25.894  1.00  0.00    -0.352 N 
ATOM     24  C   UNL A   1      41.447  19.487  25.973  1.00  0.00     0.251 C 
ATOM     25  H   UNL A   1      39.612  18.633  25.906  1.00  0.00     0.163 HD
ATOM     26  O   UNL A   1      42.115  18.500  25.822  1.00  0.00    -0.269 OA
BRANCH  24  27
ATOM     27  C   UNL A   1      42.048  20.747  26.417  1.00  0.00     0.039 A 
ATOM     28  C   UNL A   1      42.570  21.733  25.583  1.00  0.00     0.014 A 
ATOM     29  C   UNL A   1      41.861  20.950  27.770  1.00  0.00     0.014 A 
ATOM     30  C   UNL A   1      42.836  22.966  26.166  1.00  0.00     0.010 A 
ATOM     31  C   UNL A   1      41.653  22.222  28.149  1.00  0.00     0.010 A 
ATOM     32  C   UNL A   1      42.362  23.183  27.466  1.00  0.00    -0.014 A 
BRANCH  32  33
ATOM     33  C   UNL A   1      42.476  24.407  28.218  1.00  0.00     0.031 A 
ATOM     34  C   UNL A   1      41.352  25.326  27.986  1.00  0.00     0.074 A 
ATOM     35  C   UNL A   1      43.309  24.492  29.281  1.00  0.00     0.049 A 
ATOM     36  N   UNL A   1      41.338  26.323  27.171  1.00  0.00    -0.248 NA
ATOM     37  C   UNL A   1      40.027  24.962  28.520  1.00  0.00     0.031 C 
ATOM     38  C   UNL A   1      44.177  23.453  29.869  1.00  0.00     0.029 A 
ATOM     39  N   UNL A   1      43.445  25.510  30.159  1.00  0.00    -0.354 N 
ATOM     40  C   UNL A   1      40.088  26.895  27.340  1.00  0.00     0.074 A 
ATOM     41  C   UNL A   1      39.257  25.861  27.901  1.00  0.00     0.031 C 
ATOM     42  C   UNL A   1      44.559  23.827  31.112  1.00  0.00     0.029 A 
ATOM     43  C   UNL A   1      44.129  25.193  31.326  1.00  0.00     0.049 A 
ATOM     44  H   UNL A   1      43.085  26.409  29.986  1.00  0.00     0.167 HD
ATOM     45  C   UNL A   1      39.955  28.250  27.384  1.00  0.00     0.031 A 
ATOM     46  C   UNL A   1      44.304  26.010  32.391  1.00  0.00     0.031 A 
ATOM     47  C   UNL A   1      41.191  28.903  27.001  1.00  0.00     0.049 A 
ATOM     48  C   UNL A   1      44.058  27.394  31.913  1.00  0.00     0.074 A 
ATOM     49  C   UNL A   1      42.021  28.841  25.897  1.00  0.00     0.029 A 
ATOM     50  N   UNL A   1      41.962  29.407  28.027  1.00  0.00    -0.354 N 
ATOM     51  N   UNL A   1      44.820  27.996  31.044  1.00  0.00    -0.248 NA
ATOM     52  C   UNL A   1      42.708  27.924  32.024  1.00  0.00     0.031 C 
ATOM     53  C   UNL A   1      43.346  28.865  26.429  1.00  0.00     0.029 A 
ATOM     54  C   UNL A   1      43.268  29.045  27.812  1.00  0.00     0.049 A 
ATOM     55  H   UNL A   1      41.630  29.938  28.787  1.00  0.00     0.167 HD
ATOM     56  C   UNL A   1      43.937  28.646  30.190  1.00  0.00     0.074 A 
ATOM     57  C   UNL A   1      42.666  28.669  30.914  1.00  0.00     0.031 C 
ATOM     58  C   UNL A   1      44.238  28.822  28.868  1.00  0.00     0.031 A 
BRANCH  45  59
ATOM     59  C   UNL A   1      38.912  28.963  28.211  1.00  0.00    -0.014 A 
ATOM     60  C   UNL A   1      38.850  28.675  29.585  1.00  0.00     0.009 A 
ATOM     61  C   UNL A   1      37.838  29.699  27.675  1.00  0.00     0.009 A 
ATOM     62  C   UNL A   1      37.739  29.032  30.355  1.00  0.00     0.001 A 
ATOM     63  C   UNL A   1      36.745  30.095  28.449  1.00  0.00     0.001 A 
ATOM     64  C   UNL A   1      36.682  29.735  29.785  1.00  0.00     0.000 A 
ENDBRANCH  45  59
BRANCH  46  65
ATOM     65  C   UNL A   1      44.420  25.673  33.825  1.00  0.00    -0.014 A 
ATOM     66  C   UNL A   1      45.226  26.448  34.675  1.00  0.00     0.009 A 
ATOM     67  C   UNL A   1      43.523  24.768  34.422  1.00  0.00     0.009 A 
ATOM     68  C   UNL A   1      45.095  26.364  36.067  1.00  0.00     0.001 A 
ATOM     69  C   UNL A   1      43.395  24.681  35.813  1.00  0.00     0.001 A 
ATOM     70  C   UNL A   1      44.167  25.495  36.635  1.00  0.00     0.000 A 
ENDBRANCH  46  65
BRANCH  58  71
ATOM     71  C   UNL A   1      45.659  28.541  28.424  1.00  0.00    -0.014 A 
ATOM     72  C   UNL A   1      46.127  27.262  28.070  1.00  0.00     0.009 A 
ATOM     73  C   UNL A   1      46.514  29.634  28.220  1.00  0.00     0.009 A 
ATOM     74  C   UNL A   1      47.421  27.084  27.561  1.00  0.00     0.001 A 
ATOM     75  C   UNL A   1      47.795  29.460  27.693  1.00  0.00     0.001 A 
ATOM     76  C   UNL A   1      48.252  28.184  27.369  1.00  0.00     0.000 A 
ENDBRANCH  58  71
ENDBRANCH  32  33
ENDBRANCH  24  27
ENDBRANCH  22  23
ENDBRANCH   1  22
TORSDOF 12
ENDMDL
MODEL 2
REMARK VINA RESULT:     -12.5      5.089      9.730
REMARK SMILES Cc1nn(C(C)C)cc1-c1cnccc1C(=O)NCCCNC(=O)c1ccc(-c2c3nc(c(-c4ccccc4)c4ccc([nH]4)c(-c4ccccc4)c4nc(c(-c5ccccc5)c5ccc2[nH]5)C=C4)C=C3)cc1
REMARK SMILES IDX 20 1 19 2 18 3 16 4 17 5 15 7 10 8 11 9 12 10 14 11 13 12
REMARK SMILES IDX 9 13 1 14 2 15 3 16 4 17 8 18 5 19 6 20 7 21 21 22 22 23
REMARK SMILES IDX 23 24 24 26 25 27 26 28 72 29 27 30 71 31 28 32 29 33 30 34
REMARK SMILES IDX 65 35 31 36 70 37 64 38 66 39 32 40 69 41 63 42 62 43 33 45
REMARK SMILES IDX 55 46 40 47 54 48 41 49 44 50 53 51 67 52 42 53 43 54 52 56
REMARK SMILES IDX 68 57 45 58 34 59 35 60 39 61 36 62 38 63 37 64 56 65 57 66
REMARK SMILES IDX 61 67 58 68 60 69 59 70 46 71 47 72 51 73 48 74 50 75 49 76
REMARK H PARENT 18 6 22 25 66 44 44 55
REMARK Flexibility Score: inf
ROOT
ATOM      1  C   UNL A   1      31.902  31.288  26.731  1.00  0.00     0.042 C 
ENDROOT
BRANCH   1   2
ATOM      2  C   UNL A   1      32.298  29.866  26.435  1.00  0.00     0.118 C 
BRANCH   2   3
ATOM      3  N   UNL A   1      31.580  28.749  26.949  1.00  0.00    -0.352 N 
ATOM      4  C   UNL A   1      31.680  27.454  26.478  1.00  0.00     0.252 C 
ATOM      5  O   UNL A   1      31.192  26.579  27.201  1.00  0.00    -0.269 OA
ATOM      6  H   UNL A   1      30.964  28.911  27.699  1.00  0.00     0.163 HD
BRANCH   4   7
ATOM      7  C   UNL A   1      32.211  27.047  25.115  1.00  0.00     0.050 A 
ATOM      8  C   UNL A   1      31.778  27.326  23.794  1.00  0.00     0.016 A 
ATOM      9  C   UNL A   1      32.510  26.735  22.752  1.00  0.00     0.120 A 
ATOM     10  N   UNL A   1      33.589  25.933  22.894  1.00  0.00    -0.264 NA
ATOM     11  C   UNL A   1      33.355  26.223  25.258  1.00  0.00     0.034 A 
ATOM     12  C   UNL A   1      33.994  25.701  24.149  1.00  0.00     0.112 A 
BRANCH   8  13
ATOM     13  C   UNL A   1      30.610  28.076  23.340  1.00  0.00     0.025 A 
ATOM     14  C   UNL A   1      28.625  26.442  23.933  1.00  0.00     0.069 C 
ATOM     15  C   UNL A   1      29.230  27.682  23.367  1.00  0.00     0.067 A 
ATOM     16  N   UNL A   1      28.428  28.684  22.990  1.00  0.00    -0.177 NA
ATOM     17  N   UNL A   1      29.262  29.701  22.697  1.00  0.00    -0.269 N 
ATOM     18  C   UNL A   1      30.589  29.371  22.863  1.00  0.00     0.118 A 
BRANCH  17  19
ATOM     19  C   UNL A   1      28.709  31.023  22.401  1.00  0.00     0.101 C 
ATOM     20  C   UNL A   1      28.095  31.120  21.010  1.00  0.00     0.033 C 
ATOM     21  C   UNL A   1      27.668  31.447  23.427  1.00  0.00     0.033 C 
ENDBRANCH  17  19
ENDBRANCH   8  13
ENDBRANCH   4   7
ENDBRANCH   2   3
ENDBRANCH   1   2
BRANCH   1  22
ATOM     22  C   UNL A   1      32.953  32.098  27.431  1.00  0.00     0.118 C 
BRANCH  22  23
ATOM     23  N   UNL A   1      32.615  33.518  27.602  1.00  0.00    -0.352 N 
ATOM     24  C   UNL A   1      33.062  34.427  28.566  1.00  0.00     0.251 C 
ATOM     25  H   UNL A   1      31.982  33.883  26.941  1.00  0.00     0.163 HD
ATOM     26  O   UNL A   1      32.562  35.502  28.767  1.00  0.00    -0.269 OA
BRANCH  24  27
ATOM     27  C   UNL A   1      34.308  34.036  29.228  1.00  0.00     0.039 A 
ATOM     28  C   UNL A   1      34.402  33.380  30.453  1.00  0.00     0.014 A 
ATOM     29  C   UNL A   1      35.400  34.213  28.401  1.00  0.00     0.014 A 
ATOM     30  C   UNL A   1      35.644  32.847  30.781  1.00  0.00     0.010 A 
ATOM     31  C   UNL A   1      36.374  33.294  28.511  1.00  0.00     0.010 A 
ATOM     32  C   UNL A   1      36.621  32.819  29.778  1.00  0.00    -0.014 A 
BRANCH  32  33
ATOM     33  C   UNL A   1      37.941  32.253  29.895  1.00  0.00     0.031 A 
ATOM     34  C   UNL A   1      38.003  30.852  29.455  1.00  0.00     0.074 A 
ATOM     35  C   UNL A   1      39.028  33.050  30.019  1.00  0.00     0.049 A 
ATOM     36  N   UNL A   1      37.948  29.811  30.212  1.00  0.00    -0.248 NA
ATOM     37  C   UNL A   1      37.857  30.562  28.017  1.00  0.00     0.031 C 
ATOM     38  C   UNL A   1      39.105  34.524  30.032  1.00  0.00     0.029 A 
ATOM     39  N   UNL A   1      40.331  32.695  30.016  1.00  0.00    -0.354 N 
ATOM     40  C   UNL A   1      38.085  28.740  29.345  1.00  0.00     0.074 A 
ATOM     41  C   UNL A   1      37.701  29.236  28.048  1.00  0.00     0.031 C 
ATOM     42  C   UNL A   1      40.380  34.917  29.810  1.00  0.00     0.029 A 
ATOM     43  C   UNL A   1      41.226  33.741  29.833  1.00  0.00     0.049 A 
ATOM     44  H   UNL A   1      40.626  31.764  30.135  1.00  0.00     0.167 HD
ATOM     45  C   UNL A   1      38.871  27.680  29.684  1.00  0.00     0.031 A 
ATOM     46  C   UNL A   1      42.568  33.625  29.693  1.00  0.00     0.031 A 
ATOM     47  C   UNL A   1      39.276  27.762  31.073  1.00  0.00     0.049 A 
ATOM     48  C   UNL A   1      42.938  32.290  30.227  1.00  0.00     0.074 A 
ATOM     49  C   UNL A   1      38.605  27.878  32.276  1.00  0.00     0.029 A 
ATOM     50  N   UNL A   1      40.561  28.201  31.312  1.00  0.00    -0.354 N 
ATOM     51  N   UNL A   1      42.815  31.962  31.482  1.00  0.00    -0.248 NA
ATOM     52  C   UNL A   1      42.979  31.171  29.297  1.00  0.00     0.031 C 
ATOM     53  C   UNL A   1      39.375  28.806  33.040  1.00  0.00     0.029 A 
ATOM     54  C   UNL A   1      40.526  29.132  32.319  1.00  0.00     0.049 A 
ATOM     55  H   UNL A   1      41.369  27.896  30.839  1.00  0.00     0.167 HD
ATOM     56  C   UNL A   1      42.304  30.670  31.463  1.00  0.00     0.074 A 
ATOM     57  C   UNL A   1      42.544  30.194  30.100  1.00  0.00     0.031 C 
ATOM     58  C   UNL A   1      41.464  30.231  32.449  1.00  0.00     0.031 A 
BRANCH  45  59
ATOM     59  C   UNL A   1      39.650  26.862  28.683  1.00  0.00    -0.014 A 
ATOM     60  C   UNL A   1      40.617  27.520  27.903  1.00  0.00     0.009 A 
ATOM     61  C   UNL A   1      39.315  25.551  28.293  1.00  0.00     0.009 A 
ATOM     62  C   UNL A   1      41.150  26.929  26.753  1.00  0.00     0.001 A 
ATOM     63  C   UNL A   1      39.876  24.941  27.170  1.00  0.00     0.001 A 
ATOM     64  C   UNL A   1      40.774  25.643  26.382  1.00  0.00     0.000 A 
ENDBRANCH  45  59
BRANCH  46  65
ATOM     65  C   UNL A   1      43.509  34.461  28.919  1.00  0.00    -0.014 A 
ATOM     66  C   UNL A   1      43.519  34.407  27.516  1.00  0.00     0.009 A 
ATOM     67  C   UNL A   1      44.198  35.521  29.538  1.00  0.00     0.009 A 
ATOM     68  C   UNL A   1      44.144  35.408  26.761  1.00  0.00     0.001 A 
ATOM     69  C   UNL A   1      44.826  36.518  28.782  1.00  0.00     0.001 A 
ATOM     70  C   UNL A   1      44.781  36.471  27.393  1.00  0.00     0.000 A 
ENDBRANCH  46  65
BRANCH  58  71
ATOM     71  C   UNL A   1      41.329  31.085  33.693  1.00  0.00    -0.014 A 
ATOM     72  C   UNL A   1      40.425  32.158  33.808  1.00  0.00     0.009 A 
ATOM     73  C   UNL A   1      42.041  30.698  34.837  1.00  0.00     0.009 A 
ATOM     74  C   UNL A   1      40.268  32.839  35.023  1.00  0.00     0.001 A 
ATOM     75  C   UNL A   1      41.869  31.363  36.053  1.00  0.00     0.001 A 
ATOM     76  C   UNL A   1      40.987  32.438  36.145  1.00  0.00     0.000 A 
ENDBRANCH  58  71
ENDBRANCH  32  33
ENDBRANCH  24  27
ENDBRANCH  22  23
ENDBRANCH   1  22
TORSDOF 12
ENDMDL
MODEL 3
REMARK VINA RESULT:     -12.1      1.276      2.804
REMARK SMILES Cc1nn(C(C)C)cc1-c1cnccc1C(=O)NCCCNC(=O)c1ccc(-c2c3nc(c(-c4ccccc4)c4ccc([nH]4)c(-c4ccccc4)c4nc(c(-c5ccccc5)c5ccc2[nH]5)C=C4)C=C3)cc1
REMARK SMILES IDX 20 1 19 2 18 3 16 4 17 5 15 7 10 8 11 9 12 10 14 11 13 12
REMARK SMILES IDX 9 13 1 14 2 15 3 16 4 17 8 18 5 19 6 20 7 21 21 22 22 23
REMARK SMILES IDX 23 24 24 26 25 27 26 28 72 29 27 30 71 31 28 32 29 33 30 34
REMARK SMILES IDX 65 35 31 36 70 37 64 38 66 39 32 40 69 41 63 42 62 43 33 45
REMARK SMILES IDX 55 46 40 47 54 48 41 49 44 50 53 51 67 52 42 53 43 54 52 56
REMARK SMILES IDX 68 57 45 58 34 59 35 60 39 61 36 62 38 63 37 64 56 65 57 66
REMARK SMILES IDX 61 67 58 68 60 69 59 70 46 71 47 72 51 73 48 74 50 75 49 76
REMARK H PARENT 18 6 22 25 66 44 44 55
REMARK Flexibility Score: inf
ROOT
ATOM      1  C   UNL A   1      37.856  20.312  25.022  1.00  0.00     0.042 C 
ENDROOT
BRANCH   1   2
ATOM      2  C   UNL A   1      36.908  21.476  24.915  1.00  0.00     0.118 C 
BRANCH   2   3
ATOM      3  N   UNL A   1      36.008  21.830  25.961  1.00  0.00    -0.352 N 
ATOM      4  C   UNL A   1      34.742  21.305  26.132  1.00  0.00     0.252 C 
ATOM      5  O   UNL A   1      34.211  21.527  27.225  1.00  0.00    -0.269 OA
ATOM      6  H   UNL A   1      36.312  22.502  26.612  1.00  0.00     0.163 HD
BRANCH   4   7
ATOM      7  C   UNL A   1      33.921  20.606  25.062  1.00  0.00     0.050 A 
ATOM      8  C   UNL A   1      32.958  21.075  24.133  1.00  0.00     0.016 A 
ATOM      9  C   UNL A   1      32.364  20.113  23.302  1.00  0.00     0.120 A 
ATOM     10  N   UNL A   1      32.632  18.787  23.302  1.00  0.00    -0.264 NA
ATOM     11  C   UNL A   1      34.214  19.220  25.045  1.00  0.00     0.034 A 
ATOM     12  C   UNL A   1      33.560  18.370  24.172  1.00  0.00     0.112 A 
BRANCH   8  13
ATOM     13  C   UNL A   1      32.409  22.417  23.964  1.00  0.00     0.025 A 
ATOM     14  C   UNL A   1      30.778  22.624  26.029  1.00  0.00     0.069 C 
ATOM     15  C   UNL A   1      31.431  23.091  24.771  1.00  0.00     0.067 A 
ATOM     16  N   UNL A   1      31.273  24.362  24.388  1.00  0.00    -0.177 NA
ATOM     17  N   UNL A   1      32.107  24.513  23.341  1.00  0.00    -0.269 N 
ATOM     18  C   UNL A   1      32.790  23.358  23.029  1.00  0.00     0.118 A 
BRANCH  17  19
ATOM     19  C   UNL A   1      32.313  25.844  22.770  1.00  0.00     0.101 C 
ATOM     20  C   UNL A   1      33.504  26.579  23.373  1.00  0.00     0.033 C 
ATOM     21  C   UNL A   1      32.482  25.796  21.258  1.00  0.00     0.033 C 
ENDBRANCH  17  19
ENDBRANCH   8  13
ENDBRANCH   4   7
ENDBRANCH   2   3
ENDBRANCH   1   2
BRANCH   1  22
ATOM     22  C   UNL A   1      39.120  20.599  25.775  1.00  0.00     0.118 C 
BRANCH  22  23
ATOM     23  N   UNL A   1      40.036  19.456  25.889  1.00  0.00    -0.352 N 
ATOM     24  C   UNL A   1      41.433  19.440  25.963  1.00  0.00     0.251 C 
ATOM     25  H   UNL A   1      39.604  18.571  25.918  1.00  0.00     0.163 HD
ATOM     26  O   UNL A   1      42.108  18.455  25.825  1.00  0.00    -0.269 OA
BRANCH  24  27
ATOM     27  C   UNL A   1      42.026  20.711  26.383  1.00  0.00     0.039 A 
ATOM     28  C   UNL A   1      42.496  21.706  25.529  1.00  0.00     0.014 A 
ATOM     29  C   UNL A   1      41.888  20.912  27.742  1.00  0.00     0.014 A 
ATOM     30  C   UNL A   1      42.761  22.945  26.102  1.00  0.00     0.010 A 
ATOM     31  C   UNL A   1      41.670  22.180  28.129  1.00  0.00     0.010 A 
ATOM     32  C   UNL A   1      42.333  23.154  27.419  1.00  0.00    -0.014 A 
BRANCH  32  33
ATOM     33  C   UNL A   1      42.452  24.381  28.165  1.00  0.00     0.031 A 
ATOM     34  C   UNL A   1      41.322  25.294  27.946  1.00  0.00     0.074 A 
ATOM     35  C   UNL A   1      43.299  24.472  29.217  1.00  0.00     0.049 A 
ATOM     36  N   UNL A   1      41.292  26.289  27.128  1.00  0.00    -0.248 NA
ATOM     37  C   UNL A   1      40.005  24.926  28.499  1.00  0.00     0.031 C 
ATOM     38  C   UNL A   1      44.179  23.438  29.797  1.00  0.00     0.029 A 
ATOM     39  N   UNL A   1      43.443  25.492  30.091  1.00  0.00    -0.354 N 
ATOM     40  C   UNL A   1      40.043  26.857  27.313  1.00  0.00     0.074 A 
ATOM     41  C   UNL A   1      39.224  25.820  27.888  1.00  0.00     0.031 C 
ATOM     42  C   UNL A   1      44.576  23.817  31.033  1.00  0.00     0.029 A 
ATOM     43  C   UNL A   1      44.144  25.182  31.249  1.00  0.00     0.049 A 
ATOM     44  H   UNL A   1      43.077  26.390  29.919  1.00  0.00     0.167 HD
ATOM     45  C   UNL A   1      39.904  28.211  27.355  1.00  0.00     0.031 A 
ATOM     46  C   UNL A   1      44.330  26.003  32.309  1.00  0.00     0.031 A 
ATOM     47  C   UNL A   1      41.133  28.867  26.953  1.00  0.00     0.049 A 
ATOM     48  C   UNL A   1      44.072  27.384  31.830  1.00  0.00     0.074 A 
ATOM     49  C   UNL A   1      41.948  28.806  25.839  1.00  0.00     0.029 A 
ATOM     50  N   UNL A   1      41.916  29.378  27.967  1.00  0.00    -0.354 N 
ATOM     51  N   UNL A   1      44.819  27.987  30.949  1.00  0.00    -0.248 NA
ATOM     52  C   UNL A   1      42.721  27.909  31.958  1.00  0.00     0.031 C 
ATOM     53  C   UNL A   1      43.280  28.837  26.352  1.00  0.00     0.029 A 
ATOM     54  C   UNL A   1      43.220  29.021  27.736  1.00  0.00     0.049 A 
ATOM     55  H   UNL A   1      41.592  29.909  28.730  1.00  0.00     0.167 HD
ATOM     56  C   UNL A   1      43.923  28.631  30.105  1.00  0.00     0.074 A 
ATOM     57  C   UNL A   1      42.661  28.651  30.846  1.00  0.00     0.031 C 
ATOM     58  C   UNL A   1      44.205  28.805  28.779  1.00  0.00     0.031 A 
BRANCH  45  59
ATOM     59  C   UNL A   1      38.870  28.922  28.193  1.00  0.00    -0.014 A 
ATOM     60  C   UNL A   1      38.829  28.639  29.569  1.00  0.00     0.009 A 
ATOM     61  C   UNL A   1      37.785  29.651  27.670  1.00  0.00     0.009 A 
ATOM     62  C   UNL A   1      37.727  28.994  30.354  1.00  0.00     0.001 A 
ATOM     63  C   UNL A   1      36.701  30.044  28.458  1.00  0.00     0.001 A 
ATOM     64  C   UNL A   1      36.659  29.689  29.796  1.00  0.00     0.000 A 
ENDBRANCH  45  59
BRANCH  46  65
ATOM     65  C   UNL A   1      44.467  25.670  33.743  1.00  0.00    -0.014 A 
ATOM     66  C   UNL A   1      45.328  26.413  34.565  1.00  0.00     0.009 A 
ATOM     67  C   UNL A   1      43.543  24.812  34.368  1.00  0.00     0.009 A 
ATOM     68  C   UNL A   1      45.228  26.345  35.962  1.00  0.00     0.001 A 
ATOM     69  C   UNL A   1      43.448  24.740  35.763  1.00  0.00     0.001 A 
ATOM     70  C   UNL A   1      44.277  25.523  36.559  1.00  0.00     0.000 A 
ENDBRANCH  46  65
BRANCH  58  71
ATOM     71  C   UNL A   1      45.621  28.528  28.317  1.00  0.00    -0.014 A 
ATOM     72  C   UNL A   1      46.091  27.248  27.966  1.00  0.00     0.009 A 
ATOM     73  C   UNL A   1      46.466  29.623  28.092  1.00  0.00     0.009 A 
ATOM     74  C   UNL A   1      47.378  27.073  27.440  1.00  0.00     0.001 A 
ATOM     75  C   UNL A   1      47.741  29.452  27.548  1.00  0.00     0.001 A 
ATOM     76  C   UNL A   1      48.200  28.177  27.227  1.00  0.00     0.000 A 
ENDBRANCH  58  71
ENDBRANCH  32  33
ENDBRANCH  24  27
ENDBRANCH  22  23
ENDBRANCH   1  22
TORSDOF 12
ENDMDL
