MODEL 1
REMARK VINA RESULT:     -11.8      0.000      0.000
REMARK SMILES Cc1cc(C)cc(C(=O)N2CC[C@H](C(=O)NCCCNC(=O)c3ccc(-c4c5nc(c(-c6ccccc6)c6ccc([nH]6)c(-c6ccccc6)c6nc(c(-c7ccccc7)c7ccc4[nH]7)C=C6)C=C5)cc3)[C@@H]2C)c1
REMARK SMILES IDX 18 1 17 2 16 3 14 4 15 5 13 7 10 8 11 9 71 10 12 11 72 12
REMARK SMILES IDX 8 13 9 14 7 15 1 16 2 17 3 18 73 19 4 20 5 21 6 22 19 23
REMARK SMILES IDX 20 24 21 25 22 27 23 28 24 29 70 30 25 31 69 32 26 33 27 34
REMARK SMILES IDX 28 35 63 36 29 37 68 38 62 39 64 40 30 41 67 42 61 43 60 44
REMARK SMILES IDX 31 46 53 47 38 48 52 49 39 50 42 51 51 52 65 53 40 54 41 55
REMARK SMILES IDX 50 57 66 58 43 59 32 60 33 61 37 62 34 63 36 64 35 65 54 66
REMARK SMILES IDX 55 67 59 68 56 69 58 70 57 71 44 72 45 73 49 74 46 75 48 76
REMARK SMILES IDX 47 77
REMARK H PARENT 16 6 20 26 64 45 42 56
REMARK Flexibility Score: inf
ROOT
ATOM      1  C   UNL A   1      38.110  19.782  24.882  1.00  0.00     0.042 C 
ENDROOT
BRANCH   1   2
ATOM      2  C   UNL A   1      36.884  20.683  24.998  1.00  0.00     0.117 C 
BRANCH   2   3
ATOM      3  N   UNL A   1      35.646  19.927  25.049  1.00  0.00    -0.356 N 
ATOM      4  C   UNL A   1      34.349  20.320  24.936  1.00  0.00     0.225 C 
ATOM      5  O   UNL A   1      33.485  19.443  24.976  1.00  0.00    -0.275 OA
ATOM      6  H   UNL A   1      35.766  18.960  25.191  1.00  0.00     0.163 HD
BRANCH   4   7
ATOM      7  C   UNL A   1      33.998  21.789  24.764  1.00  0.00     0.102 C 
ATOM      8  N   UNL A   1      32.243  22.958  25.878  1.00  0.00    -0.335 N 
ATOM      9  C   UNL A   1      31.616  22.111  24.886  1.00  0.00     0.121 C 
ATOM     10  C   UNL A   1      33.644  22.552  26.068  1.00  0.00     0.094 C 
ATOM     11  C   UNL A   1      32.737  21.912  23.887  1.00  0.00     0.037 C 
ATOM     12  C   UNL A   1      33.805  21.756  27.363  1.00  0.00     0.032 C 
BRANCH   8  13
ATOM     13  C   UNL A   1      31.476  23.917  26.516  1.00  0.00     0.254 C 
ATOM     14  O   UNL A   1      30.656  23.610  27.382  1.00  0.00    -0.269 OA
BRANCH  13  15
ATOM     15  C   UNL A   1      31.520  25.344  26.090  1.00  0.00     0.040 A 
ATOM     16  C   UNL A   1      33.915  28.311  26.049  1.00  0.00     0.044 C 
ATOM     17  C   UNL A   1      32.720  27.443  25.787  1.00  0.00    -0.050 A 
ATOM     18  C   UNL A   1      31.714  27.883  24.916  1.00  0.00     0.006 A 
ATOM     19  C   UNL A   1      32.633  26.156  26.336  1.00  0.00     0.017 A 
ATOM     20  C   UNL A   1      30.622  27.063  24.610  1.00  0.00    -0.050 A 
ATOM     21  C   UNL A   1      29.626  27.501  23.576  1.00  0.00     0.044 C 
ATOM     22  C   UNL A   1      30.523  25.802  25.215  1.00  0.00     0.017 A 
ENDBRANCH  13  15
ENDBRANCH   8  13
ENDBRANCH   4   7
ENDBRANCH   2   3
ENDBRANCH   1   2
BRANCH   1  23
ATOM     23  C   UNL A   1      39.098  19.884  26.043  1.00  0.00     0.118 C 
BRANCH  23  24
ATOM     24  N   UNL A   1      40.361  19.210  25.785  1.00  0.00    -0.352 N 
ATOM     25  C   UNL A   1      41.655  19.639  25.930  1.00  0.00     0.251 C 
ATOM     26  H   UNL A   1      40.271  18.289  25.448  1.00  0.00     0.163 HD
ATOM     27  O   UNL A   1      42.567  18.920  25.520  1.00  0.00    -0.269 OA
BRANCH  25  28
ATOM     28  C   UNL A   1      41.982  20.948  26.542  1.00  0.00     0.039 A 
ATOM     29  C   UNL A   1      42.334  22.002  25.691  1.00  0.00     0.014 A 
ATOM     30  C   UNL A   1      42.006  21.144  27.925  1.00  0.00     0.014 A 
ATOM     31  C   UNL A   1      42.654  23.255  26.219  1.00  0.00     0.010 A 
ATOM     32  C   UNL A   1      42.258  22.413  28.450  1.00  0.00     0.010 A 
ATOM     33  C   UNL A   1      42.591  23.481  27.603  1.00  0.00    -0.014 A 
BRANCH  33  34
ATOM     34  C   UNL A   1      42.861  24.832  28.159  1.00  0.00     0.031 A 
ATOM     35  C   UNL A   1      44.256  25.246  28.539  1.00  0.00     0.074 A 
ATOM     36  C   UNL A   1      41.837  25.686  28.348  1.00  0.00     0.049 A 
ATOM     37  N   UNL A   1      44.675  26.394  29.008  1.00  0.00    -0.248 NA
ATOM     38  C   UNL A   1      45.315  24.235  28.390  1.00  0.00     0.031 C 
ATOM     39  C   UNL A   1      40.429  25.396  28.071  1.00  0.00     0.029 A 
ATOM     40  N   UNL A   1      41.825  26.977  28.814  1.00  0.00    -0.354 N 
ATOM     41  C   UNL A   1      46.038  26.241  29.225  1.00  0.00     0.074 A 
ATOM     42  C   UNL A   1      46.369  24.877  28.875  1.00  0.00     0.031 C 
ATOM     43  C   UNL A   1      39.695  26.489  28.336  1.00  0.00     0.029 A 
ATOM     44  C   UNL A   1      40.575  27.546  28.823  1.00  0.00     0.049 A 
ATOM     45  H   UNL A   1      42.635  27.451  29.110  1.00  0.00     0.167 HD
ATOM     46  C   UNL A   1      46.939  27.156  29.658  1.00  0.00     0.031 A 
ATOM     47  C   UNL A   1      40.179  28.784  29.175  1.00  0.00     0.031 A 
ATOM     48  C   UNL A   1      46.622  28.519  29.993  1.00  0.00     0.049 A 
ATOM     49  C   UNL A   1      41.201  29.787  29.625  1.00  0.00     0.074 A 
ATOM     50  C   UNL A   1      47.480  29.534  30.385  1.00  0.00     0.029 A 
ATOM     51  N   UNL A   1      45.347  29.058  29.975  1.00  0.00    -0.354 N 
ATOM     52  N   UNL A   1      42.496  29.645  29.754  1.00  0.00    -0.248 NA
ATOM     53  C   UNL A   1      40.703  31.129  29.962  1.00  0.00     0.031 C 
ATOM     54  C   UNL A   1      46.716  30.678  30.639  1.00  0.00     0.029 A 
ATOM     55  C   UNL A   1      45.390  30.387  30.365  1.00  0.00     0.049 A 
ATOM     56  H   UNL A   1      44.529  28.569  29.724  1.00  0.00     0.167 HD
ATOM     57  C   UNL A   1      42.973  30.883  30.165  1.00  0.00     0.074 A 
ATOM     58  C   UNL A   1      41.828  31.768  30.246  1.00  0.00     0.031 C 
ATOM     59  C   UNL A   1      44.244  31.254  30.449  1.00  0.00     0.031 A 
BRANCH  46  60
ATOM     60  C   UNL A   1      48.366  26.704  29.794  1.00  0.00    -0.014 A 
ATOM     61  C   UNL A   1      49.286  26.883  28.748  1.00  0.00     0.009 A 
ATOM     62  C   UNL A   1      48.806  26.124  30.994  1.00  0.00     0.009 A 
ATOM     63  C   UNL A   1      50.609  26.456  28.888  1.00  0.00     0.001 A 
ATOM     64  C   UNL A   1      50.135  25.722  31.141  1.00  0.00     0.001 A 
ATOM     65  C   UNL A   1      51.032  25.879  30.086  1.00  0.00     0.000 A 
ENDBRANCH  46  60
BRANCH  47  66
ATOM     66  C   UNL A   1      38.747  29.158  29.073  1.00  0.00    -0.014 A 
ATOM     67  C   UNL A   1      38.226  29.646  27.866  1.00  0.00     0.009 A 
ATOM     68  C   UNL A   1      37.896  29.032  30.181  1.00  0.00     0.009 A 
ATOM     69  C   UNL A   1      36.884  30.023  27.776  1.00  0.00     0.001 A 
ATOM     70  C   UNL A   1      36.549  29.388  30.081  1.00  0.00     0.001 A 
ATOM     71  C   UNL A   1      36.047  29.890  28.882  1.00  0.00     0.000 A 
ENDBRANCH  47  66
BRANCH  59  72
ATOM     72  C   UNL A   1      44.463  32.684  30.850  1.00  0.00    -0.014 A 
ATOM     73  C   UNL A   1      44.735  33.672  29.892  1.00  0.00     0.009 A 
ATOM     74  C   UNL A   1      44.380  33.048  32.203  1.00  0.00     0.009 A 
ATOM     75  C   UNL A   1      44.958  34.994  30.286  1.00  0.00     0.001 A 
ATOM     76  C   UNL A   1      44.579  34.374  32.591  1.00  0.00     0.001 A 
ATOM     77  C   UNL A   1      44.878  35.344  31.634  1.00  0.00     0.000 A 
ENDBRANCH  59  72
ENDBRANCH  33  34
ENDBRANCH  25  28
ENDBRANCH  23  24
ENDBRANCH   1  23
TORSDOF 12
ENDMDL
MODEL 2
REMARK VINA RESULT:     -11.7      3.605      8.970
REMARK SMILES Cc1cc(C)cc(C(=O)N2CC[C@H](C(=O)NCCCNC(=O)c3ccc(-c4c5nc(c(-c6ccccc6)c6ccc([nH]6)c(-c6ccccc6)c6nc(c(-c7ccccc7)c7ccc4[nH]7)C=C6)C=C5)cc3)[C@@H]2C)c1
REMARK SMILES IDX 18 1 17 2 16 3 14 4 15 5 13 7 10 8 11 9 71 10 12 11 72 12
REMARK SMILES IDX 8 13 9 14 7 15 1 16 2 17 3 18 73 19 4 20 5 21 6 22 19 23
REMARK SMILES IDX 20 24 21 25 22 27 23 28 24 29 70 30 25 31 69 32 26 33 27 34
REMARK SMILES IDX 28 35 63 36 29 37 68 38 62 39 64 40 30 41 67 42 61 43 60 44
REMARK SMILES IDX 31 46 53 47 38 48 52 49 39 50 42 51 51 52 65 53 40 54 41 55
REMARK SMILES IDX 50 57 66 58 43 59 32 60 33 61 37 62 34 63 36 64 35 65 54 66
REMARK SMILES IDX 55 67 59 68 56 69 58 70 57 71 44 72 45 73 49 74 46 75 48 76
REMARK SMILES IDX 47 77
REMARK H PARENT 16 6 20 26 64 45 42 56
REMARK Flexibility Score: inf
ROOT
ATOM      1  C   UNL A   1      31.394  32.111  26.885  1.00  0.00     0.042 C 
ENDROOT
BRANCH   1   2
ATOM      2  C   UNL A   1      31.727  30.704  26.396  1.00  0.00     0.117 C 
BRANCH   2   3
ATOM      3  N   UNL A   1      31.208  30.446  25.065  1.00  0.00    -0.356 N 
ATOM      4  C   UNL A   1      31.067  29.288  24.366  1.00  0.00     0.225 C 
ATOM      5  O   UNL A   1      30.548  29.358  23.252  1.00  0.00    -0.275 OA
ATOM      6  H   UNL A   1      30.905  31.250  24.584  1.00  0.00     0.163 HD
BRANCH   4   7
ATOM      7  C   UNL A   1      31.536  27.967  24.955  1.00  0.00     0.102 C 
ATOM      8  N   UNL A   1      32.836  26.309  23.838  1.00  0.00    -0.335 N 
ATOM      9  C   UNL A   1      31.502  26.235  23.284  1.00  0.00     0.121 C 
ATOM     10  C   UNL A   1      32.990  27.555  24.606  1.00  0.00     0.094 C 
ATOM     11  C   UNL A   1      30.664  26.824  24.400  1.00  0.00     0.037 C 
ATOM     12  C   UNL A   1      33.796  28.582  23.812  1.00  0.00     0.032 C 
BRANCH   8  13
ATOM     13  C   UNL A   1      33.741  25.307  23.534  1.00  0.00     0.254 C 
ATOM     14  O   UNL A   1      34.024  25.032  22.367  1.00  0.00    -0.269 OA
BRANCH  13  15
ATOM     15  C   UNL A   1      34.309  24.436  24.600  1.00  0.00     0.040 A 
ATOM     16  C   UNL A   1      33.203  22.521  27.707  1.00  0.00     0.044 C 
ATOM     17  C   UNL A   1      34.039  23.023  26.568  1.00  0.00    -0.050 A 
ATOM     18  C   UNL A   1      35.313  22.483  26.345  1.00  0.00     0.006 A 
ATOM     19  C   UNL A   1      33.531  23.969  25.666  1.00  0.00     0.017 A 
ATOM     20  C   UNL A   1      36.084  22.893  25.251  1.00  0.00    -0.050 A 
ATOM     21  C   UNL A   1      37.387  22.208  24.957  1.00  0.00     0.044 C 
ATOM     22  C   UNL A   1      35.582  23.883  24.394  1.00  0.00     0.017 A 
ENDBRANCH  13  15
ENDBRANCH   8  13
ENDBRANCH   4   7
ENDBRANCH   2   3
ENDBRANCH   1   2
BRANCH   1  23
ATOM     23  C   UNL A   1      32.568  33.089  26.884  1.00  0.00     0.118 C 
BRANCH  23  24
ATOM     24  N   UNL A   1      32.407  34.182  27.830  1.00  0.00    -0.352 N 
ATOM     25  C   UNL A   1      33.155  34.545  28.920  1.00  0.00     0.251 C 
ATOM     26  H   UNL A   1      31.628  34.759  27.658  1.00  0.00     0.163 HD
ATOM     27  O   UNL A   1      32.739  35.447  29.649  1.00  0.00    -0.269 OA
BRANCH  25  28
ATOM     28  C   UNL A   1      34.429  33.869  29.256  1.00  0.00     0.039 A 
ATOM     29  C   UNL A   1      35.564  34.195  28.504  1.00  0.00     0.014 A 
ATOM     30  C   UNL A   1      34.520  32.890  30.248  1.00  0.00     0.014 A 
ATOM     31  C   UNL A   1      36.789  33.583  28.780  1.00  0.00     0.010 A 
ATOM     32  C   UNL A   1      35.758  32.329  30.571  1.00  0.00     0.010 A 
ATOM     33  C   UNL A   1      36.904  32.666  29.836  1.00  0.00    -0.014 A 
BRANCH  33  34
ATOM     34  C   UNL A   1      38.223  32.070  30.176  1.00  0.00     0.031 A 
ATOM     35  C   UNL A   1      39.167  32.769  31.115  1.00  0.00     0.074 A 
ATOM     36  C   UNL A   1      38.585  30.901  29.613  1.00  0.00     0.049 A 
ATOM     37  N   UNL A   1      40.342  32.378  31.543  1.00  0.00    -0.248 NA
ATOM     38  C   UNL A   1      38.750  34.084  31.624  1.00  0.00     0.031 C 
ATOM     39  C   UNL A   1      37.788  30.142  28.647  1.00  0.00     0.029 A 
ATOM     40  N   UNL A   1      39.717  30.142  29.779  1.00  0.00    -0.354 N 
ATOM     41  C   UNL A   1      40.808  33.401  32.357  1.00  0.00     0.074 A 
ATOM     42  C   UNL A   1      39.810  34.449  32.331  1.00  0.00     0.031 C 
ATOM     43  C   UNL A   1      38.437  29.010  28.335  1.00  0.00     0.029 A 
ATOM     44  C   UNL A   1      39.705  28.973  29.058  1.00  0.00     0.049 A 
ATOM     45  H   UNL A   1      40.465  30.409  30.360  1.00  0.00     0.167 HD
ATOM     46  C   UNL A   1      41.954  33.460  33.079  1.00  0.00     0.031 A 
ATOM     47  C   UNL A   1      40.607  27.976  28.992  1.00  0.00     0.031 A 
ATOM     48  C   UNL A   1      42.945  32.418  33.123  1.00  0.00     0.049 A 
ATOM     49  C   UNL A   1      41.856  28.053  29.821  1.00  0.00     0.074 A 
ATOM     50  C   UNL A   1      44.110  32.365  33.871  1.00  0.00     0.029 A 
ATOM     51  N   UNL A   1      42.887  31.244  32.389  1.00  0.00    -0.354 N 
ATOM     52  N   UNL A   1      42.246  28.996  30.642  1.00  0.00    -0.248 NA
ATOM     53  C   UNL A   1      42.781  26.914  29.725  1.00  0.00     0.031 C 
ATOM     54  C   UNL A   1      44.775  31.173  33.561  1.00  0.00     0.029 A 
ATOM     55  C   UNL A   1      44.003  30.467  32.653  1.00  0.00     0.049 A 
ATOM     56  H   UNL A   1      42.161  30.999  31.770  1.00  0.00     0.167 HD
ATOM     57  C   UNL A   1      43.449  28.557  31.178  1.00  0.00     0.074 A 
ATOM     58  C   UNL A   1      43.715  27.255  30.602  1.00  0.00     0.031 C 
ATOM     59  C   UNL A   1      44.260  29.177  32.068  1.00  0.00     0.031 A 
BRANCH  46  60
ATOM     60  C   UNL A   1      42.197  34.706  33.883  1.00  0.00    -0.014 A 
ATOM     61  C   UNL A   1      42.827  35.824  33.315  1.00  0.00     0.009 A 
ATOM     62  C   UNL A   1      41.761  34.775  35.216  1.00  0.00     0.009 A 
ATOM     63  C   UNL A   1      43.047  36.975  34.075  1.00  0.00     0.001 A 
ATOM     64  C   UNL A   1      41.959  35.936  35.966  1.00  0.00     0.001 A 
ATOM     65  C   UNL A   1      42.610  37.030  35.399  1.00  0.00     0.000 A 
ENDBRANCH  46  60
BRANCH  47  66
ATOM     66  C   UNL A   1      40.340  26.794  28.136  1.00  0.00    -0.014 A 
ATOM     67  C   UNL A   1      40.867  26.727  26.837  1.00  0.00     0.009 A 
ATOM     68  C   UNL A   1      39.558  25.730  28.610  1.00  0.00     0.009 A 
ATOM     69  C   UNL A   1      40.596  25.626  26.021  1.00  0.00     0.001 A 
ATOM     70  C   UNL A   1      39.309  24.622  27.799  1.00  0.00     0.001 A 
ATOM     71  C   UNL A   1      39.821  24.574  26.504  1.00  0.00     0.000 A 
ENDBRANCH  47  66
BRANCH  59  72
ATOM     72  C   UNL A   1      45.499  28.440  32.489  1.00  0.00    -0.014 A 
ATOM     73  C   UNL A   1      46.711  28.609  31.803  1.00  0.00     0.009 A 
ATOM     74  C   UNL A   1      45.453  27.577  33.595  1.00  0.00     0.009 A 
ATOM     75  C   UNL A   1      47.847  27.897  32.195  1.00  0.00     0.001 A 
ATOM     76  C   UNL A   1      46.596  26.887  33.999  1.00  0.00     0.001 A 
ATOM     77  C   UNL A   1      47.790  27.039  33.294  1.00  0.00     0.000 A 
ENDBRANCH  59  72
ENDBRANCH  33  34
ENDBRANCH  25  28
ENDBRANCH  23  24
ENDBRANCH   1  23
TORSDOF 12
ENDMDL
MODEL 3
REMARK VINA RESULT:     -11.7      4.443     10.299
REMARK SMILES Cc1cc(C)cc(C(=O)N2CC[C@H](C(=O)NCCCNC(=O)c3ccc(-c4c5nc(c(-c6ccccc6)c6ccc([nH]6)c(-c6ccccc6)c6nc(c(-c7ccccc7)c7ccc4[nH]7)C=C6)C=C5)cc3)[C@@H]2C)c1
REMARK SMILES IDX 18 1 17 2 16 3 14 4 15 5 13 7 10 8 11 9 71 10 12 11 72 12
REMARK SMILES IDX 8 13 9 14 7 15 1 16 2 17 3 18 73 19 4 20 5 21 6 22 19 23
REMARK SMILES IDX 20 24 21 25 22 27 23 28 24 29 70 30 25 31 69 32 26 33 27 34
REMARK SMILES IDX 28 35 63 36 29 37 68 38 62 39 64 40 30 41 67 42 61 43 60 44
REMARK SMILES IDX 31 46 53 47 38 48 52 49 39 50 42 51 51 52 65 53 40 54 41 55
REMARK SMILES IDX 50 57 66 58 43 59 32 60 33 61 37 62 34 63 36 64 35 65 54 66
REMARK SMILES IDX 55 67 59 68 56 69 58 70 57 71 44 72 45 73 49 74 46 75 48 76
REMARK SMILES IDX 47 77
REMARK H PARENT 16 6 20 26 64 45 42 56
REMARK Flexibility Score: inf
ROOT
ATOM      1  C   UNL A   1      34.549  33.175  29.560  1.00  0.00     0.042 C 
ENDROOT
BRANCH   1   2
ATOM      2  C   UNL A   1      35.828  33.885  29.993  1.00  0.00     0.117 C 
BRANCH   2   3
ATOM      3  N   UNL A   1      35.674  34.578  31.259  1.00  0.00    -0.356 N 
ATOM      4  C   UNL A   1      36.482  34.646  32.350  1.00  0.00     0.225 C 
ATOM      5  O   UNL A   1      36.114  35.356  33.286  1.00  0.00    -0.275 OA
ATOM      6  H   UNL A   1      34.836  35.090  31.342  1.00  0.00     0.163 HD
BRANCH   4   7
ATOM      7  C   UNL A   1      37.789  33.870  32.394  1.00  0.00     0.102 C 
ATOM      8  N   UNL A   1      38.517  32.437  34.156  1.00  0.00    -0.335 N 
ATOM      9  C   UNL A   1      38.653  33.793  34.639  1.00  0.00     0.121 C 
ATOM     10  C   UNL A   1      37.690  32.420  32.939  1.00  0.00     0.094 C 
ATOM     11  C   UNL A   1      38.770  34.578  33.348  1.00  0.00     0.037 C 
ATOM     12  C   UNL A   1      36.277  31.927  33.253  1.00  0.00     0.032 C 
BRANCH   8  13
ATOM     13  C   UNL A   1      39.081  31.407  34.889  1.00  0.00     0.254 C 
ATOM     14  O   UNL A   1      39.165  31.466  36.116  1.00  0.00    -0.269 OA
BRANCH  13  15
ATOM     15  C   UNL A   1      39.726  30.247  34.213  1.00  0.00     0.040 A 
ATOM     16  C   UNL A   1      42.893  28.133  34.425  1.00  0.00     0.044 C 
ATOM     17  C   UNL A   1      41.526  28.613  34.038  1.00  0.00    -0.050 A 
ATOM     18  C   UNL A   1      40.721  27.829  33.201  1.00  0.00     0.006 A 
ATOM     19  C   UNL A   1      41.003  29.800  34.571  1.00  0.00     0.017 A 
ATOM     20  C   UNL A   1      39.419  28.229  32.878  1.00  0.00    -0.050 A 
ATOM     21  C   UNL A   1      38.531  27.312  32.088  1.00  0.00     0.044 C 
ATOM     22  C   UNL A   1      38.936  29.448  33.374  1.00  0.00     0.017 A 
ENDBRANCH  13  15
ENDBRANCH   8  13
ENDBRANCH   4   7
ENDBRANCH   2   3
ENDBRANCH   1   2
BRANCH   1  23
ATOM     23  C   UNL A   1      34.371  33.030  28.050  1.00  0.00     0.118 C 
BRANCH  23  24
ATOM     24  N   UNL A   1      33.653  31.824  27.668  1.00  0.00    -0.352 N 
ATOM     25  C   UNL A   1      34.070  30.522  27.569  1.00  0.00     0.251 C 
ATOM     26  H   UNL A   1      32.705  31.969  27.442  1.00  0.00     0.163 HD
ATOM     27  O   UNL A   1      33.297  29.687  27.096  1.00  0.00    -0.269 OA
BRANCH  25  28
ATOM     28  C   UNL A   1      35.426  30.100  27.990  1.00  0.00     0.039 A 
ATOM     29  C   UNL A   1      36.441  30.093  27.027  1.00  0.00     0.014 A 
ATOM     30  C   UNL A   1      35.705  29.660  29.286  1.00  0.00     0.014 A 
ATOM     31  C   UNL A   1      37.736  29.699  27.374  1.00  0.00     0.010 A 
ATOM     32  C   UNL A   1      37.013  29.333  29.651  1.00  0.00     0.010 A 
ATOM     33  C   UNL A   1      38.041  29.344  28.697  1.00  0.00    -0.014 A 
BRANCH  33  34
ATOM     34  C   UNL A   1      39.433  28.995  29.081  1.00  0.00     0.031 A 
ATOM     35  C   UNL A   1      40.269  29.942  29.899  1.00  0.00     0.074 A 
ATOM     36  C   UNL A   1      39.961  27.827  28.666  1.00  0.00     0.049 A 
ATOM     37  N   UNL A   1      41.489  29.785  30.348  1.00  0.00    -0.248 NA
ATOM     38  C   UNL A   1      39.664  31.238  30.244  1.00  0.00     0.031 C 
ATOM     39  C   UNL A   1      39.281  26.841  27.825  1.00  0.00     0.029 A 
ATOM     40  N   UNL A   1      41.193  27.269  28.903  1.00  0.00    -0.354 N 
ATOM     41  C   UNL A   1      41.803  30.963  31.012  1.00  0.00     0.074 A 
ATOM     42  C   UNL A   1      40.662  31.842  30.873  1.00  0.00     0.031 C 
ATOM     43  C   UNL A   1      40.088  25.783  27.648  1.00  0.00     0.029 A 
ATOM     44  C   UNL A   1      41.350  26.026  28.341  1.00  0.00     0.049 A 
ATOM     45  H   UNL A   1      41.895  27.716  29.428  1.00  0.00     0.167 HD
ATOM     46  C   UNL A   1      42.931  31.281  31.694  1.00  0.00     0.031 A 
ATOM     47  C   UNL A   1      42.388  25.171  28.384  1.00  0.00     0.031 A 
ATOM     48  C   UNL A   1      44.064  30.409  31.850  1.00  0.00     0.049 A 
ATOM     49  C   UNL A   1      43.615  25.536  29.168  1.00  0.00     0.074 A 
ATOM     50  C   UNL A   1      45.226  30.624  32.572  1.00  0.00     0.029 A 
ATOM     51  N   UNL A   1      44.176  29.153  31.276  1.00  0.00    -0.354 N 
ATOM     52  N   UNL A   1      43.865  26.626  29.850  1.00  0.00    -0.248 NA
ATOM     53  C   UNL A   1      44.698  24.541  29.199  1.00  0.00     0.031 C 
ATOM     54  C   UNL A   1      46.058  29.511  32.404  1.00  0.00     0.029 A 
ATOM     55  C   UNL A   1      45.395  28.587  31.614  1.00  0.00     0.049 A 
ATOM     56  H   UNL A   1      43.492  28.726  30.711  1.00  0.00     0.167 HD
ATOM     57  C   UNL A   1      45.121  26.440  30.411  1.00  0.00     0.074 A 
ATOM     58  C   UNL A   1      45.574  25.126  30.003  1.00  0.00     0.031 C 
ATOM     59  C   UNL A   1      45.836  27.283  31.195  1.00  0.00     0.031 A 
BRANCH  46  60
ATOM     60  C   UNL A   1      42.991  32.644  32.325  1.00  0.00    -0.014 A 
ATOM     61  C   UNL A   1      42.467  32.872  33.607  1.00  0.00     0.009 A 
ATOM     62  C   UNL A   1      43.608  33.705  31.643  1.00  0.00     0.009 A 
ATOM     63  C   UNL A   1      42.529  34.145  34.180  1.00  0.00     0.001 A 
ATOM     64  C   UNL A   1      43.691  34.970  32.228  1.00  0.00     0.001 A 
ATOM     65  C   UNL A   1      43.143  35.191  33.491  1.00  0.00     0.000 A 
ENDBRANCH  46  60
BRANCH  47  66
ATOM     66  C   UNL A   1      42.295  23.860  27.694  1.00  0.00    -0.014 A 
ATOM     67  C   UNL A   1      41.794  22.738  28.371  1.00  0.00     0.009 A 
ATOM     68  C   UNL A   1      42.708  23.724  26.361  1.00  0.00     0.009 A 
ATOM     69  C   UNL A   1      41.729  21.498  27.732  1.00  0.00     0.001 A 
ATOM     70  C   UNL A   1      42.620  22.488  25.718  1.00  0.00     0.001 A 
ATOM     71  C   UNL A   1      42.139  21.375  26.406  1.00  0.00     0.000 A 
ENDBRANCH  47  66
BRANCH  59  72
ATOM     72  C   UNL A   1      47.171  26.795  31.680  1.00  0.00    -0.014 A 
ATOM     73  C   UNL A   1      48.351  27.099  30.984  1.00  0.00     0.009 A 
ATOM     74  C   UNL A   1      47.248  26.034  32.856  1.00  0.00     0.009 A 
ATOM     75  C   UNL A   1      49.581  26.617  31.438  1.00  0.00     0.001 A 
ATOM     76  C   UNL A   1      48.481  25.574  33.321  1.00  0.00     0.001 A 
ATOM     77  C   UNL A   1      49.645  25.857  32.606  1.00  0.00     0.000 A 
ENDBRANCH  59  72
ENDBRANCH  33  34
ENDBRANCH  25  28
ENDBRANCH  23  24
ENDBRANCH   1  23
TORSDOF 12
ENDMDL
