MODEL 1
REMARK VINA RESULT:     -12.3      0.000      0.000
REMARK SMILES Cc1sc(NC(=O)[C@@H]2[C@@H](C(=O)NCCCNC(=O)c3ccc(-c4c5nc(c(-c6ccccc6)c6ccc([nH]6)c(-c6ccccc6)c6nc(c(-c7ccccc7)c7ccc4[nH]7)C=C6)C=C5)cc3)[C@@H]3C=C[C@H]2C3)c(C#N)c1C
REMARK SMILES IDX 13 1 12 2 10 3 11 4 9 6 8 7 70 8 67 9 69 10 71 11 68 12 6 13
REMARK SMILES IDX 5 14 7 16 4 17 1 18 2 19 3 20 75 21 72 22 76 23 73 24 74 25
REMARK SMILES IDX 14 26 15 27 16 28 17 29 18 31 19 32 20 33 66 34 21 35 65 36
REMARK SMILES IDX 22 37 23 38 24 39 59 40 25 41 64 42 58 43 60 44 26 45 63 46
REMARK SMILES IDX 57 47 56 48 27 50 49 51 34 52 48 53 35 54 38 55 47 56 61 57
REMARK SMILES IDX 36 58 37 59 46 61 62 62 39 63 28 64 29 65 33 66 30 67 32 68
REMARK SMILES IDX 31 69 50 70 51 71 55 72 52 73 54 74 53 75 40 76 41 77 45 78
REMARK SMILES IDX 42 79 44 80 43 81
REMARK H PARENT 12 5 5 15 16 30 60 49 38 60
REMARK Flexibility Score: inf
ROOT
ATOM      1  C   UNL A   1      37.294  20.853  24.815  1.00  0.00     0.117 C 
ENDROOT
BRANCH   1   2
ATOM      2  N   UNL A   1      36.424  21.126  25.952  1.00  0.00    -0.356 N 
ATOM      3  C   UNL A   1      35.074  21.314  26.003  1.00  0.00     0.224 C 
ATOM      4  O   UNL A   1      34.551  21.424  27.113  1.00  0.00    -0.275 OA
ATOM      5  H   UNL A   1      36.883  21.185  26.821  1.00  0.00     0.163 HD
BRANCH   3   6
ATOM      6  C   UNL A   1      34.287  21.472  24.716  1.00  0.00     0.098 C 
ATOM      7  C   UNL A   1      33.762  22.941  24.602  1.00  0.00     0.099 C 
ATOM      8  C   UNL A   1      32.250  22.731  24.325  1.00  0.00     0.025 C 
ATOM      9  C   UNL A   1      32.969  20.653  24.739  1.00  0.00     0.025 C 
ATOM     10  C   UNL A   1      32.049  21.919  23.059  1.00  0.00    -0.027 C 
ATOM     11  C   UNL A   1      31.948  21.627  25.342  1.00  0.00     0.017 C 
ATOM     12  C   UNL A   1      32.462  20.667  23.314  1.00  0.00    -0.027 C 
BRANCH   7  13
ATOM     13  C   UNL A   1      34.437  23.788  23.543  1.00  0.00     0.229 C 
ATOM     14  N   UNL A   1      34.156  25.111  23.335  1.00  0.00    -0.316 N 
ATOM     15  H   UNL A   1      34.581  25.468  22.522  1.00  0.00     0.170 HD
ATOM     16  O   UNL A   1      35.304  23.300  22.807  1.00  0.00    -0.274 OA
BRANCH  14  17
ATOM     17  C   UNL A   1      33.406  26.062  24.014  1.00  0.00     0.113 A 
ATOM     18  C   UNL A   1      32.486  28.647  26.816  1.00  0.00     0.057 C 
ATOM     19  C   UNL A   1      32.572  27.773  25.608  1.00  0.00     0.008 A 
ATOM     20  S   UNL A   1      33.733  26.531  25.604  1.00  0.00    -0.122 S 
ATOM     21  C   UNL A   1      31.828  27.777  24.439  1.00  0.00    -0.017 A 
ATOM     22  C   UNL A   1      32.319  26.768  23.524  1.00  0.00     0.090 A 
ATOM     23  C   UNL A   1      30.690  28.701  24.131  1.00  0.00     0.047 C 
BRANCH  22  24
ATOM     24  C   UNL A   1      31.768  26.549  22.209  1.00  0.00     0.103 C 
ATOM     25  N   UNL A   1      31.327  26.388  21.160  1.00  0.00    -0.192 NA
ENDBRANCH  22  24
ENDBRANCH  14  17
ENDBRANCH   7  13
ENDBRANCH   3   6
ENDBRANCH   1   2
BRANCH   1  26
ATOM     26  C   UNL A   1      38.247  19.682  25.050  1.00  0.00     0.042 C 
BRANCH  26  27
ATOM     27  C   UNL A   1      39.356  20.012  26.035  1.00  0.00     0.118 C 
BRANCH  27  28
ATOM     28  N   UNL A   1      40.594  19.247  25.824  1.00  0.00    -0.352 N 
ATOM     29  C   UNL A   1      41.902  19.708  25.758  1.00  0.00     0.251 C 
ATOM     30  H   UNL A   1      40.480  18.275  25.715  1.00  0.00     0.163 HD
ATOM     31  O   UNL A   1      42.782  19.031  25.238  1.00  0.00    -0.269 OA
BRANCH  29  32
ATOM     32  C   UNL A   1      42.228  21.020  26.352  1.00  0.00     0.039 A 
ATOM     33  C   UNL A   1      42.572  22.153  25.607  1.00  0.00     0.014 A 
ATOM     34  C   UNL A   1      42.124  21.107  27.730  1.00  0.00     0.014 A 
ATOM     35  C   UNL A   1      42.810  23.350  26.290  1.00  0.00     0.010 A 
ATOM     36  C   UNL A   1      41.965  22.329  28.300  1.00  0.00     0.010 A 
ATOM     37  C   UNL A   1      42.517  23.415  27.661  1.00  0.00    -0.014 A 
BRANCH  37  38
ATOM     38  C   UNL A   1      42.564  24.632  28.458  1.00  0.00     0.031 A 
ATOM     39  C   UNL A   1      41.420  25.516  28.147  1.00  0.00     0.074 A 
ATOM     40  C   UNL A   1      43.384  24.800  29.528  1.00  0.00     0.049 A 
ATOM     41  N   UNL A   1      41.450  26.568  27.403  1.00  0.00    -0.248 NA
ATOM     42  C   UNL A   1      40.054  25.057  28.472  1.00  0.00     0.031 C 
ATOM     43  C   UNL A   1      44.335  23.852  30.127  1.00  0.00     0.029 A 
ATOM     44  N   UNL A   1      43.486  25.863  30.376  1.00  0.00    -0.354 N 
ATOM     45  C   UNL A   1      40.153  27.061  27.409  1.00  0.00     0.074 A 
ATOM     46  C   UNL A   1      39.316  25.971  27.838  1.00  0.00     0.031 C 
ATOM     47  C   UNL A   1      44.735  24.299  31.345  1.00  0.00     0.029 A 
ATOM     48  C   UNL A   1      44.195  25.630  31.559  1.00  0.00     0.049 A 
ATOM     49  H   UNL A   1      43.087  26.739  30.169  1.00  0.00     0.167 HD
ATOM     50  C   UNL A   1      39.935  28.405  27.404  1.00  0.00     0.031 A 
ATOM     51  C   UNL A   1      44.311  26.477  32.623  1.00  0.00     0.031 A 
ATOM     52  C   UNL A   1      41.154  29.117  27.087  1.00  0.00     0.049 A 
ATOM     53  C   UNL A   1      43.952  27.830  32.139  1.00  0.00     0.074 A 
ATOM     54  C   UNL A   1      42.027  29.134  26.018  1.00  0.00     0.029 A 
ATOM     55  N   UNL A   1      41.853  29.617  28.161  1.00  0.00    -0.354 N 
ATOM     56  N   UNL A   1      44.681  28.495  31.293  1.00  0.00    -0.248 NA
ATOM     57  C   UNL A   1      42.550  28.209  32.201  1.00  0.00     0.031 C 
ATOM     58  C   UNL A   1      43.326  29.205  26.605  1.00  0.00     0.029 A 
ATOM     59  C   UNL A   1      43.184  29.348  27.986  1.00  0.00     0.049 A 
ATOM     60  H   UNL A   1      41.460  30.090  28.930  1.00  0.00     0.167 HD
ATOM     61  C   UNL A   1      43.767  29.010  30.387  1.00  0.00     0.074 A 
ATOM     62  C   UNL A   1      42.463  28.864  31.041  1.00  0.00     0.031 C 
ATOM     63  C   UNL A   1      44.117  29.203  29.080  1.00  0.00     0.031 A 
BRANCH  50  64
ATOM     64  C   UNL A   1      38.812  29.073  28.166  1.00  0.00    -0.014 A 
ATOM     65  C   UNL A   1      38.703  28.809  29.543  1.00  0.00     0.009 A 
ATOM     66  C   UNL A   1      37.709  29.705  27.561  1.00  0.00     0.009 A 
ATOM     67  C   UNL A   1      37.523  29.070  30.248  1.00  0.00     0.001 A 
ATOM     68  C   UNL A   1      36.541  30.002  28.269  1.00  0.00     0.001 A 
ATOM     69  C   UNL A   1      36.438  29.656  29.607  1.00  0.00     0.000 A 
ENDBRANCH  50  64
BRANCH  51  70
ATOM     70  C   UNL A   1      44.409  26.220  34.087  1.00  0.00    -0.014 A 
ATOM     71  C   UNL A   1      43.356  25.583  34.778  1.00  0.00     0.009 A 
ATOM     72  C   UNL A   1      45.655  26.284  34.732  1.00  0.00     0.009 A 
ATOM     73  C   UNL A   1      43.562  24.983  36.032  1.00  0.00     0.001 A 
ATOM     74  C   UNL A   1      45.859  25.684  35.984  1.00  0.00     0.001 A 
ATOM     75  C   UNL A   1      44.819  25.016  36.626  1.00  0.00     0.000 A 
ENDBRANCH  51  70
BRANCH  63  76
ATOM     76  C   UNL A   1      45.581  29.086  28.719  1.00  0.00    -0.014 A 
ATOM     77  C   UNL A   1      46.220  27.883  28.363  1.00  0.00     0.009 A 
ATOM     78  C   UNL A   1      46.317  30.275  28.630  1.00  0.00     0.009 A 
ATOM     79  C   UNL A   1      47.567  27.874  27.975  1.00  0.00     0.001 A 
ATOM     80  C   UNL A   1      47.651  30.270  28.221  1.00  0.00     0.001 A 
ATOM     81  C   UNL A   1      48.279  29.069  27.904  1.00  0.00     0.000 A 
ENDBRANCH  63  76
ENDBRANCH  37  38
ENDBRANCH  29  32
ENDBRANCH  27  28
ENDBRANCH  26  27
ENDBRANCH   1  26
TORSDOF 13
ENDMDL
MODEL 2
REMARK VINA RESULT:     -12.1      4.003      8.866
REMARK SMILES Cc1sc(NC(=O)[C@@H]2[C@@H](C(=O)NCCCNC(=O)c3ccc(-c4c5nc(c(-c6ccccc6)c6ccc([nH]6)c(-c6ccccc6)c6nc(c(-c7ccccc7)c7ccc4[nH]7)C=C6)C=C5)cc3)[C@@H]3C=C[C@H]2C3)c(C#N)c1C
REMARK SMILES IDX 13 1 12 2 10 3 11 4 9 6 8 7 70 8 67 9 69 10 71 11 68 12 6 13
REMARK SMILES IDX 5 14 7 16 4 17 1 18 2 19 3 20 75 21 72 22 76 23 73 24 74 25
REMARK SMILES IDX 14 26 15 27 16 28 17 29 18 31 19 32 20 33 66 34 21 35 65 36
REMARK SMILES IDX 22 37 23 38 24 39 59 40 25 41 64 42 58 43 60 44 26 45 63 46
REMARK SMILES IDX 57 47 56 48 27 50 49 51 34 52 48 53 35 54 38 55 47 56 61 57
REMARK SMILES IDX 36 58 37 59 46 61 62 62 39 63 28 64 29 65 33 66 30 67 32 68
REMARK SMILES IDX 31 69 50 70 51 71 55 72 52 73 54 74 53 75 40 76 41 77 45 78
REMARK SMILES IDX 42 79 44 80 43 81
REMARK H PARENT 12 5 5 15 16 30 60 49 38 60
REMARK Flexibility Score: inf
ROOT
ATOM      1  C   UNL A   1      31.630  30.476  26.432  1.00  0.00     0.117 C 
ENDROOT
BRANCH   1   2
ATOM      2  N   UNL A   1      32.393  30.172  25.229  1.00  0.00    -0.356 N 
ATOM      3  C   UNL A   1      32.173  29.239  24.260  1.00  0.00     0.224 C 
ATOM      4  O   UNL A   1      32.911  29.250  23.273  1.00  0.00    -0.275 OA
ATOM      5  H   UNL A   1      33.195  30.728  25.095  1.00  0.00     0.163 HD
BRANCH   3   6
ATOM      6  C   UNL A   1      31.108  28.178  24.463  1.00  0.00     0.098 C 
ATOM      7  C   UNL A   1      31.790  26.784  24.653  1.00  0.00     0.099 C 
ATOM      8  C   UNL A   1      31.043  25.906  23.613  1.00  0.00     0.025 C 
ATOM      9  C   UNL A   1      30.258  27.957  23.184  1.00  0.00     0.025 C 
ATOM     10  C   UNL A   1      29.553  25.893  23.901  1.00  0.00    -0.027 C 
ATOM     11  C   UNL A   1      31.027  26.869  22.422  1.00  0.00     0.017 C 
ATOM     12  C   UNL A   1      29.079  27.118  23.623  1.00  0.00    -0.027 C 
BRANCH   7  13
ATOM     13  C   UNL A   1      31.718  26.215  26.055  1.00  0.00     0.229 C 
ATOM     14  N   UNL A   1      32.360  25.071  26.445  1.00  0.00    -0.316 N 
ATOM     15  H   UNL A   1      32.094  24.772  27.344  1.00  0.00     0.170 HD
ATOM     16  O   UNL A   1      31.061  26.789  26.932  1.00  0.00    -0.274 OA
BRANCH  14  17
ATOM     17  C   UNL A   1      33.301  24.236  25.855  1.00  0.00     0.113 A 
ATOM     18  C   UNL A   1      36.827  23.000  24.665  1.00  0.00     0.057 C 
ATOM     19  C   UNL A   1      35.387  23.183  25.018  1.00  0.00     0.008 A 
ATOM     20  S   UNL A   1      34.875  24.734  25.494  1.00  0.00    -0.122 S 
ATOM     21  C   UNL A   1      34.336  22.281  25.010  1.00  0.00    -0.017 A 
ATOM     22  C   UNL A   1      33.125  22.911  25.490  1.00  0.00     0.090 A 
ATOM     23  C   UNL A   1      34.421  20.845  24.592  1.00  0.00     0.047 C 
BRANCH  22  24
ATOM     24  C   UNL A   1      31.866  22.220  25.627  1.00  0.00     0.103 C 
ATOM     25  N   UNL A   1      30.871  21.657  25.742  1.00  0.00    -0.192 NA
ENDBRANCH  22  24
ENDBRANCH  14  17
ENDBRANCH   7  13
ENDBRANCH   3   6
ENDBRANCH   1   2
BRANCH   1  26
ATOM     26  C   UNL A   1      31.454  31.975  26.676  1.00  0.00     0.042 C 
BRANCH  26  27
ATOM     27  C   UNL A   1      32.739  32.655  27.120  1.00  0.00     0.118 C 
BRANCH  27  28
ATOM     28  N   UNL A   1      32.537  33.969  27.748  1.00  0.00    -0.352 N 
ATOM     29  C   UNL A   1      33.153  34.501  28.873  1.00  0.00     0.251 C 
ATOM     30  H   UNL A   1      31.875  34.552  27.310  1.00  0.00     0.163 HD
ATOM     31  O   UNL A   1      32.651  35.439  29.480  1.00  0.00    -0.269 OA
BRANCH  29  32
ATOM     32  C   UNL A   1      34.444  33.936  29.314  1.00  0.00     0.039 A 
ATOM     33  C   UNL A   1      34.582  33.032  30.373  1.00  0.00     0.014 A 
ATOM     34  C   UNL A   1      35.555  34.307  28.577  1.00  0.00     0.014 A 
ATOM     35  C   UNL A   1      35.857  32.533  30.659  1.00  0.00     0.010 A 
ATOM     36  C   UNL A   1      36.662  33.522  28.616  1.00  0.00     0.010 A 
ATOM     37  C   UNL A   1      36.906  32.810  29.769  1.00  0.00    -0.014 A 
BRANCH  37  38
ATOM     38  C   UNL A   1      38.237  32.229  29.855  1.00  0.00     0.031 A 
ATOM     39  C   UNL A   1      38.226  30.811  29.433  1.00  0.00     0.074 A 
ATOM     40  C   UNL A   1      39.368  32.960  30.030  1.00  0.00     0.049 A 
ATOM     41  N   UNL A   1      38.245  29.784  30.212  1.00  0.00    -0.248 NA
ATOM     42  C   UNL A   1      37.903  30.486  28.029  1.00  0.00     0.031 C 
ATOM     43  C   UNL A   1      39.525  34.418  30.133  1.00  0.00     0.029 A 
ATOM     44  N   UNL A   1      40.666  32.541  30.078  1.00  0.00    -0.354 N 
ATOM     45  C   UNL A   1      38.226  28.682  29.369  1.00  0.00     0.074 A 
ATOM     46  C   UNL A   1      37.749  29.162  28.099  1.00  0.00     0.031 C 
ATOM     47  C   UNL A   1      40.833  34.757  30.006  1.00  0.00     0.029 A 
ATOM     48  C   UNL A   1      41.632  33.545  29.962  1.00  0.00     0.049 A 
ATOM     49  H   UNL A   1      40.906  31.593  30.187  1.00  0.00     0.167 HD
ATOM     50  C   UNL A   1      38.935  27.566  29.692  1.00  0.00     0.031 A 
ATOM     51  C   UNL A   1      42.980  33.373  29.835  1.00  0.00     0.031 A 
ATOM     52  C   UNL A   1      39.374  27.623  31.069  1.00  0.00     0.049 A 
ATOM     53  C   UNL A   1      43.282  31.995  30.288  1.00  0.00     0.074 A 
ATOM     54  C   UNL A   1      38.745  27.723  32.294  1.00  0.00     0.029 A 
ATOM     55  N   UNL A   1      40.669  28.041  31.268  1.00  0.00    -0.354 N 
ATOM     56  N   UNL A   1      43.164  31.616  31.526  1.00  0.00    -0.248 NA
ATOM     57  C   UNL A   1      43.220  30.937  29.294  1.00  0.00     0.031 C 
ATOM     58  C   UNL A   1      39.552  28.625  33.050  1.00  0.00     0.029 A 
ATOM     59  C   UNL A   1      40.690  28.937  32.304  1.00  0.00     0.049 A 
ATOM     60  H   UNL A   1      41.453  27.746  30.751  1.00  0.00     0.167 HD
ATOM     61  C   UNL A   1      42.528  30.387  31.446  1.00  0.00     0.074 A 
ATOM     62  C   UNL A   1      42.656  29.985  30.041  1.00  0.00     0.031 C 
ATOM     63  C   UNL A   1      41.689  29.972  32.441  1.00  0.00     0.031 A 
BRANCH  50  64
ATOM     64  C   UNL A   1      39.652  26.706  28.675  1.00  0.00    -0.014 A 
ATOM     65  C   UNL A   1      40.584  27.332  27.828  1.00  0.00     0.009 A 
ATOM     66  C   UNL A   1      39.260  25.402  28.320  1.00  0.00     0.009 A 
ATOM     67  C   UNL A   1      41.019  26.727  26.643  1.00  0.00     0.001 A 
ATOM     68  C   UNL A   1      39.720  24.778  27.157  1.00  0.00     0.001 A 
ATOM     69  C   UNL A   1      40.577  25.453  26.302  1.00  0.00     0.000 A 
ENDBRANCH  50  64
BRANCH  51  70
ATOM     70  C   UNL A   1      44.011  34.146  29.090  1.00  0.00    -0.014 A 
ATOM     71  C   UNL A   1      43.957  34.252  27.684  1.00  0.00     0.009 A 
ATOM     72  C   UNL A   1      44.839  35.055  29.770  1.00  0.00     0.009 A 
ATOM     73  C   UNL A   1      44.651  35.264  26.998  1.00  0.00     0.001 A 
ATOM     74  C   UNL A   1      45.531  36.065  29.085  1.00  0.00     0.001 A 
ATOM     75  C   UNL A   1      45.423  36.182  27.702  1.00  0.00     0.000 A 
ENDBRANCH  51  70
BRANCH  63  76
ATOM     76  C   UNL A   1      41.680  30.764  33.729  1.00  0.00    -0.014 A 
ATOM     77  C   UNL A   1      42.492  30.482  34.844  1.00  0.00     0.009 A 
ATOM     78  C   UNL A   1      40.885  31.918  33.767  1.00  0.00     0.009 A 
ATOM     79  C   UNL A   1      42.470  31.310  35.975  1.00  0.00     0.001 A 
ATOM     80  C   UNL A   1      40.880  32.756  34.883  1.00  0.00     0.001 A 
ATOM     81  C   UNL A   1      41.663  32.446  35.991  1.00  0.00     0.000 A 
ENDBRANCH  63  76
ENDBRANCH  37  38
ENDBRANCH  29  32
ENDBRANCH  27  28
ENDBRANCH  26  27
ENDBRANCH   1  26
TORSDOF 13
ENDMDL
MODEL 3
REMARK VINA RESULT:     -11.9      1.448      2.169
REMARK SMILES Cc1sc(NC(=O)[C@@H]2[C@@H](C(=O)NCCCNC(=O)c3ccc(-c4c5nc(c(-c6ccccc6)c6ccc([nH]6)c(-c6ccccc6)c6nc(c(-c7ccccc7)c7ccc4[nH]7)C=C6)C=C5)cc3)[C@@H]3C=C[C@H]2C3)c(C#N)c1C
REMARK SMILES IDX 13 1 12 2 10 3 11 4 9 6 8 7 70 8 67 9 69 10 71 11 68 12 6 13
REMARK SMILES IDX 5 14 7 16 4 17 1 18 2 19 3 20 75 21 72 22 76 23 73 24 74 25
REMARK SMILES IDX 14 26 15 27 16 28 17 29 18 31 19 32 20 33 66 34 21 35 65 36
REMARK SMILES IDX 22 37 23 38 24 39 59 40 25 41 64 42 58 43 60 44 26 45 63 46
REMARK SMILES IDX 57 47 56 48 27 50 49 51 34 52 48 53 35 54 38 55 47 56 61 57
REMARK SMILES IDX 36 58 37 59 46 61 62 62 39 63 28 64 29 65 33 66 30 67 32 68
REMARK SMILES IDX 31 69 50 70 51 71 55 72 52 73 54 74 53 75 40 76 41 77 45 78
REMARK SMILES IDX 42 79 44 80 43 81
REMARK H PARENT 12 5 5 15 16 30 60 49 38 60
REMARK Flexibility Score: inf
ROOT
ATOM      1  C   UNL A   1      37.301  20.088  24.634  1.00  0.00     0.117 C 
ENDROOT
BRANCH   1   2
ATOM      2  N   UNL A   1      36.212  20.710  25.376  1.00  0.00    -0.356 N 
ATOM      3  C   UNL A   1      34.873  20.455  25.352  1.00  0.00     0.224 C 
ATOM      4  O   UNL A   1      34.160  21.050  26.162  1.00  0.00    -0.275 OA
ATOM      5  H   UNL A   1      36.486  21.428  25.992  1.00  0.00     0.163 HD
BRANCH   3   6
ATOM      6  C   UNL A   1      34.299  19.536  24.290  1.00  0.00     0.098 C 
ATOM      7  C   UNL A   1      32.759  19.775  24.169  1.00  0.00     0.099 C 
ATOM      8  C   UNL A   1      32.190  18.337  24.294  1.00  0.00     0.025 C 
ATOM      9  C   UNL A   1      34.368  18.045  24.716  1.00  0.00     0.025 C 
ATOM     10  C   UNL A   1      32.750  17.447  23.201  1.00  0.00    -0.027 C 
ATOM     11  C   UNL A   1      33.042  17.819  25.456  1.00  0.00     0.017 C 
ATOM     12  C   UNL A   1      34.052  17.255  23.465  1.00  0.00    -0.027 C 
BRANCH   7  13
ATOM     13  C   UNL A   1      32.312  20.471  22.899  1.00  0.00     0.229 C 
ATOM     14  N   UNL A   1      32.061  21.814  22.816  1.00  0.00    -0.316 N 
ATOM     15  H   UNL A   1      31.649  22.072  21.961  1.00  0.00     0.170 HD
ATOM     16  O   UNL A   1      32.160  19.830  21.852  1.00  0.00    -0.274 OA
BRANCH  14  17
ATOM     17  C   UNL A   1      32.259  22.893  23.668  1.00  0.00     0.113 A 
ATOM     18  C   UNL A   1      31.462  25.479  26.506  1.00  0.00     0.057 C 
ATOM     19  C   UNL A   1      32.052  24.634  25.425  1.00  0.00     0.008 A 
ATOM     20  S   UNL A   1      31.014  23.595  24.569  1.00  0.00    -0.122 S 
ATOM     21  C   UNL A   1      33.353  24.552  24.956  1.00  0.00    -0.017 A 
ATOM     22  C   UNL A   1      33.456  23.541  23.925  1.00  0.00     0.090 A 
ATOM     23  C   UNL A   1      34.511  25.366  25.446  1.00  0.00     0.047 C 
BRANCH  22  24
ATOM     24  C   UNL A   1      34.691  23.200  23.263  1.00  0.00     0.103 C 
ATOM     25  N   UNL A   1      35.668  22.919  22.726  1.00  0.00    -0.192 NA
ENDBRANCH  22  24
ENDBRANCH  14  17
ENDBRANCH   7  13
ENDBRANCH   3   6
ENDBRANCH   1   2
BRANCH   1  26
ATOM     26  C   UNL A   1      38.680  20.623  25.022  1.00  0.00     0.042 C 
BRANCH  26  27
ATOM     27  C   UNL A   1      39.287  19.887  26.205  1.00  0.00     0.118 C 
BRANCH  27  28
ATOM     28  N   UNL A   1      40.527  19.163  25.890  1.00  0.00    -0.352 N 
ATOM     29  C   UNL A   1      41.812  19.664  25.729  1.00  0.00     0.251 C 
ATOM     30  H   UNL A   1      40.433  18.188  25.779  1.00  0.00     0.163 HD
ATOM     31  O   UNL A   1      42.668  19.019  25.135  1.00  0.00    -0.269 OA
BRANCH  29  32
ATOM     32  C   UNL A   1      42.143  20.979  26.312  1.00  0.00     0.039 A 
ATOM     33  C   UNL A   1      42.424  22.122  25.556  1.00  0.00     0.014 A 
ATOM     34  C   UNL A   1      42.113  21.058  27.694  1.00  0.00     0.014 A 
ATOM     35  C   UNL A   1      42.675  23.321  26.232  1.00  0.00     0.010 A 
ATOM     36  C   UNL A   1      41.961  22.273  28.279  1.00  0.00     0.010 A 
ATOM     37  C   UNL A   1      42.456  23.373  27.617  1.00  0.00    -0.014 A 
BRANCH  37  38
ATOM     38  C   UNL A   1      42.523  24.587  28.418  1.00  0.00     0.031 A 
ATOM     39  C   UNL A   1      41.382  25.481  28.123  1.00  0.00     0.074 A 
ATOM     40  C   UNL A   1      43.357  24.745  29.478  1.00  0.00     0.049 A 
ATOM     41  N   UNL A   1      41.413  26.536  27.382  1.00  0.00    -0.248 NA
ATOM     42  C   UNL A   1      40.017  25.033  28.463  1.00  0.00     0.031 C 
ATOM     43  C   UNL A   1      44.307  23.787  30.063  1.00  0.00     0.029 A 
ATOM     44  N   UNL A   1      43.477  25.804  30.329  1.00  0.00    -0.354 N 
ATOM     45  C   UNL A   1      40.120  27.039  27.405  1.00  0.00     0.074 A 
ATOM     46  C   UNL A   1      39.279  25.955  27.840  1.00  0.00     0.031 C 
ATOM     47  C   UNL A   1      44.724  24.227  31.278  1.00  0.00     0.029 A 
ATOM     48  C   UNL A   1      44.198  25.561  31.503  1.00  0.00     0.049 A 
ATOM     49  H   UNL A   1      43.083  26.683  30.129  1.00  0.00     0.167 HD
ATOM     50  C   UNL A   1      39.913  28.385  27.407  1.00  0.00     0.031 A 
ATOM     51  C   UNL A   1      44.334  26.403  32.568  1.00  0.00     0.031 A 
ATOM     52  C   UNL A   1      41.133  29.087  27.078  1.00  0.00     0.049 A 
ATOM     53  C   UNL A   1      43.980  27.761  32.092  1.00  0.00     0.074 A 
ATOM     54  C   UNL A   1      41.995  29.101  25.999  1.00  0.00     0.029 A 
ATOM     55  N   UNL A   1      41.849  29.578  28.145  1.00  0.00    -0.354 N 
ATOM     56  N   UNL A   1      44.705  28.423  31.240  1.00  0.00    -0.248 NA
ATOM     57  C   UNL A   1      42.582  28.152  32.172  1.00  0.00     0.031 C 
ATOM     58  C   UNL A   1      43.301  29.159  26.571  1.00  0.00     0.029 A 
ATOM     59  C   UNL A   1      43.175  29.300  27.954  1.00  0.00     0.049 A 
ATOM     60  H   UNL A   1      41.469  30.053  28.920  1.00  0.00     0.167 HD
ATOM     61  C   UNL A   1      43.785  28.948  30.346  1.00  0.00     0.074 A 
ATOM     62  C   UNL A   1      42.487  28.811  31.015  1.00  0.00     0.031 C 
ATOM     63  C   UNL A   1      44.121  29.143  29.037  1.00  0.00     0.031 A 
BRANCH  50  64
ATOM     64  C   UNL A   1      38.804  29.060  28.184  1.00  0.00    -0.014 A 
ATOM     65  C   UNL A   1      38.725  28.811  29.566  1.00  0.00     0.009 A 
ATOM     66  C   UNL A   1      37.688  29.682  27.594  1.00  0.00     0.009 A 
ATOM     67  C   UNL A   1      37.559  29.078  30.292  1.00  0.00     0.001 A 
ATOM     68  C   UNL A   1      36.534  29.985  28.323  1.00  0.00     0.001 A 
ATOM     69  C   UNL A   1      36.459  29.655  29.667  1.00  0.00     0.000 A 
ENDBRANCH  50  64
BRANCH  51  70
ATOM     70  C   UNL A   1      44.446  26.141  34.029  1.00  0.00    -0.014 A 
ATOM     71  C   UNL A   1      45.062  27.080  34.885  1.00  0.00     0.009 A 
ATOM     72  C   UNL A   1      43.655  25.148  34.630  1.00  0.00     0.009 A 
ATOM     73  C   UNL A   1      44.843  27.060  36.272  1.00  0.00     0.001 A 
ATOM     74  C   UNL A   1      43.436  25.129  36.016  1.00  0.00     0.001 A 
ATOM     75  C   UNL A   1      44.013  26.096  36.836  1.00  0.00     0.000 A 
ENDBRANCH  51  70
BRANCH  63  76
ATOM     76  C   UNL A   1      45.579  29.015  28.658  1.00  0.00    -0.014 A 
ATOM     77  C   UNL A   1      46.493  30.086  28.634  1.00  0.00     0.009 A 
ATOM     78  C   UNL A   1      46.069  27.724  28.420  1.00  0.00     0.009 A 
ATOM     79  C   UNL A   1      47.845  29.867  28.337  1.00  0.00     0.001 A 
ATOM     80  C   UNL A   1      47.419  27.502  28.148  1.00  0.00     0.001 A 
ATOM     81  C   UNL A   1      48.305  28.574  28.095  1.00  0.00     0.000 A 
ENDBRANCH  63  76
ENDBRANCH  37  38
ENDBRANCH  29  32
ENDBRANCH  27  28
ENDBRANCH  26  27
ENDBRANCH   1  26
TORSDOF 13
ENDMDL
