MODEL 1
REMARK VINA RESULT:     -11.0      0.000      0.000
REMARK SMILES [NH3+][C@H](c1ccc(C(=O)NCCCNC(=O)c2ccc(-c3c4nc(c(-c5ccccc5)c5ccc([nH]5)c(-c5ccccc5)c5nc(c(-c6ccccc6)c6ccc3[nH]6)C=C5)C=C4)cc2)cc1Cl)C(F)(F)F
REMARK SMILES IDX 11 1 10 2 9 3 7 4 8 5 6 7 3 8 4 9 65 10 5 11 64 12 66 13
REMARK SMILES IDX 2 14 1 15 67 19 68 20 69 21 70 22 12 23 13 24 14 25 15 27
REMARK SMILES IDX 16 28 17 29 63 30 18 31 62 32 19 33 20 34 21 35 56 36 22 37
REMARK SMILES IDX 61 38 55 39 57 40 23 41 60 42 54 43 53 44 24 46 46 47 31 48
REMARK SMILES IDX 45 49 32 50 35 51 44 52 58 53 33 54 34 55 43 57 59 58 36 59
REMARK SMILES IDX 25 60 26 61 30 62 27 63 29 64 28 65 47 66 48 67 52 68 49 69
REMARK SMILES IDX 51 70 50 71 37 72 38 73 42 74 39 75 41 76 40 77
REMARK H PARENT 9 6 1 16 1 17 1 18 13 26 57 45 35 56
REMARK Flexibility Score: inf
ROOT
ATOM      1  C   UNL A   1      32.974  27.747  26.201  1.00  0.00     0.042 C 
ENDROOT
BRANCH   1   2
ATOM      2  C   UNL A   1      31.860  26.703  26.273  1.00  0.00     0.118 C 
BRANCH   2   3
ATOM      3  N   UNL A   1      31.878  25.830  25.113  1.00  0.00    -0.352 N 
ATOM      4  C   UNL A   1      31.433  26.006  23.828  1.00  0.00     0.251 C 
ATOM      5  O   UNL A   1      31.667  25.119  23.009  1.00  0.00    -0.269 OA
ATOM      6  H   UNL A   1      32.284  24.949  25.279  1.00  0.00     0.163 HD
BRANCH   4   7
ATOM      7  C   UNL A   1      30.723  27.232  23.375  1.00  0.00     0.041 A 
ATOM      8  C   UNL A   1      29.503  29.644  22.420  1.00  0.00     0.037 A 
ATOM      9  C   UNL A   1      30.876  29.376  22.236  1.00  0.00     0.012 A 
ATOM     10  C   UNL A   1      28.750  28.616  23.026  1.00  0.00     0.051 A 
ATOM     11  C   UNL A   1      31.472  28.195  22.699  1.00  0.00     0.014 A 
ATOM     12  C   UNL A   1      29.354  27.437  23.501  1.00  0.00     0.034 A 
ATOM     13  Cl  UNL A   1      27.027  28.681  23.207  1.00  0.00    -0.084 Cl
BRANCH   8  14
ATOM     14  C   UNL A   1      28.882  30.956  21.892  1.00  0.00     0.320 C 
BRANCH  14  15
ATOM     15  N   UNL A   1      27.766  30.700  20.939  1.00  0.00    -0.344 N 
ATOM     16  H   UNL A   1      27.561  29.702  20.915  1.00  0.00     0.345 HD
ATOM     17  H   UNL A   1      28.036  31.014  20.007  1.00  0.00     0.345 HD
ATOM     18  H   UNL A   1      26.936  31.210  21.243  1.00  0.00     0.345 HD
ENDBRANCH  14  15
BRANCH  14  19
ATOM     19  C   UNL A   1      28.430  31.978  22.997  1.00  0.00     0.445 C 
ATOM     20  F   UNL A   1      28.541  33.260  22.576  1.00  0.00    -0.165 F 
ATOM     21  F   UNL A   1      27.135  31.797  23.348  1.00  0.00    -0.165 F 
ATOM     22  F   UNL A   1      29.174  31.846  24.123  1.00  0.00    -0.165 F 
ENDBRANCH  14  19
ENDBRANCH   8  14
ENDBRANCH   4   7
ENDBRANCH   2   3
ENDBRANCH   1   2
BRANCH   1  23
ATOM     23  C   UNL A   1      33.322  28.370  27.550  1.00  0.00     0.118 C 
BRANCH  23  24
ATOM     24  N   UNL A   1      33.378  29.821  27.484  1.00  0.00    -0.352 N 
ATOM     25  C   UNL A   1      34.361  30.691  27.885  1.00  0.00     0.251 C 
ATOM     26  H   UNL A   1      32.584  30.248  27.089  1.00  0.00     0.163 HD
ATOM     27  O   UNL A   1      34.110  31.892  27.943  1.00  0.00    -0.269 OA
BRANCH  25  28
ATOM     28  C   UNL A   1      35.712  30.209  28.256  1.00  0.00     0.039 A 
ATOM     29  C   UNL A   1      36.721  30.247  27.289  1.00  0.00     0.014 A 
ATOM     30  C   UNL A   1      35.977  29.659  29.514  1.00  0.00     0.014 A 
ATOM     31  C   UNL A   1      38.001  29.777  27.596  1.00  0.00     0.010 A 
ATOM     32  C   UNL A   1      37.270  29.256  29.842  1.00  0.00     0.010 A 
ATOM     33  C   UNL A   1      38.292  29.300  28.882  1.00  0.00    -0.014 A 
BRANCH  33  34
ATOM     34  C   UNL A   1      39.660  28.842  29.236  1.00  0.00     0.031 A 
ATOM     35  C   UNL A   1      40.585  29.732  30.021  1.00  0.00     0.074 A 
ATOM     36  C   UNL A   1      40.088  27.639  28.809  1.00  0.00     0.049 A 
ATOM     37  N   UNL A   1      41.821  29.513  30.397  1.00  0.00    -0.248 NA
ATOM     38  C   UNL A   1      40.061  31.049  30.418  1.00  0.00     0.031 C 
ATOM     39  C   UNL A   1      39.303  26.697  28.009  1.00  0.00     0.029 A 
ATOM     40  N   UNL A   1      41.291  27.004  28.986  1.00  0.00    -0.354 N 
ATOM     41  C   UNL A   1      42.225  30.668  31.055  1.00  0.00     0.074 A 
ATOM     42  C   UNL A   1      41.121  31.602  30.989  1.00  0.00     0.031 C 
ATOM     43  C   UNL A   1      40.034  25.592  27.791  1.00  0.00     0.029 A 
ATOM     44  C   UNL A   1      41.348  25.762  28.404  1.00  0.00     0.049 A 
ATOM     45  H   UNL A   1      42.042  27.400  29.485  1.00  0.00     0.167 HD
ATOM     46  C   UNL A   1      43.403  30.924  31.673  1.00  0.00     0.031 A 
ATOM     47  C   UNL A   1      42.345  24.858  28.366  1.00  0.00     0.031 A 
ATOM     48  C   UNL A   1      44.500  29.995  31.748  1.00  0.00     0.049 A 
ATOM     49  C   UNL A   1      43.643  25.167  29.056  1.00  0.00     0.074 A 
ATOM     50  C   UNL A   1      45.711  30.139  32.401  1.00  0.00     0.029 A 
ATOM     51  N   UNL A   1      44.516  28.747  31.145  1.00  0.00    -0.354 N 
ATOM     52  N   UNL A   1      43.986  26.238  29.729  1.00  0.00    -0.248 NA
ATOM     53  C   UNL A   1      44.687  24.135  28.989  1.00  0.00     0.031 C 
ATOM     54  C   UNL A   1      46.480  28.997  32.153  1.00  0.00     0.029 A 
ATOM     55  C   UNL A   1      45.725  28.119  31.390  1.00  0.00     0.049 A 
ATOM     56  H   UNL A   1      43.776  28.363  30.620  1.00  0.00     0.167 HD
ATOM     57  C   UNL A   1      45.276  26.001  30.184  1.00  0.00     0.074 A 
ATOM     58  C   UNL A   1      45.646  24.677  29.726  1.00  0.00     0.031 C 
ATOM     59  C   UNL A   1      46.082  26.806  30.918  1.00  0.00     0.031 A 
BRANCH  46  60
ATOM     60  C   UNL A   1      43.566  32.277  32.312  1.00  0.00    -0.014 A 
ATOM     61  C   UNL A   1      44.082  33.366  31.591  1.00  0.00     0.009 A 
ATOM     62  C   UNL A   1      43.178  32.471  33.646  1.00  0.00     0.009 A 
ATOM     63  C   UNL A   1      44.245  34.609  32.206  1.00  0.00     0.001 A 
ATOM     64  C   UNL A   1      43.315  33.722  34.251  1.00  0.00     0.001 A 
ATOM     65  C   UNL A   1      43.858  34.787  33.534  1.00  0.00     0.000 A 
ENDBRANCH  46  60
BRANCH  47  66
ATOM     66  C   UNL A   1      42.143  23.563  27.670  1.00  0.00    -0.014 A 
ATOM     67  C   UNL A   1      41.577  22.473  28.349  1.00  0.00     0.009 A 
ATOM     68  C   UNL A   1      42.504  23.410  26.322  1.00  0.00     0.009 A 
ATOM     69  C   UNL A   1      41.396  21.250  27.699  1.00  0.00     0.001 A 
ATOM     70  C   UNL A   1      42.297  22.194  25.667  1.00  0.00     0.001 A 
ATOM     71  C   UNL A   1      41.750  21.114  26.357  1.00  0.00     0.000 A 
ENDBRANCH  47  66
BRANCH  59  72
ATOM     72  C   UNL A   1      47.434  26.265  31.286  1.00  0.00    -0.014 A 
ATOM     73  C   UNL A   1      48.522  26.365  30.406  1.00  0.00     0.009 A 
ATOM     74  C   UNL A   1      47.626  25.670  32.542  1.00  0.00     0.009 A 
ATOM     75  C   UNL A   1      49.768  25.846  30.763  1.00  0.00     0.001 A 
ATOM     76  C   UNL A   1      48.880  25.178  32.908  1.00  0.00     0.001 A 
ATOM     77  C   UNL A   1      49.947  25.257  32.015  1.00  0.00     0.000 A 
ENDBRANCH  59  72
ENDBRANCH  33  34
ENDBRANCH  25  28
ENDBRANCH  23  24
ENDBRANCH   1  23
TORSDOF 13
ENDMDL
MODEL 2
REMARK VINA RESULT:     -11.0      3.547      4.869
REMARK SMILES [NH3+][C@H](c1ccc(C(=O)NCCCNC(=O)c2ccc(-c3c4nc(c(-c5ccccc5)c5ccc([nH]5)c(-c5ccccc5)c5nc(c(-c6ccccc6)c6ccc3[nH]6)C=C5)C=C4)cc2)cc1Cl)C(F)(F)F
REMARK SMILES IDX 11 1 10 2 9 3 7 4 8 5 6 7 3 8 4 9 65 10 5 11 64 12 66 13
REMARK SMILES IDX 2 14 1 15 67 19 68 20 69 21 70 22 12 23 13 24 14 25 15 27
REMARK SMILES IDX 16 28 17 29 63 30 18 31 62 32 19 33 20 34 21 35 56 36 22 37
REMARK SMILES IDX 61 38 55 39 57 40 23 41 60 42 54 43 53 44 24 46 46 47 31 48
REMARK SMILES IDX 45 49 32 50 35 51 44 52 58 53 33 54 34 55 43 57 59 58 36 59
REMARK SMILES IDX 25 60 26 61 30 62 27 63 29 64 28 65 47 66 48 67 52 68 49 69
REMARK SMILES IDX 51 70 50 71 37 72 38 73 42 74 39 75 41 76 40 77
REMARK H PARENT 9 6 1 16 1 17 1 18 13 26 57 45 35 56
REMARK Flexibility Score: inf
ROOT
ATOM      1  C   UNL A   1      32.188  27.871  27.307  1.00  0.00     0.042 C 
ENDROOT
BRANCH   1   2
ATOM      2  C   UNL A   1      31.881  26.930  26.143  1.00  0.00     0.118 C 
BRANCH   2   3
ATOM      3  N   UNL A   1      30.923  25.909  26.527  1.00  0.00    -0.352 N 
ATOM      4  C   UNL A   1      31.050  24.554  26.701  1.00  0.00     0.251 C 
ATOM      5  O   UNL A   1      30.080  23.934  27.131  1.00  0.00    -0.269 OA
ATOM      6  H   UNL A   1      30.015  26.251  26.693  1.00  0.00     0.163 HD
BRANCH   4   7
ATOM      7  C   UNL A   1      32.313  23.816  26.434  1.00  0.00     0.041 A 
ATOM      8  C   UNL A   1      34.743  22.334  26.087  1.00  0.00     0.037 A 
ATOM      9  C   UNL A   1      34.107  22.445  27.342  1.00  0.00     0.012 A 
ATOM     10  C   UNL A   1      34.066  22.924  24.999  1.00  0.00     0.051 A 
ATOM     11  C   UNL A   1      32.917  23.166  27.511  1.00  0.00     0.014 A 
ATOM     12  C   UNL A   1      32.879  23.657  25.174  1.00  0.00     0.034 A 
ATOM     13  Cl  UNL A   1      34.597  22.772  23.355  1.00  0.00    -0.084 Cl
BRANCH   8  14
ATOM     14  C   UNL A   1      36.052  21.528  25.940  1.00  0.00     0.320 C 
BRANCH  14  15
ATOM     15  N   UNL A   1      35.866  20.312  25.098  1.00  0.00    -0.344 N 
ATOM     16  H   UNL A   1      36.748  20.071  24.649  1.00  0.00     0.345 HD
ATOM     17  H   UNL A   1      35.161  20.498  24.385  1.00  0.00     0.345 HD
ATOM     18  H   UNL A   1      35.560  19.536  25.685  1.00  0.00     0.345 HD
ENDBRANCH  14  15
BRANCH  14  19
ATOM     19  C   UNL A   1      37.295  22.349  25.441  1.00  0.00     0.445 C 
ATOM     20  F   UNL A   1      37.114  23.682  25.594  1.00  0.00    -0.165 F 
ATOM     21  F   UNL A   1      38.417  22.029  26.128  1.00  0.00    -0.165 F 
ATOM     22  F   UNL A   1      37.546  22.113  24.130  1.00  0.00    -0.165 F 
ENDBRANCH  14  19
ENDBRANCH   8  14
ENDBRANCH   4   7
ENDBRANCH   2   3
ENDBRANCH   1   2
BRANCH   1  23
ATOM     23  C   UNL A   1      33.579  28.495  27.244  1.00  0.00     0.118 C 
BRANCH  23  24
ATOM     24  N   UNL A   1      33.554  29.918  27.544  1.00  0.00    -0.352 N 
ATOM     25  C   UNL A   1      34.485  30.710  28.170  1.00  0.00     0.251 C 
ATOM     26  H   UNL A   1      32.740  30.388  27.252  1.00  0.00     0.163 HD
ATOM     27  O   UNL A   1      34.167  31.843  28.521  1.00  0.00    -0.269 OA
BRANCH  25  28
ATOM     28  C   UNL A   1      35.858  30.221  28.436  1.00  0.00     0.039 A 
ATOM     29  C   UNL A   1      36.791  30.257  27.395  1.00  0.00     0.014 A 
ATOM     30  C   UNL A   1      36.215  29.667  29.669  1.00  0.00     0.014 A 
ATOM     31  C   UNL A   1      38.088  29.781  27.602  1.00  0.00     0.010 A 
ATOM     32  C   UNL A   1      37.528  29.257  29.896  1.00  0.00     0.010 A 
ATOM     33  C   UNL A   1      38.474  29.301  28.862  1.00  0.00    -0.014 A 
BRANCH  33  34
ATOM     34  C   UNL A   1      39.863  28.836  29.110  1.00  0.00     0.031 A 
ATOM     35  C   UNL A   1      40.869  29.747  29.761  1.00  0.00     0.074 A 
ATOM     36  C   UNL A   1      40.234  27.606  28.705  1.00  0.00     0.049 A 
ATOM     37  N   UNL A   1      42.131  29.525  30.030  1.00  0.00    -0.248 NA
ATOM     38  C   UNL A   1      40.402  31.090  30.139  1.00  0.00     0.031 C 
ATOM     39  C   UNL A   1      39.366  26.641  28.028  1.00  0.00     0.029 A 
ATOM     40  N   UNL A   1      41.440  26.960  28.801  1.00  0.00    -0.354 N 
ATOM     41  C   UNL A   1      42.610  30.702  30.590  1.00  0.00     0.074 A 
ATOM     42  C   UNL A   1      41.517  31.651  30.581  1.00  0.00     0.031 C 
ATOM     43  C   UNL A   1      40.058  25.514  27.799  1.00  0.00     0.029 A 
ATOM     44  C   UNL A   1      41.426  25.691  28.278  1.00  0.00     0.049 A 
ATOM     45  H   UNL A   1      42.239  27.366  29.208  1.00  0.00     0.167 HD
ATOM     46  C   UNL A   1      43.844  30.967  31.083  1.00  0.00     0.031 A 
ATOM     47  C   UNL A   1      42.403  24.769  28.193  1.00  0.00     0.031 A 
ATOM     48  C   UNL A   1      44.931  30.023  31.102  1.00  0.00     0.049 A 
ATOM     49  C   UNL A   1      43.764  25.087  28.743  1.00  0.00     0.074 A 
ATOM     50  C   UNL A   1      46.200  30.178  31.632  1.00  0.00     0.029 A 
ATOM     51  N   UNL A   1      44.875  28.748  30.563  1.00  0.00    -0.354 N 
ATOM     52  N   UNL A   1      44.182  26.184  29.327  1.00  0.00    -0.248 NA
ATOM     53  C   UNL A   1      44.784  24.035  28.630  1.00  0.00     0.031 C 
ATOM     54  C   UNL A   1      46.928  29.012  31.371  1.00  0.00     0.029 A 
ATOM     55  C   UNL A   1      46.094  28.111  30.725  1.00  0.00     0.049 A 
ATOM     56  H   UNL A   1      44.084  28.352  30.129  1.00  0.00     0.167 HD
ATOM     57  C   UNL A   1      45.506  25.946  29.673  1.00  0.00     0.074 A 
ATOM     58  C   UNL A   1      45.814  24.596  29.248  1.00  0.00     0.031 C 
ATOM     59  C   UNL A   1      46.388  26.771  30.288  1.00  0.00     0.031 A 
BRANCH  46  60
ATOM     60  C   UNL A   1      44.084  32.346  31.636  1.00  0.00    -0.014 A 
ATOM     61  C   UNL A   1      43.863  32.636  32.992  1.00  0.00     0.009 A 
ATOM     62  C   UNL A   1      44.559  33.364  30.794  1.00  0.00     0.009 A 
ATOM     63  C   UNL A   1      44.071  33.926  33.483  1.00  0.00     0.001 A 
ATOM     64  C   UNL A   1      44.794  34.646  31.295  1.00  0.00     0.001 A 
ATOM     65  C   UNL A   1      44.540  34.929  32.636  1.00  0.00     0.000 A 
ENDBRANCH  46  60
BRANCH  47  66
ATOM     66  C   UNL A   1      42.121  23.445  27.583  1.00  0.00    -0.014 A 
ATOM     67  C   UNL A   1      42.440  23.199  26.239  1.00  0.00     0.009 A 
ATOM     68  C   UNL A   1      41.540  22.416  28.343  1.00  0.00     0.009 A 
ATOM     69  C   UNL A   1      42.165  21.958  25.662  1.00  0.00     0.001 A 
ATOM     70  C   UNL A   1      41.291  21.167  27.769  1.00  0.00     0.001 A 
ATOM     71  C   UNL A   1      41.597  20.942  26.428  1.00  0.00     0.000 A 
ENDBRANCH  47  66
BRANCH  59  72
ATOM     72  C   UNL A   1      47.761  26.225  30.555  1.00  0.00    -0.014 A 
ATOM     73  C   UNL A   1      48.112  25.723  31.817  1.00  0.00     0.009 A 
ATOM     74  C   UNL A   1      48.709  26.191  29.520  1.00  0.00     0.009 A 
ATOM     75  C   UNL A   1      49.398  25.229  32.047  1.00  0.00     0.001 A 
ATOM     76  C   UNL A   1      49.984  25.671  29.745  1.00  0.00     0.001 A 
ATOM     77  C   UNL A   1      50.331  25.200  31.010  1.00  0.00     0.000 A 
ENDBRANCH  59  72
ENDBRANCH  33  34
ENDBRANCH  25  28
ENDBRANCH  23  24
ENDBRANCH   1  23
TORSDOF 13
ENDMDL
MODEL 3
REMARK VINA RESULT:     -10.9      5.197      9.190
REMARK SMILES [NH3+][C@H](c1ccc(C(=O)NCCCNC(=O)c2ccc(-c3c4nc(c(-c5ccccc5)c5ccc([nH]5)c(-c5ccccc5)c5nc(c(-c6ccccc6)c6ccc3[nH]6)C=C5)C=C4)cc2)cc1Cl)C(F)(F)F
REMARK SMILES IDX 11 1 10 2 9 3 7 4 8 5 6 7 3 8 4 9 65 10 5 11 64 12 66 13
REMARK SMILES IDX 2 14 1 15 67 19 68 20 69 21 70 22 12 23 13 24 14 25 15 27
REMARK SMILES IDX 16 28 17 29 63 30 18 31 62 32 19 33 20 34 21 35 56 36 22 37
REMARK SMILES IDX 61 38 55 39 57 40 23 41 60 42 54 43 53 44 24 46 46 47 31 48
REMARK SMILES IDX 45 49 32 50 35 51 44 52 58 53 33 54 34 55 43 57 59 58 36 59
REMARK SMILES IDX 25 60 26 61 30 62 27 63 29 64 28 65 47 66 48 67 52 68 49 69
REMARK SMILES IDX 51 70 50 71 37 72 38 73 42 74 39 75 41 76 40 77
REMARK H PARENT 9 6 1 16 1 17 1 18 13 26 57 45 35 56
REMARK Flexibility Score: inf
ROOT
ATOM      1  C   UNL A   1      35.550  23.419  24.843  1.00  0.00     0.042 C 
ENDROOT
BRANCH   1   2
ATOM      2  C   UNL A   1      34.776  23.591  23.536  1.00  0.00     0.118 C 
BRANCH   2   3
ATOM      3  N   UNL A   1      33.360  23.796  23.782  1.00  0.00    -0.352 N 
ATOM      4  C   UNL A   1      32.366  22.936  24.171  1.00  0.00     0.251 C 
ATOM      5  O   UNL A   1      31.253  23.406  24.402  1.00  0.00    -0.269 OA
ATOM      6  H   UNL A   1      33.058  24.723  23.643  1.00  0.00     0.163 HD
BRANCH   4   7
ATOM      7  C   UNL A   1      32.583  21.478  24.367  1.00  0.00     0.041 A 
ATOM      8  C   UNL A   1      33.013  18.697  24.917  1.00  0.00     0.037 A 
ATOM      9  C   UNL A   1      33.100  19.681  25.924  1.00  0.00     0.012 A 
ATOM     10  C   UNL A   1      32.618  19.153  23.642  1.00  0.00     0.051 A 
ATOM     11  C   UNL A   1      32.886  21.041  25.656  1.00  0.00     0.014 A 
ATOM     12  C   UNL A   1      32.415  20.519  23.373  1.00  0.00     0.034 A 
ATOM     13  Cl  UNL A   1      32.305  18.091  22.308  1.00  0.00    -0.084 Cl
BRANCH   8  14
ATOM     14  C   UNL A   1      33.253  17.209  25.252  1.00  0.00     0.320 C 
BRANCH  14  15
ATOM     15  N   UNL A   1      32.068  16.367  24.927  1.00  0.00    -0.344 N 
ATOM     16  H   UNL A   1      32.339  15.384  24.920  1.00  0.00     0.345 HD
ATOM     17  H   UNL A   1      31.709  16.626  24.008  1.00  0.00     0.345 HD
ATOM     18  H   UNL A   1      31.343  16.514  25.629  1.00  0.00     0.345 HD
ENDBRANCH  14  15
BRANCH  14  19
ATOM     19  C   UNL A   1      34.552  16.581  24.632  1.00  0.00     0.445 C 
ATOM     20  F   UNL A   1      34.977  15.503  25.332  1.00  0.00    -0.165 F 
ATOM     21  F   UNL A   1      34.349  16.160  23.361  1.00  0.00    -0.165 F 
ATOM     22  F   UNL A   1      35.567  17.480  24.600  1.00  0.00    -0.165 F 
ENDBRANCH  14  19
ENDBRANCH   8  14
ENDBRANCH   4   7
ENDBRANCH   2   3
ENDBRANCH   1   2
BRANCH   1  23
ATOM     23  C   UNL A   1      37.042  23.709  24.718  1.00  0.00     0.118 C 
BRANCH  23  24
ATOM     24  N   UNL A   1      37.855  22.669  25.327  1.00  0.00    -0.352 N 
ATOM     25  C   UNL A   1      38.967  22.763  26.126  1.00  0.00     0.251 C 
ATOM     26  H   UNL A   1      37.560  21.749  25.135  1.00  0.00     0.163 HD
ATOM     27  O   UNL A   1      39.631  21.755  26.348  1.00  0.00    -0.269 OA
BRANCH  25  28
ATOM     28  C   UNL A   1      39.382  24.057  26.716  1.00  0.00     0.039 A 
ATOM     29  C   UNL A   1      38.983  24.351  28.024  1.00  0.00     0.014 A 
ATOM     30  C   UNL A   1      40.096  25.006  25.978  1.00  0.00     0.014 A 
ATOM     31  C   UNL A   1      39.337  25.572  28.604  1.00  0.00     0.010 A 
ATOM     32  C   UNL A   1      40.508  26.194  26.581  1.00  0.00     0.010 A 
ATOM     33  C   UNL A   1      40.123  26.493  27.896  1.00  0.00    -0.014 A 
BRANCH  33  34
ATOM     34  C   UNL A   1      40.545  27.774  28.518  1.00  0.00     0.031 A 
ATOM     35  C   UNL A   1      41.962  27.966  28.985  1.00  0.00     0.074 A 
ATOM     36  C   UNL A   1      39.638  28.752  28.705  1.00  0.00     0.049 A 
ATOM     37  N   UNL A   1      42.504  29.003  29.575  1.00  0.00    -0.248 NA
ATOM     38  C   UNL A   1      42.886  26.839  28.784  1.00  0.00     0.031 C 
ATOM     39  C   UNL A   1      38.224  28.677  28.331  1.00  0.00     0.029 A 
ATOM     40  N   UNL A   1      39.771  29.999  29.259  1.00  0.00    -0.354 N 
ATOM     41  C   UNL A   1      43.823  28.645  29.830  1.00  0.00     0.074 A 
ATOM     42  C   UNL A   1      43.987  27.282  29.373  1.00  0.00     0.031 C 
ATOM     43  C   UNL A   1      37.628  29.840  28.638  1.00  0.00     0.029 A 
ATOM     44  C   UNL A   1      38.606  30.726  29.262  1.00  0.00     0.049 A 
ATOM     45  H   UNL A   1      40.620  30.343  29.620  1.00  0.00     0.167 HD
ATOM     46  C   UNL A   1      44.812  29.389  30.380  1.00  0.00     0.031 A 
ATOM     47  C   UNL A   1      38.350  31.968  29.715  1.00  0.00     0.031 A 
ATOM     48  C   UNL A   1      44.654  30.748  30.827  1.00  0.00     0.049 A 
ATOM     49  C   UNL A   1      39.464  32.771  30.325  1.00  0.00     0.074 A 
ATOM     50  C   UNL A   1      45.611  31.604  31.344  1.00  0.00     0.029 A 
ATOM     51  N   UNL A   1      43.458  31.447  30.811  1.00  0.00    -0.354 N 
ATOM     52  N   UNL A   1      40.720  32.441  30.500  1.00  0.00    -0.248 NA
ATOM     53  C   UNL A   1      39.123  34.123  30.789  1.00  0.00     0.031 C 
ATOM     54  C   UNL A   1      44.982  32.806  31.686  1.00  0.00     0.029 A 
ATOM     55  C   UNL A   1      43.645  32.717  31.332  1.00  0.00     0.049 A 
ATOM     56  H   UNL A   1      42.601  31.093  30.479  1.00  0.00     0.167 HD
ATOM     57  C   UNL A   1      41.326  33.551  31.073  1.00  0.00     0.074 A 
ATOM     58  C   UNL A   1      40.302  34.569  31.199  1.00  0.00     0.031 C 
ATOM     59  C   UNL A   1      42.614  33.714  31.460  1.00  0.00     0.031 A 
BRANCH  46  60
ATOM     60  C   UNL A   1      46.159  28.735  30.536  1.00  0.00    -0.014 A 
ATOM     61  C   UNL A   1      46.496  28.028  31.701  1.00  0.00     0.009 A 
ATOM     62  C   UNL A   1      47.096  28.809  29.494  1.00  0.00     0.009 A 
ATOM     63  C   UNL A   1      47.757  27.446  31.837  1.00  0.00     0.001 A 
ATOM     64  C   UNL A   1      48.347  28.201  29.621  1.00  0.00     0.001 A 
ATOM     65  C   UNL A   1      48.680  27.529  30.796  1.00  0.00     0.000 A 
ENDBRANCH  46  60
BRANCH  47  66
ATOM     66  C   UNL A   1      36.986  32.537  29.584  1.00  0.00    -0.014 A 
ATOM     67  C   UNL A   1      36.613  33.227  28.420  1.00  0.00     0.009 A 
ATOM     68  C   UNL A   1      36.045  32.385  30.616  1.00  0.00     0.009 A 
ATOM     69  C   UNL A   1      35.332  33.771  28.300  1.00  0.00     0.001 A 
ATOM     70  C   UNL A   1      34.757  32.909  30.481  1.00  0.00     0.001 A 
ATOM     71  C   UNL A   1      34.404  33.607  29.327  1.00  0.00     0.000 A 
ENDBRANCH  47  66
BRANCH  59  72
ATOM     72  C   UNL A   1      42.990  35.050  32.035  1.00  0.00    -0.014 A 
ATOM     73  C   UNL A   1      43.570  36.048  31.238  1.00  0.00     0.009 A 
ATOM     74  C   UNL A   1      42.736  35.319  33.389  1.00  0.00     0.009 A 
ATOM     75  C   UNL A   1      43.921  37.280  31.795  1.00  0.00     0.001 A 
ATOM     76  C   UNL A   1      43.062  36.561  33.936  1.00  0.00     0.001 A 
ATOM     77  C   UNL A   1      43.664  37.536  33.142  1.00  0.00     0.000 A 
ENDBRANCH  59  72
ENDBRANCH  33  34
ENDBRANCH  25  28
ENDBRANCH  23  24
ENDBRANCH   1  23
TORSDOF 13
ENDMDL
