MODEL 1
REMARK VINA RESULT:     -13.3      0.000      0.000
REMARK SMILES COc1cc2ccccc2cc1C(=O)Nc1cc(C(=O)NCCCNC(=O)c2ccc(-c3c4nc(c(-c5ccccc5)c5ccc([nH]5)c(-c5ccccc5)c5nc(c(-c6ccccc6)c6ccc3[nH]6)C=C5)C=C4)cc2)ccc1C
REMARK SMILES IDX 22 1 21 2 19 3 20 4 18 6 16 7 17 8 78 9 77 10 79 11 76 12
REMARK SMILES IDX 15 13 13 14 14 15 12 17 3 18 4 19 5 20 11 21 6 22 10 23 7 24
REMARK SMILES IDX 9 25 8 26 2 27 1 28 23 29 24 30 25 31 26 32 27 34 28 35
REMARK SMILES IDX 29 36 75 37 30 38 74 39 31 40 32 41 33 42 68 43 34 44 73 45
REMARK SMILES IDX 67 46 69 47 35 48 72 49 66 50 65 51 36 53 58 54 43 55 57 56
REMARK SMILES IDX 44 57 47 58 56 59 70 60 45 61 46 62 55 64 71 65 48 66 37 67
REMARK SMILES IDX 38 68 42 69 39 70 41 71 40 72 59 73 60 74 64 75 61 76 63 77
REMARK SMILES IDX 62 78 49 79 50 80 54 81 51 82 53 83 52 84
REMARK H PARENT 21 5 15 16 25 33 69 52 47 63
REMARK Flexibility Score: inf
ROOT
ATOM      1  C   UNL A   1      31.910  29.990  25.625  1.00  0.00     0.118 C 
ENDROOT
BRANCH   1   2
ATOM      2  N   UNL A   1      32.998  29.790  24.680  1.00  0.00    -0.352 N 
ATOM      3  C   UNL A   1      33.352  28.742  23.859  1.00  0.00     0.251 C 
ATOM      4  O   UNL A   1      34.285  28.946  23.078  1.00  0.00    -0.269 OA
ATOM      5  H   UNL A   1      33.606  30.561  24.614  1.00  0.00     0.163 HD
BRANCH   3   6
ATOM      6  C   UNL A   1      32.691  27.397  23.841  1.00  0.00     0.041 A 
ATOM      7  C   UNL A   1      31.808  25.369  24.887  1.00  0.00     0.045 A 
ATOM      8  C   UNL A   1      32.504  26.582  24.952  1.00  0.00     0.040 A 
ATOM      9  C   UNL A   1      31.424  24.851  23.645  1.00  0.00    -0.027 A 
ATOM     10  C   UNL A   1      31.614  25.656  22.511  1.00  0.00     0.006 A 
ATOM     11  C   UNL A   1      30.672  23.560  23.480  1.00  0.00     0.046 C 
ATOM     12  C   UNL A   1      32.219  26.917  22.611  1.00  0.00     0.014 A 
BRANCH   7  13
ATOM     13  N   UNL A   1      31.461  24.704  26.077  1.00  0.00    -0.322 N 
ATOM     14  C   UNL A   1      31.921  23.510  26.601  1.00  0.00     0.259 C 
ATOM     15  O   UNL A   1      31.290  23.006  27.534  1.00  0.00    -0.269 OA
ATOM     16  H   UNL A   1      30.781  25.162  26.624  1.00  0.00     0.170 HD
BRANCH  14  17
ATOM     17  C   UNL A   1      33.180  22.828  26.157  1.00  0.00     0.082 A 
ATOM     18  C   UNL A   1      33.259  21.572  25.540  1.00  0.00     0.132 A 
ATOM     19  C   UNL A   1      34.502  20.984  25.274  1.00  0.00     0.056 A 
ATOM     20  C   UNL A   1      35.693  21.684  25.498  1.00  0.00    -0.015 A 
ATOM     21  C   UNL A   1      34.377  23.548  26.339  1.00  0.00     0.026 A 
ATOM     22  C   UNL A   1      36.939  21.103  25.215  1.00  0.00     0.009 A 
ATOM     23  C   UNL A   1      35.631  23.001  25.998  1.00  0.00    -0.017 A 
ATOM     24  C   UNL A   1      38.114  21.837  25.368  1.00  0.00     0.001 A 
ATOM     25  C   UNL A   1      36.825  23.727  26.142  1.00  0.00     0.009 A 
ATOM     26  C   UNL A   1      38.056  23.152  25.818  1.00  0.00     0.001 A 
BRANCH  18  27
ATOM     27  O   UNL A   1      32.185  20.786  25.226  1.00  0.00    -0.496 OA
ATOM     28  C   UNL A   1      32.455  19.948  24.107  1.00  0.00     0.278 C 
ENDBRANCH  18  27
ENDBRANCH  14  17
ENDBRANCH   7  13
ENDBRANCH   3   6
ENDBRANCH   1   2
BRANCH   1  29
ATOM     29  C   UNL A   1      32.332  30.810  26.846  1.00  0.00     0.042 C 
BRANCH  29  30
ATOM     30  C   UNL A   1      33.647  30.360  27.449  1.00  0.00     0.118 C 
BRANCH  30  31
ATOM     31  N   UNL A   1      34.312  31.376  28.263  1.00  0.00    -0.352 N 
ATOM     32  C   UNL A   1      35.520  31.282  28.937  1.00  0.00     0.251 C 
ATOM     33  H   UNL A   1      33.842  32.237  28.343  1.00  0.00     0.163 HD
ATOM     34  O   UNL A   1      35.956  32.220  29.584  1.00  0.00    -0.269 OA
BRANCH  32  35
ATOM     35  C   UNL A   1      36.342  30.065  28.727  1.00  0.00     0.039 A 
ATOM     36  C   UNL A   1      36.664  29.312  29.859  1.00  0.00     0.014 A 
ATOM     37  C   UNL A   1      37.036  29.888  27.534  1.00  0.00     0.014 A 
ATOM     38  C   UNL A   1      37.858  28.602  29.875  1.00  0.00     0.010 A 
ATOM     39  C   UNL A   1      38.281  29.297  27.591  1.00  0.00     0.010 A 
ATOM     40  C   UNL A   1      38.724  28.721  28.787  1.00  0.00    -0.014 A 
BRANCH  40  41
ATOM     41  C   UNL A   1      40.142  28.392  28.877  1.00  0.00     0.031 A 
ATOM     42  C   UNL A   1      40.632  27.097  28.367  1.00  0.00     0.074 A 
ATOM     43  C   UNL A   1      41.016  29.266  29.429  1.00  0.00     0.049 A 
ATOM     44  N   UNL A   1      41.626  26.444  28.871  1.00  0.00    -0.248 NA
ATOM     45  C   UNL A   1      39.983  26.404  27.261  1.00  0.00     0.031 C 
ATOM     46  C   UNL A   1      42.474  29.166  29.427  1.00  0.00     0.029 A 
ATOM     47  N   UNL A   1      40.752  30.316  30.311  1.00  0.00    -0.354 N 
ATOM     48  C   UNL A   1      41.936  25.436  27.987  1.00  0.00     0.074 A 
ATOM     49  C   UNL A   1      40.827  25.388  27.063  1.00  0.00     0.031 C 
ATOM     50  C   UNL A   1      42.951  29.867  30.469  1.00  0.00     0.029 A 
ATOM     51  C   UNL A   1      41.805  30.327  31.239  1.00  0.00     0.049 A 
ATOM     52  H   UNL A   1      39.981  30.927  30.287  1.00  0.00     0.167 HD
ATOM     53  C   UNL A   1      43.169  24.855  28.019  1.00  0.00     0.031 A 
ATOM     54  C   UNL A   1      41.637  30.163  32.583  1.00  0.00     0.031 A 
ATOM     55  C   UNL A   1      43.993  25.376  29.107  1.00  0.00     0.049 A 
ATOM     56  C   UNL A   1      42.429  29.001  33.142  1.00  0.00     0.074 A 
ATOM     57  C   UNL A   1      45.013  26.314  29.140  1.00  0.00     0.029 A 
ATOM     58  N   UNL A   1      43.621  25.150  30.427  1.00  0.00    -0.354 N 
ATOM     59  N   UNL A   1      42.934  28.050  32.408  1.00  0.00    -0.248 NA
ATOM     60  C   UNL A   1      42.639  28.775  34.571  1.00  0.00     0.031 C 
ATOM     61  C   UNL A   1      45.207  26.704  30.488  1.00  0.00     0.029 A 
ATOM     62  C   UNL A   1      44.322  25.987  31.274  1.00  0.00     0.049 A 
ATOM     63  H   UNL A   1      42.953  24.488  30.717  1.00  0.00     0.167 HD
ATOM     64  C   UNL A   1      43.503  27.103  33.216  1.00  0.00     0.074 A 
ATOM     65  C   UNL A   1      43.301  27.604  34.563  1.00  0.00     0.031 C 
ATOM     66  C   UNL A   1      44.072  25.973  32.707  1.00  0.00     0.031 A 
BRANCH  53  67
ATOM     67  C   UNL A   1      43.732  24.066  26.857  1.00  0.00    -0.014 A 
ATOM     68  C   UNL A   1      44.497  24.724  25.876  1.00  0.00     0.009 A 
ATOM     69  C   UNL A   1      43.493  22.700  26.631  1.00  0.00     0.009 A 
ATOM     70  C   UNL A   1      44.892  24.091  24.690  1.00  0.00     0.001 A 
ATOM     71  C   UNL A   1      43.844  22.070  25.429  1.00  0.00     0.001 A 
ATOM     72  C   UNL A   1      44.533  22.772  24.449  1.00  0.00     0.000 A 
ENDBRANCH  53  67
BRANCH  54  73
ATOM     73  C   UNL A   1      40.304  30.572  33.100  1.00  0.00    -0.014 A 
ATOM     74  C   UNL A   1      39.967  31.937  33.088  1.00  0.00     0.009 A 
ATOM     75  C   UNL A   1      39.280  29.627  33.259  1.00  0.00     0.009 A 
ATOM     76  C   UNL A   1      38.630  32.341  33.129  1.00  0.00     0.001 A 
ATOM     77  C   UNL A   1      37.943  30.038  33.310  1.00  0.00     0.001 A 
ATOM     78  C   UNL A   1      37.617  31.390  33.212  1.00  0.00     0.000 A 
ENDBRANCH  54  73
BRANCH  66  79
ATOM     79  C   UNL A   1      44.520  24.780  33.507  1.00  0.00    -0.014 A 
ATOM     80  C   UNL A   1      45.861  24.489  33.794  1.00  0.00     0.009 A 
ATOM     81  C   UNL A   1      43.545  23.972  34.132  1.00  0.00     0.009 A 
ATOM     82  C   UNL A   1      46.210  23.415  34.625  1.00  0.00     0.001 A 
ATOM     83  C   UNL A   1      43.887  22.928  34.993  1.00  0.00     0.001 A 
ATOM     84  C   UNL A   1      45.224  22.640  35.230  1.00  0.00     0.000 A 
ENDBRANCH  66  79
ENDBRANCH  40  41
ENDBRANCH  32  35
ENDBRANCH  30  31
ENDBRANCH  29  30
ENDBRANCH   1  29
TORSDOF 13
ENDMDL
MODEL 2
REMARK VINA RESULT:     -13.2      3.077      8.613
REMARK SMILES COc1cc2ccccc2cc1C(=O)Nc1cc(C(=O)NCCCNC(=O)c2ccc(-c3c4nc(c(-c5ccccc5)c5ccc([nH]5)c(-c5ccccc5)c5nc(c(-c6ccccc6)c6ccc3[nH]6)C=C5)C=C4)cc2)ccc1C
REMARK SMILES IDX 22 1 21 2 19 3 20 4 18 6 16 7 17 8 78 9 77 10 79 11 76 12
REMARK SMILES IDX 15 13 13 14 14 15 12 17 3 18 4 19 5 20 11 21 6 22 10 23 7 24
REMARK SMILES IDX 9 25 8 26 2 27 1 28 23 29 24 30 25 31 26 32 27 34 28 35
REMARK SMILES IDX 29 36 75 37 30 38 74 39 31 40 32 41 33 42 68 43 34 44 73 45
REMARK SMILES IDX 67 46 69 47 35 48 72 49 66 50 65 51 36 53 58 54 43 55 57 56
REMARK SMILES IDX 44 57 47 58 56 59 70 60 45 61 46 62 55 64 71 65 48 66 37 67
REMARK SMILES IDX 38 68 42 69 39 70 41 71 40 72 59 73 60 74 64 75 61 76 63 77
REMARK SMILES IDX 62 78 49 79 50 80 54 81 51 82 53 83 52 84
REMARK H PARENT 21 5 15 16 25 33 69 52 47 63
REMARK Flexibility Score: inf
ROOT
ATOM      1  C   UNL A   1      36.207  21.120  25.230  1.00  0.00     0.118 C 
ENDROOT
BRANCH   1   2
ATOM      2  N   UNL A   1      35.589  21.472  26.499  1.00  0.00    -0.352 N 
ATOM      3  C   UNL A   1      34.415  22.111  26.830  1.00  0.00     0.251 C 
ATOM      4  O   UNL A   1      34.126  22.146  28.028  1.00  0.00    -0.269 OA
ATOM      5  H   UNL A   1      36.119  21.197  27.282  1.00  0.00     0.163 HD
BRANCH   3   6
ATOM      6  C   UNL A   1      33.475  22.752  25.854  1.00  0.00     0.041 A 
ATOM      7  C   UNL A   1      32.934  24.137  23.911  1.00  0.00     0.045 A 
ATOM      8  C   UNL A   1      33.848  23.632  24.844  1.00  0.00     0.040 A 
ATOM      9  C   UNL A   1      31.564  23.901  24.078  1.00  0.00    -0.027 A 
ATOM     10  C   UNL A   1      31.169  23.022  25.099  1.00  0.00     0.006 A 
ATOM     11  C   UNL A   1      30.514  24.401  23.127  1.00  0.00     0.046 C 
ATOM     12  C   UNL A   1      32.112  22.442  25.959  1.00  0.00     0.014 A 
BRANCH   7  13
ATOM     13  N   UNL A   1      33.407  24.840  22.788  1.00  0.00    -0.322 N 
ATOM     14  C   UNL A   1      33.272  26.173  22.446  1.00  0.00     0.259 C 
ATOM     15  O   UNL A   1      33.557  26.506  21.292  1.00  0.00    -0.269 OA
ATOM     16  H   UNL A   1      33.913  24.296  22.142  1.00  0.00     0.170 HD
BRANCH  14  17
ATOM     17  C   UNL A   1      32.873  27.251  23.408  1.00  0.00     0.082 A 
ATOM     18  C   UNL A   1      31.675  27.979  23.375  1.00  0.00     0.132 A 
ATOM     19  C   UNL A   1      31.462  29.044  24.260  1.00  0.00     0.056 A 
ATOM     20  C   UNL A   1      32.378  29.329  25.279  1.00  0.00    -0.015 A 
ATOM     21  C   UNL A   1      33.771  27.510  24.463  1.00  0.00     0.026 A 
ATOM     22  C   UNL A   1      32.157  30.384  26.177  1.00  0.00     0.009 A 
ATOM     23  C   UNL A   1      33.529  28.525  25.411  1.00  0.00    -0.017 A 
ATOM     24  C   UNL A   1      33.037  30.609  27.236  1.00  0.00     0.001 A 
ATOM     25  C   UNL A   1      34.402  28.763  26.486  1.00  0.00     0.009 A 
ATOM     26  C   UNL A   1      34.150  29.791  27.398  1.00  0.00     0.001 A 
BRANCH  18  27
ATOM     27  O   UNL A   1      30.673  27.793  22.464  1.00  0.00    -0.496 OA
ATOM     28  C   UNL A   1      29.517  28.558  22.791  1.00  0.00     0.278 C 
ENDBRANCH  18  27
ENDBRANCH  14  17
ENDBRANCH   7  13
ENDBRANCH   3   6
ENDBRANCH   1   2
BRANCH   1  29
ATOM     29  C   UNL A   1      37.736  21.127  25.296  1.00  0.00     0.042 C 
BRANCH  29  30
ATOM     30  C   UNL A   1      38.313  22.452  25.750  1.00  0.00     0.118 C 
BRANCH  30  31
ATOM     31  N   UNL A   1      39.724  22.392  26.131  1.00  0.00    -0.352 N 
ATOM     32  C   UNL A   1      40.524  23.410  26.627  1.00  0.00     0.251 C 
ATOM     33  H   UNL A   1      40.162  21.517  26.020  1.00  0.00     0.163 HD
ATOM     34  O   UNL A   1      41.696  23.213  26.903  1.00  0.00    -0.269 OA
BRANCH  32  35
ATOM     35  C   UNL A   1      39.880  24.704  26.958  1.00  0.00     0.039 A 
ATOM     36  C   UNL A   1      40.402  25.848  26.347  1.00  0.00     0.014 A 
ATOM     37  C   UNL A   1      39.047  24.808  28.068  1.00  0.00     0.014 A 
ATOM     38  C   UNL A   1      40.325  27.061  27.019  1.00  0.00     0.010 A 
ATOM     39  C   UNL A   1      39.085  25.977  28.798  1.00  0.00     0.010 A 
ATOM     40  C   UNL A   1      39.791  27.081  28.309  1.00  0.00    -0.014 A 
BRANCH  40  41
ATOM     41  C   UNL A   1      40.053  28.167  29.246  1.00  0.00     0.031 A 
ATOM     42  C   UNL A   1      39.036  29.213  29.466  1.00  0.00     0.074 A 
ATOM     43  C   UNL A   1      41.226  28.226  29.919  1.00  0.00     0.049 A 
ATOM     44  N   UNL A   1      39.305  30.445  29.744  1.00  0.00    -0.248 NA
ATOM     45  C   UNL A   1      37.609  28.948  29.326  1.00  0.00     0.031 C 
ATOM     46  C   UNL A   1      41.565  29.133  31.014  1.00  0.00     0.029 A 
ATOM     47  N   UNL A   1      42.444  27.625  29.593  1.00  0.00    -0.354 N 
ATOM     48  C   UNL A   1      38.124  31.041  30.122  1.00  0.00     0.074 A 
ATOM     49  C   UNL A   1      37.090  30.105  29.745  1.00  0.00     0.031 C 
ATOM     50  C   UNL A   1      42.900  29.270  31.057  1.00  0.00     0.029 A 
ATOM     51  C   UNL A   1      43.444  28.557  29.911  1.00  0.00     0.049 A 
ATOM     52  H   UNL A   1      42.575  26.726  29.215  1.00  0.00     0.167 HD
ATOM     53  C   UNL A   1      38.143  32.185  30.862  1.00  0.00     0.031 A 
ATOM     54  C   UNL A   1      44.322  29.071  29.003  1.00  0.00     0.031 A 
ATOM     55  C   UNL A   1      39.502  32.671  31.089  1.00  0.00     0.049 A 
ATOM     56  C   UNL A   1      44.279  30.581  28.925  1.00  0.00     0.074 A 
ATOM     57  C   UNL A   1      40.358  32.577  32.175  1.00  0.00     0.029 A 
ATOM     58  N   UNL A   1      40.270  33.105  30.016  1.00  0.00    -0.354 N 
ATOM     59  N   UNL A   1      43.298  31.302  29.391  1.00  0.00    -0.248 NA
ATOM     60  C   UNL A   1      45.289  31.389  28.243  1.00  0.00     0.031 C 
ATOM     61  C   UNL A   1      41.665  32.892  31.730  1.00  0.00     0.029 A 
ATOM     62  C   UNL A   1      41.599  33.199  30.383  1.00  0.00     0.049 A 
ATOM     63  H   UNL A   1      39.919  33.314  29.121  1.00  0.00     0.167 HD
ATOM     64  C   UNL A   1      43.509  32.618  29.079  1.00  0.00     0.074 A 
ATOM     65  C   UNL A   1      44.774  32.625  28.366  1.00  0.00     0.031 C 
ATOM     66  C   UNL A   1      42.612  33.589  29.414  1.00  0.00     0.031 A 
BRANCH  53  67
ATOM     67  C   UNL A   1      36.948  32.664  31.658  1.00  0.00    -0.014 A 
ATOM     68  C   UNL A   1      36.005  33.516  31.053  1.00  0.00     0.009 A 
ATOM     69  C   UNL A   1      36.726  32.374  33.015  1.00  0.00     0.009 A 
ATOM     70  C   UNL A   1      34.981  34.134  31.783  1.00  0.00     0.001 A 
ATOM     71  C   UNL A   1      35.734  33.022  33.764  1.00  0.00     0.001 A 
ATOM     72  C   UNL A   1      34.868  33.917  33.149  1.00  0.00     0.000 A 
ENDBRANCH  53  67
BRANCH  54  73
ATOM     73  C   UNL A   1      44.592  28.196  27.832  1.00  0.00    -0.014 A 
ATOM     74  C   UNL A   1      45.150  26.924  28.055  1.00  0.00     0.009 A 
ATOM     75  C   UNL A   1      43.994  28.461  26.591  1.00  0.00     0.009 A 
ATOM     76  C   UNL A   1      45.020  25.912  27.100  1.00  0.00     0.001 A 
ATOM     77  C   UNL A   1      43.875  27.445  25.635  1.00  0.00     0.001 A 
ATOM     78  C   UNL A   1      44.358  26.165  25.903  1.00  0.00     0.000 A 
ENDBRANCH  54  73
BRANCH  66  79
ATOM     79  C   UNL A   1      42.639  35.013  28.930  1.00  0.00    -0.014 A 
ATOM     80  C   UNL A   1      43.177  36.079  29.664  1.00  0.00     0.009 A 
ATOM     81  C   UNL A   1      42.232  35.291  27.607  1.00  0.00     0.009 A 
ATOM     82  C   UNL A   1      43.259  37.368  29.120  1.00  0.00     0.001 A 
ATOM     83  C   UNL A   1      42.351  36.565  27.047  1.00  0.00     0.001 A 
ATOM     84  C   UNL A   1      42.854  37.609  27.809  1.00  0.00     0.000 A 
ENDBRANCH  66  79
ENDBRANCH  40  41
ENDBRANCH  32  35
ENDBRANCH  30  31
ENDBRANCH  29  30
ENDBRANCH   1  29
TORSDOF 13
ENDMDL
MODEL 3
REMARK VINA RESULT:     -12.6      2.932      8.394
REMARK SMILES COc1cc2ccccc2cc1C(=O)Nc1cc(C(=O)NCCCNC(=O)c2ccc(-c3c4nc(c(-c5ccccc5)c5ccc([nH]5)c(-c5ccccc5)c5nc(c(-c6ccccc6)c6ccc3[nH]6)C=C5)C=C4)cc2)ccc1C
REMARK SMILES IDX 22 1 21 2 19 3 20 4 18 6 16 7 17 8 78 9 77 10 79 11 76 12
REMARK SMILES IDX 15 13 13 14 14 15 12 17 3 18 4 19 5 20 11 21 6 22 10 23 7 24
REMARK SMILES IDX 9 25 8 26 2 27 1 28 23 29 24 30 25 31 26 32 27 34 28 35
REMARK SMILES IDX 29 36 75 37 30 38 74 39 31 40 32 41 33 42 68 43 34 44 73 45
REMARK SMILES IDX 67 46 69 47 35 48 72 49 66 50 65 51 36 53 58 54 43 55 57 56
REMARK SMILES IDX 44 57 47 58 56 59 70 60 45 61 46 62 55 64 71 65 48 66 37 67
REMARK SMILES IDX 38 68 42 69 39 70 41 71 40 72 59 73 60 74 64 75 61 76 63 77
REMARK SMILES IDX 62 78 49 79 50 80 54 81 51 82 53 83 52 84
REMARK H PARENT 21 5 15 16 25 33 69 52 47 63
REMARK Flexibility Score: inf
ROOT
ATOM      1  C   UNL A   1      36.784  22.388  25.608  1.00  0.00     0.118 C 
ENDROOT
BRANCH   1   2
ATOM      2  N   UNL A   1      35.878  22.057  26.698  1.00  0.00    -0.352 N 
ATOM      3  C   UNL A   1      34.510  22.134  26.842  1.00  0.00     0.251 C 
ATOM      4  O   UNL A   1      34.039  21.652  27.874  1.00  0.00    -0.269 OA
ATOM      5  H   UNL A   1      36.337  21.707  27.495  1.00  0.00     0.163 HD
BRANCH   3   6
ATOM      6  C   UNL A   1      33.570  22.745  25.848  1.00  0.00     0.041 A 
ATOM      7  C   UNL A   1      33.023  24.113  23.895  1.00  0.00     0.045 A 
ATOM      8  C   UNL A   1      33.934  23.637  24.845  1.00  0.00     0.040 A 
ATOM      9  C   UNL A   1      31.658  23.836  24.036  1.00  0.00    -0.027 A 
ATOM     10  C   UNL A   1      31.272  22.945  25.050  1.00  0.00     0.006 A 
ATOM     11  C   UNL A   1      30.611  24.303  23.065  1.00  0.00     0.046 C 
ATOM     12  C   UNL A   1      32.215  22.394  25.928  1.00  0.00     0.014 A 
BRANCH   7  13
ATOM     13  N   UNL A   1      33.495  24.830  22.780  1.00  0.00    -0.322 N 
ATOM     14  C   UNL A   1      33.342  26.163  22.444  1.00  0.00     0.259 C 
ATOM     15  O   UNL A   1      33.632  26.507  21.295  1.00  0.00    -0.269 OA
ATOM     16  H   UNL A   1      34.016  24.298  22.136  1.00  0.00     0.170 HD
BRANCH  14  17
ATOM     17  C   UNL A   1      32.916  27.229  23.408  1.00  0.00     0.082 A 
ATOM     18  C   UNL A   1      31.696  27.919  23.383  1.00  0.00     0.132 A 
ATOM     19  C   UNL A   1      31.456  28.978  24.268  1.00  0.00     0.056 A 
ATOM     20  C   UNL A   1      32.370  29.292  25.281  1.00  0.00    -0.015 A 
ATOM     21  C   UNL A   1      33.813  27.516  24.457  1.00  0.00     0.026 A 
ATOM     22  C   UNL A   1      32.123  30.340  26.180  1.00  0.00     0.009 A 
ATOM     23  C   UNL A   1      33.547  28.524  25.406  1.00  0.00    -0.017 A 
ATOM     24  C   UNL A   1      33.002  30.593  27.232  1.00  0.00     0.001 A 
ATOM     25  C   UNL A   1      34.419  28.790  26.474  1.00  0.00     0.009 A 
ATOM     26  C   UNL A   1      34.141  29.811  27.387  1.00  0.00     0.001 A 
BRANCH  18  27
ATOM     27  O   UNL A   1      30.694  27.702  22.480  1.00  0.00    -0.496 OA
ATOM     28  C   UNL A   1      29.543  28.489  22.770  1.00  0.00     0.278 C 
ENDBRANCH  18  27
ENDBRANCH  14  17
ENDBRANCH   7  13
ENDBRANCH   3   6
ENDBRANCH   1   2
BRANCH   1  29
ATOM     29  C   UNL A   1      37.652  23.611  25.912  1.00  0.00     0.042 C 
BRANCH  29  30
ATOM     30  C   UNL A   1      38.990  23.261  26.531  1.00  0.00     0.118 C 
BRANCH  30  31
ATOM     31  N   UNL A   1      39.484  21.930  26.178  1.00  0.00    -0.352 N 
ATOM     32  C   UNL A   1      40.786  21.457  26.224  1.00  0.00     0.251 C 
ATOM     33  H   UNL A   1      38.805  21.289  25.868  1.00  0.00     0.163 HD
ATOM     34  O   UNL A   1      41.053  20.313  25.896  1.00  0.00    -0.269 OA
BRANCH  32  35
ATOM     35  C   UNL A   1      41.824  22.329  26.827  1.00  0.00     0.039 A 
ATOM     36  C   UNL A   1      42.036  22.207  28.202  1.00  0.00     0.014 A 
ATOM     37  C   UNL A   1      42.298  23.436  26.129  1.00  0.00     0.014 A 
ATOM     38  C   UNL A   1      42.462  23.320  28.917  1.00  0.00     0.010 A 
ATOM     39  C   UNL A   1      42.591  24.577  26.848  1.00  0.00     0.010 A 
ATOM     40  C   UNL A   1      42.595  24.536  28.246  1.00  0.00    -0.014 A 
BRANCH  40  41
ATOM     41  C   UNL A   1      42.605  25.817  28.945  1.00  0.00     0.031 A 
ATOM     42  C   UNL A   1      41.423  26.699  28.885  1.00  0.00     0.074 A 
ATOM     43  C   UNL A   1      43.692  26.206  29.650  1.00  0.00     0.049 A 
ATOM     44  N   UNL A   1      41.474  27.989  28.910  1.00  0.00    -0.248 NA
ATOM     45  C   UNL A   1      40.071  26.174  28.730  1.00  0.00     0.031 C 
ATOM     46  C   UNL A   1      43.791  27.358  30.545  1.00  0.00     0.029 A 
ATOM     47  N   UNL A   1      45.012  25.767  29.522  1.00  0.00    -0.354 N 
ATOM     48  C   UNL A   1      40.187  28.440  29.091  1.00  0.00     0.074 A 
ATOM     49  C   UNL A   1      39.346  27.286  28.867  1.00  0.00     0.031 C 
ATOM     50  C   UNL A   1      45.081  27.725  30.627  1.00  0.00     0.029 A 
ATOM     51  C   UNL A   1      45.825  26.899  29.688  1.00  0.00     0.049 A 
ATOM     52  H   UNL A   1      45.312  24.846  29.350  1.00  0.00     0.167 HD
ATOM     53  C   UNL A   1      39.964  29.695  29.573  1.00  0.00     0.031 A 
ATOM     54  C   UNL A   1      46.688  27.362  28.739  1.00  0.00     0.031 A 
ATOM     55  C   UNL A   1      41.208  30.439  29.763  1.00  0.00     0.049 A 
ATOM     56  C   UNL A   1      46.419  28.797  28.341  1.00  0.00     0.074 A 
ATOM     57  C   UNL A   1      41.971  30.710  30.887  1.00  0.00     0.029 A 
ATOM     58  N   UNL A   1      41.989  30.773  28.663  1.00  0.00    -0.354 N 
ATOM     59  N   UNL A   1      45.302  29.419  28.593  1.00  0.00    -0.248 NA
ATOM     60  C   UNL A   1      47.347  29.610  27.557  1.00  0.00     0.031 C 
ATOM     61  C   UNL A   1      43.248  31.147  30.454  1.00  0.00     0.029 A 
ATOM     62  C   UNL A   1      43.251  31.161  29.071  1.00  0.00     0.049 A 
ATOM     63  H   UNL A   1      41.688  30.736  27.727  1.00  0.00     0.167 HD
ATOM     64  C   UNL A   1      45.333  30.663  28.020  1.00  0.00     0.074 A 
ATOM     65  C   UNL A   1      46.638  30.740  27.389  1.00  0.00     0.031 C 
ATOM     66  C   UNL A   1      44.271  31.515  28.095  1.00  0.00     0.031 A 
BRANCH  53  67
ATOM     67  C   UNL A   1      38.646  30.115  30.186  1.00  0.00    -0.014 A 
ATOM     68  C   UNL A   1      38.278  29.616  31.450  1.00  0.00     0.009 A 
ATOM     69  C   UNL A   1      37.696  30.933  29.552  1.00  0.00     0.009 A 
ATOM     70  C   UNL A   1      37.000  29.821  31.989  1.00  0.00     0.001 A 
ATOM     71  C   UNL A   1      36.402  31.107  30.061  1.00  0.00     0.001 A 
ATOM     72  C   UNL A   1      36.048  30.536  31.277  1.00  0.00     0.000 A 
ENDBRANCH  53  67
BRANCH  54  73
ATOM     73  C   UNL A   1      47.190  26.329  27.795  1.00  0.00    -0.014 A 
ATOM     74  C   UNL A   1      46.473  26.098  26.606  1.00  0.00     0.009 A 
ATOM     75  C   UNL A   1      48.506  25.854  27.890  1.00  0.00     0.009 A 
ATOM     76  C   UNL A   1      47.092  25.500  25.506  1.00  0.00     0.001 A 
ATOM     77  C   UNL A   1      49.118  25.246  26.787  1.00  0.00     0.001 A 
ATOM     78  C   UNL A   1      48.422  25.099  25.588  1.00  0.00     0.000 A 
ENDBRANCH  54  73
BRANCH  66  79
ATOM     79  C   UNL A   1      44.119  32.797  27.323  1.00  0.00    -0.014 A 
ATOM     80  C   UNL A   1      44.181  32.881  25.926  1.00  0.00     0.009 A 
ATOM     81  C   UNL A   1      43.754  33.972  28.017  1.00  0.00     0.009 A 
ATOM     82  C   UNL A   1      43.937  34.090  25.259  1.00  0.00     0.001 A 
ATOM     83  C   UNL A   1      43.469  35.167  27.353  1.00  0.00     0.001 A 
ATOM     84  C   UNL A   1      43.574  35.230  25.971  1.00  0.00     0.000 A 
ENDBRANCH  66  79
ENDBRANCH  40  41
ENDBRANCH  32  35
ENDBRANCH  30  31
ENDBRANCH  29  30
ENDBRANCH   1  29
TORSDOF 13
ENDMDL
