MODEL 1
REMARK VINA RESULT:     -12.5      0.000      0.000
REMARK SMILES Cc1ccc2[nH]cc([C@@H](C(=O)NCCCNC(=O)c3ccc(-c4c5nc(c(-c6ccccc6)c6ccc([nH]6)c(-c6ccccc6)c6nc(c(-c7ccccc7)c7ccc4[nH]7)C=C6)C=C5)cc3)[NH+]3CCN(c4ccc(F)cc4)CC3)c2c1
REMARK SMILES IDX 14 1 13 2 12 3 10 4 11 5 9 7 8 8 1 9 2 10 3 11 81 12 4 13
REMARK SMILES IDX 80 14 5 15 6 16 7 17 67 19 68 20 79 21 69 23 78 24 70 25
REMARK SMILES IDX 71 26 72 27 77 28 73 29 76 30 74 31 75 32 15 33 16 34 17 35
REMARK SMILES IDX 18 37 19 38 20 39 66 40 21 41 65 42 22 43 23 44 24 45 59 46
REMARK SMILES IDX 25 47 64 48 58 49 60 50 26 51 63 52 57 53 56 54 27 56 49 57
REMARK SMILES IDX 34 58 48 59 35 60 38 61 47 62 61 63 36 64 37 65 46 67 62 68
REMARK SMILES IDX 39 69 28 70 29 71 33 72 30 73 32 74 31 75 50 76 51 77 55 78
REMARK SMILES IDX 52 79 54 80 53 81 40 82 41 83 45 84 42 85 44 86 43 87
REMARK H PARENT 12 6 6 18 67 22 16 36 60 55 38 66
REMARK Flexibility Score: inf
ROOT
ATOM      1  C   UNL A   1      33.809  28.437  26.036  1.00  0.00     0.042 C 
ENDROOT
BRANCH   1   2
ATOM      2  C   UNL A   1      33.517  26.992  25.642  1.00  0.00     0.118 C 
BRANCH   2   3
ATOM      3  N   UNL A   1      34.048  26.652  24.335  1.00  0.00    -0.351 N 
ATOM      4  C   UNL A   1      33.767  25.585  23.518  1.00  0.00     0.283 C 
ATOM      5  O   UNL A   1      34.424  25.532  22.474  1.00  0.00    -0.268 OA
ATOM      6  H   UNL A   1      34.714  27.284  23.980  1.00  0.00     0.163 HD
BRANCH   4   7
ATOM      7  C   UNL A   1      32.647  24.567  23.918  1.00  0.00     0.307 C 
BRANCH   7   8
ATOM      8  C   UNL A   1      33.175  23.161  24.059  1.00  0.00     0.044 A 
ATOM      9  C   UNL A   1      37.890  23.633  26.033  1.00  0.00     0.044 C 
ATOM     10  C   UNL A   1      36.695  22.842  25.583  1.00  0.00    -0.050 A 
ATOM     11  C   UNL A   1      36.735  21.447  25.545  1.00  0.00     0.005 A 
ATOM     12  C   UNL A   1      35.540  23.517  25.154  1.00  0.00     0.014 A 
ATOM     13  C   UNL A   1      35.658  20.701  25.054  1.00  0.00     0.027 A 
ATOM     14  C   UNL A   1      34.448  22.791  24.627  1.00  0.00     0.009 A 
ATOM     15  C   UNL A   1      34.545  21.401  24.577  1.00  0.00     0.046 A 
ATOM     16  N   UNL A   1      33.396  20.935  23.986  1.00  0.00    -0.361 N 
ATOM     17  C   UNL A   1      32.608  21.984  23.599  1.00  0.00     0.094 A 
ATOM     18  H   UNL A   1      33.172  19.985  23.858  1.00  0.00     0.166 HD
ENDBRANCH   7   8
BRANCH   7  19
ATOM     19  N   UNL A   1      31.434  24.674  23.073  1.00  0.00    -0.318 N 
ATOM     20  C   UNL A   1      30.115  24.752  23.720  1.00  0.00     0.284 C 
ATOM     21  C   UNL A   1      31.520  25.653  21.975  1.00  0.00     0.284 C 
ATOM     22  H   UNL A   1      31.463  23.730  22.685  1.00  0.00     0.349 HD
ATOM     23  C   UNL A   1      29.554  26.152  24.047  1.00  0.00     0.178 C 
ATOM     24  C   UNL A   1      31.062  27.097  22.294  1.00  0.00     0.178 C 
ATOM     25  N   UNL A   1      29.747  27.111  22.952  1.00  0.00    -0.360 N 
BRANCH  25  26
ATOM     26  C   UNL A   1      29.192  28.378  23.126  1.00  0.00     0.037 A 
ATOM     27  C   UNL A   1      27.822  28.635  22.953  1.00  0.00     0.029 A 
ATOM     28  C   UNL A   1      30.025  29.444  23.492  1.00  0.00     0.029 A 
ATOM     29  C   UNL A   1      27.307  29.923  23.104  1.00  0.00     0.041 A 
ATOM     30  C   UNL A   1      29.515  30.736  23.640  1.00  0.00     0.041 A 
ATOM     31  C   UNL A   1      28.161  30.964  23.439  1.00  0.00     0.123 A 
ATOM     32  F   UNL A   1      27.671  32.203  23.571  1.00  0.00    -0.207 F 
ENDBRANCH  25  26
ENDBRANCH   7  19
ENDBRANCH   4   7
ENDBRANCH   2   3
ENDBRANCH   1   2
BRANCH   1  33
ATOM     33  C   UNL A   1      33.774  28.701  27.535  1.00  0.00     0.118 C 
BRANCH  33  34
ATOM     34  N   UNL A   1      33.767  30.119  27.849  1.00  0.00    -0.352 N 
ATOM     35  C   UNL A   1      34.716  30.896  28.463  1.00  0.00     0.251 C 
ATOM     36  H   UNL A   1      32.952  30.599  27.577  1.00  0.00     0.163 HD
ATOM     37  O   UNL A   1      34.420  32.034  28.818  1.00  0.00    -0.269 OA
BRANCH  35  38
ATOM     38  C   UNL A   1      36.083  30.384  28.715  1.00  0.00     0.039 A 
ATOM     39  C   UNL A   1      37.016  30.451  27.675  1.00  0.00     0.014 A 
ATOM     40  C   UNL A   1      36.438  29.782  29.926  1.00  0.00     0.014 A 
ATOM     41  C   UNL A   1      38.306  29.953  27.861  1.00  0.00     0.010 A 
ATOM     42  C   UNL A   1      37.748  29.352  30.137  1.00  0.00     0.010 A 
ATOM     43  C   UNL A   1      38.691  29.419  29.102  1.00  0.00    -0.014 A 
BRANCH  43  44
ATOM     44  C   UNL A   1      40.076  28.926  29.311  1.00  0.00     0.031 A 
ATOM     45  C   UNL A   1      40.480  27.551  28.856  1.00  0.00     0.074 A 
ATOM     46  C   UNL A   1      40.969  29.715  29.938  1.00  0.00     0.049 A 
ATOM     47  N   UNL A   1      41.656  26.976  28.917  1.00  0.00    -0.248 NA
ATOM     48  C   UNL A   1      39.427  26.702  28.280  1.00  0.00     0.031 C 
ATOM     49  C   UNL A   1      40.690  31.046  30.481  1.00  0.00     0.029 A 
ATOM     50  N   UNL A   1      42.297  29.513  30.221  1.00  0.00    -0.354 N 
ATOM     51  C   UNL A   1      41.479  25.697  28.403  1.00  0.00     0.074 A 
ATOM     52  C   UNL A   1      40.075  25.564  28.080  1.00  0.00     0.031 C 
ATOM     53  C   UNL A   1      41.819  31.557  30.995  1.00  0.00     0.029 A 
ATOM     54  C   UNL A   1      42.894  30.583  30.842  1.00  0.00     0.049 A 
ATOM     55  H   UNL A   1      42.775  28.682  30.000  1.00  0.00     0.167 HD
ATOM     56  C   UNL A   1      42.403  24.728  28.200  1.00  0.00     0.031 A 
ATOM     57  C   UNL A   1      44.169  30.765  31.234  1.00  0.00     0.031 A 
ATOM     58  C   UNL A   1      43.802  24.863  28.507  1.00  0.00     0.049 A 
ATOM     59  C   UNL A   1      45.183  29.691  30.967  1.00  0.00     0.074 A 
ATOM     60  C   UNL A   1      44.828  23.963  28.277  1.00  0.00     0.029 A 
ATOM     61  N   UNL A   1      44.371  25.971  29.117  1.00  0.00    -0.354 N 
ATOM     62  N   UNL A   1      45.015  28.521  30.401  1.00  0.00    -0.248 NA
ATOM     63  C   UNL A   1      46.567  29.972  31.374  1.00  0.00     0.031 C 
ATOM     64  C   UNL A   1      46.011  24.508  28.787  1.00  0.00     0.029 A 
ATOM     65  C   UNL A   1      45.730  25.770  29.288  1.00  0.00     0.049 A 
ATOM     66  H   UNL A   1      43.881  26.781  29.387  1.00  0.00     0.167 HD
ATOM     67  C   UNL A   1      46.275  27.938  30.359  1.00  0.00     0.074 A 
ATOM     68  C   UNL A   1      47.197  28.889  30.944  1.00  0.00     0.031 C 
ATOM     69  C   UNL A   1      46.634  26.722  29.876  1.00  0.00     0.031 A 
BRANCH  56  70
ATOM     70  C   UNL A   1      41.921  23.426  27.620  1.00  0.00    -0.014 A 
ATOM     71  C   UNL A   1      41.946  23.192  26.234  1.00  0.00     0.009 A 
ATOM     72  C   UNL A   1      41.460  22.410  28.470  1.00  0.00     0.009 A 
ATOM     73  C   UNL A   1      41.481  21.984  25.713  1.00  0.00     0.001 A 
ATOM     74  C   UNL A   1      41.023  21.191  27.947  1.00  0.00     0.001 A 
ATOM     75  C   UNL A   1      41.023  20.983  26.569  1.00  0.00     0.000 A 
ENDBRANCH  56  70
BRANCH  57  76
ATOM     76  C   UNL A   1      44.564  32.043  31.878  1.00  0.00    -0.014 A 
ATOM     77  C   UNL A   1      45.032  33.116  31.105  1.00  0.00     0.009 A 
ATOM     78  C   UNL A   1      44.456  32.204  33.269  1.00  0.00     0.009 A 
ATOM     79  C   UNL A   1      45.403  34.317  31.713  1.00  0.00     0.001 A 
ATOM     80  C   UNL A   1      44.804  33.414  33.871  1.00  0.00     0.001 A 
ATOM     81  C   UNL A   1      45.284  34.467  33.093  1.00  0.00     0.000 A 
ENDBRANCH  57  76
BRANCH  69  82
ATOM     82  C   UNL A   1      48.093  26.369  29.935  1.00  0.00    -0.014 A 
ATOM     83  C   UNL A   1      48.643  25.724  31.053  1.00  0.00     0.009 A 
ATOM     84  C   UNL A   1      48.922  26.661  28.841  1.00  0.00     0.009 A 
ATOM     85  C   UNL A   1      50.005  25.412  31.088  1.00  0.00     0.001 A 
ATOM     86  C   UNL A   1      50.276  26.324  28.868  1.00  0.00     0.001 A 
ATOM     87  C   UNL A   1      50.817  25.710  29.996  1.00  0.00     0.000 A 
ENDBRANCH  69  82
ENDBRANCH  43  44
ENDBRANCH  35  38
ENDBRANCH  33  34
ENDBRANCH   1  33
TORSDOF 13
ENDMDL
MODEL 2
REMARK VINA RESULT:     -12.4      3.264      8.361
REMARK SMILES Cc1ccc2[nH]cc([C@@H](C(=O)NCCCNC(=O)c3ccc(-c4c5nc(c(-c6ccccc6)c6ccc([nH]6)c(-c6ccccc6)c6nc(c(-c7ccccc7)c7ccc4[nH]7)C=C6)C=C5)cc3)[NH+]3CCN(c4ccc(F)cc4)CC3)c2c1
REMARK SMILES IDX 14 1 13 2 12 3 10 4 11 5 9 7 8 8 1 9 2 10 3 11 81 12 4 13
REMARK SMILES IDX 80 14 5 15 6 16 7 17 67 19 68 20 79 21 69 23 78 24 70 25
REMARK SMILES IDX 71 26 72 27 77 28 73 29 76 30 74 31 75 32 15 33 16 34 17 35
REMARK SMILES IDX 18 37 19 38 20 39 66 40 21 41 65 42 22 43 23 44 24 45 59 46
REMARK SMILES IDX 25 47 64 48 58 49 60 50 26 51 63 52 57 53 56 54 27 56 49 57
REMARK SMILES IDX 34 58 48 59 35 60 38 61 47 62 61 63 36 64 37 65 46 67 62 68
REMARK SMILES IDX 39 69 28 70 29 71 33 72 30 73 32 74 31 75 50 76 51 77 55 78
REMARK SMILES IDX 52 79 54 80 53 81 40 82 41 83 45 84 42 85 44 86 43 87
REMARK H PARENT 12 6 6 18 67 22 16 36 60 55 38 66
REMARK Flexibility Score: inf
ROOT
ATOM      1  C   UNL A   1      36.171  23.421  26.185  1.00  0.00     0.042 C 
ENDROOT
BRANCH   1   2
ATOM      2  C   UNL A   1      34.801  23.600  25.537  1.00  0.00     0.118 C 
BRANCH   2   3
ATOM      3  N   UNL A   1      33.768  23.932  26.499  1.00  0.00    -0.351 N 
ATOM      4  C   UNL A   1      32.529  24.490  26.307  1.00  0.00     0.283 C 
ATOM      5  O   UNL A   1      31.882  24.708  27.336  1.00  0.00    -0.268 OA
ATOM      6  H   UNL A   1      33.991  23.725  27.435  1.00  0.00     0.163 HD
BRANCH   4   7
ATOM      7  C   UNL A   1      32.011  24.766  24.856  1.00  0.00     0.307 C 
BRANCH   7   8
ATOM      8  C   UNL A   1      31.459  26.161  24.699  1.00  0.00     0.044 A 
ATOM      9  C   UNL A   1      34.653  29.223  27.303  1.00  0.00     0.044 C 
ATOM     10  C   UNL A   1      33.491  28.961  26.388  1.00  0.00    -0.050 A 
ATOM     11  C   UNL A   1      32.662  30.003  25.968  1.00  0.00     0.005 A 
ATOM     12  C   UNL A   1      33.210  27.644  25.986  1.00  0.00     0.014 A 
ATOM     13  C   UNL A   1      31.532  29.763  25.180  1.00  0.00     0.027 A 
ATOM     14  C   UNL A   1      32.059  27.368  25.214  1.00  0.00     0.009 A 
ATOM     15  C   UNL A   1      31.242  28.436  24.846  1.00  0.00     0.046 A 
ATOM     16  N   UNL A   1      30.177  27.912  24.155  1.00  0.00    -0.361 N 
ATOM     17  C   UNL A   1      30.256  26.547  24.133  1.00  0.00     0.094 A 
ATOM     18  H   UNL A   1      29.460  28.442  23.737  1.00  0.00     0.166 HD
ENDBRANCH   7   8
BRANCH   7  19
ATOM     19  N   UNL A   1      31.114  23.702  24.345  1.00  0.00    -0.318 N 
ATOM     20  C   UNL A   1      31.352  23.147  23.004  1.00  0.00     0.284 C 
ATOM     21  C   UNL A   1      30.823  22.618  25.300  1.00  0.00     0.284 C 
ATOM     22  H   UNL A   1      30.280  24.280  24.230  1.00  0.00     0.349 HD
ATOM     23  C   UNL A   1      32.267  21.910  22.887  1.00  0.00     0.178 C 
ATOM     24  C   UNL A   1      31.781  21.403  25.284  1.00  0.00     0.178 C 
ATOM     25  N   UNL A   1      31.993  20.902  23.918  1.00  0.00    -0.360 N 
BRANCH  25  26
ATOM     26  C   UNL A   1      32.714  19.711  23.835  1.00  0.00     0.037 A 
ATOM     27  C   UNL A   1      32.307  18.634  23.030  1.00  0.00     0.029 A 
ATOM     28  C   UNL A   1      33.895  19.575  24.576  1.00  0.00     0.029 A 
ATOM     29  C   UNL A   1      33.037  17.445  22.997  1.00  0.00     0.041 A 
ATOM     30  C   UNL A   1      34.627  18.386  24.550  1.00  0.00     0.041 A 
ATOM     31  C   UNL A   1      34.187  17.330  23.764  1.00  0.00     0.123 A 
ATOM     32  F   UNL A   1      34.882  16.184  23.744  1.00  0.00    -0.207 F 
ENDBRANCH  25  26
ENDBRANCH   7  19
ENDBRANCH   4   7
ENDBRANCH   2   3
ENDBRANCH   1   2
BRANCH   1  33
ATOM     33  C   UNL A   1      37.348  23.695  25.258  1.00  0.00     0.118 C 
BRANCH  33  34
ATOM     34  N   UNL A   1      38.464  22.798  25.498  1.00  0.00    -0.352 N 
ATOM     35  C   UNL A   1      39.679  23.034  26.091  1.00  0.00     0.251 C 
ATOM     36  H   UNL A   1      38.328  21.875  25.188  1.00  0.00     0.163 HD
ATOM     37  O   UNL A   1      40.562  22.184  26.005  1.00  0.00    -0.269 OA
BRANCH  35  38
ATOM     38  C   UNL A   1      39.947  24.295  26.820  1.00  0.00     0.039 A 
ATOM     39  C   UNL A   1      39.410  24.443  28.103  1.00  0.00     0.014 A 
ATOM     40  C   UNL A   1      40.654  25.352  26.238  1.00  0.00     0.014 A 
ATOM     41  C   UNL A   1      39.614  25.628  28.813  1.00  0.00     0.010 A 
ATOM     42  C   UNL A   1      40.920  26.506  26.976  1.00  0.00     0.010 A 
ATOM     43  C   UNL A   1      40.390  26.662  28.264  1.00  0.00    -0.014 A 
BRANCH  43  44
ATOM     44  C   UNL A   1      40.640  27.905  29.036  1.00  0.00     0.031 A 
ATOM     45  C   UNL A   1      39.609  28.998  29.089  1.00  0.00     0.074 A 
ATOM     46  C   UNL A   1      41.816  28.061  29.673  1.00  0.00     0.049 A 
ATOM     47  N   UNL A   1      39.640  30.129  29.750  1.00  0.00    -0.248 NA
ATOM     48  C   UNL A   1      38.395  28.811  28.280  1.00  0.00     0.031 C 
ATOM     49  C   UNL A   1      42.924  27.103  29.653  1.00  0.00     0.029 A 
ATOM     50  N   UNL A   1      42.273  29.082  30.468  1.00  0.00    -0.354 N 
ATOM     51  C   UNL A   1      38.463  30.791  29.424  1.00  0.00     0.074 A 
ATOM     52  C   UNL A   1      37.762  29.959  28.471  1.00  0.00     0.031 C 
ATOM     53  C   UNL A   1      43.916  27.563  30.431  1.00  0.00     0.029 A 
ATOM     54  C   UNL A   1      43.526  28.856  30.984  1.00  0.00     0.049 A 
ATOM     55  H   UNL A   1      41.754  29.898  30.651  1.00  0.00     0.167 HD
ATOM     56  C   UNL A   1      37.997  31.975  29.889  1.00  0.00     0.031 A 
ATOM     57  C   UNL A   1      44.275  29.601  31.819  1.00  0.00     0.031 A 
ATOM     58  C   UNL A   1      38.686  32.798  30.847  1.00  0.00     0.049 A 
ATOM     59  C   UNL A   1      43.723  30.893  32.348  1.00  0.00     0.074 A 
ATOM     60  C   UNL A   1      38.265  33.982  31.430  1.00  0.00     0.029 A 
ATOM     61  N   UNL A   1      39.944  32.524  31.361  1.00  0.00    -0.354 N 
ATOM     62  N   UNL A   1      42.570  31.463  32.097  1.00  0.00    -0.248 NA
ATOM     63  C   UNL A   1      44.569  31.633  33.295  1.00  0.00     0.031 C 
ATOM     64  C   UNL A   1      39.288  34.446  32.264  1.00  0.00     0.029 A 
ATOM     65  C   UNL A   1      40.324  33.525  32.239  1.00  0.00     0.049 A 
ATOM     66  H   UNL A   1      40.486  31.734  31.135  1.00  0.00     0.167 HD
ATOM     67  C   UNL A   1      42.540  32.614  32.873  1.00  0.00     0.074 A 
ATOM     68  C   UNL A   1      43.784  32.652  33.614  1.00  0.00     0.031 C 
ATOM     69  C   UNL A   1      41.566  33.553  32.965  1.00  0.00     0.031 A 
BRANCH  56  70
ATOM     70  C   UNL A   1      36.674  32.453  29.356  1.00  0.00    -0.014 A 
ATOM     71  C   UNL A   1      36.604  33.367  28.290  1.00  0.00     0.009 A 
ATOM     72  C   UNL A   1      35.480  31.966  29.910  1.00  0.00     0.009 A 
ATOM     73  C   UNL A   1      35.367  33.810  27.820  1.00  0.00     0.001 A 
ATOM     74  C   UNL A   1      34.244  32.390  29.417  1.00  0.00     0.001 A 
ATOM     75  C   UNL A   1      34.188  33.320  28.380  1.00  0.00     0.000 A 
ENDBRANCH  56  70
BRANCH  57  76
ATOM     76  C   UNL A   1      45.611  29.112  32.242  1.00  0.00    -0.014 A 
ATOM     77  C   UNL A   1      46.755  29.431  31.496  1.00  0.00     0.009 A 
ATOM     78  C   UNL A   1      45.752  28.337  33.405  1.00  0.00     0.009 A 
ATOM     79  C   UNL A   1      48.012  28.969  31.895  1.00  0.00     0.001 A 
ATOM     80  C   UNL A   1      47.012  27.898  33.814  1.00  0.00     0.001 A 
ATOM     81  C   UNL A   1      48.140  28.209  33.055  1.00  0.00     0.000 A 
ENDBRANCH  57  76
BRANCH  69  82
ATOM     82  C   UNL A   1      41.799  34.686  33.924  1.00  0.00    -0.014 A 
ATOM     83  C   UNL A   1      42.478  35.848  33.529  1.00  0.00     0.009 A 
ATOM     84  C   UNL A   1      41.304  34.597  35.235  1.00  0.00     0.009 A 
ATOM     85  C   UNL A   1      42.689  36.885  34.441  1.00  0.00     0.001 A 
ATOM     86  C   UNL A   1      41.493  35.647  36.135  1.00  0.00     0.001 A 
ATOM     87  C   UNL A   1      42.194  36.784  35.740  1.00  0.00     0.000 A 
ENDBRANCH  69  82
ENDBRANCH  43  44
ENDBRANCH  35  38
ENDBRANCH  33  34
ENDBRANCH   1  33
TORSDOF 13
ENDMDL
MODEL 3
REMARK VINA RESULT:     -12.4      3.145      8.277
REMARK SMILES Cc1ccc2[nH]cc([C@@H](C(=O)NCCCNC(=O)c3ccc(-c4c5nc(c(-c6ccccc6)c6ccc([nH]6)c(-c6ccccc6)c6nc(c(-c7ccccc7)c7ccc4[nH]7)C=C6)C=C5)cc3)[NH+]3CCN(c4ccc(F)cc4)CC3)c2c1
REMARK SMILES IDX 14 1 13 2 12 3 10 4 11 5 9 7 8 8 1 9 2 10 3 11 81 12 4 13
REMARK SMILES IDX 80 14 5 15 6 16 7 17 67 19 68 20 79 21 69 23 78 24 70 25
REMARK SMILES IDX 71 26 72 27 77 28 73 29 76 30 74 31 75 32 15 33 16 34 17 35
REMARK SMILES IDX 18 37 19 38 20 39 66 40 21 41 65 42 22 43 23 44 24 45 59 46
REMARK SMILES IDX 25 47 64 48 58 49 60 50 26 51 63 52 57 53 56 54 27 56 49 57
REMARK SMILES IDX 34 58 48 59 35 60 38 61 47 62 61 63 36 64 37 65 46 67 62 68
REMARK SMILES IDX 39 69 28 70 29 71 33 72 30 73 32 74 31 75 50 76 51 77 55 78
REMARK SMILES IDX 52 79 54 80 53 81 40 82 41 83 45 84 42 85 44 86 43 87
REMARK H PARENT 12 6 6 18 67 22 16 36 60 55 38 66
REMARK Flexibility Score: inf
ROOT
ATOM      1  C   UNL A   1      36.081  23.861  26.103  1.00  0.00     0.042 C 
ENDROOT
BRANCH   1   2
ATOM      2  C   UNL A   1      34.722  23.281  25.721  1.00  0.00     0.118 C 
BRANCH   2   3
ATOM      3  N   UNL A   1      33.668  23.684  26.633  1.00  0.00    -0.351 N 
ATOM      4  C   UNL A   1      32.474  24.313  26.380  1.00  0.00     0.283 C 
ATOM      5  O   UNL A   1      31.797  24.579  27.377  1.00  0.00    -0.268 OA
ATOM      6  H   UNL A   1      33.835  23.473  27.580  1.00  0.00     0.163 HD
BRANCH   4   7
ATOM      7  C   UNL A   1      32.041  24.605  24.905  1.00  0.00     0.307 C 
BRANCH   7   8
ATOM      8  C   UNL A   1      31.488  25.999  24.735  1.00  0.00     0.044 A 
ATOM      9  C   UNL A   1      34.806  29.113  27.110  1.00  0.00     0.044 C 
ATOM     10  C   UNL A   1      33.604  28.832  26.255  1.00  0.00    -0.050 A 
ATOM     11  C   UNL A   1      32.762  29.867  25.843  1.00  0.00     0.005 A 
ATOM     12  C   UNL A   1      33.300  27.506  25.902  1.00  0.00     0.014 A 
ATOM     13  C   UNL A   1      31.597  29.611  25.113  1.00  0.00     0.027 A 
ATOM     14  C   UNL A   1      32.115  27.215  25.190  1.00  0.00     0.009 A 
ATOM     15  C   UNL A   1      31.287  28.278  24.829  1.00  0.00     0.046 A 
ATOM     16  N   UNL A   1      30.190  27.741  24.200  1.00  0.00    -0.361 N 
ATOM     17  C   UNL A   1      30.262  26.375  24.212  1.00  0.00     0.094 A 
ATOM     18  H   UNL A   1      29.458  28.263  23.800  1.00  0.00     0.166 HD
ENDBRANCH   7   8
BRANCH   7  19
ATOM     19  N   UNL A   1      31.183  23.543  24.329  1.00  0.00    -0.318 N 
ATOM     20  C   UNL A   1      31.515  22.993  23.006  1.00  0.00     0.284 C 
ATOM     21  C   UNL A   1      30.826  22.454  25.257  1.00  0.00     0.284 C 
ATOM     22  H   UNL A   1      30.359  24.120  24.157  1.00  0.00     0.349 HD
ATOM     23  C   UNL A   1      32.438  21.757  22.950  1.00  0.00     0.178 C 
ATOM     24  C   UNL A   1      31.785  21.240  25.305  1.00  0.00     0.178 C 
ATOM     25  N   UNL A   1      32.093  20.744  23.955  1.00  0.00    -0.360 N 
BRANCH  25  26
ATOM     26  C   UNL A   1      32.820  19.555  23.919  1.00  0.00     0.037 A 
ATOM     27  C   UNL A   1      32.394  18.428  23.196  1.00  0.00     0.029 A 
ATOM     28  C   UNL A   1      34.027  19.471  24.625  1.00  0.00     0.029 A 
ATOM     29  C   UNL A   1      33.131  17.243  23.209  1.00  0.00     0.041 A 
ATOM     30  C   UNL A   1      34.767  18.286  24.645  1.00  0.00     0.041 A 
ATOM     31  C   UNL A   1      34.308  17.181  23.941  1.00  0.00     0.123 A 
ATOM     32  F   UNL A   1      35.010  16.041  23.966  1.00  0.00    -0.207 F 
ENDBRANCH  25  26
ENDBRANCH   7  19
ENDBRANCH   4   7
ENDBRANCH   2   3
ENDBRANCH   1   2
BRANCH   1  33
ATOM     33  C   UNL A   1      37.159  23.692  25.040  1.00  0.00     0.118 C 
BRANCH  33  34
ATOM     34  N   UNL A   1      38.151  22.698  25.409  1.00  0.00    -0.352 N 
ATOM     35  C   UNL A   1      39.345  22.840  26.069  1.00  0.00     0.251 C 
ATOM     36  H   UNL A   1      37.931  21.776  25.145  1.00  0.00     0.163 HD
ATOM     37  O   UNL A   1      40.131  21.896  26.095  1.00  0.00    -0.269 OA
BRANCH  35  38
ATOM     38  C   UNL A   1      39.707  24.110  26.739  1.00  0.00     0.039 A 
ATOM     39  C   UNL A   1      39.279  24.308  28.055  1.00  0.00     0.014 A 
ATOM     40  C   UNL A   1      40.397  25.128  26.074  1.00  0.00     0.014 A 
ATOM     41  C   UNL A   1      39.573  25.503  28.713  1.00  0.00     0.010 A 
ATOM     42  C   UNL A   1      40.755  26.292  26.756  1.00  0.00     0.010 A 
ATOM     43  C   UNL A   1      40.334  26.498  28.077  1.00  0.00    -0.014 A 
BRANCH  43  44
ATOM     44  C   UNL A   1      40.681  27.752  28.791  1.00  0.00     0.031 A 
ATOM     45  C   UNL A   1      42.053  27.952  29.374  1.00  0.00     0.074 A 
ATOM     46  C   UNL A   1      39.745  28.710  28.936  1.00  0.00     0.049 A 
ATOM     47  N   UNL A   1      42.543  29.000  29.988  1.00  0.00    -0.248 NA
ATOM     48  C   UNL A   1      42.990  26.822  29.276  1.00  0.00     0.031 C 
ATOM     49  C   UNL A   1      38.360  28.618  28.469  1.00  0.00     0.029 A 
ATOM     50  N   UNL A   1      39.820  29.952  29.514  1.00  0.00    -0.354 N 
ATOM     51  C   UNL A   1      43.834  28.650  30.362  1.00  0.00     0.074 A 
ATOM     52  C   UNL A   1      44.036  27.278  29.949  1.00  0.00     0.031 C 
ATOM     53  C   UNL A   1      37.727  29.769  28.743  1.00  0.00     0.029 A 
ATOM     54  C   UNL A   1      38.651  30.668  29.426  1.00  0.00     0.049 A 
ATOM     55  H   UNL A   1      40.633  30.297  29.949  1.00  0.00     0.167 HD
ATOM     56  C   UNL A   1      44.775  29.407  30.977  1.00  0.00     0.031 A 
ATOM     57  C   UNL A   1      38.358  31.917  29.838  1.00  0.00     0.031 A 
ATOM     58  C   UNL A   1      44.582  30.776  31.376  1.00  0.00     0.049 A 
ATOM     59  C   UNL A   1      39.427  32.748  30.485  1.00  0.00     0.074 A 
ATOM     60  C   UNL A   1      45.496  31.647  31.944  1.00  0.00     0.029 A 
ATOM     61  N   UNL A   1      43.389  31.472  31.251  1.00  0.00    -0.354 N 
ATOM     62  N   UNL A   1      40.670  32.432  30.754  1.00  0.00    -0.248 NA
ATOM     63  C   UNL A   1      39.057  34.119  30.866  1.00  0.00     0.031 C 
ATOM     64  C   UNL A   1      44.843  32.857  32.203  1.00  0.00     0.029 A 
ATOM     65  C   UNL A   1      43.538  32.755  31.749  1.00  0.00     0.049 A 
ATOM     66  H   UNL A   1      42.561  31.107  30.864  1.00  0.00     0.167 HD
ATOM     67  C   UNL A   1      41.238  33.570  31.310  1.00  0.00     0.074 A 
ATOM     68  C   UNL A   1      40.208  34.588  31.327  1.00  0.00     0.031 C 
ATOM     69  C   UNL A   1      42.502  33.755  31.764  1.00  0.00     0.031 A 
BRANCH  56  70
ATOM     70  C   UNL A   1      46.104  28.761  31.260  1.00  0.00    -0.014 A 
ATOM     71  C   UNL A   1      46.342  28.083  32.468  1.00  0.00     0.009 A 
ATOM     72  C   UNL A   1      47.123  28.807  30.297  1.00  0.00     0.009 A 
ATOM     73  C   UNL A   1      47.586  27.502  32.720  1.00  0.00     0.001 A 
ATOM     74  C   UNL A   1      48.357  28.200  30.541  1.00  0.00     0.001 A 
ATOM     75  C   UNL A   1      48.591  27.558  31.756  1.00  0.00     0.000 A 
ENDBRANCH  56  70
BRANCH  57  76
ATOM     76  C   UNL A   1      37.000  32.468  29.603  1.00  0.00    -0.014 A 
ATOM     77  C   UNL A   1      36.006  32.357  30.587  1.00  0.00     0.009 A 
ATOM     78  C   UNL A   1      36.695  33.124  28.400  1.00  0.00     0.009 A 
ATOM     79  C   UNL A   1      34.728  32.875  30.363  1.00  0.00     0.001 A 
ATOM     80  C   UNL A   1      35.424  33.663  28.190  1.00  0.00     0.001 A 
ATOM     81  C   UNL A   1      34.441  33.532  29.169  1.00  0.00     0.000 A 
ENDBRANCH  57  76
BRANCH  69  82
ATOM     82  C   UNL A   1      42.846  35.120  32.289  1.00  0.00    -0.014 A 
ATOM     83  C   UNL A   1      43.505  36.065  31.489  1.00  0.00     0.009 A 
ATOM     84  C   UNL A   1      42.477  35.473  33.597  1.00  0.00     0.009 A 
ATOM     85  C   UNL A   1      43.821  37.325  32.002  1.00  0.00     0.001 A 
ATOM     86  C   UNL A   1      42.770  36.742  34.097  1.00  0.00     0.001 A 
ATOM     87  C   UNL A   1      43.451  37.663  33.302  1.00  0.00     0.000 A 
ENDBRANCH  69  82
ENDBRANCH  43  44
ENDBRANCH  35  38
ENDBRANCH  33  34
ENDBRANCH   1  33
TORSDOF 13
ENDMDL
