MODEL 1
REMARK VINA RESULT:     -11.5      0.000      0.000
REMARK SMILES CC[C@H](C)N1C(=O)c2ccccc2[C@@H](C(=O)NCCCNC(=O)c2ccc(-c3c4nc(c(-c5ccccc5)c5ccc([nH]5)c(-c5ccccc5)c5nc(c(-c6ccccc6)c6ccc3[nH]6)C=C5)C=C4)cc2)C12CCCCC2
REMARK SMILES IDX 19 1 18 2 17 3 15 4 16 5 14 7 5 8 6 9 72 10 7 11 8 12 73 13
REMARK SMILES IDX 77 14 9 15 13 16 74 17 76 18 10 19 12 20 75 21 11 22 3 23
REMARK SMILES IDX 4 24 2 25 1 26 20 27 21 28 22 29 23 31 24 32 25 33 71 34
REMARK SMILES IDX 26 35 70 36 27 37 28 38 29 39 64 40 30 41 69 42 63 43 65 44
REMARK SMILES IDX 31 45 68 46 62 47 61 48 32 50 54 51 39 52 53 53 40 54 43 55
REMARK SMILES IDX 52 56 66 57 41 58 42 59 51 61 67 62 44 63 33 64 34 65 38 66
REMARK SMILES IDX 35 67 37 68 36 69 55 70 56 71 60 72 57 73 59 74 58 75 45 76
REMARK SMILES IDX 46 77 50 78 47 79 49 80 48 81
REMARK H PARENT 17 6 21 30 65 49 43 60
REMARK Flexibility Score: inf
ROOT
ATOM      1  C   UNL A   1      32.743  27.568  26.526  1.00  0.00     0.042 C 
ENDROOT
BRANCH   1   2
ATOM      2  C   UNL A   1      32.954  26.077  26.277  1.00  0.00     0.117 C 
BRANCH   2   3
ATOM      3  N   UNL A   1      33.717  25.775  25.072  1.00  0.00    -0.355 N 
ATOM      4  C   UNL A   1      34.222  24.630  24.532  1.00  0.00     0.229 C 
ATOM      5  O   UNL A   1      34.764  24.756  23.428  1.00  0.00    -0.274 OA
ATOM      6  H   UNL A   1      33.910  26.573  24.528  1.00  0.00     0.163 HD
BRANCH   4   7
ATOM      7  C   UNL A   1      34.094  23.239  25.184  1.00  0.00     0.135 C 
ATOM      8  N   UNL A   1      33.512  20.782  24.759  1.00  0.00    -0.329 N 
ATOM      9  C   UNL A   1      34.866  20.434  24.679  1.00  0.00     0.254 C 
ATOM     10  C   UNL A   1      33.043  22.230  24.545  1.00  0.00     0.059 C 
ATOM     11  O   UNL A   1      35.285  19.314  24.397  1.00  0.00    -0.269 OA
ATOM     12  C   UNL A   1      35.868  21.439  25.084  1.00  0.00     0.044 A 
ATOM     13  C   UNL A   1      32.821  22.343  23.014  1.00  0.00     0.030 C 
ATOM     14  C   UNL A   1      31.638  22.510  25.199  1.00  0.00     0.030 C 
ATOM     15  C   UNL A   1      37.220  21.066  25.158  1.00  0.00     0.014 A 
ATOM     16  C   UNL A   1      35.481  22.711  25.481  1.00  0.00    -0.020 A 
ATOM     17  C   UNL A   1      32.102  23.590  22.497  1.00  0.00     0.002 C 
ATOM     18  C   UNL A   1      30.962  23.809  24.758  1.00  0.00     0.002 C 
ATOM     19  C   UNL A   1      38.174  21.938  25.683  1.00  0.00     0.001 A 
ATOM     20  C   UNL A   1      36.438  23.551  26.094  1.00  0.00     0.005 A 
ATOM     21  C   UNL A   1      30.812  23.893  23.244  1.00  0.00     0.000 C 
ATOM     22  C   UNL A   1      37.774  23.171  26.184  1.00  0.00     0.000 A 
BRANCH   8  23
ATOM     23  C   UNL A   1      32.525  19.686  24.971  1.00  0.00     0.082 C 
ATOM     24  C   UNL A   1      32.165  18.843  23.737  1.00  0.00     0.031 C 
BRANCH  23  25
ATOM     25  C   UNL A   1      33.019  18.803  26.134  1.00  0.00     0.021 C 
ATOM     26  C   UNL A   1      32.821  17.318  25.883  1.00  0.00     0.006 C 
ENDBRANCH  23  25
ENDBRANCH   8  23
ENDBRANCH   4   7
ENDBRANCH   2   3
ENDBRANCH   1   2
BRANCH   1  27
ATOM     27  C   UNL A   1      34.014  28.384  26.678  1.00  0.00     0.118 C 
BRANCH  27  28
ATOM     28  N   UNL A   1      33.736  29.744  27.095  1.00  0.00    -0.352 N 
ATOM     29  C   UNL A   1      34.488  30.556  27.908  1.00  0.00     0.251 C 
ATOM     30  H   UNL A   1      32.900  30.136  26.753  1.00  0.00     0.163 HD
ATOM     31  O   UNL A   1      33.998  31.582  28.378  1.00  0.00    -0.269 OA
BRANCH  29  32
ATOM     32  C   UNL A   1      35.880  30.181  28.244  1.00  0.00     0.039 A 
ATOM     33  C   UNL A   1      36.910  30.327  27.309  1.00  0.00     0.014 A 
ATOM     34  C   UNL A   1      36.162  29.674  29.515  1.00  0.00     0.014 A 
ATOM     35  C   UNL A   1      38.178  29.826  27.588  1.00  0.00     0.010 A 
ATOM     36  C   UNL A   1      37.460  29.260  29.827  1.00  0.00     0.010 A 
ATOM     37  C   UNL A   1      38.473  29.296  28.853  1.00  0.00    -0.014 A 
BRANCH  37  38
ATOM     38  C   UNL A   1      39.842  28.798  29.152  1.00  0.00     0.031 A 
ATOM     39  C   UNL A   1      40.822  29.650  29.914  1.00  0.00     0.074 A 
ATOM     40  C   UNL A   1      40.202  27.562  28.751  1.00  0.00     0.049 A 
ATOM     41  N   UNL A   1      42.066  29.388  30.232  1.00  0.00    -0.248 NA
ATOM     42  C   UNL A   1      40.351  30.965  30.379  1.00  0.00     0.031 C 
ATOM     43  C   UNL A   1      39.336  26.627  28.029  1.00  0.00     0.029 A 
ATOM     44  N   UNL A   1      41.379  26.873  28.905  1.00  0.00    -0.354 N 
ATOM     45  C   UNL A   1      42.528  30.507  30.913  1.00  0.00     0.074 A 
ATOM     46  C   UNL A   1      41.445  31.465  30.937  1.00  0.00     0.031 C 
ATOM     47  C   UNL A   1      39.994  25.473  27.845  1.00  0.00     0.029 A 
ATOM     48  C   UNL A   1      41.351  25.609  28.365  1.00  0.00     0.049 A 
ATOM     49  H   UNL A   1      42.168  27.247  29.360  1.00  0.00     0.167 HD
ATOM     50  C   UNL A   1      43.742  30.712  31.477  1.00  0.00     0.031 A 
ATOM     51  C   UNL A   1      42.310  24.667  28.273  1.00  0.00     0.031 A 
ATOM     52  C   UNL A   1      44.815  29.751  31.461  1.00  0.00     0.049 A 
ATOM     53  C   UNL A   1      43.670  24.945  28.848  1.00  0.00     0.074 A 
ATOM     54  C   UNL A   1      46.073  29.865  32.028  1.00  0.00     0.029 A 
ATOM     55  N   UNL A   1      44.760  28.507  30.853  1.00  0.00    -0.354 N 
ATOM     56  N   UNL A   1      44.086  26.003  29.500  1.00  0.00    -0.248 NA
ATOM     57  C   UNL A   1      44.693  23.903  28.680  1.00  0.00     0.031 C 
ATOM     58  C   UNL A   1      46.803  28.722  31.701  1.00  0.00     0.029 A 
ATOM     59  C   UNL A   1      45.974  27.858  31.004  1.00  0.00     0.049 A 
ATOM     60  H   UNL A   1      43.976  28.140  30.385  1.00  0.00     0.167 HD
ATOM     61  C   UNL A   1      45.407  25.746  29.839  1.00  0.00     0.074 A 
ATOM     62  C   UNL A   1      45.721  24.426  29.336  1.00  0.00     0.031 C 
ATOM     63  C   UNL A   1      46.278  26.539  30.508  1.00  0.00     0.031 A 
BRANCH  50  64
ATOM     64  C   UNL A   1      43.999  32.027  32.162  1.00  0.00    -0.014 A 
ATOM     65  C   UNL A   1      44.578  33.086  31.442  1.00  0.00     0.009 A 
ATOM     66  C   UNL A   1      43.778  32.188  33.539  1.00  0.00     0.009 A 
ATOM     67  C   UNL A   1      44.949  34.267  32.088  1.00  0.00     0.001 A 
ATOM     68  C   UNL A   1      44.120  33.383  34.176  1.00  0.00     0.001 A 
ATOM     69  C   UNL A   1      44.716  34.416  33.454  1.00  0.00     0.000 A 
ENDBRANCH  50  64
BRANCH  51  70
ATOM     70  C   UNL A   1      41.997  23.372  27.610  1.00  0.00    -0.014 A 
ATOM     71  C   UNL A   1      41.404  22.323  28.333  1.00  0.00     0.009 A 
ATOM     72  C   UNL A   1      42.347  23.155  26.269  1.00  0.00     0.009 A 
ATOM     73  C   UNL A   1      41.201  21.075  27.740  1.00  0.00     0.001 A 
ATOM     74  C   UNL A   1      42.111  21.916  25.668  1.00  0.00     0.001 A 
ATOM     75  C   UNL A   1      41.551  20.874  26.407  1.00  0.00     0.000 A 
ENDBRANCH  51  70
BRANCH  63  76
ATOM     76  C   UNL A   1      47.662  26.013  30.774  1.00  0.00    -0.014 A 
ATOM     77  C   UNL A   1      48.000  25.569  32.065  1.00  0.00     0.009 A 
ATOM     78  C   UNL A   1      48.666  26.081  29.797  1.00  0.00     0.009 A 
ATOM     79  C   UNL A   1      49.316  25.232  32.379  1.00  0.00     0.001 A 
ATOM     80  C   UNL A   1      49.977  25.711  30.105  1.00  0.00     0.001 A 
ATOM     81  C   UNL A   1      50.304  25.302  31.399  1.00  0.00     0.000 A 
ENDBRANCH  63  76
ENDBRANCH  37  38
ENDBRANCH  29  32
ENDBRANCH  27  28
ENDBRANCH   1  27
TORSDOF 12
ENDMDL
MODEL 2
REMARK VINA RESULT:     -11.4      0.565      5.875
REMARK SMILES CC[C@H](C)N1C(=O)c2ccccc2[C@@H](C(=O)NCCCNC(=O)c2ccc(-c3c4nc(c(-c5ccccc5)c5ccc([nH]5)c(-c5ccccc5)c5nc(c(-c6ccccc6)c6ccc3[nH]6)C=C5)C=C4)cc2)C12CCCCC2
REMARK SMILES IDX 19 1 18 2 17 3 15 4 16 5 14 7 5 8 6 9 72 10 7 11 8 12 73 13
REMARK SMILES IDX 77 14 9 15 13 16 74 17 76 18 10 19 12 20 75 21 11 22 3 23
REMARK SMILES IDX 4 24 2 25 1 26 20 27 21 28 22 29 23 31 24 32 25 33 71 34
REMARK SMILES IDX 26 35 70 36 27 37 28 38 29 39 64 40 30 41 69 42 63 43 65 44
REMARK SMILES IDX 31 45 68 46 62 47 61 48 32 50 54 51 39 52 53 53 40 54 43 55
REMARK SMILES IDX 52 56 66 57 41 58 42 59 51 61 67 62 44 63 33 64 34 65 38 66
REMARK SMILES IDX 35 67 37 68 36 69 55 70 56 71 60 72 57 73 59 74 58 75 45 76
REMARK SMILES IDX 46 77 50 78 47 79 49 80 48 81
REMARK H PARENT 17 6 21 30 65 49 43 60
REMARK Flexibility Score: inf
ROOT
ATOM      1  C   UNL A   1      32.702  27.494  26.501  1.00  0.00     0.042 C 
ENDROOT
BRANCH   1   2
ATOM      2  C   UNL A   1      32.911  26.004  26.245  1.00  0.00     0.117 C 
BRANCH   2   3
ATOM      3  N   UNL A   1      33.665  25.707  25.033  1.00  0.00    -0.355 N 
ATOM      4  C   UNL A   1      34.180  24.566  24.493  1.00  0.00     0.229 C 
ATOM      5  O   UNL A   1      34.707  24.695  23.382  1.00  0.00    -0.274 OA
ATOM      6  H   UNL A   1      33.839  26.505  24.482  1.00  0.00     0.163 HD
BRANCH   4   7
ATOM      7  C   UNL A   1      34.080  23.178  25.154  1.00  0.00     0.135 C 
ATOM      8  N   UNL A   1      33.525  20.711  24.751  1.00  0.00    -0.329 N 
ATOM      9  C   UNL A   1      34.883  20.381  24.653  1.00  0.00     0.254 C 
ATOM     10  C   UNL A   1      33.034  22.151  24.535  1.00  0.00     0.059 C 
ATOM     11  O   UNL A   1      35.313  19.266  24.370  1.00  0.00    -0.269 OA
ATOM     12  C   UNL A   1      35.877  21.402  25.037  1.00  0.00     0.044 A 
ATOM     13  C   UNL A   1      32.789  22.253  23.008  1.00  0.00     0.030 C 
ATOM     14  C   UNL A   1      31.635  22.416  25.208  1.00  0.00     0.030 C 
ATOM     15  C   UNL A   1      37.235  21.047  25.093  1.00  0.00     0.014 A 
ATOM     16  C   UNL A   1      35.479  22.670  25.434  1.00  0.00    -0.020 A 
ATOM     17  C   UNL A   1      32.045  23.488  22.494  1.00  0.00     0.002 C 
ATOM     18  C   UNL A   1      30.935  23.704  24.771  1.00  0.00     0.002 C 
ATOM     19  C   UNL A   1      38.185  21.935  25.601  1.00  0.00     0.001 A 
ATOM     20  C   UNL A   1      36.433  23.526  26.028  1.00  0.00     0.005 A 
ATOM     21  C   UNL A   1      30.763  23.777  23.259  1.00  0.00     0.000 C 
ATOM     22  C   UNL A   1      37.776  23.165  26.101  1.00  0.00     0.000 A 
BRANCH   8  23
ATOM     23  C   UNL A   1      32.557  19.603  24.982  1.00  0.00     0.082 C 
ATOM     24  C   UNL A   1      32.163  18.770  23.751  1.00  0.00     0.031 C 
BRANCH  23  25
ATOM     25  C   UNL A   1      33.098  18.712  26.117  1.00  0.00     0.021 C 
ATOM     26  C   UNL A   1      32.881  17.229  25.869  1.00  0.00     0.006 C 
ENDBRANCH  23  25
ENDBRANCH   8  23
ENDBRANCH   4   7
ENDBRANCH   2   3
ENDBRANCH   1   2
BRANCH   1  27
ATOM     27  C   UNL A   1      33.970  28.329  26.539  1.00  0.00     0.118 C 
BRANCH  27  28
ATOM     28  N   UNL A   1      33.695  29.717  26.851  1.00  0.00    -0.352 N 
ATOM     29  C   UNL A   1      34.405  30.562  27.667  1.00  0.00     0.251 C 
ATOM     30  H   UNL A   1      32.895  30.103  26.425  1.00  0.00     0.163 HD
ATOM     31  O   UNL A   1      33.907  31.626  28.036  1.00  0.00    -0.269 OA
BRANCH  29  32
ATOM     32  C   UNL A   1      35.760  30.182  28.127  1.00  0.00     0.039 A 
ATOM     33  C   UNL A   1      36.867  30.310  27.283  1.00  0.00     0.014 A 
ATOM     34  C   UNL A   1      35.927  29.691  29.424  1.00  0.00     0.014 A 
ATOM     35  C   UNL A   1      38.102  29.804  27.677  1.00  0.00     0.010 A 
ATOM     36  C   UNL A   1      37.189  29.272  29.852  1.00  0.00     0.010 A 
ATOM     37  C   UNL A   1      38.283  29.288  28.970  1.00  0.00    -0.014 A 
BRANCH  37  38
ATOM     38  C   UNL A   1      39.617  28.785  29.393  1.00  0.00     0.031 A 
ATOM     39  C   UNL A   1      40.120  27.446  28.923  1.00  0.00     0.074 A 
ATOM     40  C   UNL A   1      40.391  29.547  30.192  1.00  0.00     0.049 A 
ATOM     41  N   UNL A   1      41.243  26.839  29.221  1.00  0.00    -0.248 NA
ATOM     42  C   UNL A   1      39.257  26.688  28.003  1.00  0.00     0.031 C 
ATOM     43  C   UNL A   1      40.031  30.875  30.694  1.00  0.00     0.029 A 
ATOM     44  N   UNL A   1      41.643  29.326  30.709  1.00  0.00    -0.354 N 
ATOM     45  C   UNL A   1      41.210  25.626  28.544  1.00  0.00     0.074 A 
ATOM     46  C   UNL A   1      39.946  25.566  27.844  1.00  0.00     0.031 C 
ATOM     47  C   UNL A   1      41.054  31.368  31.406  1.00  0.00     0.029 A 
ATOM     48  C   UNL A   1      42.112  30.365  31.477  1.00  0.00     0.049 A 
ATOM     49  H   UNL A   1      42.156  28.502  30.546  1.00  0.00     0.167 HD
ATOM     50  C   UNL A   1      42.154  24.656  28.501  1.00  0.00     0.031 A 
ATOM     51  C   UNL A   1      43.253  30.497  32.180  1.00  0.00     0.031 A 
ATOM     52  C   UNL A   1      43.417  24.725  29.190  1.00  0.00     0.049 A 
ATOM     53  C   UNL A   1      44.256  29.378  32.171  1.00  0.00     0.074 A 
ATOM     54  C   UNL A   1      44.445  23.797  29.185  1.00  0.00     0.029 A 
ATOM     55  N   UNL A   1      43.825  25.772  30.001  1.00  0.00    -0.354 N 
ATOM     56  N   UNL A   1      44.215  28.244  31.515  1.00  0.00    -0.248 NA
ATOM     57  C   UNL A   1      45.462  29.553  32.993  1.00  0.00     0.031 C 
ATOM     58  C   UNL A   1      45.443  24.248  30.050  1.00  0.00     0.029 A 
ATOM     59  C   UNL A   1      45.077  25.496  30.527  1.00  0.00     0.049 A 
ATOM     60  H   UNL A   1      43.304  26.588  30.177  1.00  0.00     0.167 HD
ATOM     61  C   UNL A   1      45.395  27.582  31.825  1.00  0.00     0.074 A 
ATOM     62  C   UNL A   1      46.141  28.447  32.716  1.00  0.00     0.031 C 
ATOM     63  C   UNL A   1      45.818  26.365  31.407  1.00  0.00     0.031 A 
BRANCH  50  64
ATOM     64  C   UNL A   1      41.874  23.421  27.688  1.00  0.00    -0.014 A 
ATOM     65  C   UNL A   1      41.260  22.312  28.296  1.00  0.00     0.009 A 
ATOM     66  C   UNL A   1      42.314  23.306  26.360  1.00  0.00     0.009 A 
ATOM     67  C   UNL A   1      41.111  21.111  27.600  1.00  0.00     0.001 A 
ATOM     68  C   UNL A   1      42.135  22.113  25.657  1.00  0.00     0.001 A 
ATOM     69  C   UNL A   1      41.546  21.014  26.280  1.00  0.00     0.000 A 
ENDBRANCH  50  64
BRANCH  51  70
ATOM     70  C   UNL A   1      43.496  31.750  32.946  1.00  0.00    -0.014 A 
ATOM     71  C   UNL A   1      44.195  32.821  32.363  1.00  0.00     0.009 A 
ATOM     72  C   UNL A   1      43.087  31.859  34.283  1.00  0.00     0.009 A 
ATOM     73  C   UNL A   1      44.510  33.956  33.111  1.00  0.00     0.001 A 
ATOM     74  C   UNL A   1      43.373  33.012  35.019  1.00  0.00     0.001 A 
ATOM     75  C   UNL A   1      44.095  34.053  34.437  1.00  0.00     0.000 A 
ENDBRANCH  51  70
BRANCH  63  76
ATOM     76  C   UNL A   1      47.164  25.878  31.872  1.00  0.00    -0.014 A 
ATOM     77  C   UNL A   1      47.284  25.274  33.136  1.00  0.00     0.009 A 
ATOM     78  C   UNL A   1      48.325  26.136  31.130  1.00  0.00     0.009 A 
ATOM     79  C   UNL A   1      48.540  24.966  33.659  1.00  0.00     0.001 A 
ATOM     80  C   UNL A   1      49.580  25.795  31.642  1.00  0.00     0.001 A 
ATOM     81  C   UNL A   1      49.687  25.224  32.911  1.00  0.00     0.000 A 
ENDBRANCH  63  76
ENDBRANCH  37  38
ENDBRANCH  29  32
ENDBRANCH  27  28
ENDBRANCH   1  27
TORSDOF 12
ENDMDL
MODEL 3
REMARK VINA RESULT:     -11.4      2.684      8.079
REMARK SMILES CC[C@H](C)N1C(=O)c2ccccc2[C@@H](C(=O)NCCCNC(=O)c2ccc(-c3c4nc(c(-c5ccccc5)c5ccc([nH]5)c(-c5ccccc5)c5nc(c(-c6ccccc6)c6ccc3[nH]6)C=C5)C=C4)cc2)C12CCCCC2
REMARK SMILES IDX 19 1 18 2 17 3 15 4 16 5 14 7 5 8 6 9 72 10 7 11 8 12 73 13
REMARK SMILES IDX 77 14 9 15 13 16 74 17 76 18 10 19 12 20 75 21 11 22 3 23
REMARK SMILES IDX 4 24 2 25 1 26 20 27 21 28 22 29 23 31 24 32 25 33 71 34
REMARK SMILES IDX 26 35 70 36 27 37 28 38 29 39 64 40 30 41 69 42 63 43 65 44
REMARK SMILES IDX 31 45 68 46 62 47 61 48 32 50 54 51 39 52 53 53 40 54 43 55
REMARK SMILES IDX 52 56 66 57 41 58 42 59 51 61 67 62 44 63 33 64 34 65 38 66
REMARK SMILES IDX 35 67 37 68 36 69 55 70 56 71 60 72 57 73 59 74 58 75 45 76
REMARK SMILES IDX 46 77 50 78 47 79 49 80 48 81
REMARK H PARENT 17 6 21 30 65 49 43 60
REMARK Flexibility Score: inf
ROOT
ATOM      1  C   UNL A   1      35.896  23.557  24.436  1.00  0.00     0.042 C 
ENDROOT
BRANCH   1   2
ATOM      2  C   UNL A   1      34.797  24.590  24.204  1.00  0.00     0.117 C 
BRANCH   2   3
ATOM      3  N   UNL A   1      34.003  24.894  25.390  1.00  0.00    -0.355 N 
ATOM      4  C   UNL A   1      33.111  25.874  25.707  1.00  0.00     0.229 C 
ATOM      5  O   UNL A   1      32.566  25.760  26.811  1.00  0.00    -0.274 OA
ATOM      6  H   UNL A   1      34.142  24.249  26.121  1.00  0.00     0.163 HD
BRANCH   4   7
ATOM      7  C   UNL A   1      32.726  27.028  24.762  1.00  0.00     0.135 C 
ATOM      8  N   UNL A   1      30.767  28.330  23.748  1.00  0.00    -0.329 N 
ATOM      9  C   UNL A   1      30.923  29.366  24.678  1.00  0.00     0.254 C 
ATOM     10  C   UNL A   1      31.324  26.923  24.017  1.00  0.00     0.059 C 
ATOM     11  O   UNL A   1      30.178  30.337  24.774  1.00  0.00    -0.269 OA
ATOM     12  C   UNL A   1      32.133  29.367  25.523  1.00  0.00     0.044 A 
ATOM     13  C   UNL A   1      30.189  26.196  24.783  1.00  0.00     0.030 C 
ATOM     14  C   UNL A   1      31.538  26.097  22.692  1.00  0.00     0.030 C 
ATOM     15  C   UNL A   1      32.387  30.471  26.353  1.00  0.00     0.014 A 
ATOM     16  C   UNL A   1      33.064  28.342  25.435  1.00  0.00    -0.020 A 
ATOM     17  C   UNL A   1      30.325  24.683  24.975  1.00  0.00     0.002 C 
ATOM     18  C   UNL A   1      31.774  24.599  22.889  1.00  0.00     0.002 C 
ATOM     19  C   UNL A   1      33.593  30.582  27.046  1.00  0.00     0.001 A 
ATOM     20  C   UNL A   1      34.316  28.506  26.070  1.00  0.00     0.005 A 
ATOM     21  C   UNL A   1      30.656  23.943  23.689  1.00  0.00     0.000 C 
ATOM     22  C   UNL A   1      34.573  29.612  26.876  1.00  0.00     0.000 A 
BRANCH   8  23
ATOM     23  C   UNL A   1      29.964  28.610  22.525  1.00  0.00     0.082 C 
ATOM     24  C   UNL A   1      28.436  28.545  22.681  1.00  0.00     0.031 C 
BRANCH  23  25
ATOM     25  C   UNL A   1      30.416  29.964  21.945  1.00  0.00     0.021 C 
ATOM     26  C   UNL A   1      29.258  30.846  21.512  1.00  0.00     0.006 C 
ENDBRANCH  23  25
ENDBRANCH   8  23
ENDBRANCH   4   7
ENDBRANCH   2   3
ENDBRANCH   1   2
BRANCH   1  27
ATOM     27  C   UNL A   1      36.657  23.704  25.743  1.00  0.00     0.118 C 
BRANCH  27  28
ATOM     28  N   UNL A   1      37.615  22.633  25.934  1.00  0.00    -0.352 N 
ATOM     29  C   UNL A   1      38.922  22.725  26.342  1.00  0.00     0.251 C 
ATOM     30  H   UNL A   1      37.286  21.724  25.746  1.00  0.00     0.163 HD
ATOM     31  O   UNL A   1      39.679  21.763  26.207  1.00  0.00    -0.269 OA
BRANCH  29  32
ATOM     32  C   UNL A   1      39.432  23.990  26.916  1.00  0.00     0.039 A 
ATOM     33  C   UNL A   1      39.265  24.281  28.274  1.00  0.00     0.014 A 
ATOM     34  C   UNL A   1      40.088  24.901  26.085  1.00  0.00     0.014 A 
ATOM     35  C   UNL A   1      39.611  25.537  28.762  1.00  0.00     0.010 A 
ATOM     36  C   UNL A   1      40.521  26.126  26.601  1.00  0.00     0.010 A 
ATOM     37  C   UNL A   1      40.252  26.473  27.936  1.00  0.00    -0.014 A 
BRANCH  37  38
ATOM     38  C   UNL A   1      40.651  27.798  28.479  1.00  0.00     0.031 A 
ATOM     39  C   UNL A   1      42.088  28.091  28.820  1.00  0.00     0.074 A 
ATOM     40  C   UNL A   1      39.715  28.754  28.650  1.00  0.00     0.049 A 
ATOM     41  N   UNL A   1      42.607  29.179  29.334  1.00  0.00    -0.248 NA
ATOM     42  C   UNL A   1      43.072  27.029  28.553  1.00  0.00     0.031 C 
ATOM     43  C   UNL A   1      38.294  28.607  28.333  1.00  0.00     0.029 A 
ATOM     44  N   UNL A   1      39.819  30.041  29.117  1.00  0.00    -0.354 N 
ATOM     45  C   UNL A   1      43.966  28.926  29.469  1.00  0.00     0.074 A 
ATOM     46  C   UNL A   1      44.191  27.572  29.013  1.00  0.00     0.031 C 
ATOM     47  C   UNL A   1      37.668  29.769  28.569  1.00  0.00     0.029 A 
ATOM     48  C   UNL A   1      38.624  30.720  29.126  1.00  0.00     0.049 A 
ATOM     49  H   UNL A   1      40.668  30.440  29.416  1.00  0.00     0.167 HD
ATOM     50  C   UNL A   1      44.939  29.752  29.920  1.00  0.00     0.031 A 
ATOM     51  C   UNL A   1      38.317  31.961  29.552  1.00  0.00     0.031 A 
ATOM     52  C   UNL A   1      44.712  31.104  30.363  1.00  0.00     0.049 A 
ATOM     53  C   UNL A   1      39.404  32.835  30.112  1.00  0.00     0.074 A 
ATOM     54  C   UNL A   1      45.644  32.022  30.816  1.00  0.00     0.029 A 
ATOM     55  N   UNL A   1      43.477  31.730  30.407  1.00  0.00    -0.354 N 
ATOM     56  N   UNL A   1      40.686  32.585  30.220  1.00  0.00    -0.248 NA
ATOM     57  C   UNL A   1      39.007  34.161  30.606  1.00  0.00     0.031 C 
ATOM     58  C   UNL A   1      44.964  33.177  31.203  1.00  0.00     0.029 A 
ATOM     59  C   UNL A   1      43.619  33.012  30.910  1.00  0.00     0.049 A 
ATOM     60  H   UNL A   1      42.626  31.325  30.123  1.00  0.00     0.167 HD
ATOM     61  C   UNL A   1      41.252  33.726  30.771  1.00  0.00     0.074 A 
ATOM     62  C   UNL A   1      40.177  34.678  30.961  1.00  0.00     0.031 C 
ATOM     63  C   UNL A   1      42.547  33.959  31.090  1.00  0.00     0.031 A 
BRANCH  50  64
ATOM     64  C   UNL A   1      46.350  29.232  29.973  1.00  0.00    -0.014 A 
ATOM     65  C   UNL A   1      47.174  29.336  28.839  1.00  0.00     0.009 A 
ATOM     66  C   UNL A   1      46.832  28.542  31.097  1.00  0.00     0.009 A 
ATOM     67  C   UNL A   1      48.437  28.743  28.820  1.00  0.00     0.001 A 
ATOM     68  C   UNL A   1      48.109  27.977  31.086  1.00  0.00     0.001 A 
ATOM     69  C   UNL A   1      48.905  28.067  29.945  1.00  0.00     0.000 A 
ENDBRANCH  50  64
BRANCH  51  70
ATOM     70  C   UNL A   1      36.911  32.439  29.452  1.00  0.00    -0.014 A 
ATOM     71  C   UNL A   1      36.470  33.134  28.314  1.00  0.00     0.009 A 
ATOM     72  C   UNL A   1      36.020  32.258  30.521  1.00  0.00     0.009 A 
ATOM     73  C   UNL A   1      35.182  33.669  28.261  1.00  0.00     0.001 A 
ATOM     74  C   UNL A   1      34.720  32.763  30.450  1.00  0.00     0.001 A 
ATOM     75  C   UNL A   1      34.306  33.479  29.327  1.00  0.00     0.000 A 
ENDBRANCH  51  70
BRANCH  63  76
ATOM     76  C   UNL A   1      42.912  35.304  31.658  1.00  0.00    -0.014 A 
ATOM     77  C   UNL A   1      43.474  36.282  30.819  1.00  0.00     0.009 A 
ATOM     78  C   UNL A   1      42.829  35.557  33.034  1.00  0.00     0.009 A 
ATOM     79  C   UNL A   1      43.972  37.472  31.350  1.00  0.00     0.001 A 
ATOM     80  C   UNL A   1      43.298  36.764  33.559  1.00  0.00     0.001 A 
ATOM     81  C   UNL A   1      43.882  37.714  32.719  1.00  0.00     0.000 A 
ENDBRANCH  63  76
ENDBRANCH  37  38
ENDBRANCH  29  32
ENDBRANCH  27  28
ENDBRANCH   1  27
TORSDOF 12
ENDMDL
