MODEL 1
REMARK VINA RESULT:     -11.8      0.000      0.000
REMARK SMILES C[N@H+]1[C@H](C(=O)NCCCNC(=O)c2ccc(-c3c4nc(c(-c5ccccc5)c5ccc([nH]5)c(-c5ccccc5)c5nc(c(-c6ccccc6)c6ccc3[nH]6)C=C5)C=C4)cc2)C[C@H](C(=O)NCC2(CO)CCCC2)[C@@H]1c1ccccc1F
REMARK SMILES IDX 4 1 5 2 6 3 3 5 1 6 2 7 74 8 61 10 62 11 75 12 76 13 80 14
REMARK SMILES IDX 77 15 79 16 81 17 78 18 63 19 64 20 65 21 66 23 67 24 70 25
REMARK SMILES IDX 73 26 71 27 72 28 68 29 69 30 7 32 8 33 9 34 10 35 11 36
REMARK SMILES IDX 12 38 13 39 14 40 60 41 15 42 59 43 16 44 17 45 18 46 53 47
REMARK SMILES IDX 19 48 58 49 52 50 54 51 20 52 57 53 51 54 50 55 21 57 43 58
REMARK SMILES IDX 28 59 42 60 29 61 32 62 41 63 55 64 30 65 31 66 40 68 56 69
REMARK SMILES IDX 33 70 22 71 23 72 27 73 24 74 26 75 25 76 44 77 45 78 49 79
REMARK SMILES IDX 46 80 48 81 47 82 34 83 35 84 39 85 36 86 38 87 37 88
REMARK H PARENT 6 4 2 9 65 22 69 31 10 37 54 56 32 67
REMARK Flexibility Score: inf
ROOT
ATOM      1  C   UNL A   1      35.922  22.934  23.460  1.00  0.00     0.278 C 
ATOM      2  O   UNL A   1      36.413  23.701  22.625  1.00  0.00    -0.268 OA
ATOM      3  N   UNL A   1      36.697  21.900  23.898  1.00  0.00    -0.351 N 
ATOM      4  H   UNL A   1      37.603  21.853  23.513  1.00  0.00     0.163 HD
ENDROOT
BRANCH   1   5
ATOM      5  C   UNL A   1      34.506  23.188  24.015  1.00  0.00     0.275 C 
ATOM      6  C   UNL A   1      34.886  23.743  26.333  1.00  0.00     0.333 C 
ATOM      7  N   UNL A   1      34.476  24.265  25.029  1.00  0.00    -0.320 N 
ATOM      8  C   UNL A   1      33.096  24.797  25.001  1.00  0.00     0.231 C 
ATOM      9  H   UNL A   1      35.135  25.019  24.833  1.00  0.00     0.349 HD
ATOM     10  C   UNL A   1      33.493  23.588  22.947  1.00  0.00     0.095 C 
ATOM     11  C   UNL A   1      32.739  24.817  23.488  1.00  0.00     0.148 C 
BRANCH   8  12
ATOM     12  C   UNL A   1      32.792  26.093  25.726  1.00  0.00     0.046 A 
ATOM     13  C   UNL A   1      33.829  27.043  25.838  1.00  0.00     0.013 A 
ATOM     14  C   UNL A   1      31.593  26.364  26.399  1.00  0.00     0.132 A 
ATOM     15  C   UNL A   1      33.682  28.187  26.626  1.00  0.00     0.001 A 
ATOM     16  C   UNL A   1      31.438  27.515  27.173  1.00  0.00     0.040 A 
ATOM     17  F   UNL A   1      30.560  25.509  26.361  1.00  0.00    -0.206 F 
ATOM     18  C   UNL A   1      32.487  28.419  27.301  1.00  0.00     0.003 A 
ENDBRANCH   8  12
BRANCH  11  19
ATOM     19  C   UNL A   1      33.056  26.119  22.718  1.00  0.00     0.229 C 
ATOM     20  O   UNL A   1      34.175  26.446  22.325  1.00  0.00    -0.275 OA
ATOM     21  N   UNL A   1      32.059  27.007  22.444  1.00  0.00    -0.355 N 
ATOM     22  H   UNL A   1      32.329  27.778  21.894  1.00  0.00     0.163 HD
BRANCH  21  23
ATOM     23  C   UNL A   1      30.669  26.997  22.833  1.00  0.00     0.125 C 
BRANCH  23  24
ATOM     24  C   UNL A   1      30.098  28.410  23.030  1.00  0.00     0.011 C 
ATOM     25  C   UNL A   1      30.266  29.214  21.731  1.00  0.00     0.011 C 
ATOM     26  C   UNL A   1      28.567  28.403  23.191  1.00  0.00     0.011 C 
ATOM     27  C   UNL A   1      29.210  30.309  21.801  1.00  0.00     0.001 C 
ATOM     28  C   UNL A   1      28.105  29.773  22.709  1.00  0.00     0.001 C 
BRANCH  24  29
ATOM     29  C   UNL A   1      30.799  29.112  24.212  1.00  0.00     0.164 C 
BRANCH  29  30
ATOM     30  O   UNL A   1      32.086  29.592  23.838  1.00  0.00    -0.396 OA
ATOM     31  H   UNL A   1      32.132  29.673  22.873  1.00  0.00     0.210 HD
ENDBRANCH  29  30
ENDBRANCH  24  29
ENDBRANCH  23  24
ENDBRANCH  21  23
ENDBRANCH  11  19
ENDBRANCH   1   5
BRANCH   3  32
ATOM     32  C   UNL A   1      36.366  20.864  24.851  1.00  0.00     0.118 C 
BRANCH  32  33
ATOM     33  C   UNL A   1      37.442  19.813  25.013  1.00  0.00     0.042 C 
BRANCH  33  34
ATOM     34  C   UNL A   1      38.733  20.375  25.570  1.00  0.00     0.118 C 
BRANCH  34  35
ATOM     35  N   UNL A   1      39.784  19.370  25.699  1.00  0.00    -0.352 N 
ATOM     36  C   UNL A   1      41.096  19.512  26.076  1.00  0.00     0.251 C 
ATOM     37  H   UNL A   1      39.510  18.449  25.482  1.00  0.00     0.163 HD
ATOM     38  O   UNL A   1      41.876  18.570  25.969  1.00  0.00    -0.269 OA
BRANCH  36  39
ATOM     39  C   UNL A   1      41.573  20.811  26.590  1.00  0.00     0.039 A 
ATOM     40  C   UNL A   1      42.130  21.732  25.700  1.00  0.00     0.014 A 
ATOM     41  C   UNL A   1      41.449  21.127  27.944  1.00  0.00     0.014 A 
ATOM     42  C   UNL A   1      42.491  23.000  26.158  1.00  0.00     0.010 A 
ATOM     43  C   UNL A   1      41.707  22.422  28.375  1.00  0.00     0.010 A 
ATOM     44  C   UNL A   1      42.240  23.370  27.489  1.00  0.00    -0.014 A 
BRANCH  44  45
ATOM     45  C   UNL A   1      42.537  24.734  27.989  1.00  0.00     0.031 A 
ATOM     46  C   UNL A   1      43.941  25.090  28.399  1.00  0.00     0.074 A 
ATOM     47  C   UNL A   1      41.540  25.626  28.141  1.00  0.00     0.049 A 
ATOM     48  N   UNL A   1      44.387  26.192  28.946  1.00  0.00    -0.248 NA
ATOM     49  C   UNL A   1      44.975  24.061  28.192  1.00  0.00     0.031 C 
ATOM     50  C   UNL A   1      40.131  25.393  27.813  1.00  0.00     0.029 A 
ATOM     51  N   UNL A   1      41.560  26.911  28.621  1.00  0.00    -0.354 N 
ATOM     52  C   UNL A   1      45.745  25.983  29.157  1.00  0.00     0.074 A 
ATOM     53  C   UNL A   1      46.037  24.629  28.742  1.00  0.00     0.031 C 
ATOM     54  C   UNL A   1      39.429  26.507  28.075  1.00  0.00     0.029 A 
ATOM     55  C   UNL A   1      40.324  27.513  28.636  1.00  0.00     0.049 A 
ATOM     56  H   UNL A   1      42.381  27.361  28.927  1.00  0.00     0.167 HD
ATOM     57  C   UNL A   1      46.672  26.847  29.630  1.00  0.00     0.031 A 
ATOM     58  C   UNL A   1      39.952  28.734  29.067  1.00  0.00     0.031 A 
ATOM     59  C   UNL A   1      46.382  28.194  30.042  1.00  0.00     0.049 A 
ATOM     60  C   UNL A   1      40.996  29.659  29.632  1.00  0.00     0.074 A 
ATOM     61  C   UNL A   1      47.258  29.161  30.506  1.00  0.00     0.029 A 
ATOM     62  N   UNL A   1      45.119  28.763  30.040  1.00  0.00    -0.354 N 
ATOM     63  N   UNL A   1      42.286  29.466  29.770  1.00  0.00    -0.248 NA
ATOM     64  C   UNL A   1      40.531  30.975  30.092  1.00  0.00     0.031 C 
ATOM     65  C   UNL A   1      46.515  30.299  30.834  1.00  0.00     0.029 A 
ATOM     66  C   UNL A   1      45.188  30.063  30.514  1.00  0.00     0.049 A 
ATOM     67  H   UNL A   1      44.295  28.311  29.746  1.00  0.00     0.167 HD
ATOM     68  C   UNL A   1      42.790  30.648  30.298  1.00  0.00     0.074 A 
ATOM     69  C   UNL A   1      41.670  31.556  30.439  1.00  0.00     0.031 C 
ATOM     70  C   UNL A   1      44.065  30.956  30.635  1.00  0.00     0.031 A 
BRANCH  57  71
ATOM     71  C   UNL A   1      48.092  26.358  29.723  1.00  0.00    -0.014 A 
ATOM     72  C   UNL A   1      48.975  26.490  28.639  1.00  0.00     0.009 A 
ATOM     73  C   UNL A   1      48.562  25.788  30.915  1.00  0.00     0.009 A 
ATOM     74  C   UNL A   1      50.289  26.028  28.735  1.00  0.00     0.001 A 
ATOM     75  C   UNL A   1      49.886  25.359  31.021  1.00  0.00     0.001 A 
ATOM     76  C   UNL A   1      50.745  25.468  29.928  1.00  0.00     0.000 A 
ENDBRANCH  57  71
BRANCH  58  77
ATOM     77  C   UNL A   1      38.529  29.161  28.984  1.00  0.00    -0.014 A 
ATOM     78  C   UNL A   1      38.008  29.676  27.787  1.00  0.00     0.009 A 
ATOM     79  C   UNL A   1      37.693  29.088  30.110  1.00  0.00     0.009 A 
ATOM     80  C   UNL A   1      36.694  30.147  27.730  1.00  0.00     0.001 A 
ATOM     81  C   UNL A   1      36.369  29.527  30.040  1.00  0.00     0.001 A 
ATOM     82  C   UNL A   1      35.875  30.068  28.854  1.00  0.00     0.000 A 
ENDBRANCH  58  77
BRANCH  70  83
ATOM     83  C   UNL A   1      44.331  32.348  31.138  1.00  0.00    -0.014 A 
ATOM     84  C   UNL A   1      44.285  32.656  32.505  1.00  0.00     0.009 A 
ATOM     85  C   UNL A   1      44.678  33.357  30.224  1.00  0.00     0.009 A 
ATOM     86  C   UNL A   1      44.549  33.955  32.944  1.00  0.00     0.001 A 
ATOM     87  C   UNL A   1      44.974  34.646  30.669  1.00  0.00     0.001 A 
ATOM     88  C   UNL A   1      44.899  34.946  32.027  1.00  0.00     0.000 A 
ENDBRANCH  70  83
ENDBRANCH  44  45
ENDBRANCH  36  39
ENDBRANCH  34  35
ENDBRANCH  33  34
ENDBRANCH  32  33
ENDBRANCH   3  32
TORSDOF 16
ENDMDL
MODEL 2
REMARK VINA RESULT:     -11.4      0.592      5.722
REMARK SMILES C[N@H+]1[C@H](C(=O)NCCCNC(=O)c2ccc(-c3c4nc(c(-c5ccccc5)c5ccc([nH]5)c(-c5ccccc5)c5nc(c(-c6ccccc6)c6ccc3[nH]6)C=C5)C=C4)cc2)C[C@H](C(=O)NCC2(CO)CCCC2)[C@@H]1c1ccccc1F
REMARK SMILES IDX 4 1 5 2 6 3 3 5 1 6 2 7 74 8 61 10 62 11 75 12 76 13 80 14
REMARK SMILES IDX 77 15 79 16 81 17 78 18 63 19 64 20 65 21 66 23 67 24 70 25
REMARK SMILES IDX 73 26 71 27 72 28 68 29 69 30 7 32 8 33 9 34 10 35 11 36
REMARK SMILES IDX 12 38 13 39 14 40 60 41 15 42 59 43 16 44 17 45 18 46 53 47
REMARK SMILES IDX 19 48 58 49 52 50 54 51 20 52 57 53 51 54 50 55 21 57 43 58
REMARK SMILES IDX 28 59 42 60 29 61 32 62 41 63 55 64 30 65 31 66 40 68 56 69
REMARK SMILES IDX 33 70 22 71 23 72 27 73 24 74 26 75 25 76 44 77 45 78 49 79
REMARK SMILES IDX 46 80 48 81 47 82 34 83 35 84 39 85 36 86 38 87 37 88
REMARK H PARENT 6 4 2 9 65 22 69 31 10 37 54 56 32 67
REMARK Flexibility Score: inf
ROOT
ATOM      1  C   UNL A   1      36.099  22.832  23.496  1.00  0.00     0.278 C 
ATOM      2  O   UNL A   1      36.623  23.669  22.754  1.00  0.00    -0.268 OA
ATOM      3  N   UNL A   1      36.824  21.718  23.802  1.00  0.00    -0.351 N 
ATOM      4  H   UNL A   1      37.725  21.674  23.406  1.00  0.00     0.163 HD
ENDROOT
BRANCH   1   5
ATOM      5  C   UNL A   1      34.698  23.086  24.089  1.00  0.00     0.275 C 
ATOM      6  C   UNL A   1      35.146  23.726  26.373  1.00  0.00     0.333 C 
ATOM      7  N   UNL A   1      34.685  24.196  25.066  1.00  0.00    -0.320 N 
ATOM      8  C   UNL A   1      33.297  24.708  25.067  1.00  0.00     0.231 C 
ATOM      9  H   UNL A   1      35.325  24.952  24.823  1.00  0.00     0.349 HD
ATOM     10  C   UNL A   1      33.644  23.434  23.043  1.00  0.00     0.095 C 
ATOM     11  C   UNL A   1      32.889  24.670  23.567  1.00  0.00     0.148 C 
BRANCH   8  12
ATOM     12  C   UNL A   1      32.997  26.023  25.757  1.00  0.00     0.046 A 
ATOM     13  C   UNL A   1      34.021  26.994  25.796  1.00  0.00     0.013 A 
ATOM     14  C   UNL A   1      31.821  26.298  26.466  1.00  0.00     0.132 A 
ATOM     15  C   UNL A   1      33.883  28.163  26.549  1.00  0.00     0.001 A 
ATOM     16  C   UNL A   1      31.674  27.473  27.204  1.00  0.00     0.040 A 
ATOM     17  F   UNL A   1      30.802  25.425  26.498  1.00  0.00    -0.206 F 
ATOM     18  C   UNL A   1      32.711  28.399  27.260  1.00  0.00     0.003 A 
ENDBRANCH   8  12
BRANCH  11  19
ATOM     19  C   UNL A   1      33.162  25.950  22.742  1.00  0.00     0.229 C 
ATOM     20  O   UNL A   1      34.256  26.266  22.280  1.00  0.00    -0.275 OA
ATOM     21  N   UNL A   1      32.149  26.828  22.498  1.00  0.00    -0.355 N 
ATOM     22  H   UNL A   1      32.387  27.582  21.911  1.00  0.00     0.163 HD
BRANCH  21  23
ATOM     23  C   UNL A   1      30.782  26.829  22.962  1.00  0.00     0.125 C 
BRANCH  23  24
ATOM     24  C   UNL A   1      30.198  28.244  23.085  1.00  0.00     0.011 C 
ATOM     25  C   UNL A   1      30.388  28.993  21.756  1.00  0.00     0.011 C 
ATOM     26  C   UNL A   1      28.664  28.233  23.214  1.00  0.00     0.011 C 
ATOM     27  C   UNL A   1      29.324  30.081  21.756  1.00  0.00     0.001 C 
ATOM     28  C   UNL A   1      28.203  29.578  22.663  1.00  0.00     0.001 C 
BRANCH  24  29
ATOM     29  C   UNL A   1      30.869  29.003  24.250  1.00  0.00     0.164 C 
BRANCH  29  30
ATOM     30  O   UNL A   1      32.125  29.545  23.857  1.00  0.00    -0.396 OA
ATOM     31  H   UNL A   1      32.001  30.458  23.552  1.00  0.00     0.210 HD
ENDBRANCH  29  30
ENDBRANCH  24  29
ENDBRANCH  23  24
ENDBRANCH  21  23
ENDBRANCH  11  19
ENDBRANCH   1   5
BRANCH   3  32
ATOM     32  C   UNL A   1      36.446  20.593  24.628  1.00  0.00     0.118 C 
BRANCH  32  33
ATOM     33  C   UNL A   1      37.546  19.571  24.814  1.00  0.00     0.042 C 
BRANCH  33  34
ATOM     34  C   UNL A   1      38.562  19.986  25.857  1.00  0.00     0.118 C 
BRANCH  34  35
ATOM     35  N   UNL A   1      39.793  19.203  25.798  1.00  0.00    -0.352 N 
ATOM     36  C   UNL A   1      41.093  19.590  26.005  1.00  0.00     0.251 C 
ATOM     37  H   UNL A   1      39.672  18.251  25.575  1.00  0.00     0.163 HD
ATOM     38  O   UNL A   1      42.015  18.821  25.751  1.00  0.00    -0.269 OA
BRANCH  36  39
ATOM     39  C   UNL A   1      41.380  20.945  26.514  1.00  0.00     0.039 A 
ATOM     40  C   UNL A   1      41.401  21.163  27.894  1.00  0.00     0.014 A 
ATOM     41  C   UNL A   1      41.650  21.993  25.632  1.00  0.00     0.014 A 
ATOM     42  C   UNL A   1      41.771  22.416  28.387  1.00  0.00     0.010 A 
ATOM     43  C   UNL A   1      42.121  23.203  26.125  1.00  0.00     0.010 A 
ATOM     44  C   UNL A   1      42.178  23.431  27.507  1.00  0.00    -0.014 A 
BRANCH  44  45
ATOM     45  C   UNL A   1      42.653  24.746  28.000  1.00  0.00     0.031 A 
ATOM     46  C   UNL A   1      41.660  25.841  28.280  1.00  0.00     0.074 A 
ATOM     47  C   UNL A   1      43.973  24.980  28.127  1.00  0.00     0.049 A 
ATOM     48  N   UNL A   1      41.877  27.085  28.626  1.00  0.00    -0.248 NA
ATOM     49  C   UNL A   1      40.235  25.503  28.126  1.00  0.00     0.031 C 
ATOM     50  C   UNL A   1      45.039  24.012  27.854  1.00  0.00     0.029 A 
ATOM     51  N   UNL A   1      44.645  26.112  28.514  1.00  0.00    -0.354 N 
ATOM     52  C   UNL A   1      40.622  27.674  28.717  1.00  0.00     0.074 A 
ATOM     53  C   UNL A   1      39.653  26.674  28.328  1.00  0.00     0.031 C 
ATOM     54  C   UNL A   1      46.227  24.585  28.109  1.00  0.00     0.029 A 
ATOM     55  C   UNL A   1      46.012  25.970  28.511  1.00  0.00     0.049 A 
ATOM     56  H   UNL A   1      44.191  26.949  28.767  1.00  0.00     0.167 HD
ATOM     57  C   UNL A   1      40.300  28.928  29.114  1.00  0.00     0.031 A 
ATOM     58  C   UNL A   1      46.983  26.861  28.789  1.00  0.00     0.031 A 
ATOM     59  C   UNL A   1      41.264  29.922  29.502  1.00  0.00     0.049 A 
ATOM     60  C   UNL A   1      46.599  28.262  29.183  1.00  0.00     0.074 A 
ATOM     61  C   UNL A   1      41.038  31.212  29.951  1.00  0.00     0.029 A 
ATOM     62  N   UNL A   1      42.637  29.736  29.486  1.00  0.00    -0.354 N 
ATOM     63  N   UNL A   1      45.405  28.785  29.320  1.00  0.00    -0.248 NA
ATOM     64  C   UNL A   1      47.701  29.192  29.468  1.00  0.00     0.031 C 
ATOM     65  C   UNL A   1      42.278  31.824  30.157  1.00  0.00     0.029 A 
ATOM     66  C   UNL A   1      43.273  30.895  29.899  1.00  0.00     0.049 A 
ATOM     67  H   UNL A   1      43.093  28.905  29.221  1.00  0.00     0.167 HD
ATOM     68  C   UNL A   1      45.612  30.092  29.744  1.00  0.00     0.074 A 
ATOM     69  C   UNL A   1      47.044  30.276  29.855  1.00  0.00     0.031 C 
ATOM     70  C   UNL A   1      44.699  31.055  30.016  1.00  0.00     0.031 A 
BRANCH  57  71
ATOM     71  C   UNL A   1      38.841  29.289  29.150  1.00  0.00    -0.014 A 
ATOM     72  C   UNL A   1      38.187  29.775  28.006  1.00  0.00     0.009 A 
ATOM     73  C   UNL A   1      38.102  29.112  30.329  1.00  0.00     0.009 A 
ATOM     74  C   UNL A   1      36.832  30.111  28.053  1.00  0.00     0.001 A 
ATOM     75  C   UNL A   1      36.740  29.415  30.364  1.00  0.00     0.001 A 
ATOM     76  C   UNL A   1      36.109  29.925  29.230  1.00  0.00     0.000 A 
ENDBRANCH  57  71
BRANCH  58  77
ATOM     77  C   UNL A   1      48.415  26.464  28.708  1.00  0.00    -0.014 A 
ATOM     78  C   UNL A   1      49.117  26.573  27.498  1.00  0.00     0.009 A 
ATOM     79  C   UNL A   1      49.078  25.942  29.830  1.00  0.00     0.009 A 
ATOM     80  C   UNL A   1      50.439  26.132  27.402  1.00  0.00     0.001 A 
ATOM     81  C   UNL A   1      50.410  25.534  29.740  1.00  0.00     0.001 A 
ATOM     82  C   UNL A   1      51.085  25.615  28.524  1.00  0.00     0.000 A 
ENDBRANCH  58  77
BRANCH  70  83
ATOM     83  C   UNL A   1      45.216  32.376  30.515  1.00  0.00    -0.014 A 
ATOM     84  C   UNL A   1      45.514  33.427  29.634  1.00  0.00     0.009 A 
ATOM     85  C   UNL A   1      45.361  32.584  31.896  1.00  0.00     0.009 A 
ATOM     86  C   UNL A   1      45.980  34.648  30.127  1.00  0.00     0.001 A 
ATOM     87  C   UNL A   1      45.795  33.815  32.387  1.00  0.00     0.001 A 
ATOM     88  C   UNL A   1      46.113  34.843  31.502  1.00  0.00     0.000 A 
ENDBRANCH  70  83
ENDBRANCH  44  45
ENDBRANCH  36  39
ENDBRANCH  34  35
ENDBRANCH  33  34
ENDBRANCH  32  33
ENDBRANCH   3  32
TORSDOF 16
ENDMDL
MODEL 3
REMARK VINA RESULT:     -11.2      3.697      9.322
REMARK SMILES C[N@H+]1[C@H](C(=O)NCCCNC(=O)c2ccc(-c3c4nc(c(-c5ccccc5)c5ccc([nH]5)c(-c5ccccc5)c5nc(c(-c6ccccc6)c6ccc3[nH]6)C=C5)C=C4)cc2)C[C@H](C(=O)NCC2(CO)CCCC2)[C@@H]1c1ccccc1F
REMARK SMILES IDX 4 1 5 2 6 3 3 5 1 6 2 7 74 8 61 10 62 11 75 12 76 13 80 14
REMARK SMILES IDX 77 15 79 16 81 17 78 18 63 19 64 20 65 21 66 23 67 24 70 25
REMARK SMILES IDX 73 26 71 27 72 28 68 29 69 30 7 32 8 33 9 34 10 35 11 36
REMARK SMILES IDX 12 38 13 39 14 40 60 41 15 42 59 43 16 44 17 45 18 46 53 47
REMARK SMILES IDX 19 48 58 49 52 50 54 51 20 52 57 53 51 54 50 55 21 57 43 58
REMARK SMILES IDX 28 59 42 60 29 61 32 62 41 63 55 64 30 65 31 66 40 68 56 69
REMARK SMILES IDX 33 70 22 71 23 72 27 73 24 74 26 75 25 76 44 77 45 78 49 79
REMARK SMILES IDX 46 80 48 81 47 82 34 83 35 84 39 85 36 86 38 87 37 88
REMARK H PARENT 6 4 2 9 65 22 69 31 10 37 54 56 32 67
REMARK Flexibility Score: inf
ROOT
ATOM      1  C   UNL A   1      30.878  29.119  24.264  1.00  0.00     0.278 C 
ATOM      2  O   UNL A   1      30.562  29.076  23.071  1.00  0.00    -0.268 OA
ATOM      3  N   UNL A   1      31.166  30.342  24.796  1.00  0.00    -0.351 N 
ATOM      4  H   UNL A   1      31.088  31.105  24.177  1.00  0.00     0.163 HD
ENDROOT
BRANCH   1   5
ATOM      5  C   UNL A   1      30.886  27.833  25.116  1.00  0.00     0.275 C 
ATOM      6  C   UNL A   1      29.252  26.420  24.040  1.00  0.00     0.333 C 
ATOM      7  N   UNL A   1      30.677  26.613  24.307  1.00  0.00    -0.320 N 
ATOM      8  C   UNL A   1      31.298  25.515  25.079  1.00  0.00     0.231 C 
ATOM      9  H   UNL A   1      31.108  26.664  23.384  1.00  0.00     0.349 HD
ATOM     10  C   UNL A   1      32.187  27.614  25.881  1.00  0.00     0.095 C 
ATOM     11  C   UNL A   1      32.601  26.150  25.642  1.00  0.00     0.148 C 
BRANCH   8  12
ATOM     12  C   UNL A   1      31.504  24.169  24.413  1.00  0.00     0.046 A 
ATOM     13  C   UNL A   1      31.440  23.016  25.225  1.00  0.00     0.013 A 
ATOM     14  C   UNL A   1      31.873  23.994  23.073  1.00  0.00     0.132 A 
ATOM     15  C   UNL A   1      31.776  21.757  24.723  1.00  0.00     0.001 A 
ATOM     16  C   UNL A   1      32.192  22.734  22.565  1.00  0.00     0.040 A 
ATOM     17  F   UNL A   1      31.974  25.036  22.233  1.00  0.00    -0.206 F 
ATOM     18  C   UNL A   1      32.161  21.617  23.393  1.00  0.00     0.003 A 
ENDBRANCH   8  12
BRANCH  11  19
ATOM     19  C   UNL A   1      33.873  26.007  24.774  1.00  0.00     0.229 C 
ATOM     20  O   UNL A   1      34.137  26.706  23.797  1.00  0.00    -0.275 OA
ATOM     21  N   UNL A   1      34.789  25.041  25.065  1.00  0.00    -0.355 N 
ATOM     22  H   UNL A   1      35.601  25.058  24.508  1.00  0.00     0.163 HD
BRANCH  21  23
ATOM     23  C   UNL A   1      34.759  23.996  26.062  1.00  0.00     0.125 C 
BRANCH  23  24
ATOM     24  C   UNL A   1      35.606  22.777  25.668  1.00  0.00     0.011 C 
ATOM     25  C   UNL A   1      35.730  22.714  24.137  1.00  0.00     0.011 C 
ATOM     26  C   UNL A   1      37.078  22.929  26.090  1.00  0.00     0.011 C 
ATOM     27  C   UNL A   1      36.990  21.901  23.873  1.00  0.00     0.001 C 
ATOM     28  C   UNL A   1      37.869  22.068  25.111  1.00  0.00     0.001 C 
BRANCH  24  29
ATOM     29  C   UNL A   1      34.976  21.483  26.226  1.00  0.00     0.164 C 
BRANCH  29  30
ATOM     30  O   UNL A   1      34.762  21.576  27.631  1.00  0.00    -0.396 OA
ATOM     31  H   UNL A   1      35.593  21.389  28.096  1.00  0.00     0.210 HD
ENDBRANCH  29  30
ENDBRANCH  24  29
ENDBRANCH  23  24
ENDBRANCH  21  23
ENDBRANCH  11  19
ENDBRANCH   1   5
BRANCH   3  32
ATOM     32  C   UNL A   1      31.570  30.668  26.145  1.00  0.00     0.118 C 
BRANCH  32  33
ATOM     33  C   UNL A   1      31.380  32.124  26.509  1.00  0.00     0.042 C 
BRANCH  33  34
ATOM     34  C   UNL A   1      32.590  32.721  27.195  1.00  0.00     0.118 C 
BRANCH  34  35
ATOM     35  N   UNL A   1      32.388  34.108  27.602  1.00  0.00    -0.352 N 
ATOM     36  C   UNL A   1      33.024  34.842  28.571  1.00  0.00     0.251 C 
ATOM     37  H   UNL A   1      31.689  34.592  27.104  1.00  0.00     0.163 HD
ATOM     38  O   UNL A   1      32.604  35.954  28.880  1.00  0.00    -0.269 OA
BRANCH  36  39
ATOM     39  C   UNL A   1      34.202  34.281  29.260  1.00  0.00     0.039 A 
ATOM     40  C   UNL A   1      34.017  33.537  30.427  1.00  0.00     0.014 A 
ATOM     41  C   UNL A   1      35.484  34.470  28.742  1.00  0.00     0.014 A 
ATOM     42  C   UNL A   1      35.114  32.917  31.030  1.00  0.00     0.010 A 
ATOM     43  C   UNL A   1      36.554  33.766  29.278  1.00  0.00     0.010 A 
ATOM     44  C   UNL A   1      36.383  32.989  30.433  1.00  0.00    -0.014 A 
BRANCH  44  45
ATOM     45  C   UNL A   1      37.553  32.278  31.002  1.00  0.00     0.031 A 
ATOM     46  C   UNL A   1      38.220  32.809  32.242  1.00  0.00     0.074 A 
ATOM     47  C   UNL A   1      38.058  31.202  30.369  1.00  0.00     0.049 A 
ATOM     48  N   UNL A   1      39.307  32.390  32.840  1.00  0.00    -0.248 NA
ATOM     49  C   UNL A   1      37.601  33.985  32.879  1.00  0.00     0.031 C 
ATOM     50  C   UNL A   1      37.524  30.608  29.140  1.00  0.00     0.029 A 
ATOM     51  N   UNL A   1      39.144  30.419  30.671  1.00  0.00    -0.354 N 
ATOM     52  C   UNL A   1      39.503  33.254  33.910  1.00  0.00     0.074 A 
ATOM     53  C   UNL A   1      38.465  34.259  33.843  1.00  0.00     0.031 C 
ATOM     54  C   UNL A   1      38.267  29.539  28.811  1.00  0.00     0.029 A 
ATOM     55  C   UNL A   1      39.357  29.402  29.770  1.00  0.00     0.049 A 
ATOM     56  H   UNL A   1      39.717  30.571  31.457  1.00  0.00     0.167 HD
ATOM     57  C   UNL A   1      40.447  33.203  34.879  1.00  0.00     0.031 A 
ATOM     58  C   UNL A   1      40.330  28.472  29.717  1.00  0.00     0.031 A 
ATOM     59  C   UNL A   1      41.478  32.204  34.947  1.00  0.00     0.049 A 
ATOM     60  C   UNL A   1      41.395  28.467  30.781  1.00  0.00     0.074 A 
ATOM     61  C   UNL A   1      42.463  32.046  35.907  1.00  0.00     0.029 A 
ATOM     62  N   UNL A   1      41.657  31.192  34.017  1.00  0.00    -0.354 N 
ATOM     63  N   UNL A   1      41.532  29.255  31.820  1.00  0.00    -0.248 NA
ATOM     64  C   UNL A   1      42.434  27.433  30.669  1.00  0.00     0.031 C 
ATOM     65  C   UNL A   1      43.271  30.969  35.528  1.00  0.00     0.029 A 
ATOM     66  C   UNL A   1      42.749  30.418  34.369  1.00  0.00     0.049 A 
ATOM     67  H   UNL A   1      41.092  31.046  33.224  1.00  0.00     0.167 HD
ATOM     68  C   UNL A   1      42.649  28.791  32.502  1.00  0.00     0.074 A 
ATOM     69  C   UNL A   1      43.141  27.643  31.770  1.00  0.00     0.031 C 
ATOM     70  C   UNL A   1      43.217  29.270  33.635  1.00  0.00     0.031 A 
BRANCH  57  71
ATOM     71  C   UNL A   1      40.401  34.262  35.947  1.00  0.00    -0.014 A 
ATOM     72  C   UNL A   1      41.103  35.470  35.799  1.00  0.00     0.009 A 
ATOM     73  C   UNL A   1      39.622  34.066  37.097  1.00  0.00     0.009 A 
ATOM     74  C   UNL A   1      41.055  36.443  36.799  1.00  0.00     0.001 A 
ATOM     75  C   UNL A   1      39.549  35.055  38.079  1.00  0.00     0.001 A 
ATOM     76  C   UNL A   1      40.273  36.237  37.935  1.00  0.00     0.000 A 
ENDBRANCH  57  71
BRANCH  58  77
ATOM     77  C   UNL A   1      40.351  27.465  28.623  1.00  0.00    -0.014 A 
ATOM     78  C   UNL A   1      41.043  27.724  27.430  1.00  0.00     0.009 A 
ATOM     79  C   UNL A   1      39.651  26.255  28.749  1.00  0.00     0.009 A 
ATOM     80  C   UNL A   1      41.001  26.811  26.373  1.00  0.00     0.001 A 
ATOM     81  C   UNL A   1      39.639  25.329  27.704  1.00  0.00     0.001 A 
ATOM     82  C   UNL A   1      40.302  25.614  26.512  1.00  0.00     0.000 A 
ENDBRANCH  58  77
BRANCH  70  83
ATOM     83  C   UNL A   1      44.401  28.524  34.183  1.00  0.00    -0.014 A 
ATOM     84  C   UNL A   1      45.714  28.874  33.836  1.00  0.00     0.009 A 
ATOM     85  C   UNL A   1      44.195  27.482  35.102  1.00  0.00     0.009 A 
ATOM     86  C   UNL A   1      46.796  28.171  34.371  1.00  0.00     0.001 A 
ATOM     87  C   UNL A   1      45.279  26.804  35.661  1.00  0.00     0.001 A 
ATOM     88  C   UNL A   1      46.577  27.142  35.288  1.00  0.00     0.000 A 
ENDBRANCH  70  83
ENDBRANCH  44  45
ENDBRANCH  36  39
ENDBRANCH  34  35
ENDBRANCH  33  34
ENDBRANCH  32  33
ENDBRANCH   3  32
TORSDOF 16
ENDMDL
