MODEL 1
REMARK VINA RESULT:     -12.7      0.000      0.000
REMARK SMILES C[NH+]1CCC([NH+]2CCC(Oc3ccc4ccccc4c3)(C(=O)NCCCNC(=O)c3ccc(-c4c5nc(c(-c6ccccc6)c6ccc([nH]6)c(-c6ccccc6)c6nc(c(-c7ccccc7)c7ccc4[nH]7)C=C6)C=C5)cc3)CC2)CC1
REMARK SMILES IDX 25 1 24 2 23 3 21 4 22 5 9 7 6 8 7 9 79 10 8 12 78 13 5 14
REMARK SMILES IDX 1 15 2 16 3 17 81 18 4 20 80 21 10 22 11 23 12 24 20 25
REMARK SMILES IDX 13 26 19 27 14 28 18 29 15 30 17 31 16 32 26 33 27 34 28 35
REMARK SMILES IDX 29 37 30 38 31 39 77 40 32 41 76 42 33 43 34 44 35 45 70 46
REMARK SMILES IDX 36 47 75 48 69 49 71 50 37 51 74 52 68 53 67 54 38 56 60 57
REMARK SMILES IDX 45 58 59 59 46 60 49 61 58 62 72 63 47 64 48 65 57 67 73 68
REMARK SMILES IDX 50 69 39 70 40 71 44 72 41 73 43 74 42 75 61 76 62 77 66 78
REMARK SMILES IDX 63 79 65 80 64 81 51 82 52 83 56 84 53 85 55 86 54 87
REMARK H PARENT 23 6 6 11 2 19 27 36 71 55 49 66
REMARK Flexibility Score: inf
ROOT
ATOM      1  C   UNL A   1      39.153  22.488  26.470  1.00  0.00     0.042 C 
ENDROOT
BRANCH   1   2
ATOM      2  C   UNL A   1      38.066  23.455  26.009  1.00  0.00     0.118 C 
BRANCH   2   3
ATOM      3  N   UNL A   1      37.669  23.222  24.631  1.00  0.00    -0.353 N 
ATOM      4  C   UNL A   1      36.442  23.282  24.028  1.00  0.00     0.264 C 
ATOM      5  O   UNL A   1      36.448  23.149  22.799  1.00  0.00    -0.270 OA
ATOM      6  H   UNL A   1      38.408  22.982  24.029  1.00  0.00     0.163 HD
BRANCH   4   7
ATOM      7  C   UNL A   1      35.130  23.485  24.844  1.00  0.00     0.197 C 
ATOM      8  N   UNL A   1      33.882  20.816  24.932  1.00  0.00    -0.332 N 
ATOM      9  C   UNL A   1      35.111  21.105  25.677  1.00  0.00     0.267 C 
ATOM     10  C   UNL A   1      33.802  21.614  23.697  1.00  0.00     0.267 C 
ATOM     11  H   UNL A   1      33.112  21.101  25.537  1.00  0.00     0.348 HD
ATOM     12  C   UNL A   1      35.116  22.575  26.076  1.00  0.00     0.120 C 
ATOM     13  C   UNL A   1      33.911  23.127  23.966  1.00  0.00     0.120 C 
BRANCH   8  14
ATOM     14  C   UNL A   1      33.653  19.368  24.688  1.00  0.00     0.195 C 
ATOM     15  C   UNL A   1      33.489  15.110  25.366  1.00  0.00     0.332 C 
ATOM     16  N   UNL A   1      33.725  16.548  25.478  1.00  0.00    -0.337 N 
ATOM     17  C   UNL A   1      32.454  17.283  25.508  1.00  0.00     0.268 C 
ATOM     18  C   UNL A   1      34.573  17.026  24.379  1.00  0.00     0.268 C 
ATOM     19  H   UNL A   1      34.215  16.720  26.356  1.00  0.00     0.347 HD
ATOM     20  C   UNL A   1      32.703  18.772  25.748  1.00  0.00     0.126 C 
ATOM     21  C   UNL A   1      34.922  18.504  24.571  1.00  0.00     0.126 C 
ENDBRANCH   8  14
BRANCH   7  22
ATOM     22  O   UNL A   1      35.201  24.906  25.122  1.00  0.00    -0.477 OA
BRANCH  22  23
ATOM     23  C   UNL A   1      34.070  25.663  25.070  1.00  0.00     0.121 A 
ATOM     24  C   UNL A   1      33.215  25.805  26.158  1.00  0.00     0.047 A 
ATOM     25  C   UNL A   1      33.887  26.455  23.937  1.00  0.00     0.055 A 
ATOM     26  C   UNL A   1      32.110  26.651  26.073  1.00  0.00     0.012 A 
ATOM     27  C   UNL A   1      32.801  27.341  23.850  1.00  0.00    -0.015 A 
ATOM     28  C   UNL A   1      31.887  27.423  24.925  1.00  0.00    -0.018 A 
ATOM     29  C   UNL A   1      32.608  28.159  22.725  1.00  0.00     0.009 A 
ATOM     30  C   UNL A   1      30.789  28.291  24.834  1.00  0.00     0.009 A 
ATOM     31  C   UNL A   1      31.519  29.029  22.655  1.00  0.00     0.001 A 
ATOM     32  C   UNL A   1      30.606  29.090  23.704  1.00  0.00     0.001 A 
ENDBRANCH  22  23
ENDBRANCH   7  22
ENDBRANCH   4   7
ENDBRANCH   2   3
ENDBRANCH   1   2
BRANCH   1  33
ATOM     33  C   UNL A   1      40.397  23.161  27.039  1.00  0.00     0.118 C 
BRANCH  33  34
ATOM     34  N   UNL A   1      41.128  23.925  26.042  1.00  0.00    -0.352 N 
ATOM     35  C   UNL A   1      41.471  25.253  26.012  1.00  0.00     0.251 C 
ATOM     36  H   UNL A   1      41.427  23.405  25.262  1.00  0.00     0.163 HD
ATOM     37  O   UNL A   1      41.938  25.731  24.978  1.00  0.00    -0.269 OA
BRANCH  35  38
ATOM     38  C   UNL A   1      41.272  26.125  27.191  1.00  0.00     0.039 A 
ATOM     39  C   UNL A   1      42.154  27.195  27.386  1.00  0.00     0.014 A 
ATOM     40  C   UNL A   1      40.267  25.876  28.130  1.00  0.00     0.014 A 
ATOM     41  C   UNL A   1      41.993  28.042  28.484  1.00  0.00     0.010 A 
ATOM     42  C   UNL A   1      40.064  26.764  29.187  1.00  0.00     0.010 A 
ATOM     43  C   UNL A   1      40.928  27.852  29.377  1.00  0.00    -0.014 A 
BRANCH  43  44
ATOM     44  C   UNL A   1      40.704  28.784  30.512  1.00  0.00     0.031 A 
ATOM     45  C   UNL A   1      39.610  29.813  30.452  1.00  0.00     0.074 A 
ATOM     46  C   UNL A   1      41.527  28.740  31.579  1.00  0.00     0.049 A 
ATOM     47  N   UNL A   1      39.297  30.737  31.328  1.00  0.00    -0.248 NA
ATOM     48  C   UNL A   1      38.772  29.824  29.243  1.00  0.00     0.031 C 
ATOM     49  C   UNL A   1      42.653  27.819  31.745  1.00  0.00     0.029 A 
ATOM     50  N   UNL A   1      41.545  29.497  32.724  1.00  0.00    -0.354 N 
ATOM     51  C   UNL A   1      38.245  31.448  30.766  1.00  0.00     0.074 A 
ATOM     52  C   UNL A   1      37.997  30.876  29.460  1.00  0.00     0.031 C 
ATOM     53  C   UNL A   1      43.237  28.050  32.931  1.00  0.00     0.029 A 
ATOM     54  C   UNL A   1      42.550  29.153  33.593  1.00  0.00     0.049 A 
ATOM     55  H   UNL A   1      40.897  30.216  32.904  1.00  0.00     0.167 HD
ATOM     56  C   UNL A   1      37.537  32.476  31.294  1.00  0.00     0.031 A 
ATOM     57  C   UNL A   1      42.886  29.671  34.790  1.00  0.00     0.031 A 
ATOM     58  C   UNL A   1      37.768  33.036  32.598  1.00  0.00     0.049 A 
ATOM     59  C   UNL A   1      42.081  30.804  35.357  1.00  0.00     0.074 A 
ATOM     60  C   UNL A   1      37.059  34.034  33.246  1.00  0.00     0.029 A 
ATOM     61  N   UNL A   1      38.785  32.649  33.455  1.00  0.00    -0.354 N 
ATOM     62  N   UNL A   1      41.044  31.419  34.842  1.00  0.00    -0.248 NA
ATOM     63  C   UNL A   1      42.486  31.306  36.678  1.00  0.00     0.031 C 
ATOM     64  C   UNL A   1      37.675  34.279  34.478  1.00  0.00     0.029 A 
ATOM     65  C   UNL A   1      38.738  33.403  34.616  1.00  0.00     0.049 A 
ATOM     66  H   UNL A   1      39.445  31.943  33.266  1.00  0.00     0.167 HD
ATOM     67  C   UNL A   1      40.661  32.365  35.783  1.00  0.00     0.074 A 
ATOM     68  C   UNL A   1      41.564  32.231  36.907  1.00  0.00     0.031 C 
ATOM     69  C   UNL A   1      39.648  33.264  35.722  1.00  0.00     0.031 A 
BRANCH  56  70
ATOM     70  C   UNL A   1      36.444  33.066  30.449  1.00  0.00    -0.014 A 
ATOM     71  C   UNL A   1      35.097  32.742  30.672  1.00  0.00     0.009 A 
ATOM     72  C   UNL A   1      36.764  33.982  29.434  1.00  0.00     0.009 A 
ATOM     73  C   UNL A   1      34.094  33.297  29.873  1.00  0.00     0.001 A 
ATOM     74  C   UNL A   1      35.757  34.555  28.654  1.00  0.00     0.001 A 
ATOM     75  C   UNL A   1      34.424  34.205  28.869  1.00  0.00     0.000 A 
ENDBRANCH  56  70
BRANCH  57  76
ATOM     76  C   UNL A   1      44.035  29.108  35.542  1.00  0.00    -0.014 A 
ATOM     77  C   UNL A   1      45.330  29.612  35.343  1.00  0.00     0.009 A 
ATOM     78  C   UNL A   1      43.844  28.067  36.463  1.00  0.00     0.009 A 
ATOM     79  C   UNL A   1      46.413  29.068  36.036  1.00  0.00     0.001 A 
ATOM     80  C   UNL A   1      44.927  27.542  37.173  1.00  0.00     0.001 A 
ATOM     81  C   UNL A   1      46.211  28.038  36.952  1.00  0.00     0.000 A 
ENDBRANCH  57  76
BRANCH  69  82
ATOM     82  C   UNL A   1      39.453  34.155  36.914  1.00  0.00    -0.014 A 
ATOM     83  C   UNL A   1      38.778  33.699  38.058  1.00  0.00     0.009 A 
ATOM     84  C   UNL A   1      39.975  35.457  36.903  1.00  0.00     0.009 A 
ATOM     85  C   UNL A   1      38.603  34.543  39.156  1.00  0.00     0.001 A 
ATOM     86  C   UNL A   1      39.820  36.290  38.012  1.00  0.00     0.001 A 
ATOM     87  C   UNL A   1      39.127  35.836  39.134  1.00  0.00     0.000 A 
ENDBRANCH  69  82
ENDBRANCH  43  44
ENDBRANCH  35  38
ENDBRANCH  33  34
ENDBRANCH   1  33
TORSDOF 13
ENDMDL
MODEL 2
REMARK VINA RESULT:     -12.6      3.761      7.942
REMARK SMILES C[NH+]1CCC([NH+]2CCC(Oc3ccc4ccccc4c3)(C(=O)NCCCNC(=O)c3ccc(-c4c5nc(c(-c6ccccc6)c6ccc([nH]6)c(-c6ccccc6)c6nc(c(-c7ccccc7)c7ccc4[nH]7)C=C6)C=C5)cc3)CC2)CC1
REMARK SMILES IDX 25 1 24 2 23 3 21 4 22 5 9 7 6 8 7 9 79 10 8 12 78 13 5 14
REMARK SMILES IDX 1 15 2 16 3 17 81 18 4 20 80 21 10 22 11 23 12 24 20 25
REMARK SMILES IDX 13 26 19 27 14 28 18 29 15 30 17 31 16 32 26 33 27 34 28 35
REMARK SMILES IDX 29 37 30 38 31 39 77 40 32 41 76 42 33 43 34 44 35 45 70 46
REMARK SMILES IDX 36 47 75 48 69 49 71 50 37 51 74 52 68 53 67 54 38 56 60 57
REMARK SMILES IDX 45 58 59 59 46 60 49 61 58 62 72 63 47 64 48 65 57 67 73 68
REMARK SMILES IDX 50 69 39 70 40 71 44 72 41 73 43 74 42 75 61 76 62 77 66 78
REMARK SMILES IDX 63 79 65 80 64 81 51 82 52 83 56 84 53 85 55 86 54 87
REMARK H PARENT 23 6 6 11 2 19 27 36 71 55 49 66
REMARK Flexibility Score: inf
ROOT
ATOM      1  C   UNL A   1      33.698  28.255  25.886  1.00  0.00     0.042 C 
ENDROOT
BRANCH   1   2
ATOM      2  C   UNL A   1      34.103  26.810  25.609  1.00  0.00     0.118 C 
BRANCH   2   3
ATOM      3  N   UNL A   1      33.134  25.857  26.123  1.00  0.00    -0.353 N 
ATOM      4  C   UNL A   1      32.492  24.814  25.514  1.00  0.00     0.264 C 
ATOM      5  O   UNL A   1      31.808  24.104  26.260  1.00  0.00    -0.270 OA
ATOM      6  H   UNL A   1      32.901  25.983  27.070  1.00  0.00     0.163 HD
BRANCH   4   7
ATOM      7  C   UNL A   1      32.604  24.556  23.981  1.00  0.00     0.197 C 
ATOM      8  N   UNL A   1      32.996  21.644  23.740  1.00  0.00    -0.332 N 
ATOM      9  C   UNL A   1      31.711  22.205  24.169  1.00  0.00     0.267 C 
ATOM     10  C   UNL A   1      34.121  22.495  24.162  1.00  0.00     0.267 C 
ATOM     11  H   UNL A   1      32.975  21.639  22.720  1.00  0.00     0.348 HD
ATOM     12  C   UNL A   1      31.524  23.571  23.521  1.00  0.00     0.120 C 
ATOM     13  C   UNL A   1      33.985  23.944  23.657  1.00  0.00     0.120 C 
BRANCH   8  14
ATOM     14  C   UNL A   1      33.187  20.220  24.120  1.00  0.00     0.195 C 
ATOM     15  C   UNL A   1      32.271  16.132  25.152  1.00  0.00     0.332 C 
ATOM     16  N   UNL A   1      32.198  17.556  24.831  1.00  0.00    -0.337 N 
ATOM     17  C   UNL A   1      32.703  17.810  23.476  1.00  0.00     0.268 C 
ATOM     18  C   UNL A   1      32.940  18.353  25.816  1.00  0.00     0.268 C 
ATOM     19  H   UNL A   1      31.218  17.838  24.867  1.00  0.00     0.347 HD
ATOM     20  C   UNL A   1      32.511  19.280  23.101  1.00  0.00     0.126 C 
ATOM     21  C   UNL A   1      32.754  19.849  25.550  1.00  0.00     0.126 C 
ENDBRANCH   8  14
BRANCH   7  22
ATOM     22  O   UNL A   1      32.473  25.905  23.469  1.00  0.00    -0.477 OA
BRANCH  22  23
ATOM     23  C   UNL A   1      31.239  26.470  23.357  1.00  0.00     0.121 A 
ATOM     24  C   UNL A   1      30.119  25.952  23.998  1.00  0.00     0.047 A 
ATOM     25  C   UNL A   1      31.163  27.709  22.722  1.00  0.00     0.055 A 
ATOM     26  C   UNL A   1      28.894  26.613  23.908  1.00  0.00     0.012 A 
ATOM     27  C   UNL A   1      29.946  28.407  22.656  1.00  0.00    -0.015 A 
ATOM     28  C   UNL A   1      28.790  27.838  23.238  1.00  0.00    -0.018 A 
ATOM     29  C   UNL A   1      29.852  29.663  22.035  1.00  0.00     0.009 A 
ATOM     30  C   UNL A   1      27.568  28.522  23.155  1.00  0.00     0.009 A 
ATOM     31  C   UNL A   1      28.632  30.338  21.974  1.00  0.00     0.001 A 
ATOM     32  C   UNL A   1      27.490  29.765  22.526  1.00  0.00     0.001 A 
ENDBRANCH  22  23
ENDBRANCH   7  22
ENDBRANCH   4   7
ENDBRANCH   2   3
ENDBRANCH   1   2
BRANCH   1  33
ATOM     33  C   UNL A   1      33.460  28.574  27.358  1.00  0.00     0.118 C 
BRANCH  33  34
ATOM     34  N   UNL A   1      33.496  30.001  27.635  1.00  0.00    -0.352 N 
ATOM     35  C   UNL A   1      34.479  30.776  28.196  1.00  0.00     0.251 C 
ATOM     36  H   UNL A   1      32.683  30.492  27.377  1.00  0.00     0.163 HD
ATOM     37  O   UNL A   1      34.226  31.940  28.504  1.00  0.00    -0.269 OA
BRANCH  35  38
ATOM     38  C   UNL A   1      35.832  30.233  28.456  1.00  0.00     0.039 A 
ATOM     39  C   UNL A   1      36.762  30.233  27.411  1.00  0.00     0.014 A 
ATOM     40  C   UNL A   1      36.178  29.680  29.692  1.00  0.00     0.014 A 
ATOM     41  C   UNL A   1      38.050  29.735  27.621  1.00  0.00     0.010 A 
ATOM     42  C   UNL A   1      37.484  29.248  29.922  1.00  0.00     0.010 A 
ATOM     43  C   UNL A   1      38.432  29.266  28.888  1.00  0.00    -0.014 A 
BRANCH  43  44
ATOM     44  C   UNL A   1      39.816  28.794  29.145  1.00  0.00     0.031 A 
ATOM     45  C   UNL A   1      40.827  29.705  29.784  1.00  0.00     0.074 A 
ATOM     46  C   UNL A   1      40.181  27.559  28.749  1.00  0.00     0.049 A 
ATOM     47  N   UNL A   1      42.092  29.480  30.044  1.00  0.00    -0.248 NA
ATOM     48  C   UNL A   1      40.367  31.051  30.160  1.00  0.00     0.031 C 
ATOM     49  C   UNL A   1      39.310  26.591  28.079  1.00  0.00     0.029 A 
ATOM     50  N   UNL A   1      41.386  26.910  28.847  1.00  0.00    -0.354 N 
ATOM     51  C   UNL A   1      42.580  30.659  30.591  1.00  0.00     0.074 A 
ATOM     52  C   UNL A   1      41.488  31.609  30.592  1.00  0.00     0.031 C 
ATOM     53  C   UNL A   1      40.003  25.465  27.847  1.00  0.00     0.029 A 
ATOM     54  C   UNL A   1      41.372  25.642  28.321  1.00  0.00     0.049 A 
ATOM     55  H   UNL A   1      42.184  27.315  29.257  1.00  0.00     0.167 HD
ATOM     56  C   UNL A   1      43.821  30.926  31.066  1.00  0.00     0.031 A 
ATOM     57  C   UNL A   1      42.351  24.724  28.225  1.00  0.00     0.031 A 
ATOM     58  C   UNL A   1      44.904  29.980  31.085  1.00  0.00     0.049 A 
ATOM     59  C   UNL A   1      43.716  25.040  28.766  1.00  0.00     0.074 A 
ATOM     60  C   UNL A   1      46.177  30.136  31.606  1.00  0.00     0.029 A 
ATOM     61  N   UNL A   1      44.844  28.700  30.557  1.00  0.00    -0.354 N 
ATOM     62  N   UNL A   1      44.141  26.136  29.344  1.00  0.00    -0.248 NA
ATOM     63  C   UNL A   1      44.732  23.984  28.651  1.00  0.00     0.031 C 
ATOM     64  C   UNL A   1      46.900  28.965  31.356  1.00  0.00     0.029 A 
ATOM     65  C   UNL A   1      46.064  28.064  30.719  1.00  0.00     0.049 A 
ATOM     66  H   UNL A   1      44.052  28.303  30.129  1.00  0.00     0.167 HD
ATOM     67  C   UNL A   1      45.466  25.896  29.680  1.00  0.00     0.074 A 
ATOM     68  C   UNL A   1      45.770  24.545  29.257  1.00  0.00     0.031 C 
ATOM     69  C   UNL A   1      46.353  26.722  30.287  1.00  0.00     0.031 A 
BRANCH  56  70
ATOM     70  C   UNL A   1      44.073  32.307  31.601  1.00  0.00    -0.014 A 
ATOM     71  C   UNL A   1      44.527  33.339  30.765  1.00  0.00     0.009 A 
ATOM     72  C   UNL A   1      43.823  32.588  32.954  1.00  0.00     0.009 A 
ATOM     73  C   UNL A   1      44.761  34.616  31.281  1.00  0.00     0.001 A 
ATOM     74  C   UNL A   1      44.032  33.872  33.461  1.00  0.00     0.001 A 
ATOM     75  C   UNL A   1      44.510  34.882  32.626  1.00  0.00     0.000 A 
ENDBRANCH  56  70
BRANCH  57  76
ATOM     76  C   UNL A   1      42.070  23.405  27.603  1.00  0.00    -0.014 A 
ATOM     77  C   UNL A   1      42.396  23.171  26.258  1.00  0.00     0.009 A 
ATOM     78  C   UNL A   1      41.477  22.376  28.348  1.00  0.00     0.009 A 
ATOM     79  C   UNL A   1      42.113  21.938  25.667  1.00  0.00     0.001 A 
ATOM     80  C   UNL A   1      41.219  21.135  27.761  1.00  0.00     0.001 A 
ATOM     81  C   UNL A   1      41.529  20.921  26.419  1.00  0.00     0.000 A 
ENDBRANCH  57  76
BRANCH  69  82
ATOM     82  C   UNL A   1      47.727  26.176  30.550  1.00  0.00    -0.014 A 
ATOM     83  C   UNL A   1      48.678  26.080  29.522  1.00  0.00     0.009 A 
ATOM     84  C   UNL A   1      48.081  25.779  31.848  1.00  0.00     0.009 A 
ATOM     85  C   UNL A   1      49.949  25.566  29.784  1.00  0.00     0.001 A 
ATOM     86  C   UNL A   1      49.361  25.289  32.112  1.00  0.00     0.001 A 
ATOM     87  C   UNL A   1      50.291  25.175  31.079  1.00  0.00     0.000 A 
ENDBRANCH  69  82
ENDBRANCH  43  44
ENDBRANCH  35  38
ENDBRANCH  33  34
ENDBRANCH   1  33
TORSDOF 13
ENDMDL
MODEL 3
REMARK VINA RESULT:     -12.6      4.016      8.236
REMARK SMILES C[NH+]1CCC([NH+]2CCC(Oc3ccc4ccccc4c3)(C(=O)NCCCNC(=O)c3ccc(-c4c5nc(c(-c6ccccc6)c6ccc([nH]6)c(-c6ccccc6)c6nc(c(-c7ccccc7)c7ccc4[nH]7)C=C6)C=C5)cc3)CC2)CC1
REMARK SMILES IDX 25 1 24 2 23 3 21 4 22 5 9 7 6 8 7 9 79 10 8 12 78 13 5 14
REMARK SMILES IDX 1 15 2 16 3 17 81 18 4 20 80 21 10 22 11 23 12 24 20 25
REMARK SMILES IDX 13 26 19 27 14 28 18 29 15 30 17 31 16 32 26 33 27 34 28 35
REMARK SMILES IDX 29 37 30 38 31 39 77 40 32 41 76 42 33 43 34 44 35 45 70 46
REMARK SMILES IDX 36 47 75 48 69 49 71 50 37 51 74 52 68 53 67 54 38 56 60 57
REMARK SMILES IDX 45 58 59 59 46 60 49 61 58 62 72 63 47 64 48 65 57 67 73 68
REMARK SMILES IDX 50 69 39 70 40 71 44 72 41 73 43 74 42 75 61 76 62 77 66 78
REMARK SMILES IDX 63 79 65 80 64 81 51 82 52 83 56 84 53 85 55 86 54 87
REMARK H PARENT 23 6 6 11 2 19 27 36 71 55 49 66
REMARK Flexibility Score: inf
ROOT
ATOM      1  C   UNL A   1      32.169  27.823  27.651  1.00  0.00     0.042 C 
ENDROOT
BRANCH   1   2
ATOM      2  C   UNL A   1      31.247  27.474  26.487  1.00  0.00     0.118 C 
BRANCH   2   3
ATOM      3  N   UNL A   1      30.827  26.083  26.513  1.00  0.00    -0.353 N 
ATOM      4  C   UNL A   1      30.829  25.127  25.535  1.00  0.00     0.264 C 
ATOM      5  O   UNL A   1      30.520  23.989  25.905  1.00  0.00    -0.270 OA
ATOM      6  H   UNL A   1      30.484  25.777  27.382  1.00  0.00     0.163 HD
BRANCH   4   7
ATOM      7  C   UNL A   1      31.180  25.461  24.054  1.00  0.00     0.197 C 
ATOM      8  N   UNL A   1      33.984  24.605  23.737  1.00  0.00    -0.332 N 
ATOM      9  C   UNL A   1      32.904  23.627  23.900  1.00  0.00     0.267 C 
ATOM     10  C   UNL A   1      33.683  25.860  24.449  1.00  0.00     0.267 C 
ATOM     11  H   UNL A   1      34.025  24.816  22.740  1.00  0.00     0.348 HD
ATOM     12  C   UNL A   1      31.622  24.198  23.308  1.00  0.00     0.120 C 
ATOM     13  C   UNL A   1      32.341  26.478  24.010  1.00  0.00     0.120 C 
BRANCH   8  14
ATOM     14  C   UNL A   1      35.331  24.075  24.067  1.00  0.00     0.195 C 
ATOM     15  C   UNL A   1      38.409  21.596  25.798  1.00  0.00     0.332 C 
ATOM     16  N   UNL A   1      37.140  22.231  25.449  1.00  0.00    -0.337 N 
ATOM     17  C   UNL A   1      36.826  22.020  24.030  1.00  0.00     0.268 C 
ATOM     18  C   UNL A   1      37.169  23.664  25.765  1.00  0.00     0.268 C 
ATOM     19  H   UNL A   1      36.405  21.797  26.008  1.00  0.00     0.347 HD
ATOM     20  C   UNL A   1      35.443  22.581  23.701  1.00  0.00     0.126 C 
ATOM     21  C   UNL A   1      35.798  24.298  25.518  1.00  0.00     0.126 C 
ENDBRANCH   8  14
BRANCH   7  22
ATOM     22  O   UNL A   1      29.931  26.043  23.604  1.00  0.00    -0.477 OA
BRANCH  22  23
ATOM     23  C   UNL A   1      29.894  27.347  23.212  1.00  0.00     0.121 A 
ATOM     24  C   UNL A   1      30.800  27.880  22.303  1.00  0.00     0.047 A 
ATOM     25  C   UNL A   1      28.790  28.099  23.613  1.00  0.00     0.055 A 
ATOM     26  C   UNL A   1      30.671  29.204  21.881  1.00  0.00     0.012 A 
ATOM     27  C   UNL A   1      28.623  29.420  23.167  1.00  0.00    -0.015 A 
ATOM     28  C   UNL A   1      29.591  29.987  22.307  1.00  0.00    -0.018 A 
ATOM     29  C   UNL A   1      27.511  30.189  23.546  1.00  0.00     0.009 A 
ATOM     30  C   UNL A   1      29.440  31.314  21.877  1.00  0.00     0.009 A 
ATOM     31  C   UNL A   1      27.367  31.503  23.098  1.00  0.00     0.001 A 
ATOM     32  C   UNL A   1      28.333  32.067  22.271  1.00  0.00     0.001 A 
ENDBRANCH  22  23
ENDBRANCH   7  22
ENDBRANCH   4   7
ENDBRANCH   2   3
ENDBRANCH   1   2
BRANCH   1  33
ATOM     33  C   UNL A   1      33.474  28.498  27.244  1.00  0.00     0.118 C 
BRANCH  33  34
ATOM     34  N   UNL A   1      33.471  29.929  27.505  1.00  0.00    -0.352 N 
ATOM     35  C   UNL A   1      34.424  30.732  28.076  1.00  0.00     0.251 C 
ATOM     36  H   UNL A   1      32.651  30.396  27.225  1.00  0.00     0.163 HD
ATOM     37  O   UNL A   1      34.138  31.894  28.365  1.00  0.00    -0.269 OA
BRANCH  35  38
ATOM     38  C   UNL A   1      35.783  30.225  28.369  1.00  0.00     0.039 A 
ATOM     39  C   UNL A   1      36.747  30.275  27.355  1.00  0.00     0.014 A 
ATOM     40  C   UNL A   1      36.107  29.656  29.604  1.00  0.00     0.014 A 
ATOM     41  C   UNL A   1      38.042  29.811  27.598  1.00  0.00     0.010 A 
ATOM     42  C   UNL A   1      37.417  29.259  29.867  1.00  0.00     0.010 A 
ATOM     43  C   UNL A   1      38.396  29.327  28.866  1.00  0.00    -0.014 A 
BRANCH  43  44
ATOM     44  C   UNL A   1      39.786  28.892  29.159  1.00  0.00     0.031 A 
ATOM     45  C   UNL A   1      40.749  29.819  29.846  1.00  0.00     0.074 A 
ATOM     46  C   UNL A   1      40.200  27.675  28.753  1.00  0.00     0.049 A 
ATOM     47  N   UNL A   1      42.011  29.627  30.141  1.00  0.00    -0.248 NA
ATOM     48  C   UNL A   1      40.237  31.144  30.230  1.00  0.00     0.031 C 
ATOM     49  C   UNL A   1      39.379  26.695  28.039  1.00  0.00     0.029 A 
ATOM     50  N   UNL A   1      41.420  27.060  28.878  1.00  0.00    -0.354 N 
ATOM     51  C   UNL A   1      42.446  30.810  30.725  1.00  0.00     0.074 A 
ATOM     52  C   UNL A   1      41.327  31.727  30.707  1.00  0.00     0.031 C 
ATOM     53  C   UNL A   1      40.112  25.593  27.810  1.00  0.00     0.029 A 
ATOM     54  C   UNL A   1      41.460  25.802  28.330  1.00  0.00     0.049 A 
ATOM     55  H   UNL A   1      42.193  27.480  29.321  1.00  0.00     0.167 HD
ATOM     56  C   UNL A   1      43.663  31.104  31.243  1.00  0.00     0.031 A 
ATOM     57  C   UNL A   1      42.469  24.915  28.249  1.00  0.00     0.031 A 
ATOM     58  C   UNL A   1      44.773  30.190  31.280  1.00  0.00     0.049 A 
ATOM     59  C   UNL A   1      43.806  25.260  28.838  1.00  0.00     0.074 A 
ATOM     60  C   UNL A   1      46.024  30.374  31.844  1.00  0.00     0.029 A 
ATOM     61  N   UNL A   1      44.767  28.919  30.728  1.00  0.00    -0.354 N 
ATOM     62  N   UNL A   1      44.179  26.358  29.449  1.00  0.00    -0.248 NA
ATOM     63  C   UNL A   1      44.856  24.237  28.738  1.00  0.00     0.031 C 
ATOM     64  C   UNL A   1      46.789  29.230  31.597  1.00  0.00     0.029 A 
ATOM     65  C   UNL A   1      46.000  28.316  30.918  1.00  0.00     0.049 A 
ATOM     66  H   UNL A   1      44.001  28.506  30.268  1.00  0.00     0.167 HD
ATOM     67  C   UNL A   1      45.500  26.151  29.823  1.00  0.00     0.074 A 
ATOM     68  C   UNL A   1      45.857  24.817  29.386  1.00  0.00     0.031 C 
ATOM     69  C   UNL A   1      46.342  26.992  30.472  1.00  0.00     0.031 A 
BRANCH  56  70
ATOM     70  C   UNL A   1      43.857  32.482  31.810  1.00  0.00    -0.014 A 
ATOM     71  C   UNL A   1      44.302  33.543  31.006  1.00  0.00     0.009 A 
ATOM     72  C   UNL A   1      43.560  32.729  33.160  1.00  0.00     0.009 A 
ATOM     73  C   UNL A   1      44.481  34.817  31.551  1.00  0.00     0.001 A 
ATOM     74  C   UNL A   1      43.716  34.009  33.696  1.00  0.00     0.001 A 
ATOM     75  C   UNL A   1      44.184  35.050  32.893  1.00  0.00     0.000 A 
ENDBRANCH  56  70
BRANCH  57  76
ATOM     76  C   UNL A   1      42.247  23.600  27.595  1.00  0.00    -0.014 A 
ATOM     77  C   UNL A   1      42.479  23.443  26.220  1.00  0.00     0.009 A 
ATOM     78  C   UNL A   1      41.804  22.498  28.341  1.00  0.00     0.009 A 
ATOM     79  C   UNL A   1      42.251  22.212  25.601  1.00  0.00     0.001 A 
ATOM     80  C   UNL A   1      41.601  21.261  27.723  1.00  0.00     0.001 A 
ATOM     81  C   UNL A   1      41.816  21.123  26.353  1.00  0.00     0.000 A 
ENDBRANCH  57  76
BRANCH  69  82
ATOM     82  C   UNL A   1      47.723  26.481  30.769  1.00  0.00    -0.014 A 
ATOM     83  C   UNL A   1      48.007  25.813  31.970  1.00  0.00     0.009 A 
ATOM     84  C   UNL A   1      48.744  26.646  29.821  1.00  0.00     0.009 A 
ATOM     85  C   UNL A   1      49.297  25.348  32.230  1.00  0.00     0.001 A 
ATOM     86  C   UNL A   1      50.028  26.159  30.074  1.00  0.00     0.001 A 
ATOM     87  C   UNL A   1      50.305  25.517  31.280  1.00  0.00     0.000 A 
ENDBRANCH  69  82
ENDBRANCH  43  44
ENDBRANCH  35  38
ENDBRANCH  33  34
ENDBRANCH   1  33
TORSDOF 13
ENDMDL
