MODEL 1
REMARK VINA RESULT:     -12.4      0.000      0.000
REMARK SMILES C[C@@H]1CCC[C@H](C)[N@H+]1Cc1cc2c(cc1Cl)C=C(C(=O)NCCCNC(=O)c1ccc(-c3c4nc(c(-c5ccccc5)c5ccc([nH]5)c(-c5ccccc5)c5nc(c(-c6ccccc6)c6ccc3[nH]6)C=C5)C=C4)cc1)[C@@H](C(F)(F)F)O2
REMARK SMILES IDX 23 1 22 2 21 3 19 4 20 5 18 7 10 8 11 9 15 10 12 11 14 12
REMARK SMILES IDX 16 13 13 14 81 15 17 16 76 17 9 18 8 19 7 20 6 21 5 22 4 23
REMARK SMILES IDX 2 24 3 26 1 27 77 28 78 29 79 30 80 31 24 32 25 33 26 34
REMARK SMILES IDX 27 36 28 37 29 38 75 39 30 40 74 41 31 42 32 43 33 44 68 45
REMARK SMILES IDX 34 46 73 47 67 48 69 49 35 50 72 51 66 52 65 53 36 55 58 56
REMARK SMILES IDX 43 57 57 58 44 59 47 60 56 61 70 62 45 63 46 64 55 66 71 67
REMARK SMILES IDX 48 68 37 69 38 70 42 71 39 72 41 73 40 74 59 75 60 76 64 77
REMARK SMILES IDX 61 78 63 79 62 80 49 81 50 82 54 83 51 84 53 85 52 86
REMARK H PARENT 21 6 8 25 25 35 69 54 47 65
REMARK Flexibility Score: inf
ROOT
ATOM      1  C   UNL A   1      37.766  19.976  24.789  1.00  0.00     0.042 C 
ENDROOT
BRANCH   1   2
ATOM      2  C   UNL A   1      36.443  20.647  25.112  1.00  0.00     0.118 C 
BRANCH   2   3
ATOM      3  N   UNL A   1      35.341  19.702  25.055  1.00  0.00    -0.352 N 
ATOM      4  C   UNL A   1      34.010  19.760  24.825  1.00  0.00     0.251 C 
ATOM      5  O   UNL A   1      33.420  18.676  24.857  1.00  0.00    -0.270 OA
ATOM      6  H   UNL A   1      35.642  18.780  25.229  1.00  0.00     0.163 HD
BRANCH   4   7
ATOM      7  C   UNL A   1      33.253  21.008  24.556  1.00  0.00     0.067 C 
ATOM      8  C   UNL A   1      30.835  25.375  25.178  1.00  0.00     0.029 A 
ATOM      9  C   UNL A   1      31.766  24.894  24.244  1.00  0.00     0.058 A 
ATOM     10  C   UNL A   1      30.262  24.452  26.074  1.00  0.00     0.050 A 
ATOM     11  C   UNL A   1      32.240  23.592  24.336  1.00  0.00     0.128 A 
ATOM     12  C   UNL A   1      30.796  23.166  26.207  1.00  0.00     0.033 A 
ATOM     13  Cl  UNL A   1      28.903  24.834  27.069  1.00  0.00    -0.084 Cl
ATOM     14  C   UNL A   1      31.827  22.755  25.372  1.00  0.00     0.019 A 
ATOM     15  O   UNL A   1      33.168  23.194  23.411  1.00  0.00    -0.475 OA
ATOM     16  C   UNL A   1      32.532  21.497  25.581  1.00  0.00     0.025 C 
ATOM     17  C   UNL A   1      33.247  21.748  23.250  1.00  0.00     0.314 C 
BRANCH   8  18
ATOM     18  C   UNL A   1      30.588  26.870  25.243  1.00  0.00     0.301 C 
BRANCH  18  19
ATOM     19  N   UNL A   1      31.796  27.734  25.253  1.00  0.00    -0.327 N 
ATOM     20  C   UNL A   1      33.936  27.863  26.500  1.00  0.00     0.075 C 
ATOM     21  C   UNL A   1      32.403  27.957  26.577  1.00  0.00     0.181 C 
ATOM     22  C   UNL A   1      31.976  29.261  27.273  1.00  0.00     0.065 C 
ATOM     23  C   UNL A   1      32.034  30.475  26.362  1.00  0.00     0.012 C 
ATOM     24  C   UNL A   1      31.700  28.914  24.371  1.00  0.00     0.181 C 
ATOM     25  H   UNL A   1      32.513  27.168  24.800  1.00  0.00     0.348 HD
ATOM     26  C   UNL A   1      31.268  30.212  25.075  1.00  0.00     0.065 C 
ATOM     27  C   UNL A   1      32.989  29.145  23.571  1.00  0.00     0.075 C 
ENDBRANCH  18  19
ENDBRANCH   8  18
BRANCH  17  28
ATOM     28  C   UNL A   1      32.130  21.238  22.311  1.00  0.00     0.429 C 
ATOM     29  F   UNL A   1      31.942  19.905  22.476  1.00  0.00    -0.167 F 
ATOM     30  F   UNL A   1      30.936  21.829  22.569  1.00  0.00    -0.167 F 
ATOM     31  F   UNL A   1      32.388  21.453  21.003  1.00  0.00    -0.167 F 
ENDBRANCH  17  28
ENDBRANCH   4   7
ENDBRANCH   2   3
ENDBRANCH   1   2
BRANCH   1  32
ATOM     32  C   UNL A   1      38.861  20.385  25.760  1.00  0.00     0.118 C 
BRANCH  32  33
ATOM     33  N   UNL A   1      39.940  19.400  25.815  1.00  0.00    -0.352 N 
ATOM     34  C   UNL A   1      41.281  19.560  26.062  1.00  0.00     0.251 C 
ATOM     35  H   UNL A   1      39.659  18.471  25.649  1.00  0.00     0.163 HD
ATOM     36  O   UNL A   1      42.062  18.642  25.823  1.00  0.00    -0.269 OA
BRANCH  34  37
ATOM     37  C   UNL A   1      41.783  20.840  26.595  1.00  0.00     0.039 A 
ATOM     38  C   UNL A   1      41.829  21.054  27.971  1.00  0.00     0.014 A 
ATOM     39  C   UNL A   1      42.207  21.841  25.717  1.00  0.00     0.014 A 
ATOM     40  C   UNL A   1      42.077  22.325  28.459  1.00  0.00     0.010 A 
ATOM     41  C   UNL A   1      42.592  23.086  26.222  1.00  0.00     0.010 A 
ATOM     42  C   UNL A   1      42.478  23.355  27.594  1.00  0.00    -0.014 A 
BRANCH  42  43
ATOM     43  C   UNL A   1      42.791  24.686  28.170  1.00  0.00     0.031 A 
ATOM     44  C   UNL A   1      44.210  25.098  28.449  1.00  0.00     0.074 A 
ATOM     45  C   UNL A   1      41.781  25.556  28.370  1.00  0.00     0.049 A 
ATOM     46  N   UNL A   1      44.657  26.245  28.895  1.00  0.00    -0.248 NA
ATOM     47  C   UNL A   1      45.267  24.103  28.202  1.00  0.00     0.031 C 
ATOM     48  C   UNL A   1      40.365  25.270  28.121  1.00  0.00     0.029 A 
ATOM     49  N   UNL A   1      41.786  26.864  28.782  1.00  0.00    -0.354 N 
ATOM     50  C   UNL A   1      46.033  26.101  29.010  1.00  0.00     0.074 A 
ATOM     51  C   UNL A   1      46.352  24.748  28.610  1.00  0.00     0.031 C 
ATOM     52  C   UNL A   1      39.652  26.388  28.299  1.00  0.00     0.029 A 
ATOM     53  C   UNL A   1      40.541  27.446  28.764  1.00  0.00     0.049 A 
ATOM     54  H   UNL A   1      42.601  27.340  29.062  1.00  0.00     0.167 HD
ATOM     55  C   UNL A   1      46.947  27.018  29.404  1.00  0.00     0.031 A 
ATOM     56  C   UNL A   1      40.147  28.689  29.098  1.00  0.00     0.031 A 
ATOM     57  C   UNL A   1      46.621  28.369  29.780  1.00  0.00     0.049 A 
ATOM     58  C   UNL A   1      41.175  29.674  29.564  1.00  0.00     0.074 A 
ATOM     59  C   UNL A   1      47.483  29.382  30.163  1.00  0.00     0.029 A 
ATOM     60  N   UNL A   1      45.339  28.897  29.820  1.00  0.00    -0.354 N 
ATOM     61  N   UNL A   1      42.474  29.524  29.654  1.00  0.00    -0.248 NA
ATOM     62  C   UNL A   1      40.689  30.996  29.979  1.00  0.00     0.031 C 
ATOM     63  C   UNL A   1      46.719  30.499  30.504  1.00  0.00     0.029 A 
ATOM     64  C   UNL A   1      45.385  30.210  30.256  1.00  0.00     0.049 A 
ATOM     65  H   UNL A   1      44.519  28.410  29.576  1.00  0.00     0.167 HD
ATOM     66  C   UNL A   1      42.964  30.733  30.128  1.00  0.00     0.074 A 
ATOM     67  C   UNL A   1      41.824  31.615  30.280  1.00  0.00     0.031 C 
ATOM     68  C   UNL A   1      44.243  31.075  30.415  1.00  0.00     0.031 A 
BRANCH  55  69
ATOM     69  C   UNL A   1      48.391  26.602  29.474  1.00  0.00    -0.014 A 
ATOM     70  C   UNL A   1      48.894  26.042  30.661  1.00  0.00     0.009 A 
ATOM     71  C   UNL A   1      49.280  26.854  28.418  1.00  0.00     0.009 A 
ATOM     72  C   UNL A   1      50.254  25.762  30.797  1.00  0.00     0.001 A 
ATOM     73  C   UNL A   1      50.637  26.543  28.544  1.00  0.00     0.001 A 
ATOM     74  C   UNL A   1      51.124  26.009  29.736  1.00  0.00     0.000 A 
ENDBRANCH  55  69
BRANCH  56  75
ATOM     75  C   UNL A   1      38.707  29.045  28.989  1.00  0.00    -0.014 A 
ATOM     76  C   UNL A   1      38.187  29.552  27.785  1.00  0.00     0.009 A 
ATOM     77  C   UNL A   1      37.863  28.963  30.106  1.00  0.00     0.009 A 
ATOM     78  C   UNL A   1      36.870  30.008  27.714  1.00  0.00     0.001 A 
ATOM     79  C   UNL A   1      36.535  29.388  30.022  1.00  0.00     0.001 A 
ATOM     80  C   UNL A   1      36.043  29.922  28.831  1.00  0.00     0.000 A 
ENDBRANCH  56  75
BRANCH  68  81
ATOM     81  C   UNL A   1      44.496  32.466  30.924  1.00  0.00    -0.014 A 
ATOM     82  C   UNL A   1      44.800  33.496  30.019  1.00  0.00     0.009 A 
ATOM     83  C   UNL A   1      44.538  32.737  32.301  1.00  0.00     0.009 A 
ATOM     84  C   UNL A   1      45.160  34.762  30.480  1.00  0.00     0.001 A 
ATOM     85  C   UNL A   1      44.865  34.015  32.758  1.00  0.00     0.001 A 
ATOM     86  C   UNL A   1      45.187  35.023  31.849  1.00  0.00     0.000 A 
ENDBRANCH  68  81
ENDBRANCH  42  43
ENDBRANCH  34  37
ENDBRANCH  32  33
ENDBRANCH   1  32
TORSDOF 13
ENDMDL
MODEL 2
REMARK VINA RESULT:     -12.4      0.191      5.755
REMARK SMILES C[C@@H]1CCC[C@H](C)[N@H+]1Cc1cc2c(cc1Cl)C=C(C(=O)NCCCNC(=O)c1ccc(-c3c4nc(c(-c5ccccc5)c5ccc([nH]5)c(-c5ccccc5)c5nc(c(-c6ccccc6)c6ccc3[nH]6)C=C5)C=C4)cc1)[C@@H](C(F)(F)F)O2
REMARK SMILES IDX 23 1 22 2 21 3 19 4 20 5 18 7 10 8 11 9 15 10 12 11 14 12
REMARK SMILES IDX 16 13 13 14 81 15 17 16 76 17 9 18 8 19 7 20 6 21 5 22 4 23
REMARK SMILES IDX 2 24 3 26 1 27 77 28 78 29 79 30 80 31 24 32 25 33 26 34
REMARK SMILES IDX 27 36 28 37 29 38 75 39 30 40 74 41 31 42 32 43 33 44 68 45
REMARK SMILES IDX 34 46 73 47 67 48 69 49 35 50 72 51 66 52 65 53 36 55 58 56
REMARK SMILES IDX 43 57 57 58 44 59 47 60 56 61 70 62 45 63 46 64 55 66 71 67
REMARK SMILES IDX 48 68 37 69 38 70 42 71 39 72 41 73 40 74 59 75 60 76 64 77
REMARK SMILES IDX 61 78 63 79 62 80 49 81 50 82 54 83 51 84 53 85 52 86
REMARK H PARENT 21 6 8 25 25 35 69 54 47 65
REMARK Flexibility Score: inf
ROOT
ATOM      1  C   UNL A   1      37.785  19.889  24.777  1.00  0.00     0.042 C 
ENDROOT
BRANCH   1   2
ATOM      2  C   UNL A   1      36.464  20.590  25.045  1.00  0.00     0.118 C 
BRANCH   2   3
ATOM      3  N   UNL A   1      35.356  19.651  25.038  1.00  0.00    -0.352 N 
ATOM      4  C   UNL A   1      34.018  19.715  24.853  1.00  0.00     0.251 C 
ATOM      5  O   UNL A   1      33.422  18.637  24.919  1.00  0.00    -0.270 OA
ATOM      6  H   UNL A   1      35.656  18.730  25.213  1.00  0.00     0.163 HD
BRANCH   4   7
ATOM      7  C   UNL A   1      33.260  20.966  24.596  1.00  0.00     0.067 C 
ATOM      8  C   UNL A   1      30.830  25.321  25.257  1.00  0.00     0.029 A 
ATOM      9  C   UNL A   1      31.767  24.853  24.322  1.00  0.00     0.058 A 
ATOM     10  C   UNL A   1      30.255  24.386  26.140  1.00  0.00     0.050 A 
ATOM     11  C   UNL A   1      32.243  23.550  24.401  1.00  0.00     0.128 A 
ATOM     12  C   UNL A   1      30.790  23.099  26.260  1.00  0.00     0.033 A 
ATOM     13  Cl  UNL A   1      28.890  24.753  27.133  1.00  0.00    -0.084 Cl
ATOM     14  C   UNL A   1      31.826  22.700  25.425  1.00  0.00     0.019 A 
ATOM     15  O   UNL A   1      33.176  23.165  23.476  1.00  0.00    -0.475 OA
ATOM     16  C   UNL A   1      32.533  21.441  25.623  1.00  0.00     0.025 C 
ATOM     17  C   UNL A   1      33.259  21.721  23.298  1.00  0.00     0.314 C 
BRANCH   8  18
ATOM     18  C   UNL A   1      30.580  26.814  25.339  1.00  0.00     0.301 C 
BRANCH  18  19
ATOM     19  N   UNL A   1      31.781  27.685  25.264  1.00  0.00    -0.327 N 
ATOM     20  C   UNL A   1      33.972  27.874  26.410  1.00  0.00     0.075 C 
ATOM     21  C   UNL A   1      32.443  27.962  26.551  1.00  0.00     0.181 C 
ATOM     22  C   UNL A   1      32.036  29.290  27.214  1.00  0.00     0.065 C 
ATOM     23  C   UNL A   1      32.047  30.468  26.256  1.00  0.00     0.012 C 
ATOM     24  C   UNL A   1      31.639  28.829  24.341  1.00  0.00     0.181 C 
ATOM     25  H   UNL A   1      32.482  27.106  24.802  1.00  0.00     0.348 HD
ATOM     26  C   UNL A   1      31.228  30.151  25.014  1.00  0.00     0.065 C 
ATOM     27  C   UNL A   1      32.890  29.036  23.479  1.00  0.00     0.075 C 
ENDBRANCH  18  19
ENDBRANCH   8  18
BRANCH  17  28
ATOM     28  C   UNL A   1      32.147  21.220  22.348  1.00  0.00     0.429 C 
ATOM     29  F   UNL A   1      32.443  21.533  21.063  1.00  0.00    -0.167 F 
ATOM     30  F   UNL A   1      32.005  19.872  22.394  1.00  0.00    -0.167 F 
ATOM     31  F   UNL A   1      30.931  21.741  22.622  1.00  0.00    -0.167 F 
ENDBRANCH  17  28
ENDBRANCH   4   7
ENDBRANCH   2   3
ENDBRANCH   1   2
BRANCH   1  32
ATOM     32  C   UNL A   1      38.872  20.343  25.736  1.00  0.00     0.118 C 
BRANCH  32  33
ATOM     33  N   UNL A   1      39.943  19.355  25.856  1.00  0.00    -0.352 N 
ATOM     34  C   UNL A   1      41.284  19.520  26.098  1.00  0.00     0.251 C 
ATOM     35  H   UNL A   1      39.656  18.420  25.746  1.00  0.00     0.163 HD
ATOM     36  O   UNL A   1      42.059  18.584  25.919  1.00  0.00    -0.269 OA
BRANCH  34  37
ATOM     37  C   UNL A   1      41.794  20.826  26.554  1.00  0.00     0.039 A 
ATOM     38  C   UNL A   1      41.801  21.139  27.912  1.00  0.00     0.014 A 
ATOM     39  C   UNL A   1      42.266  21.754  25.620  1.00  0.00     0.014 A 
ATOM     40  C   UNL A   1      42.058  22.438  28.315  1.00  0.00     0.010 A 
ATOM     41  C   UNL A   1      42.659  23.025  26.047  1.00  0.00     0.010 A 
ATOM     42  C   UNL A   1      42.506  23.395  27.392  1.00  0.00    -0.014 A 
BRANCH  42  43
ATOM     43  C   UNL A   1      42.827  24.759  27.880  1.00  0.00     0.031 A 
ATOM     44  C   UNL A   1      41.743  25.768  28.137  1.00  0.00     0.074 A 
ATOM     45  C   UNL A   1      44.111  25.056  28.165  1.00  0.00     0.049 A 
ATOM     46  N   UNL A   1      41.851  26.981  28.619  1.00  0.00    -0.248 NA
ATOM     47  C   UNL A   1      40.361  25.378  27.811  1.00  0.00     0.031 C 
ATOM     48  C   UNL A   1      45.245  24.148  27.970  1.00  0.00     0.029 A 
ATOM     49  N   UNL A   1      44.676  26.176  28.718  1.00  0.00    -0.354 N 
ATOM     50  C   UNL A   1      40.565  27.505  28.626  1.00  0.00     0.074 A 
ATOM     51  C   UNL A   1      39.691  26.491  28.079  1.00  0.00     0.031 C 
ATOM     52  C   UNL A   1      46.351  24.710  28.475  1.00  0.00     0.029 A 
ATOM     53  C   UNL A   1      46.026  26.052  28.944  1.00  0.00     0.049 A 
ATOM     54  H   UNL A   1      44.165  26.989  28.934  1.00  0.00     0.167 HD
ATOM     55  C   UNL A   1      40.152  28.719  29.060  1.00  0.00     0.031 A 
ATOM     56  C   UNL A   1      46.915  26.921  29.458  1.00  0.00     0.031 A 
ATOM     57  C   UNL A   1      41.027  29.713  29.623  1.00  0.00     0.049 A 
ATOM     58  C   UNL A   1      46.436  28.271  29.899  1.00  0.00     0.074 A 
ATOM     59  C   UNL A   1      40.696  30.962  30.121  1.00  0.00     0.029 A 
ATOM     60  N   UNL A   1      42.400  29.577  29.765  1.00  0.00    -0.354 N 
ATOM     61  N   UNL A   1      45.214  28.745  29.910  1.00  0.00    -0.248 NA
ATOM     62  C   UNL A   1      47.453  29.209  30.392  1.00  0.00     0.031 C 
ATOM     63  C   UNL A   1      41.875  31.608  30.496  1.00  0.00     0.029 A 
ATOM     64  C   UNL A   1      42.934  30.732  30.310  1.00  0.00     0.049 A 
ATOM     65  H   UNL A   1      42.918  28.777  29.515  1.00  0.00     0.167 HD
ATOM     66  C   UNL A   1      45.311  30.033  30.418  1.00  0.00     0.074 A 
ATOM     67  C   UNL A   1      46.709  30.255  30.729  1.00  0.00     0.031 C 
ATOM     68  C   UNL A   1      44.329  30.947  30.603  1.00  0.00     0.031 A 
BRANCH  55  69
ATOM     69  C   UNL A   1      38.693  29.064  28.932  1.00  0.00    -0.014 A 
ATOM     70  C   UNL A   1      38.215  29.614  27.730  1.00  0.00     0.009 A 
ATOM     71  C   UNL A   1      37.812  28.948  30.018  1.00  0.00     0.009 A 
ATOM     72  C   UNL A   1      36.896  30.057  27.624  1.00  0.00     0.001 A 
ATOM     73  C   UNL A   1      36.483  29.363  29.900  1.00  0.00     0.001 A 
ATOM     74  C   UNL A   1      36.030  29.928  28.708  1.00  0.00     0.000 A 
ENDBRANCH  55  69
BRANCH  56  75
ATOM     75  C   UNL A   1      48.341  26.514  29.577  1.00  0.00    -0.014 A 
ATOM     76  C   UNL A   1      48.803  25.868  30.737  1.00  0.00     0.009 A 
ATOM     77  C   UNL A   1      49.264  26.842  28.574  1.00  0.00     0.009 A 
ATOM     78  C   UNL A   1      50.161  25.599  30.909  1.00  0.00     0.001 A 
ATOM     79  C   UNL A   1      50.619  26.539  28.734  1.00  0.00     0.001 A 
ATOM     80  C   UNL A   1      51.068  25.931  29.905  1.00  0.00     0.000 A 
ENDBRANCH  56  75
BRANCH  68  81
ATOM     81  C   UNL A   1      44.716  32.283  31.173  1.00  0.00    -0.014 A 
ATOM     82  C   UNL A   1      44.603  32.512  32.553  1.00  0.00     0.009 A 
ATOM     83  C   UNL A   1      45.091  33.345  30.336  1.00  0.00     0.009 A 
ATOM     84  C   UNL A   1      44.838  33.781  33.084  1.00  0.00     0.001 A 
ATOM     85  C   UNL A   1      45.360  34.605  30.874  1.00  0.00     0.001 A 
ATOM     86  C   UNL A   1      45.221  34.826  32.245  1.00  0.00     0.000 A 
ENDBRANCH  68  81
ENDBRANCH  42  43
ENDBRANCH  34  37
ENDBRANCH  32  33
ENDBRANCH   1  32
TORSDOF 13
ENDMDL
MODEL 3
REMARK VINA RESULT:     -12.4      4.278      9.552
REMARK SMILES C[C@@H]1CCC[C@H](C)[N@H+]1Cc1cc2c(cc1Cl)C=C(C(=O)NCCCNC(=O)c1ccc(-c3c4nc(c(-c5ccccc5)c5ccc([nH]5)c(-c5ccccc5)c5nc(c(-c6ccccc6)c6ccc3[nH]6)C=C5)C=C4)cc1)[C@@H](C(F)(F)F)O2
REMARK SMILES IDX 23 1 22 2 21 3 19 4 20 5 18 7 10 8 11 9 15 10 12 11 14 12
REMARK SMILES IDX 16 13 13 14 81 15 17 16 76 17 9 18 8 19 7 20 6 21 5 22 4 23
REMARK SMILES IDX 2 24 3 26 1 27 77 28 78 29 79 30 80 31 24 32 25 33 26 34
REMARK SMILES IDX 27 36 28 37 29 38 75 39 30 40 74 41 31 42 32 43 33 44 68 45
REMARK SMILES IDX 34 46 73 47 67 48 69 49 35 50 72 51 66 52 65 53 36 55 58 56
REMARK SMILES IDX 43 57 57 58 44 59 47 60 56 61 70 62 45 63 46 64 55 66 71 67
REMARK SMILES IDX 48 68 37 69 38 70 42 71 39 72 41 73 40 74 59 75 60 76 64 77
REMARK SMILES IDX 61 78 63 79 62 80 49 81 50 82 54 83 51 84 53 85 52 86
REMARK H PARENT 21 6 8 25 25 35 69 54 47 65
REMARK Flexibility Score: inf
ROOT
ATOM      1  C   UNL A   1      31.375  32.267  26.511  1.00  0.00     0.042 C 
ENDROOT
BRANCH   1   2
ATOM      2  C   UNL A   1      31.596  30.815  26.124  1.00  0.00     0.118 C 
BRANCH   2   3
ATOM      3  N   UNL A   1      30.901  30.484  24.892  1.00  0.00    -0.352 N 
ATOM      4  C   UNL A   1      30.825  29.417  24.064  1.00  0.00     0.251 C 
ATOM      5  O   UNL A   1      30.076  29.553  23.093  1.00  0.00    -0.270 OA
ATOM      6  H   UNL A   1      30.341  31.230  24.577  1.00  0.00     0.163 HD
BRANCH   4   7
ATOM      7  C   UNL A   1      31.573  28.148  24.252  1.00  0.00     0.067 C 
ATOM      8  C   UNL A   1      34.139  23.917  23.347  1.00  0.00     0.029 A 
ATOM      9  C   UNL A   1      34.266  24.961  24.278  1.00  0.00     0.058 A 
ATOM     10  C   UNL A   1      32.969  23.868  22.566  1.00  0.00     0.050 A 
ATOM     11  C   UNL A   1      33.352  26.008  24.283  1.00  0.00     0.128 A 
ATOM     12  C   UNL A   1      32.094  24.960  22.526  1.00  0.00     0.033 A 
ATOM     13  Cl  UNL A   1      32.543  22.500  21.602  1.00  0.00    -0.084 Cl
ATOM     14  C   UNL A   1      32.320  26.057  23.347  1.00  0.00     0.019 A 
ATOM     15  O   UNL A   1      33.548  27.008  25.197  1.00  0.00    -0.475 OA
ATOM     16  C   UNL A   1      31.545  27.285  23.221  1.00  0.00     0.025 C 
ATOM     17  C   UNL A   1      32.346  27.778  25.485  1.00  0.00     0.314 C 
BRANCH   8  18
ATOM     18  C   UNL A   1      35.313  22.976  23.158  1.00  0.00     0.301 C 
BRANCH  18  19
ATOM     19  N   UNL A   1      35.426  21.863  24.135  1.00  0.00    -0.327 N 
ATOM     20  C   UNL A   1      34.238  19.744  24.630  1.00  0.00     0.075 C 
ATOM     21  C   UNL A   1      34.148  21.278  24.577  1.00  0.00     0.181 C 
ATOM     22  C   UNL A   1      33.607  21.835  25.906  1.00  0.00     0.065 C 
ATOM     23  C   UNL A   1      34.658  21.904  27.000  1.00  0.00     0.012 C 
ATOM     24  C   UNL A   1      36.442  22.083  25.183  1.00  0.00     0.181 C 
ATOM     25  H   UNL A   1      35.819  21.093  23.594  1.00  0.00     0.348 HD
ATOM     26  C   UNL A   1      35.892  22.644  26.506  1.00  0.00     0.065 C 
ATOM     27  C   UNL A   1      37.284  20.827  25.445  1.00  0.00     0.075 C 
ENDBRANCH  18  19
ENDBRANCH   8  18
BRANCH  17  28
ATOM     28  C   UNL A   1      31.457  27.045  26.516  1.00  0.00     0.429 C 
ATOM     29  F   UNL A   1      31.215  27.840  27.587  1.00  0.00    -0.167 F 
ATOM     30  F   UNL A   1      30.247  26.712  26.002  1.00  0.00    -0.167 F 
ATOM     31  F   UNL A   1      32.005  25.899  26.978  1.00  0.00    -0.167 F 
ENDBRANCH  17  28
ENDBRANCH   4   7
ENDBRANCH   2   3
ENDBRANCH   1   2
BRANCH   1  32
ATOM     32  C   UNL A   1      32.559  32.835  27.276  1.00  0.00     0.118 C 
BRANCH  32  33
ATOM     33  N   UNL A   1      32.353  34.235  27.641  1.00  0.00    -0.352 N 
ATOM     34  C   UNL A   1      32.958  35.004  28.604  1.00  0.00     0.251 C 
ATOM     35  H   UNL A   1      31.669  34.704  27.109  1.00  0.00     0.163 HD
ATOM     36  O   UNL A   1      32.474  36.089  28.917  1.00  0.00    -0.269 OA
BRANCH  34  37
ATOM     37  C   UNL A   1      34.177  34.516  29.275  1.00  0.00     0.039 A 
ATOM     38  C   UNL A   1      35.419  34.659  28.658  1.00  0.00     0.014 A 
ATOM     39  C   UNL A   1      34.085  33.905  30.528  1.00  0.00     0.014 A 
ATOM     40  C   UNL A   1      36.521  33.999  29.175  1.00  0.00     0.010 A 
ATOM     41  C   UNL A   1      35.230  33.360  31.117  1.00  0.00     0.010 A 
ATOM     42  C   UNL A   1      36.446  33.355  30.419  1.00  0.00    -0.014 A 
BRANCH  42  43
ATOM     43  C   UNL A   1      37.669  32.713  30.962  1.00  0.00     0.031 A 
ATOM     44  C   UNL A   1      38.273  33.167  32.262  1.00  0.00     0.074 A 
ATOM     45  C   UNL A   1      38.190  31.659  30.304  1.00  0.00     0.049 A 
ATOM     46  N   UNL A   1      39.304  32.673  32.902  1.00  0.00    -0.248 NA
ATOM     47  C   UNL A   1      37.651  34.320  32.934  1.00  0.00     0.031 C 
ATOM     48  C   UNL A   1      37.678  31.122  29.040  1.00  0.00     0.029 A 
ATOM     49  N   UNL A   1      39.230  30.822  30.620  1.00  0.00    -0.354 N 
ATOM     50  C   UNL A   1      39.471  33.469  34.028  1.00  0.00     0.074 A 
ATOM     51  C   UNL A   1      38.452  34.494  33.978  1.00  0.00     0.031 C 
ATOM     52  C   UNL A   1      38.344  30.001  28.735  1.00  0.00     0.029 A 
ATOM     53  C   UNL A   1      39.391  29.789  29.728  1.00  0.00     0.049 A 
ATOM     54  H   UNL A   1      39.804  30.948  31.410  1.00  0.00     0.167 HD
ATOM     55  C   UNL A   1      40.386  33.346  35.018  1.00  0.00     0.031 A 
ATOM     56  C   UNL A   1      40.287  28.786  29.696  1.00  0.00     0.031 A 
ATOM     57  C   UNL A   1      41.383  32.309  35.070  1.00  0.00     0.049 A 
ATOM     58  C   UNL A   1      41.311  28.695  30.786  1.00  0.00     0.074 A 
ATOM     59  C   UNL A   1      42.333  32.084  36.050  1.00  0.00     0.029 A 
ATOM     60  N   UNL A   1      41.559  31.326  34.107  1.00  0.00    -0.354 N 
ATOM     61  N   UNL A   1      41.445  29.449  31.851  1.00  0.00    -0.248 NA
ATOM     62  C   UNL A   1      42.308  27.623  30.674  1.00  0.00     0.031 C 
ATOM     63  C   UNL A   1      43.130  31.012  35.646  1.00  0.00     0.029 A 
ATOM     64  C   UNL A   1      42.626  30.515  34.454  1.00  0.00     0.049 A 
ATOM     65  H   UNL A   1      41.009  31.222  33.297  1.00  0.00     0.167 HD
ATOM     66  C   UNL A   1      42.537  28.939  32.540  1.00  0.00     0.074 A 
ATOM     67  C   UNL A   1      43.010  27.795  31.787  1.00  0.00     0.031 C 
ATOM     68  C   UNL A   1      43.096  29.386  33.690  1.00  0.00     0.031 A 
BRANCH  55  69
ATOM     69  C   UNL A   1      40.379  34.364  36.126  1.00  0.00    -0.014 A 
ATOM     70  C   UNL A   1      39.560  34.160  37.250  1.00  0.00     0.009 A 
ATOM     71  C   UNL A   1      41.092  35.569  36.021  1.00  0.00     0.009 A 
ATOM     72  C   UNL A   1      39.440  35.143  38.233  1.00  0.00     0.001 A 
ATOM     73  C   UNL A   1      40.995  36.539  37.023  1.00  0.00     0.001 A 
ATOM     74  C   UNL A   1      40.161  36.330  38.120  1.00  0.00     0.000 A 
ENDBRANCH  55  69
BRANCH  56  75
ATOM     75  C   UNL A   1      40.230  27.800  28.584  1.00  0.00    -0.014 A 
ATOM     76  C   UNL A   1      39.559  26.576  28.751  1.00  0.00     0.009 A 
ATOM     77  C   UNL A   1      40.916  28.035  27.384  1.00  0.00     0.009 A 
ATOM     78  C   UNL A   1      39.611  25.595  27.761  1.00  0.00     0.001 A 
ATOM     79  C   UNL A   1      40.936  27.064  26.379  1.00  0.00     0.001 A 
ATOM     80  C   UNL A   1      40.297  25.840  26.573  1.00  0.00     0.000 A 
ENDBRANCH  56  75
BRANCH  68  81
ATOM     81  C   UNL A   1      44.288  28.641  34.223  1.00  0.00    -0.014 A 
ATOM     82  C   UNL A   1      45.574  28.957  33.755  1.00  0.00     0.009 A 
ATOM     83  C   UNL A   1      44.132  27.561  35.104  1.00  0.00     0.009 A 
ATOM     84  C   UNL A   1      46.677  28.195  34.143  1.00  0.00     0.001 A 
ATOM     85  C   UNL A   1      45.242  26.822  35.518  1.00  0.00     0.001 A 
ATOM     86  C   UNL A   1      46.511  27.132  35.028  1.00  0.00     0.000 A 
ENDBRANCH  68  81
ENDBRANCH  42  43
ENDBRANCH  34  37
ENDBRANCH  32  33
ENDBRANCH   1  32
TORSDOF 13
ENDMDL
