MODEL 1
REMARK VINA RESULT:     -13.4      0.000      0.000
REMARK SMILES O=C(NCCCNC(=O)c1ccccc1Nc1nc(Cl)nc(Nc2ccc(N3CCOCC3=O)cc2)n1)c1ccc(-c2c3nc(c(-c4ccccc4)c4ccc([nH]4)c(-c4ccccc4)c4nc(c(-c5ccccc5)c5ccc2[nH]5)C=C4)C=C3)cc1
REMARK SMILES IDX 7 1 8 2 9 3 6 5 5 6 4 7 3 8 1 9 2 10 38 12 39 13 85 14 40 15
REMARK SMILES IDX 84 16 41 17 42 18 43 19 78 20 44 21 83 22 77 23 79 24 45 25
REMARK SMILES IDX 82 26 76 27 75 28 46 30 68 31 53 32 67 33 54 34 57 35 66 36
REMARK SMILES IDX 80 37 55 38 56 39 65 41 81 42 58 43 47 44 48 45 52 46 49 47
REMARK SMILES IDX 51 48 50 49 69 50 70 51 74 52 71 53 73 54 72 55 59 56 60 57
REMARK SMILES IDX 64 58 61 59 63 60 62 61 10 62 11 63 15 64 12 65 14 66 13 67
REMARK SMILES IDX 16 68 17 70 18 71 37 72 19 73 22 74 20 75 21 76 23 77 24 79
REMARK SMILES IDX 25 80 36 81 26 82 35 83 27 84 28 85 29 86 33 87 30 88 32 89
REMARK SMILES IDX 34 90 31 91
REMARK H PARENT 7 4 3 11 79 29 57 40 16 69 23 78
REMARK Flexibility Score: inf
ROOT
ATOM      1  N   UNL A   1      35.708  21.014  25.762  1.00  0.00    -0.352 N 
ATOM      2  C   UNL A   1      34.380  20.687  25.877  1.00  0.00     0.253 C 
ATOM      3  O   UNL A   1      33.770  20.992  26.898  1.00  0.00    -0.269 OA
ATOM      4  H   UNL A   1      36.110  21.416  26.567  1.00  0.00     0.163 HD
ENDROOT
BRANCH   1   5
ATOM      5  C   UNL A   1      36.613  20.858  24.632  1.00  0.00     0.118 C 
BRANCH   5   6
ATOM      6  C   UNL A   1      37.680  19.801  24.870  1.00  0.00     0.042 C 
BRANCH   6   7
ATOM      7  C   UNL A   1      38.782  20.220  25.830  1.00  0.00     0.118 C 
BRANCH   7   8
ATOM      8  N   UNL A   1      39.952  19.352  25.787  1.00  0.00    -0.352 N 
ATOM      9  O   UNL A   1      42.128  18.772  25.817  1.00  0.00    -0.269 OA
ATOM     10  C   UNL A   1      41.272  19.621  26.055  1.00  0.00     0.251 C 
ATOM     11  H   UNL A   1      39.766  18.423  25.522  1.00  0.00     0.163 HD
BRANCH  10  12
ATOM     12  C   UNL A   1      41.676  20.935  26.602  1.00  0.00     0.039 A 
ATOM     13  C   UNL A   1      41.712  21.158  27.978  1.00  0.00     0.014 A 
ATOM     14  C   UNL A   1      42.042  21.957  25.721  1.00  0.00     0.014 A 
ATOM     15  C   UNL A   1      41.929  22.439  28.466  1.00  0.00     0.010 A 
ATOM     16  C   UNL A   1      42.373  23.221  26.221  1.00  0.00     0.010 A 
ATOM     17  C   UNL A   1      42.282  23.482  27.596  1.00  0.00    -0.014 A 
BRANCH  17  18
ATOM     18  C   UNL A   1      42.618  24.813  28.162  1.00  0.00     0.031 A 
ATOM     19  C   UNL A   1      44.028  25.170  28.540  1.00  0.00     0.074 A 
ATOM     20  C   UNL A   1      41.630  25.716  28.312  1.00  0.00     0.049 A 
ATOM     21  N   UNL A   1      44.486  26.295  29.031  1.00  0.00    -0.248 NA
ATOM     22  C   UNL A   1      45.056  24.134  28.353  1.00  0.00     0.031 C 
ATOM     23  C   UNL A   1      40.219  25.481  27.993  1.00  0.00     0.029 A 
ATOM     24  N   UNL A   1      41.659  27.014  28.752  1.00  0.00    -0.354 N 
ATOM     25  C   UNL A   1      45.845  26.095  29.238  1.00  0.00     0.074 A 
ATOM     26  C   UNL A   1      46.135  24.735  28.837  1.00  0.00     0.031 C 
ATOM     27  C   UNL A   1      39.527  26.609  28.200  1.00  0.00     0.029 A 
ATOM     28  C   UNL A   1      40.428  27.623  28.734  1.00  0.00     0.049 A 
ATOM     29  H   UNL A   1      42.481  27.464  29.052  1.00  0.00     0.167 HD
ATOM     30  C   UNL A   1      46.766  26.967  29.717  1.00  0.00     0.031 A 
ATOM     31  C   UNL A   1      40.054  28.854  29.124  1.00  0.00     0.031 A 
ATOM     32  C   UNL A   1      46.473  28.320  30.112  1.00  0.00     0.049 A 
ATOM     33  C   UNL A   1      41.088  29.790  29.669  1.00  0.00     0.074 A 
ATOM     34  C   UNL A   1      47.345  29.293  30.569  1.00  0.00     0.029 A 
ATOM     35  N   UNL A   1      45.208  28.889  30.106  1.00  0.00    -0.354 N 
ATOM     36  N   UNL A   1      42.376  29.597  29.818  1.00  0.00    -0.248 NA
ATOM     37  C   UNL A   1      40.617  31.113  30.101  1.00  0.00     0.031 C 
ATOM     38  C   UNL A   1      46.601  30.434  30.889  1.00  0.00     0.029 A 
ATOM     39  C   UNL A   1      45.273  30.189  30.581  1.00  0.00     0.049 A 
ATOM     40  H   UNL A   1      44.386  28.436  29.808  1.00  0.00     0.167 HD
ATOM     41  C   UNL A   1      42.873  30.776  30.355  1.00  0.00     0.074 A 
ATOM     42  C   UNL A   1      41.751  31.686  30.481  1.00  0.00     0.031 C 
ATOM     43  C   UNL A   1      44.145  31.075  30.713  1.00  0.00     0.031 A 
BRANCH  30  44
ATOM     44  C   UNL A   1      48.176  26.468  29.876  1.00  0.00    -0.014 A 
ATOM     45  C   UNL A   1      48.605  25.840  31.056  1.00  0.00     0.009 A 
ATOM     46  C   UNL A   1      49.082  26.598  28.811  1.00  0.00     0.009 A 
ATOM     47  C   UNL A   1      49.921  25.385  31.178  1.00  0.00     0.001 A 
ATOM     48  C   UNL A   1      50.389  26.119  28.926  1.00  0.00     0.001 A 
ATOM     49  C   UNL A   1      50.809  25.522  30.113  1.00  0.00     0.000 A 
ENDBRANCH  30  44
BRANCH  31  50
ATOM     50  C   UNL A   1      38.624  29.244  29.034  1.00  0.00    -0.014 A 
ATOM     51  C   UNL A   1      37.778  29.133  30.146  1.00  0.00     0.009 A 
ATOM     52  C   UNL A   1      38.111  29.773  27.838  1.00  0.00     0.009 A 
ATOM     53  C   UNL A   1      36.443  29.534  30.058  1.00  0.00     0.001 A 
ATOM     54  C   UNL A   1      36.785  30.200  27.762  1.00  0.00     0.001 A 
ATOM     55  C   UNL A   1      35.950  30.074  28.870  1.00  0.00     0.000 A 
ENDBRANCH  31  50
BRANCH  43  56
ATOM     56  C   UNL A   1      44.388  32.452  31.263  1.00  0.00    -0.014 A 
ATOM     57  C   UNL A   1      44.321  32.704  32.642  1.00  0.00     0.009 A 
ATOM     58  C   UNL A   1      44.715  33.501  30.391  1.00  0.00     0.009 A 
ATOM     59  C   UNL A   1      44.547  33.991  33.134  1.00  0.00     0.001 A 
ATOM     60  C   UNL A   1      44.967  34.780  30.889  1.00  0.00     0.001 A 
ATOM     61  C   UNL A   1      44.874  35.026  32.258  1.00  0.00     0.000 A 
ENDBRANCH  43  56
ENDBRANCH  17  18
ENDBRANCH  10  12
ENDBRANCH   7   8
ENDBRANCH   6   7
ENDBRANCH   5   6
ENDBRANCH   1   5
BRANCH   2  62
ATOM     62  C   UNL A   1      33.669  19.991  24.783  1.00  0.00     0.063 A 
ATOM     63  C   UNL A   1      33.948  18.624  24.629  1.00  0.00     0.016 A 
ATOM     64  C   UNL A   1      32.786  20.651  23.906  1.00  0.00     0.054 A 
ATOM     65  C   UNL A   1      33.306  17.886  23.638  1.00  0.00     0.001 A 
ATOM     66  C   UNL A   1      32.109  19.871  22.955  1.00  0.00     0.027 A 
ATOM     67  C   UNL A   1      32.373  18.506  22.813  1.00  0.00     0.002 A 
BRANCH  64  68
ATOM     68  N   UNL A   1      32.573  22.036  23.980  1.00  0.00    -0.323 N 
ATOM     69  H   UNL A   1      32.957  22.551  23.234  1.00  0.00     0.170 HD
BRANCH  68  70
ATOM     70  C   UNL A   1      31.908  22.801  24.930  1.00  0.00     0.233 A 
ATOM     71  N   UNL A   1      30.906  22.283  25.619  1.00  0.00    -0.182 NA
ATOM     72  N   UNL A   1      32.369  24.033  25.104  1.00  0.00    -0.176 NA
ATOM     73  C   UNL A   1      30.393  23.109  26.514  1.00  0.00     0.228 A 
ATOM     74  C   UNL A   1      31.722  24.796  25.979  1.00  0.00     0.233 A 
ATOM     75  Cl  UNL A   1      29.106  22.492  27.453  1.00  0.00    -0.041 Cl
ATOM     76  N   UNL A   1      30.734  24.363  26.744  1.00  0.00    -0.182 NA
BRANCH  74  77
ATOM     77  N   UNL A   1      32.063  26.145  25.953  1.00  0.00    -0.324 N 
ATOM     78  H   UNL A   1      32.801  26.412  26.549  1.00  0.00     0.170 HD
BRANCH  77  79
ATOM     79  C   UNL A   1      31.497  27.171  25.194  1.00  0.00     0.041 A 
ATOM     80  C   UNL A   1      30.450  26.877  24.314  1.00  0.00     0.028 A 
ATOM     81  C   UNL A   1      31.868  28.506  25.367  1.00  0.00     0.028 A 
ATOM     82  C   UNL A   1      29.778  27.896  23.633  1.00  0.00     0.028 A 
ATOM     83  C   UNL A   1      31.239  29.521  24.642  1.00  0.00     0.028 A 
ATOM     84  C   UNL A   1      30.174  29.229  23.783  1.00  0.00     0.044 A 
BRANCH  84  85
ATOM     85  N   UNL A   1      29.471  30.274  23.116  1.00  0.00    -0.308 N 
ATOM     86  C   UNL A   1      28.687  29.894  21.933  1.00  0.00     0.154 C 
ATOM     87  C   UNL A   1      29.267  31.513  23.736  1.00  0.00     0.253 C 
ATOM     88  C   UNL A   1      28.192  31.087  21.127  1.00  0.00     0.183 C 
ATOM     89  C   UNL A   1      28.385  32.505  22.961  1.00  0.00     0.260 C 
ATOM     90  O   UNL A   1      29.821  31.874  24.776  1.00  0.00    -0.272 OA
ATOM     91  O   UNL A   1      27.494  31.983  21.988  1.00  0.00    -0.370 OA
ENDBRANCH  84  85
ENDBRANCH  77  79
ENDBRANCH  74  77
ENDBRANCH  68  70
ENDBRANCH  64  68
ENDBRANCH   2  62
TORSDOF 15
ENDMDL
MODEL 2
REMARK VINA RESULT:     -13.4      0.683      5.600
REMARK SMILES O=C(NCCCNC(=O)c1ccccc1Nc1nc(Cl)nc(Nc2ccc(N3CCOCC3=O)cc2)n1)c1ccc(-c2c3nc(c(-c4ccccc4)c4ccc([nH]4)c(-c4ccccc4)c4nc(c(-c5ccccc5)c5ccc2[nH]5)C=C4)C=C3)cc1
REMARK SMILES IDX 7 1 8 2 9 3 6 5 5 6 4 7 3 8 1 9 2 10 38 12 39 13 85 14 40 15
REMARK SMILES IDX 84 16 41 17 42 18 43 19 78 20 44 21 83 22 77 23 79 24 45 25
REMARK SMILES IDX 82 26 76 27 75 28 46 30 68 31 53 32 67 33 54 34 57 35 66 36
REMARK SMILES IDX 80 37 55 38 56 39 65 41 81 42 58 43 47 44 48 45 52 46 49 47
REMARK SMILES IDX 51 48 50 49 69 50 70 51 74 52 71 53 73 54 72 55 59 56 60 57
REMARK SMILES IDX 64 58 61 59 63 60 62 61 10 62 11 63 15 64 12 65 14 66 13 67
REMARK SMILES IDX 16 68 17 70 18 71 37 72 19 73 22 74 20 75 21 76 23 77 24 79
REMARK SMILES IDX 25 80 36 81 26 82 35 83 27 84 28 85 29 86 33 87 30 88 32 89
REMARK SMILES IDX 34 90 31 91
REMARK H PARENT 7 4 3 11 79 29 57 40 16 69 23 78
REMARK Flexibility Score: inf
ROOT
ATOM      1  N   UNL A   1      35.936  21.200  25.697  1.00  0.00    -0.352 N 
ATOM      2  C   UNL A   1      34.618  20.868  25.884  1.00  0.00     0.253 C 
ATOM      3  O   UNL A   1      34.054  21.200  26.923  1.00  0.00    -0.269 OA
ATOM      4  H   UNL A   1      36.372  21.628  26.470  1.00  0.00     0.163 HD
ENDROOT
BRANCH   1   5
ATOM      5  C   UNL A   1      36.788  21.016  24.531  1.00  0.00     0.118 C 
BRANCH   5   6
ATOM      6  C   UNL A   1      37.840  19.936  24.730  1.00  0.00     0.042 C 
BRANCH   6   7
ATOM      7  C   UNL A   1      38.803  20.197  25.879  1.00  0.00     0.118 C 
BRANCH   7   8
ATOM      8  N   UNL A   1      39.946  19.293  25.895  1.00  0.00    -0.352 N 
ATOM      9  O   UNL A   1      42.104  18.651  25.962  1.00  0.00    -0.269 OA
ATOM     10  C   UNL A   1      41.275  19.540  26.141  1.00  0.00     0.251 C 
ATOM     11  H   UNL A   1      39.731  18.353  25.696  1.00  0.00     0.163 HD
BRANCH  10  12
ATOM     12  C   UNL A   1      41.720  20.876  26.594  1.00  0.00     0.039 A 
ATOM     13  C   UNL A   1      41.753  21.199  27.950  1.00  0.00     0.014 A 
ATOM     14  C   UNL A   1      42.128  21.818  25.644  1.00  0.00     0.014 A 
ATOM     15  C   UNL A   1      42.011  22.505  28.345  1.00  0.00     0.010 A 
ATOM     16  C   UNL A   1      42.498  23.103  26.052  1.00  0.00     0.010 A 
ATOM     17  C   UNL A   1      42.406  23.468  27.403  1.00  0.00    -0.014 A 
BRANCH  17  18
ATOM     18  C   UNL A   1      42.784  24.825  27.873  1.00  0.00     0.031 A 
ATOM     19  C   UNL A   1      41.743  25.861  28.194  1.00  0.00     0.074 A 
ATOM     20  C   UNL A   1      44.091  25.109  28.034  1.00  0.00     0.049 A 
ATOM     21  N   UNL A   1      41.912  27.085  28.631  1.00  0.00    -0.248 NA
ATOM     22  C   UNL A   1      40.336  25.484  27.992  1.00  0.00     0.031 C 
ATOM     23  C   UNL A   1      45.195  24.189  27.743  1.00  0.00     0.029 A 
ATOM     24  N   UNL A   1      44.714  26.239  28.495  1.00  0.00    -0.354 N 
ATOM     25  C   UNL A   1      40.638  27.631  28.730  1.00  0.00     0.074 A 
ATOM     26  C   UNL A   1      39.709  26.614  28.290  1.00  0.00     0.031 C 
ATOM     27  C   UNL A   1      46.353  24.772  28.077  1.00  0.00     0.029 A 
ATOM     28  C   UNL A   1      46.083  26.128  28.538  1.00  0.00     0.049 A 
ATOM     29  H   UNL A   1      44.229  27.050  28.769  1.00  0.00     0.167 HD
ATOM     30  C   UNL A   1      40.280  28.870  29.150  1.00  0.00     0.031 A 
ATOM     31  C   UNL A   1      47.024  27.023  28.885  1.00  0.00     0.031 A 
ATOM     32  C   UNL A   1      41.208  29.878  29.590  1.00  0.00     0.049 A 
ATOM     33  C   UNL A   1      46.600  28.391  29.326  1.00  0.00     0.074 A 
ATOM     34  C   UNL A   1      40.939  31.146  30.075  1.00  0.00     0.029 A 
ATOM     35  N   UNL A   1      42.588  29.736  29.590  1.00  0.00    -0.354 N 
ATOM     36  N   UNL A   1      45.390  28.876  29.452  1.00  0.00    -0.248 NA
ATOM     37  C   UNL A   1      47.672  29.333  29.671  1.00  0.00     0.031 C 
ATOM     38  C   UNL A   1      42.156  31.791  30.318  1.00  0.00     0.029 A 
ATOM     39  C   UNL A   1      43.183  30.905  30.036  1.00  0.00     0.049 A 
ATOM     40  H   UNL A   1      43.072  28.925  29.313  1.00  0.00     0.167 HD
ATOM     41  C   UNL A   1      45.552  30.180  29.899  1.00  0.00     0.074 A 
ATOM     42  C   UNL A   1      46.978  30.399  30.044  1.00  0.00     0.031 C 
ATOM     43  C   UNL A   1      44.603  31.111  30.161  1.00  0.00     0.031 A 
BRANCH  30  44
ATOM     44  C   UNL A   1      38.816  29.215  29.119  1.00  0.00    -0.014 A 
ATOM     45  C   UNL A   1      37.992  29.027  30.240  1.00  0.00     0.009 A 
ATOM     46  C   UNL A   1      38.259  29.773  27.957  1.00  0.00     0.009 A 
ATOM     47  C   UNL A   1      36.635  29.358  30.186  1.00  0.00     0.001 A 
ATOM     48  C   UNL A   1      36.909  30.127  27.913  1.00  0.00     0.001 A 
ATOM     49  C   UNL A   1      36.097  29.909  29.024  1.00  0.00     0.000 A 
ENDBRANCH  30  44
BRANCH  31  50
ATOM     50  C   UNL A   1      48.457  26.646  28.794  1.00  0.00    -0.014 A 
ATOM     51  C   UNL A   1      49.080  25.939  29.831  1.00  0.00     0.009 A 
ATOM     52  C   UNL A   1      49.197  26.957  27.641  1.00  0.00     0.009 A 
ATOM     53  C   UNL A   1      50.421  25.561  29.719  1.00  0.00     0.001 A 
ATOM     54  C   UNL A   1      50.526  26.552  27.520  1.00  0.00     0.001 A 
ATOM     55  C   UNL A   1      51.139  25.861  28.562  1.00  0.00     0.000 A 
ENDBRANCH  31  50
BRANCH  43  56
ATOM     56  C   UNL A   1      45.083  32.449  30.646  1.00  0.00    -0.014 A 
ATOM     57  C   UNL A   1      45.354  33.492  29.747  1.00  0.00     0.009 A 
ATOM     58  C   UNL A   1      45.240  32.675  32.022  1.00  0.00     0.009 A 
ATOM     59  C   UNL A   1      45.803  34.727  30.217  1.00  0.00     0.001 A 
ATOM     60  C   UNL A   1      45.663  33.919  32.490  1.00  0.00     0.001 A 
ATOM     61  C   UNL A   1      45.952  34.941  31.587  1.00  0.00     0.000 A 
ENDBRANCH  43  56
ENDBRANCH  17  18
ENDBRANCH  10  12
ENDBRANCH   7   8
ENDBRANCH   6   7
ENDBRANCH   5   6
ENDBRANCH   1   5
BRANCH   2  62
ATOM     62  C   UNL A   1      33.861  20.136  24.846  1.00  0.00     0.063 A 
ATOM     63  C   UNL A   1      34.165  18.773  24.698  1.00  0.00     0.016 A 
ATOM     64  C   UNL A   1      32.913  20.758  24.011  1.00  0.00     0.054 A 
ATOM     65  C   UNL A   1      33.486  18.002  23.759  1.00  0.00     0.001 A 
ATOM     66  C   UNL A   1      32.201  19.944  23.115  1.00  0.00     0.027 A 
ATOM     67  C   UNL A   1      32.491  18.584  22.981  1.00  0.00     0.002 A 
BRANCH  64  68
ATOM     68  N   UNL A   1      32.668  22.138  24.075  1.00  0.00    -0.323 N 
ATOM     69  H   UNL A   1      33.034  22.655  23.321  1.00  0.00     0.170 HD
BRANCH  68  70
ATOM     70  C   UNL A   1      31.996  22.897  25.024  1.00  0.00     0.233 A 
ATOM     71  N   UNL A   1      30.992  22.371  25.706  1.00  0.00    -0.182 NA
ATOM     72  N   UNL A   1      32.450  24.130  25.204  1.00  0.00    -0.176 NA
ATOM     73  C   UNL A   1      30.471  23.192  26.601  1.00  0.00     0.228 A 
ATOM     74  C   UNL A   1      31.795  24.888  26.078  1.00  0.00     0.233 A 
ATOM     75  Cl  UNL A   1      29.181  22.566  27.531  1.00  0.00    -0.041 Cl
ATOM     76  N   UNL A   1      30.805  24.447  26.837  1.00  0.00    -0.182 NA
BRANCH  74  77
ATOM     77  N   UNL A   1      32.130  26.238  26.058  1.00  0.00    -0.324 N 
ATOM     78  H   UNL A   1      32.875  26.503  26.645  1.00  0.00     0.170 HD
BRANCH  77  79
ATOM     79  C   UNL A   1      31.548  27.268  25.317  1.00  0.00     0.041 A 
ATOM     80  C   UNL A   1      30.555  26.963  24.380  1.00  0.00     0.028 A 
ATOM     81  C   UNL A   1      31.846  28.610  25.560  1.00  0.00     0.028 A 
ATOM     82  C   UNL A   1      29.865  27.978  23.711  1.00  0.00     0.028 A 
ATOM     83  C   UNL A   1      31.200  29.624  24.849  1.00  0.00     0.028 A 
ATOM     84  C   UNL A   1      30.188  29.320  23.932  1.00  0.00     0.044 A 
BRANCH  84  85
ATOM     85  N   UNL A   1      29.465  30.359  23.277  1.00  0.00    -0.308 N 
ATOM     86  C   UNL A   1      29.005  31.474  24.114  1.00  0.00     0.154 C 
ATOM     87  C   UNL A   1      29.482  30.476  21.882  1.00  0.00     0.253 C 
ATOM     88  C   UNL A   1      28.021  32.396  23.406  1.00  0.00     0.183 C 
ATOM     89  C   UNL A   1      28.768  31.713  21.312  1.00  0.00     0.260 C 
ATOM     90  O   UNL A   1      29.928  29.623  21.112  1.00  0.00    -0.272 OA
ATOM     91  O   UNL A   1      28.583  32.828  22.170  1.00  0.00    -0.370 OA
ENDBRANCH  84  85
ENDBRANCH  77  79
ENDBRANCH  74  77
ENDBRANCH  68  70
ENDBRANCH  64  68
ENDBRANCH   2  62
TORSDOF 15
ENDMDL
MODEL 3
REMARK VINA RESULT:     -13.3      1.957      6.063
REMARK SMILES O=C(NCCCNC(=O)c1ccccc1Nc1nc(Cl)nc(Nc2ccc(N3CCOCC3=O)cc2)n1)c1ccc(-c2c3nc(c(-c4ccccc4)c4ccc([nH]4)c(-c4ccccc4)c4nc(c(-c5ccccc5)c5ccc2[nH]5)C=C4)C=C3)cc1
REMARK SMILES IDX 7 1 8 2 9 3 6 5 5 6 4 7 3 8 1 9 2 10 38 12 39 13 85 14 40 15
REMARK SMILES IDX 84 16 41 17 42 18 43 19 78 20 44 21 83 22 77 23 79 24 45 25
REMARK SMILES IDX 82 26 76 27 75 28 46 30 68 31 53 32 67 33 54 34 57 35 66 36
REMARK SMILES IDX 80 37 55 38 56 39 65 41 81 42 58 43 47 44 48 45 52 46 49 47
REMARK SMILES IDX 51 48 50 49 69 50 70 51 74 52 71 53 73 54 72 55 59 56 60 57
REMARK SMILES IDX 64 58 61 59 63 60 62 61 10 62 11 63 15 64 12 65 14 66 13 67
REMARK SMILES IDX 16 68 17 70 18 71 37 72 19 73 22 74 20 75 21 76 23 77 24 79
REMARK SMILES IDX 25 80 36 81 26 82 35 83 27 84 28 85 29 86 33 87 30 88 32 89
REMARK SMILES IDX 34 90 31 91
REMARK H PARENT 7 4 3 11 79 29 57 40 16 69 23 78
REMARK Flexibility Score: inf
ROOT
ATOM      1  N   UNL A   1      36.156  21.101  25.781  1.00  0.00    -0.352 N 
ATOM      2  C   UNL A   1      34.801  20.987  25.963  1.00  0.00     0.253 C 
ATOM      3  O   UNL A   1      34.288  21.449  26.978  1.00  0.00    -0.269 OA
ATOM      4  H   UNL A   1      36.647  21.492  26.539  1.00  0.00     0.163 HD
ENDROOT
BRANCH   1   5
ATOM      5  C   UNL A   1      36.977  20.734  24.636  1.00  0.00     0.118 C 
BRANCH   5   6
ATOM      6  C   UNL A   1      37.974  19.629  24.953  1.00  0.00     0.042 C 
BRANCH   6   7
ATOM      7  C   UNL A   1      39.095  20.041  25.893  1.00  0.00     0.118 C 
BRANCH   7   8
ATOM      8  N   UNL A   1      40.202  19.093  25.928  1.00  0.00    -0.352 N 
ATOM      9  O   UNL A   1      42.334  18.366  25.946  1.00  0.00    -0.269 OA
ATOM     10  C   UNL A   1      41.550  19.301  26.092  1.00  0.00     0.251 C 
ATOM     11  H   UNL A   1      39.941  18.151  25.814  1.00  0.00     0.163 HD
BRANCH  10  12
ATOM     12  C   UNL A   1      42.069  20.648  26.416  1.00  0.00     0.039 A 
ATOM     13  C   UNL A   1      42.273  21.038  27.740  1.00  0.00     0.014 A 
ATOM     14  C   UNL A   1      42.373  21.531  25.376  1.00  0.00     0.014 A 
ATOM     15  C   UNL A   1      42.598  22.356  28.031  1.00  0.00     0.010 A 
ATOM     16  C   UNL A   1      42.810  22.827  25.668  1.00  0.00     0.010 A 
ATOM     17  C   UNL A   1      42.890  23.262  26.999  1.00  0.00    -0.014 A 
BRANCH  17  18
ATOM     18  C   UNL A   1      43.345  24.632  27.348  1.00  0.00     0.031 A 
ATOM     19  C   UNL A   1      42.384  25.671  27.853  1.00  0.00     0.074 A 
ATOM     20  C   UNL A   1      44.654  24.925  27.227  1.00  0.00     0.049 A 
ATOM     21  N   UNL A   1      42.628  26.906  28.216  1.00  0.00    -0.248 NA
ATOM     22  C   UNL A   1      40.969  25.282  27.957  1.00  0.00     0.031 C 
ATOM     23  C   UNL A   1      45.682  24.002  26.735  1.00  0.00     0.029 A 
ATOM     24  N   UNL A   1      45.349  26.069  27.522  1.00  0.00    -0.354 N 
ATOM     25  C   UNL A   1      41.397  27.449  28.565  1.00  0.00     0.074 A 
ATOM     26  C   UNL A   1      40.406  26.417  28.352  1.00  0.00     0.031 C 
ATOM     27  C   UNL A   1      46.879  24.598  26.808  1.00  0.00     0.029 A 
ATOM     28  C   UNL A   1      46.697  25.965  27.282  1.00  0.00     0.049 A 
ATOM     29  H   UNL A   1      44.923  26.885  27.871  1.00  0.00     0.167 HD
ATOM     30  C   UNL A   1      41.122  28.696  29.021  1.00  0.00     0.031 A 
ATOM     31  C   UNL A   1      47.681  26.873  27.404  1.00  0.00     0.031 A 
ATOM     32  C   UNL A   1      42.112  29.720  29.234  1.00  0.00     0.049 A 
ATOM     33  C   UNL A   1      47.346  28.249  27.891  1.00  0.00     0.074 A 
ATOM     34  C   UNL A   1      41.937  30.998  29.734  1.00  0.00     0.029 A 
ATOM     35  N   UNL A   1      43.463  29.584  28.951  1.00  0.00    -0.354 N 
ATOM     36  N   UNL A   1      46.183  28.732  28.254  1.00  0.00    -0.248 NA
ATOM     37  C   UNL A   1      48.457  29.205  27.983  1.00  0.00     0.031 C 
ATOM     38  C   UNL A   1      43.173  31.654  29.703  1.00  0.00     0.029 A 
ATOM     39  C   UNL A   1      44.127  30.766  29.235  1.00  0.00     0.049 A 
ATOM     40  H   UNL A   1      43.887  28.768  28.599  1.00  0.00     0.167 HD
ATOM     41  C   UNL A   1      46.422  30.047  28.626  1.00  0.00     0.074 A 
ATOM     42  C   UNL A   1      47.845  30.276  28.467  1.00  0.00     0.031 C 
ATOM     43  C   UNL A   1      45.540  30.981  29.057  1.00  0.00     0.031 A 
BRANCH  30  44
ATOM     44  C   UNL A   1      39.680  29.035  29.286  1.00  0.00    -0.014 A 
ATOM     45  C   UNL A   1      38.865  29.603  28.294  1.00  0.00     0.009 A 
ATOM     46  C   UNL A   1      39.120  28.746  30.540  1.00  0.00     0.009 A 
ATOM     47  C   UNL A   1      37.528  29.906  28.566  1.00  0.00     0.001 A 
ATOM     48  C   UNL A   1      37.777  29.027  30.801  1.00  0.00     0.001 A 
ATOM     49  C   UNL A   1      36.985  29.616  29.817  1.00  0.00     0.000 A 
ENDBRANCH  30  44
BRANCH  31  50
ATOM     50  C   UNL A   1      49.068  26.499  27.027  1.00  0.00    -0.014 A 
ATOM     51  C   UNL A   1      49.948  25.955  27.972  1.00  0.00     0.009 A 
ATOM     52  C   UNL A   1      49.502  26.647  25.699  1.00  0.00     0.009 A 
ATOM     53  C   UNL A   1      51.240  25.578  27.597  1.00  0.00     0.001 A 
ATOM     54  C   UNL A   1      50.782  26.241  25.321  1.00  0.00     0.001 A 
ATOM     55  C   UNL A   1      51.652  25.714  26.272  1.00  0.00     0.000 A 
ENDBRANCH  31  50
BRANCH  43  56
ATOM     56  C   UNL A   1      46.098  32.333  29.400  1.00  0.00    -0.014 A 
ATOM     57  C   UNL A   1      46.155  33.358  28.443  1.00  0.00     0.009 A 
ATOM     58  C   UNL A   1      46.546  32.590  30.705  1.00  0.00     0.009 A 
ATOM     59  C   UNL A   1      46.680  34.607  28.780  1.00  0.00     0.001 A 
ATOM     60  C   UNL A   1      47.045  33.848  31.045  1.00  0.00     0.001 A 
ATOM     61  C   UNL A   1      47.120  34.851  30.081  1.00  0.00     0.000 A 
ENDBRANCH  43  56
ENDBRANCH  17  18
ENDBRANCH  10  12
ENDBRANCH   7   8
ENDBRANCH   6   7
ENDBRANCH   5   6
ENDBRANCH   1   5
BRANCH   2  62
ATOM     62  C   UNL A   1      33.947  20.333  24.948  1.00  0.00     0.063 A 
ATOM     63  C   UNL A   1      34.185  18.969  24.718  1.00  0.00     0.016 A 
ATOM     64  C   UNL A   1      32.970  21.028  24.210  1.00  0.00     0.054 A 
ATOM     65  C   UNL A   1      33.413  18.269  23.795  1.00  0.00     0.001 A 
ATOM     66  C   UNL A   1      32.167  20.286  23.330  1.00  0.00     0.027 A 
ATOM     67  C   UNL A   1      32.392  18.923  23.115  1.00  0.00     0.002 A 
BRANCH  64  68
ATOM     68  N   UNL A   1      32.786  22.412  24.352  1.00  0.00    -0.323 N 
ATOM     69  H   UNL A   1      33.437  22.965  23.863  1.00  0.00     0.170 HD
BRANCH  68  70
ATOM     70  C   UNL A   1      31.837  23.132  25.069  1.00  0.00     0.233 A 
ATOM     71  N   UNL A   1      31.010  22.508  25.889  1.00  0.00    -0.182 NA
ATOM     72  N   UNL A   1      31.856  24.447  24.890  1.00  0.00    -0.176 NA
ATOM     73  C   UNL A   1      30.189  23.319  26.533  1.00  0.00     0.228 A 
ATOM     74  C   UNL A   1      30.930  25.151  25.535  1.00  0.00     0.233 A 
ATOM     75  Cl  UNL A   1      29.105  22.577  27.626  1.00  0.00    -0.041 Cl
ATOM     76  N   UNL A   1      30.082  24.629  26.405  1.00  0.00    -0.182 NA
BRANCH  74  77
ATOM     77  N   UNL A   1      30.813  26.479  25.135  1.00  0.00    -0.324 N 
ATOM     78  H   UNL A   1      30.218  26.643  24.367  1.00  0.00     0.170 HD
BRANCH  77  79
ATOM     79  C   UNL A   1      31.428  27.608  25.677  1.00  0.00     0.041 A 
ATOM     80  C   UNL A   1      31.754  28.681  24.840  1.00  0.00     0.028 A 
ATOM     81  C   UNL A   1      31.630  27.748  27.051  1.00  0.00     0.028 A 
ATOM     82  C   UNL A   1      32.256  29.874  25.368  1.00  0.00     0.028 A 
ATOM     83  C   UNL A   1      32.187  28.917  27.575  1.00  0.00     0.028 A 
ATOM     84  C   UNL A   1      32.488  30.000  26.741  1.00  0.00     0.044 A 
BRANCH  84  85
ATOM     85  N   UNL A   1      32.969  31.226  27.286  1.00  0.00    -0.308 N 
ATOM     86  C   UNL A   1      34.397  31.283  27.627  1.00  0.00     0.154 C 
ATOM     87  C   UNL A   1      32.213  32.400  27.192  1.00  0.00     0.253 C 
ATOM     88  C   UNL A   1      34.775  32.511  28.444  1.00  0.00     0.183 C 
ATOM     89  C   UNL A   1      32.902  33.675  27.704  1.00  0.00     0.260 C 
ATOM     90  O   UNL A   1      31.035  32.448  26.832  1.00  0.00    -0.272 OA
ATOM     91  O   UNL A   1      34.319  33.683  27.774  1.00  0.00    -0.370 OA
ENDBRANCH  84  85
ENDBRANCH  77  79
ENDBRANCH  74  77
ENDBRANCH  68  70
ENDBRANCH  64  68
ENDBRANCH   2  62
TORSDOF 15
ENDMDL
