MODEL 1
REMARK VINA RESULT:     -11.6      0.000      0.000
REMARK SMILES CC[NH2+][C@@]1(C(=O)NCCCNC(=O)c2ccc(-c3c4nc(c(-c5ccccc5)c5ccc([nH]5)c(-c5ccccc5)c5nc(c(-c6ccccc6)c6ccc3[nH]6)C=C5)C=C4)cc2)CC[C@H](Oc2ccc3c(c2)OCO3)C1
REMARK SMILES IDX 9 1 8 2 7 3 5 4 6 5 4 7 62 8 75 9 63 10 64 11 3 12 2 15 1 16
REMARK SMILES IDX 65 17 66 18 67 19 71 20 68 21 70 22 69 23 72 24 74 25 73 26
REMARK SMILES IDX 10 27 11 28 12 29 13 31 14 32 15 33 61 34 16 35 60 36 17 37
REMARK SMILES IDX 18 38 19 39 54 40 20 41 59 42 53 43 55 44 21 45 58 46 52 47
REMARK SMILES IDX 51 48 22 50 44 51 29 52 43 53 30 54 33 55 42 56 56 57 31 58
REMARK SMILES IDX 32 59 41 61 57 62 34 63 23 64 24 65 28 66 25 67 27 68 26 69
REMARK SMILES IDX 45 70 46 71 50 72 47 73 49 74 48 75 35 76 36 77 40 78 37 79
REMARK SMILES IDX 39 80 38 81
REMARK H PARENT 7 6 3 13 3 14 11 30 55 49 33 60
REMARK Flexibility Score: inf
ROOT
ATOM      1  C   UNL A   1      31.958  27.910  26.870  1.00  0.00     0.042 C 
ENDROOT
BRANCH   1   2
ATOM      2  C   UNL A   1      31.930  26.677  25.985  1.00  0.00     0.118 C 
BRANCH   2   3
ATOM      3  N   UNL A   1      31.461  25.488  26.664  1.00  0.00    -0.351 N 
ATOM      4  C   UNL A   1      31.903  24.202  26.687  1.00  0.00     0.281 C 
ATOM      5  O   UNL A   1      31.326  23.479  27.514  1.00  0.00    -0.268 OA
ATOM      6  H   UNL A   1      30.664  25.641  27.220  1.00  0.00     0.163 HD
BRANCH   4   7
ATOM      7  C   UNL A   1      33.049  23.597  25.766  1.00  0.00     0.179 C 
ATOM      8  C   UNL A   1      32.801  23.803  24.257  1.00  0.00     0.083 C 
ATOM      9  C   UNL A   1      33.186  22.081  25.949  1.00  0.00     0.124 C 
ATOM     10  C   UNL A   1      32.517  22.432  23.629  1.00  0.00     0.052 C 
ATOM     11  C   UNL A   1      33.104  21.399  24.579  1.00  0.00     0.180 C 
BRANCH   7  12
ATOM     12  N   UNL A   1      34.295  24.383  26.078  1.00  0.00    -0.334 N 
ATOM     13  H   UNL A   1      34.056  25.375  26.049  1.00  0.00     0.347 HD
ATOM     14  H   UNL A   1      34.606  24.061  26.994  1.00  0.00     0.347 HD
BRANCH  12  15
ATOM     15  C   UNL A   1      35.425  24.165  25.169  1.00  0.00     0.257 C 
ATOM     16  C   UNL A   1      36.611  23.548  25.901  1.00  0.00     0.071 C 
ENDBRANCH  12  15
ENDBRANCH   7  12
BRANCH  11  17
ATOM     17  O   UNL A   1      32.479  20.146  24.851  1.00  0.00    -0.490 OA
BRANCH  17  18
ATOM     18  C   UNL A   1      33.063  18.928  24.801  1.00  0.00     0.123 A 
ATOM     19  C   UNL A   1      34.405  18.677  24.496  1.00  0.00     0.050 A 
ATOM     20  C   UNL A   1      32.224  17.877  25.205  1.00  0.00     0.097 A 
ATOM     21  C   UNL A   1      34.909  17.369  24.552  1.00  0.00     0.054 A 
ATOM     22  C   UNL A   1      32.741  16.602  25.246  1.00  0.00     0.169 A 
ATOM     23  C   UNL A   1      34.054  16.356  24.932  1.00  0.00     0.166 A 
ATOM     24  O   UNL A   1      32.066  15.475  25.593  1.00  0.00    -0.453 OA
ATOM     25  O   UNL A   1      34.379  15.044  25.071  1.00  0.00    -0.454 OA
ATOM     26  C   UNL A   1      33.146  14.518  25.599  1.00  0.00     0.468 C 
ENDBRANCH  17  18
ENDBRANCH  11  17
ENDBRANCH   4   7
ENDBRANCH   2   3
ENDBRANCH   1   2
BRANCH   1  27
ATOM     27  C   UNL A   1      33.352  28.375  27.261  1.00  0.00     0.118 C 
BRANCH  27  28
ATOM     28  N   UNL A   1      33.403  29.809  27.530  1.00  0.00    -0.352 N 
ATOM     29  C   UNL A   1      34.356  30.632  28.086  1.00  0.00     0.251 C 
ATOM     30  H   UNL A   1      32.587  30.286  27.257  1.00  0.00     0.163 HD
ATOM     31  O   UNL A   1      34.030  31.789  28.342  1.00  0.00    -0.269 OA
BRANCH  29  32
ATOM     32  C   UNL A   1      35.743  30.192  28.402  1.00  0.00     0.039 A 
ATOM     33  C   UNL A   1      36.697  30.211  27.372  1.00  0.00     0.014 A 
ATOM     34  C   UNL A   1      36.122  29.685  29.643  1.00  0.00     0.014 A 
ATOM     35  C   UNL A   1      38.015  29.795  27.604  1.00  0.00     0.010 A 
ATOM     36  C   UNL A   1      37.455  29.367  29.908  1.00  0.00     0.010 A 
ATOM     37  C   UNL A   1      38.411  29.393  28.884  1.00  0.00    -0.014 A 
BRANCH  37  38
ATOM     38  C   UNL A   1      39.778  28.880  29.151  1.00  0.00     0.031 A 
ATOM     39  C   UNL A   1      40.780  29.776  29.825  1.00  0.00     0.074 A 
ATOM     40  C   UNL A   1      40.142  27.646  28.754  1.00  0.00     0.049 A 
ATOM     41  N   UNL A   1      42.028  29.535  30.139  1.00  0.00    -0.248 NA
ATOM     42  C   UNL A   1      40.327  31.135  30.169  1.00  0.00     0.031 C 
ATOM     43  C   UNL A   1      39.286  26.698  28.045  1.00  0.00     0.029 A 
ATOM     44  N   UNL A   1      41.337  26.981  28.884  1.00  0.00    -0.354 N 
ATOM     45  C   UNL A   1      42.506  30.710  30.706  1.00  0.00     0.074 A 
ATOM     46  C   UNL A   1      41.439  31.682  30.630  1.00  0.00     0.031 C 
ATOM     47  C   UNL A   1      39.970  25.563  27.827  1.00  0.00     0.029 A 
ATOM     48  C   UNL A   1      41.324  25.714  28.350  1.00  0.00     0.049 A 
ATOM     49  H   UNL A   1      42.126  27.374  29.320  1.00  0.00     0.167 HD
ATOM     50  C   UNL A   1      43.712  30.954  31.268  1.00  0.00     0.031 A 
ATOM     51  C   UNL A   1      42.297  24.785  28.289  1.00  0.00     0.031 A 
ATOM     52  C   UNL A   1      44.779  29.993  31.337  1.00  0.00     0.049 A 
ATOM     53  C   UNL A   1      43.642  25.091  28.895  1.00  0.00     0.074 A 
ATOM     54  C   UNL A   1      46.024  30.127  31.926  1.00  0.00     0.029 A 
ATOM     55  N   UNL A   1      44.727  28.720  30.791  1.00  0.00    -0.354 N 
ATOM     56  N   UNL A   1      44.048  26.175  29.509  1.00  0.00    -0.248 NA
ATOM     57  C   UNL A   1      44.658  24.030  28.811  1.00  0.00     0.031 C 
ATOM     58  C   UNL A   1      46.746  28.953  31.686  1.00  0.00     0.029 A 
ATOM     59  C   UNL A   1      45.927  28.066  31.005  1.00  0.00     0.049 A 
ATOM     60  H   UNL A   1      43.951  28.339  30.321  1.00  0.00     0.167 HD
ATOM     61  C   UNL A   1      45.353  25.915  29.916  1.00  0.00     0.074 A 
ATOM     62  C   UNL A   1      45.659  24.564  29.496  1.00  0.00     0.031 C 
ATOM     63  C   UNL A   1      46.218  26.722  30.578  1.00  0.00     0.031 A 
BRANCH  50  64
ATOM     64  C   UNL A   1      43.932  32.326  31.842  1.00  0.00    -0.014 A 
ATOM     65  C   UNL A   1      43.651  32.600  33.192  1.00  0.00     0.009 A 
ATOM     66  C   UNL A   1      44.422  33.358  31.029  1.00  0.00     0.009 A 
ATOM     67  C   UNL A   1      43.812  33.891  33.701  1.00  0.00     0.001 A 
ATOM     68  C   UNL A   1      44.614  34.639  31.549  1.00  0.00     0.001 A 
ATOM     69  C   UNL A   1      44.296  34.908  32.879  1.00  0.00     0.000 A 
ENDBRANCH  50  64
BRANCH  51  70
ATOM     70  C   UNL A   1      42.043  23.464  27.655  1.00  0.00    -0.014 A 
ATOM     71  C   UNL A   1      42.360  23.249  26.304  1.00  0.00     0.009 A 
ATOM     72  C   UNL A   1      41.448  22.421  28.383  1.00  0.00     0.009 A 
ATOM     73  C   UNL A   1      42.052  22.034  25.685  1.00  0.00     0.001 A 
ATOM     74  C   UNL A   1      41.169  21.197  27.770  1.00  0.00     0.001 A 
ATOM     75  C   UNL A   1      41.459  21.009  26.419  1.00  0.00     0.000 A 
ENDBRANCH  51  70
BRANCH  63  76
ATOM     76  C   UNL A   1      47.566  26.147  30.921  1.00  0.00    -0.014 A 
ATOM     77  C   UNL A   1      47.840  25.632  32.197  1.00  0.00     0.009 A 
ATOM     78  C   UNL A   1      48.568  26.097  29.939  1.00  0.00     0.009 A 
ATOM     79  C   UNL A   1      49.104  25.119  32.495  1.00  0.00     0.001 A 
ATOM     80  C   UNL A   1      49.819  25.551  30.229  1.00  0.00     0.001 A 
ATOM     81  C   UNL A   1      50.090  25.075  31.510  1.00  0.00     0.000 A 
ENDBRANCH  63  76
ENDBRANCH  37  38
ENDBRANCH  29  32
ENDBRANCH  27  28
ENDBRANCH   1  27
TORSDOF 14
ENDMDL
MODEL 2
REMARK VINA RESULT:     -11.5      3.016      5.984
REMARK SMILES CC[NH2+][C@@]1(C(=O)NCCCNC(=O)c2ccc(-c3c4nc(c(-c5ccccc5)c5ccc([nH]5)c(-c5ccccc5)c5nc(c(-c6ccccc6)c6ccc3[nH]6)C=C5)C=C4)cc2)CC[C@H](Oc2ccc3c(c2)OCO3)C1
REMARK SMILES IDX 9 1 8 2 7 3 5 4 6 5 4 7 62 8 75 9 63 10 64 11 3 12 2 15 1 16
REMARK SMILES IDX 65 17 66 18 67 19 71 20 68 21 70 22 69 23 72 24 74 25 73 26
REMARK SMILES IDX 10 27 11 28 12 29 13 31 14 32 15 33 61 34 16 35 60 36 17 37
REMARK SMILES IDX 18 38 19 39 54 40 20 41 59 42 53 43 55 44 21 45 58 46 52 47
REMARK SMILES IDX 51 48 22 50 44 51 29 52 43 53 30 54 33 55 42 56 56 57 31 58
REMARK SMILES IDX 32 59 41 61 57 62 34 63 23 64 24 65 28 66 25 67 27 68 26 69
REMARK SMILES IDX 45 70 46 71 50 72 47 73 49 74 48 75 35 76 36 77 40 78 37 79
REMARK SMILES IDX 39 80 38 81
REMARK H PARENT 7 6 3 13 3 14 11 30 55 49 33 60
REMARK Flexibility Score: inf
ROOT
ATOM      1  C   UNL A   1      31.776  28.147  27.639  1.00  0.00     0.042 C 
ENDROOT
BRANCH   1   2
ATOM      2  C   UNL A   1      31.270  27.133  26.630  1.00  0.00     0.118 C 
BRANCH   2   3
ATOM      3  N   UNL A   1      32.193  26.045  26.389  1.00  0.00    -0.351 N 
ATOM      4  C   UNL A   1      32.971  25.712  25.326  1.00  0.00     0.281 C 
ATOM      5  O   UNL A   1      33.758  24.776  25.542  1.00  0.00    -0.268 OA
ATOM      6  H   UNL A   1      32.273  25.422  27.147  1.00  0.00     0.163 HD
BRANCH   4   7
ATOM      7  C   UNL A   1      32.937  26.405  23.895  1.00  0.00     0.179 C 
ATOM      8  C   UNL A   1      33.716  27.737  23.836  1.00  0.00     0.083 C 
ATOM      9  C   UNL A   1      31.509  26.754  23.465  1.00  0.00     0.124 C 
ATOM     10  C   UNL A   1      32.702  28.874  23.654  1.00  0.00     0.052 C 
ATOM     11  C   UNL A   1      31.446  28.236  23.079  1.00  0.00     0.180 C 
BRANCH   7  12
ATOM     12  N   UNL A   1      33.666  25.475  22.962  1.00  0.00    -0.334 N 
ATOM     13  H   UNL A   1      34.406  26.006  22.503  1.00  0.00     0.347 HD
ATOM     14  H   UNL A   1      34.009  24.710  23.543  1.00  0.00     0.347 HD
BRANCH  12  15
ATOM     15  C   UNL A   1      32.845  24.852  21.919  1.00  0.00     0.257 C 
ATOM     16  C   UNL A   1      33.235  23.395  21.705  1.00  0.00     0.071 C 
ENDBRANCH  12  15
ENDBRANCH   7  12
BRANCH  11  17
ATOM     17  O   UNL A   1      30.128  28.637  23.450  1.00  0.00    -0.490 OA
BRANCH  17  18
ATOM     18  C   UNL A   1      29.541  29.823  23.174  1.00  0.00     0.123 A 
ATOM     19  C   UNL A   1      29.488  30.928  24.031  1.00  0.00     0.050 A 
ATOM     20  C   UNL A   1      29.057  29.927  21.861  1.00  0.00     0.097 A 
ATOM     21  C   UNL A   1      28.913  32.131  23.596  1.00  0.00     0.054 A 
ATOM     22  C   UNL A   1      28.493  31.116  21.460  1.00  0.00     0.169 A 
ATOM     23  C   UNL A   1      28.429  32.194  22.306  1.00  0.00     0.166 A 
ATOM     24  O   UNL A   1      27.962  31.379  20.237  1.00  0.00    -0.453 OA
ATOM     25  O   UNL A   1      27.873  33.283  21.712  1.00  0.00    -0.454 OA
ATOM     26  C   UNL A   1      27.689  32.789  20.371  1.00  0.00     0.468 C 
ENDBRANCH  17  18
ENDBRANCH  11  17
ENDBRANCH   4   7
ENDBRANCH   2   3
ENDBRANCH   1   2
BRANCH   1  27
ATOM     27  C   UNL A   1      33.215  28.591  27.420  1.00  0.00     0.118 C 
BRANCH  27  28
ATOM     28  N   UNL A   1      33.359  30.043  27.460  1.00  0.00    -0.352 N 
ATOM     29  C   UNL A   1      34.360  30.880  27.898  1.00  0.00     0.251 C 
ATOM     30  H   UNL A   1      32.580  30.522  27.100  1.00  0.00     0.163 HD
ATOM     31  O   UNL A   1      34.110  32.082  27.962  1.00  0.00    -0.269 OA
BRANCH  29  32
ATOM     32  C   UNL A   1      35.712  30.407  28.306  1.00  0.00     0.039 A 
ATOM     33  C   UNL A   1      36.756  30.493  27.370  1.00  0.00     0.014 A 
ATOM     34  C   UNL A   1      35.975  29.809  29.536  1.00  0.00     0.014 A 
ATOM     35  C   UNL A   1      38.047  30.050  27.690  1.00  0.00     0.010 A 
ATOM     36  C   UNL A   1      37.278  29.462  29.896  1.00  0.00     0.010 A 
ATOM     37  C   UNL A   1      38.323  29.553  28.968  1.00  0.00    -0.014 A 
BRANCH  37  38
ATOM     38  C   UNL A   1      39.660  29.012  29.320  1.00  0.00     0.031 A 
ATOM     39  C   UNL A   1      40.608  29.859  30.124  1.00  0.00     0.074 A 
ATOM     40  C   UNL A   1      40.047  27.796  28.890  1.00  0.00     0.049 A 
ATOM     41  N   UNL A   1      41.823  29.587  30.527  1.00  0.00    -0.248 NA
ATOM     42  C   UNL A   1      40.137  31.202  30.501  1.00  0.00     0.031 C 
ATOM     43  C   UNL A   1      39.247  26.897  28.061  1.00  0.00     0.029 A 
ATOM     44  N   UNL A   1      41.222  27.112  29.083  1.00  0.00    -0.354 N 
ATOM     45  C   UNL A   1      42.260  30.724  31.195  1.00  0.00     0.074 A 
ATOM     46  C   UNL A   1      41.210  31.712  31.082  1.00  0.00     0.031 C 
ATOM     47  C   UNL A   1      39.939  25.767  27.840  1.00  0.00     0.029 A 
ATOM     48  C   UNL A   1      41.245  25.875  28.482  1.00  0.00     0.049 A 
ATOM     49  H   UNL A   1      41.975  27.471  29.603  1.00  0.00     0.167 HD
ATOM     50  C   UNL A   1      43.417  30.925  31.867  1.00  0.00     0.031 A 
ATOM     51  C   UNL A   1      42.213  24.940  28.452  1.00  0.00     0.031 A 
ATOM     52  C   UNL A   1      44.467  29.948  31.974  1.00  0.00     0.049 A 
ATOM     53  C   UNL A   1      43.505  25.197  29.184  1.00  0.00     0.074 A 
ATOM     54  C   UNL A   1      45.659  30.036  32.670  1.00  0.00     0.029 A 
ATOM     55  N   UNL A   1      44.452  28.707  31.357  1.00  0.00    -0.354 N 
ATOM     56  N   UNL A   1      43.866  26.242  29.887  1.00  0.00    -0.248 NA
ATOM     57  C   UNL A   1      44.516  24.130  29.128  1.00  0.00     0.031 C 
ATOM     58  C   UNL A   1      46.390  28.869  32.428  1.00  0.00     0.029 A 
ATOM     59  C   UNL A   1      45.626  28.029  31.634  1.00  0.00     0.049 A 
ATOM     60  H   UNL A   1      43.716  28.361  30.803  1.00  0.00     0.167 HD
ATOM     61  C   UNL A   1      45.129  25.946  30.386  1.00  0.00     0.074 A 
ATOM     62  C   UNL A   1      45.461  24.615  29.921  1.00  0.00     0.031 C 
ATOM     63  C   UNL A   1      45.942  26.706  31.161  1.00  0.00     0.031 A 
BRANCH  50  64
ATOM     64  C   UNL A   1      43.597  32.261  32.532  1.00  0.00    -0.014 A 
ATOM     65  C   UNL A   1      43.157  32.482  33.848  1.00  0.00     0.009 A 
ATOM     66  C   UNL A   1      44.211  33.313  31.836  1.00  0.00     0.009 A 
ATOM     67  C   UNL A   1      43.285  33.742  34.436  1.00  0.00     0.001 A 
ATOM     68  C   UNL A   1      44.367  34.563  32.439  1.00  0.00     0.001 A 
ATOM     69  C   UNL A   1      43.893  34.780  33.731  1.00  0.00     0.000 A 
ENDBRANCH  50  64
BRANCH  51  70
ATOM     70  C   UNL A   1      42.004  23.657  27.728  1.00  0.00    -0.014 A 
ATOM     71  C   UNL A   1      41.405  22.564  28.374  1.00  0.00     0.009 A 
ATOM     72  C   UNL A   1      42.435  23.504  26.401  1.00  0.00     0.009 A 
ATOM     73  C   UNL A   1      41.277  21.334  27.721  1.00  0.00     0.001 A 
ATOM     74  C   UNL A   1      42.277  22.282  25.740  1.00  0.00     0.001 A 
ATOM     75  C   UNL A   1      41.711  21.196  26.405  1.00  0.00     0.000 A 
ENDBRANCH  51  70
BRANCH  63  76
ATOM     76  C   UNL A   1      47.252  26.099  31.584  1.00  0.00    -0.014 A 
ATOM     77  C   UNL A   1      47.399  25.463  32.827  1.00  0.00     0.009 A 
ATOM     78  C   UNL A   1      48.349  26.141  30.710  1.00  0.00     0.009 A 
ATOM     79  C   UNL A   1      48.630  24.921  33.202  1.00  0.00     0.001 A 
ATOM     80  C   UNL A   1      49.568  25.567  31.072  1.00  0.00     0.001 A 
ATOM     81  C   UNL A   1      49.711  24.970  32.323  1.00  0.00     0.000 A 
ENDBRANCH  63  76
ENDBRANCH  37  38
ENDBRANCH  29  32
ENDBRANCH  27  28
ENDBRANCH   1  27
TORSDOF 14
ENDMDL
MODEL 3
REMARK VINA RESULT:     -11.5      0.349      5.964
REMARK SMILES CC[NH2+][C@@]1(C(=O)NCCCNC(=O)c2ccc(-c3c4nc(c(-c5ccccc5)c5ccc([nH]5)c(-c5ccccc5)c5nc(c(-c6ccccc6)c6ccc3[nH]6)C=C5)C=C4)cc2)CC[C@H](Oc2ccc3c(c2)OCO3)C1
REMARK SMILES IDX 9 1 8 2 7 3 5 4 6 5 4 7 62 8 75 9 63 10 64 11 3 12 2 15 1 16
REMARK SMILES IDX 65 17 66 18 67 19 71 20 68 21 70 22 69 23 72 24 74 25 73 26
REMARK SMILES IDX 10 27 11 28 12 29 13 31 14 32 15 33 61 34 16 35 60 36 17 37
REMARK SMILES IDX 18 38 19 39 54 40 20 41 59 42 53 43 55 44 21 45 58 46 52 47
REMARK SMILES IDX 51 48 22 50 44 51 29 52 43 53 30 54 33 55 42 56 56 57 31 58
REMARK SMILES IDX 32 59 41 61 57 62 34 63 23 64 24 65 28 66 25 67 27 68 26 69
REMARK SMILES IDX 45 70 46 71 50 72 47 73 49 74 48 75 35 76 36 77 40 78 37 79
REMARK SMILES IDX 39 80 38 81
REMARK H PARENT 7 6 3 13 3 14 11 30 55 49 33 60
REMARK Flexibility Score: inf
ROOT
ATOM      1  C   UNL A   1      31.959  27.860  26.856  1.00  0.00     0.042 C 
ENDROOT
BRANCH   1   2
ATOM      2  C   UNL A   1      31.926  26.631  25.965  1.00  0.00     0.118 C 
BRANCH   2   3
ATOM      3  N   UNL A   1      31.434  25.446  26.632  1.00  0.00    -0.351 N 
ATOM      4  C   UNL A   1      31.868  24.158  26.668  1.00  0.00     0.281 C 
ATOM      5  O   UNL A   1      31.265  23.438  27.480  1.00  0.00    -0.268 OA
ATOM      6  H   UNL A   1      30.622  25.604  27.167  1.00  0.00     0.163 HD
BRANCH   4   7
ATOM      7  C   UNL A   1      33.034  23.545  25.778  1.00  0.00     0.179 C 
ATOM      8  C   UNL A   1      32.832  23.760  24.263  1.00  0.00     0.083 C 
ATOM      9  C   UNL A   1      33.151  22.028  25.957  1.00  0.00     0.124 C 
ATOM     10  C   UNL A   1      32.554  22.395  23.620  1.00  0.00     0.052 C 
ATOM     11  C   UNL A   1      33.103  21.352  24.582  1.00  0.00     0.180 C 
BRANCH   7  12
ATOM     12  N   UNL A   1      34.278  24.319  26.129  1.00  0.00    -0.334 N 
ATOM     13  H   UNL A   1      33.991  25.235  26.473  1.00  0.00     0.347 HD
ATOM     14  H   UNL A   1      34.770  23.754  26.821  1.00  0.00     0.347 HD
BRANCH  12  15
ATOM     15  C   UNL A   1      35.225  24.526  25.029  1.00  0.00     0.257 C 
ATOM     16  C   UNL A   1      36.513  23.743  25.255  1.00  0.00     0.071 C 
ENDBRANCH  12  15
ENDBRANCH   7  12
BRANCH  11  17
ATOM     17  O   UNL A   1      32.458  20.104  24.830  1.00  0.00    -0.490 OA
BRANCH  17  18
ATOM     18  C   UNL A   1      33.032  18.881  24.792  1.00  0.00     0.123 A 
ATOM     19  C   UNL A   1      34.371  18.616  24.486  1.00  0.00     0.050 A 
ATOM     20  C   UNL A   1      32.187  17.842  25.211  1.00  0.00     0.097 A 
ATOM     21  C   UNL A   1      34.865  17.304  24.555  1.00  0.00     0.054 A 
ATOM     22  C   UNL A   1      32.693  16.563  25.265  1.00  0.00     0.169 A 
ATOM     23  C   UNL A   1      34.003  16.303  24.950  1.00  0.00     0.166 A 
ATOM     24  O   UNL A   1      32.010  15.446  25.627  1.00  0.00    -0.453 OA
ATOM     25  O   UNL A   1      34.317  14.990  25.103  1.00  0.00    -0.454 OA
ATOM     26  C   UNL A   1      33.082  14.481  25.641  1.00  0.00     0.468 C 
ENDBRANCH  17  18
ENDBRANCH  11  17
ENDBRANCH   4   7
ENDBRANCH   2   3
ENDBRANCH   1   2
BRANCH   1  27
ATOM     27  C   UNL A   1      33.355  28.300  27.273  1.00  0.00     0.118 C 
BRANCH  27  28
ATOM     28  N   UNL A   1      33.424  29.730  27.555  1.00  0.00    -0.352 N 
ATOM     29  C   UNL A   1      34.410  30.546  28.062  1.00  0.00     0.251 C 
ATOM     30  H   UNL A   1      32.594  30.211  27.337  1.00  0.00     0.163 HD
ATOM     31  O   UNL A   1      34.101  31.701  28.350  1.00  0.00    -0.269 OA
BRANCH  29  32
ATOM     32  C   UNL A   1      35.813  30.101  28.289  1.00  0.00     0.039 A 
ATOM     33  C   UNL A   1      36.164  29.640  29.567  1.00  0.00     0.014 A 
ATOM     34  C   UNL A   1      36.812  30.197  27.323  1.00  0.00     0.014 A 
ATOM     35  C   UNL A   1      37.472  29.221  29.846  1.00  0.00     0.010 A 
ATOM     36  C   UNL A   1      38.088  29.686  27.564  1.00  0.00     0.010 A 
ATOM     37  C   UNL A   1      38.440  29.217  28.836  1.00  0.00    -0.014 A 
BRANCH  37  38
ATOM     38  C   UNL A   1      39.851  28.848  29.112  1.00  0.00     0.031 A 
ATOM     39  C   UNL A   1      40.343  27.481  28.720  1.00  0.00     0.074 A 
ATOM     40  C   UNL A   1      40.677  29.700  29.747  1.00  0.00     0.049 A 
ATOM     41  N   UNL A   1      41.529  26.950  28.880  1.00  0.00    -0.248 NA
ATOM     42  C   UNL A   1      39.362  26.581  28.089  1.00  0.00     0.031 C 
ATOM     43  C   UNL A   1      40.313  31.031  30.227  1.00  0.00     0.029 A 
ATOM     44  N   UNL A   1      41.995  29.566  30.109  1.00  0.00    -0.354 N 
ATOM     45  C   UNL A   1      41.431  25.658  28.378  1.00  0.00     0.074 A 
ATOM     46  C   UNL A   1      40.057  25.462  27.974  1.00  0.00     0.031 C 
ATOM     47  C   UNL A   1      41.387  31.606  30.794  1.00  0.00     0.029 A 
ATOM     48  C   UNL A   1      42.507  30.670  30.750  1.00  0.00     0.049 A 
ATOM     49  H   UNL A   1      42.523  28.757  29.927  1.00  0.00     0.167 HD
ATOM     50  C   UNL A   1      42.400  24.725  28.236  1.00  0.00     0.031 A 
ATOM     51  C   UNL A   1      43.738  30.897  31.245  1.00  0.00     0.031 A 
ATOM     52  C   UNL A   1      43.766  24.913  28.645  1.00  0.00     0.049 A 
ATOM     53  C   UNL A   1      44.794  29.832  31.102  1.00  0.00     0.074 A 
ATOM     54  C   UNL A   1      44.836  24.046  28.504  1.00  0.00     0.029 A 
ATOM     55  N   UNL A   1      44.247  26.045  29.284  1.00  0.00    -0.354 N 
ATOM     56  N   UNL A   1      44.709  28.650  30.543  1.00  0.00    -0.248 NA
ATOM     57  C   UNL A   1      46.123  30.146  31.648  1.00  0.00     0.031 C 
ATOM     58  C   UNL A   1      45.952  24.632  29.109  1.00  0.00     0.029 A 
ATOM     59  C   UNL A   1      45.592  25.890  29.569  1.00  0.00     0.049 A 
ATOM     60  H   UNL A   1      43.710  26.840  29.503  1.00  0.00     0.167 HD
ATOM     61  C   UNL A   1      45.980  28.092  30.637  1.00  0.00     0.074 A 
ATOM     62  C   UNL A   1      46.819  29.076  31.289  1.00  0.00     0.031 C 
ATOM     63  C   UNL A   1      46.413  26.877  30.221  1.00  0.00     0.031 A 
BRANCH  50  64
ATOM     64  C   UNL A   1      42.001  23.414  27.617  1.00  0.00    -0.014 A 
ATOM     65  C   UNL A   1      42.181  23.177  26.244  1.00  0.00     0.009 A 
ATOM     66  C   UNL A   1      41.437  22.405  28.411  1.00  0.00     0.009 A 
ATOM     67  C   UNL A   1      41.760  21.975  25.671  1.00  0.00     0.001 A 
ATOM     68  C   UNL A   1      41.048  21.192  27.842  1.00  0.00     0.001 A 
ATOM     69  C   UNL A   1      41.196  20.982  26.472  1.00  0.00     0.000 A 
ENDBRANCH  50  64
BRANCH  51  70
ATOM     70  C   UNL A   1      44.063  32.191  31.902  1.00  0.00    -0.014 A 
ATOM     71  C   UNL A   1      43.864  32.359  33.282  1.00  0.00     0.009 A 
ATOM     72  C   UNL A   1      44.536  33.278  31.151  1.00  0.00     0.009 A 
ATOM     73  C   UNL A   1      44.096  33.597  33.889  1.00  0.00     0.001 A 
ATOM     74  C   UNL A   1      44.796  34.506  31.766  1.00  0.00     0.001 A 
ATOM     75  C   UNL A   1      44.564  34.668  33.131  1.00  0.00     0.000 A 
ENDBRANCH  51  70
BRANCH  63  76
ATOM     76  C   UNL A   1      47.870  26.561  30.425  1.00  0.00    -0.014 A 
ATOM     77  C   UNL A   1      48.315  25.838  31.542  1.00  0.00     0.009 A 
ATOM     78  C   UNL A   1      48.808  26.972  29.465  1.00  0.00     0.009 A 
ATOM     79  C   UNL A   1      49.675  25.572  31.716  1.00  0.00     0.001 A 
ATOM     80  C   UNL A   1      50.162  26.674  29.623  1.00  0.00     0.001 A 
ATOM     81  C   UNL A   1      50.596  25.986  30.755  1.00  0.00     0.000 A 
ENDBRANCH  63  76
ENDBRANCH  37  38
ENDBRANCH  29  32
ENDBRANCH  27  28
ENDBRANCH   1  27
TORSDOF 14
ENDMDL
