MODEL 1
REMARK VINA RESULT:     -11.8      0.000      0.000
REMARK SMILES Cc1cc(C)c2c(O[C@@H](C)C(=O)NCCCNC(=O)c3ccc(-c4c5nc(c(-c6ccccc6)c6ccc([nH]6)c(-c6ccccc6)c6nc(c(-c7ccccc7)c7ccc4[nH]7)C=C6)C=C5)cc3)nsc2n1
REMARK SMILES IDX 15 1 14 2 13 3 11 4 12 5 9 7 10 8 8 9 7 10 1 11 2 12 3 13
REMARK SMILES IDX 71 14 4 15 70 16 5 17 6 18 69 19 68 20 16 21 17 22 18 23
REMARK SMILES IDX 19 25 20 26 21 27 67 28 22 29 66 30 23 31 24 32 25 33 60 34
REMARK SMILES IDX 26 35 65 36 59 37 61 38 27 39 64 40 58 41 57 42 28 44 50 45
REMARK SMILES IDX 35 46 49 47 36 48 39 49 48 50 62 51 37 52 38 53 47 55 63 56
REMARK SMILES IDX 40 57 29 58 30 59 34 60 31 61 33 62 32 63 51 64 52 65 56 66
REMARK SMILES IDX 53 67 55 68 54 69 41 70 42 71 46 72 43 73 45 74 44 75
REMARK H PARENT 13 6 17 24 61 43 39 54
REMARK Flexibility Score: inf
ROOT
ATOM      1  C   UNL A   1      37.767  21.011  24.991  1.00  0.00     0.042 C 
ENDROOT
BRANCH   1   2
ATOM      2  C   UNL A   1      36.720  21.848  25.711  1.00  0.00     0.118 C 
BRANCH   2   3
ATOM      3  N   UNL A   1      35.340  21.475  25.521  1.00  0.00    -0.353 N 
ATOM      4  C   UNL A   1      34.361  22.253  24.967  1.00  0.00     0.260 C 
ATOM      5  O   UNL A   1      33.565  21.687  24.210  1.00  0.00    -0.271 OA
ATOM      6  H   UNL A   1      35.078  20.574  25.818  1.00  0.00     0.163 HD
BRANCH   4   7
ATOM      7  C   UNL A   1      34.155  23.750  25.361  1.00  0.00     0.260 C 
ATOM      8  C   UNL A   1      32.869  24.082  26.117  1.00  0.00     0.064 C 
BRANCH   7   9
ATOM      9  O   UNL A   1      34.722  24.821  24.675  1.00  0.00    -0.463 OA
BRANCH   9  10
ATOM     10  C   UNL A   1      34.089  25.666  23.832  1.00  0.00     0.235 A 
ATOM     11  C   UNL A   1      29.965  29.509  23.489  1.00  0.00     0.067 C 
ATOM     12  C   UNL A   1      31.231  28.709  23.581  1.00  0.00     0.039 A 
ATOM     13  C   UNL A   1      32.094  28.902  24.645  1.00  0.00     0.027 A 
ATOM     14  N   UNL A   1      31.435  27.784  22.640  1.00  0.00    -0.240 NA
ATOM     15  C   UNL A   1      33.188  28.034  24.872  1.00  0.00    -0.034 A 
ATOM     16  C   UNL A   1      32.487  26.975  22.853  1.00  0.00     0.147 A 
ATOM     17  C   UNL A   1      33.991  28.361  26.108  1.00  0.00     0.045 C 
ATOM     18  C   UNL A   1      33.367  26.944  23.948  1.00  0.00     0.078 A 
ATOM     19  S   UNL A   1      32.849  25.750  21.736  1.00  0.00    -0.012 S 
ATOM     20  N   UNL A   1      33.976  25.018  22.671  1.00  0.00    -0.153 NA
ENDBRANCH   9  10
ENDBRANCH   7   9
ENDBRANCH   4   7
ENDBRANCH   2   3
ENDBRANCH   1   2
BRANCH   1  21
ATOM     21  C   UNL A   1      39.080  21.020  25.761  1.00  0.00     0.118 C 
BRANCH  21  22
ATOM     22  N   UNL A   1      39.841  19.755  25.773  1.00  0.00    -0.352 N 
ATOM     23  C   UNL A   1      41.229  19.599  25.898  1.00  0.00     0.251 C 
ATOM     24  H   UNL A   1      39.315  18.928  25.684  1.00  0.00     0.163 HD
ATOM     25  O   UNL A   1      41.830  18.573  25.688  1.00  0.00    -0.269 OA
BRANCH  23  26
ATOM     26  C   UNL A   1      41.963  20.758  26.400  1.00  0.00     0.039 A 
ATOM     27  C   UNL A   1      42.431  21.792  25.580  1.00  0.00     0.014 A 
ATOM     28  C   UNL A   1      41.910  20.859  27.774  1.00  0.00     0.014 A 
ATOM     29  C   UNL A   1      42.739  23.003  26.187  1.00  0.00     0.010 A 
ATOM     30  C   UNL A   1      41.844  22.116  28.265  1.00  0.00     0.010 A 
ATOM     31  C   UNL A   1      42.402  23.155  27.536  1.00  0.00    -0.014 A 
BRANCH  31  32
ATOM     32  C   UNL A   1      42.491  24.394  28.276  1.00  0.00     0.031 A 
ATOM     33  C   UNL A   1      41.367  25.330  28.045  1.00  0.00     0.074 A 
ATOM     34  C   UNL A   1      43.338  24.488  29.327  1.00  0.00     0.049 A 
ATOM     35  N   UNL A   1      41.412  26.455  27.418  1.00  0.00    -0.248 NA
ATOM     36  C   UNL A   1      40.003  24.903  28.406  1.00  0.00     0.031 C 
ATOM     37  C   UNL A   1      44.244  23.467  29.891  1.00  0.00     0.029 A 
ATOM     38  N   UNL A   1      43.454  25.491  30.223  1.00  0.00    -0.354 N 
ATOM     39  C   UNL A   1      40.133  26.987  27.500  1.00  0.00     0.074 A 
ATOM     40  C   UNL A   1      39.273  25.905  27.910  1.00  0.00     0.031 C 
ATOM     41  C   UNL A   1      44.606  23.816  31.145  1.00  0.00     0.029 A 
ATOM     42  C   UNL A   1      44.143  25.166  31.385  1.00  0.00     0.049 A 
ATOM     43  H   UNL A   1      43.079  26.387  30.065  1.00  0.00     0.167 HD
ATOM     44  C   UNL A   1      39.928  28.333  27.492  1.00  0.00     0.031 A 
ATOM     45  C   UNL A   1      44.302  25.966  32.466  1.00  0.00     0.031 A 
ATOM     46  C   UNL A   1      41.135  29.043  27.138  1.00  0.00     0.049 A 
ATOM     47  C   UNL A   1      44.039  27.352  32.003  1.00  0.00     0.074 A 
ATOM     48  C   UNL A   1      41.950  29.060  26.023  1.00  0.00     0.029 A 
ATOM     49  N   UNL A   1      41.909  29.505  28.180  1.00  0.00    -0.354 N 
ATOM     50  N   UNL A   1      44.786  27.962  31.126  1.00  0.00    -0.248 NA
ATOM     51  C   UNL A   1      42.682  27.858  32.126  1.00  0.00     0.031 C 
ATOM     52  C   UNL A   1      43.279  29.057  26.542  1.00  0.00     0.029 A 
ATOM     53  C   UNL A   1      43.212  29.139  27.936  1.00  0.00     0.049 A 
ATOM     54  H   UNL A   1      41.586  30.009  28.962  1.00  0.00     0.167 HD
ATOM     55  C   UNL A   1      43.890  28.611  30.286  1.00  0.00     0.074 A 
ATOM     56  C   UNL A   1      42.618  28.594  31.011  1.00  0.00     0.031 C 
ATOM     57  C   UNL A   1      44.184  28.826  28.967  1.00  0.00     0.031 A 
BRANCH  44  58
ATOM     58  C   UNL A   1      38.769  29.011  28.171  1.00  0.00    -0.014 A 
ATOM     59  C   UNL A   1      38.541  28.767  29.535  1.00  0.00     0.009 A 
ATOM     60  C   UNL A   1      37.755  29.698  27.473  1.00  0.00     0.009 A 
ATOM     61  C   UNL A   1      37.349  29.161  30.156  1.00  0.00     0.001 A 
ATOM     62  C   UNL A   1      36.583  30.127  28.097  1.00  0.00     0.001 A 
ATOM     63  C   UNL A   1      36.370  29.840  29.436  1.00  0.00     0.000 A 
ENDBRANCH  44  58
BRANCH  45  64
ATOM     64  C   UNL A   1      44.355  25.600  33.896  1.00  0.00    -0.014 A 
ATOM     65  C   UNL A   1      43.364  24.779  34.453  1.00  0.00     0.009 A 
ATOM     66  C   UNL A   1      45.533  25.805  34.640  1.00  0.00     0.009 A 
ATOM     67  C   UNL A   1      43.568  24.133  35.681  1.00  0.00     0.001 A 
ATOM     68  C   UNL A   1      45.736  25.161  35.867  1.00  0.00     0.001 A 
ATOM     69  C   UNL A   1      44.763  24.309  36.377  1.00  0.00     0.000 A 
ENDBRANCH  45  64
BRANCH  57  70
ATOM     70  C   UNL A   1      45.587  28.489  28.495  1.00  0.00    -0.014 A 
ATOM     71  C   UNL A   1      45.972  27.207  28.057  1.00  0.00     0.009 A 
ATOM     72  C   UNL A   1      46.508  29.534  28.341  1.00  0.00     0.009 A 
ATOM     73  C   UNL A   1      47.242  26.975  27.511  1.00  0.00     0.001 A 
ATOM     74  C   UNL A   1      47.768  29.309  27.779  1.00  0.00     0.001 A 
ATOM     75  C   UNL A   1      48.137  28.030  27.368  1.00  0.00     0.000 A 
ENDBRANCH  57  70
ENDBRANCH  31  32
ENDBRANCH  23  26
ENDBRANCH  21  22
ENDBRANCH   1  21
TORSDOF 12
ENDMDL
MODEL 2
REMARK VINA RESULT:     -11.6      1.425      1.873
REMARK SMILES Cc1cc(C)c2c(O[C@@H](C)C(=O)NCCCNC(=O)c3ccc(-c4c5nc(c(-c6ccccc6)c6ccc([nH]6)c(-c6ccccc6)c6nc(c(-c7ccccc7)c7ccc4[nH]7)C=C6)C=C5)cc3)nsc2n1
REMARK SMILES IDX 15 1 14 2 13 3 11 4 12 5 9 7 10 8 8 9 7 10 1 11 2 12 3 13
REMARK SMILES IDX 71 14 4 15 70 16 5 17 6 18 69 19 68 20 16 21 17 22 18 23
REMARK SMILES IDX 19 25 20 26 21 27 67 28 22 29 66 30 23 31 24 32 25 33 60 34
REMARK SMILES IDX 26 35 65 36 59 37 61 38 27 39 64 40 58 41 57 42 28 44 50 45
REMARK SMILES IDX 35 46 49 47 36 48 39 49 48 50 62 51 37 52 38 53 47 55 63 56
REMARK SMILES IDX 40 57 29 58 30 59 34 60 31 61 33 62 32 63 51 64 52 65 56 66
REMARK SMILES IDX 53 67 55 68 54 69 41 70 42 71 46 72 43 73 45 74 44 75
REMARK H PARENT 13 6 17 24 61 43 39 54
REMARK Flexibility Score: inf
ROOT
ATOM      1  C   UNL A   1      37.739  20.963  25.046  1.00  0.00     0.042 C 
ENDROOT
BRANCH   1   2
ATOM      2  C   UNL A   1      37.045  22.316  25.132  1.00  0.00     0.118 C 
BRANCH   2   3
ATOM      3  N   UNL A   1      36.102  22.500  26.206  1.00  0.00    -0.353 N 
ATOM      4  C   UNL A   1      34.990  21.741  26.445  1.00  0.00     0.260 C 
ATOM      5  O   UNL A   1      34.743  21.476  27.627  1.00  0.00    -0.271 OA
ATOM      6  H   UNL A   1      36.275  23.245  26.827  1.00  0.00     0.163 HD
BRANCH   4   7
ATOM      7  C   UNL A   1      33.993  21.334  25.314  1.00  0.00     0.260 C 
ATOM      8  C   UNL A   1      34.242  19.984  24.643  1.00  0.00     0.064 C 
BRANCH   7   9
ATOM      9  O   UNL A   1      33.277  22.246  24.542  1.00  0.00    -0.463 OA
BRANCH   9  10
ATOM     10  C   UNL A   1      32.352  23.126  24.984  1.00  0.00     0.235 A 
ATOM     11  C   UNL A   1      31.676  28.190  27.393  1.00  0.00     0.067 C 
ATOM     12  C   UNL A   1      31.785  26.976  26.517  1.00  0.00     0.039 A 
ATOM     13  C   UNL A   1      32.656  26.975  25.442  1.00  0.00     0.027 A 
ATOM     14  N   UNL A   1      31.061  25.909  26.865  1.00  0.00    -0.240 NA
ATOM     15  C   UNL A   1      32.931  25.790  24.719  1.00  0.00    -0.034 A 
ATOM     16  C   UNL A   1      31.316  24.792  26.162  1.00  0.00     0.147 A 
ATOM     17  C   UNL A   1      33.946  25.962  23.614  1.00  0.00     0.045 C 
ATOM     18  C   UNL A   1      32.266  24.587  25.147  1.00  0.00     0.078 A 
ATOM     19  S   UNL A   1      30.470  23.363  26.514  1.00  0.00    -0.012 S 
ATOM     20  N   UNL A   1      31.394  22.401  25.565  1.00  0.00    -0.153 NA
ENDBRANCH   9  10
ENDBRANCH   7   9
ENDBRANCH   4   7
ENDBRANCH   2   3
ENDBRANCH   1   2
BRANCH   1  21
ATOM     21  C   UNL A   1      39.086  21.008  25.754  1.00  0.00     0.118 C 
BRANCH  21  22
ATOM     22  N   UNL A   1      39.846  19.743  25.796  1.00  0.00    -0.352 N 
ATOM     23  C   UNL A   1      41.232  19.589  25.932  1.00  0.00     0.251 C 
ATOM     24  H   UNL A   1      39.319  18.915  25.720  1.00  0.00     0.163 HD
ATOM     25  O   UNL A   1      41.834  18.558  25.746  1.00  0.00    -0.269 OA
BRANCH  23  26
ATOM     26  C   UNL A   1      41.965  20.757  26.414  1.00  0.00     0.039 A 
ATOM     27  C   UNL A   1      42.419  21.784  25.578  1.00  0.00     0.014 A 
ATOM     28  C   UNL A   1      41.925  20.873  27.787  1.00  0.00     0.014 A 
ATOM     29  C   UNL A   1      42.726  23.005  26.168  1.00  0.00     0.010 A 
ATOM     30  C   UNL A   1      41.856  22.135  28.264  1.00  0.00     0.010 A 
ATOM     31  C   UNL A   1      42.401  23.169  27.519  1.00  0.00    -0.014 A 
BRANCH  31  32
ATOM     32  C   UNL A   1      42.490  24.417  28.245  1.00  0.00     0.031 A 
ATOM     33  C   UNL A   1      41.348  25.335  28.030  1.00  0.00     0.074 A 
ATOM     34  C   UNL A   1      43.359  24.533  29.274  1.00  0.00     0.049 A 
ATOM     35  N   UNL A   1      41.364  26.454  27.391  1.00  0.00    -0.248 NA
ATOM     36  C   UNL A   1      39.999  24.894  28.427  1.00  0.00     0.031 C 
ATOM     37  C   UNL A   1      44.292  23.531  29.827  1.00  0.00     0.029 A 
ATOM     38  N   UNL A   1      43.483  25.546  30.157  1.00  0.00    -0.354 N 
ATOM     39  C   UNL A   1      40.079  26.969  27.497  1.00  0.00     0.074 A 
ATOM     40  C   UNL A   1      39.244  25.880  27.937  1.00  0.00     0.031 C 
ATOM     41  C   UNL A   1      44.678  23.897  31.069  1.00  0.00     0.029 A 
ATOM     42  C   UNL A   1      44.202  25.243  31.306  1.00  0.00     0.049 A 
ATOM     43  H   UNL A   1      43.092  26.435  29.999  1.00  0.00     0.167 HD
ATOM     44  C   UNL A   1      39.856  28.313  27.481  1.00  0.00     0.031 A 
ATOM     45  C   UNL A   1      44.375  26.056  32.375  1.00  0.00     0.031 A 
ATOM     46  C   UNL A   1      41.044  29.035  27.092  1.00  0.00     0.049 A 
ATOM     47  C   UNL A   1      44.083  27.433  31.905  1.00  0.00     0.074 A 
ATOM     48  C   UNL A   1      41.833  29.052  25.958  1.00  0.00     0.029 A 
ATOM     49  N   UNL A   1      41.836  29.518  28.110  1.00  0.00    -0.354 N 
ATOM     50  N   UNL A   1      44.800  28.045  31.005  1.00  0.00    -0.248 NA
ATOM     51  C   UNL A   1      42.722  27.923  32.054  1.00  0.00     0.031 C 
ATOM     52  C   UNL A   1      43.174  29.072  26.446  1.00  0.00     0.029 A 
ATOM     53  C   UNL A   1      43.138  29.168  27.840  1.00  0.00     0.049 A 
ATOM     54  H   UNL A   1      41.524  30.026  28.895  1.00  0.00     0.167 HD
ATOM     55  C   UNL A   1      43.877  28.673  30.179  1.00  0.00     0.074 A 
ATOM     56  C   UNL A   1      42.622  28.646  30.933  1.00  0.00     0.031 C 
ATOM     57  C   UNL A   1      44.137  28.879  28.852  1.00  0.00     0.031 A 
BRANCH  44  58
ATOM     58  C   UNL A   1      38.704  28.982  28.179  1.00  0.00    -0.014 A 
ATOM     59  C   UNL A   1      38.545  28.795  29.562  1.00  0.00     0.009 A 
ATOM     60  C   UNL A   1      37.636  29.599  27.497  1.00  0.00     0.009 A 
ATOM     61  C   UNL A   1      37.366  29.177  30.217  1.00  0.00     0.001 A 
ATOM     62  C   UNL A   1      36.477  30.017  28.153  1.00  0.00     0.001 A 
ATOM     63  C   UNL A   1      36.333  29.787  29.512  1.00  0.00     0.000 A 
ENDBRANCH  44  58
BRANCH  45  64
ATOM     64  C   UNL A   1      44.466  25.706  33.807  1.00  0.00    -0.014 A 
ATOM     65  C   UNL A   1      45.700  25.762  34.472  1.00  0.00     0.009 A 
ATOM     66  C   UNL A   1      43.301  25.609  34.592  1.00  0.00     0.009 A 
ATOM     67  C   UNL A   1      45.764  25.786  35.872  1.00  0.00     0.001 A 
ATOM     68  C   UNL A   1      43.366  25.632  35.991  1.00  0.00     0.001 A 
ATOM     69  C   UNL A   1      44.596  25.742  36.630  1.00  0.00     0.000 A 
ENDBRANCH  45  64
BRANCH  57  70
ATOM     70  C   UNL A   1      45.533  28.555  28.351  1.00  0.00    -0.014 A 
ATOM     71  C   UNL A   1      45.929  27.272  27.926  1.00  0.00     0.009 A 
ATOM     72  C   UNL A   1      46.433  29.612  28.156  1.00  0.00     0.009 A 
ATOM     73  C   UNL A   1      47.188  27.051  27.352  1.00  0.00     0.001 A 
ATOM     74  C   UNL A   1      47.683  29.397  27.566  1.00  0.00     0.001 A 
ATOM     75  C   UNL A   1      48.062  28.117  27.169  1.00  0.00     0.000 A 
ENDBRANCH  57  70
ENDBRANCH  31  32
ENDBRANCH  23  26
ENDBRANCH  21  22
ENDBRANCH   1  21
TORSDOF 12
ENDMDL
MODEL 3
REMARK VINA RESULT:     -11.4      4.279      9.059
REMARK SMILES Cc1cc(C)c2c(O[C@@H](C)C(=O)NCCCNC(=O)c3ccc(-c4c5nc(c(-c6ccccc6)c6ccc([nH]6)c(-c6ccccc6)c6nc(c(-c7ccccc7)c7ccc4[nH]7)C=C6)C=C5)cc3)nsc2n1
REMARK SMILES IDX 15 1 14 2 13 3 11 4 12 5 9 7 10 8 8 9 7 10 1 11 2 12 3 13
REMARK SMILES IDX 71 14 4 15 70 16 5 17 6 18 69 19 68 20 16 21 17 22 18 23
REMARK SMILES IDX 19 25 20 26 21 27 67 28 22 29 66 30 23 31 24 32 25 33 60 34
REMARK SMILES IDX 26 35 65 36 59 37 61 38 27 39 64 40 58 41 57 42 28 44 50 45
REMARK SMILES IDX 35 46 49 47 36 48 39 49 48 50 62 51 37 52 38 53 47 55 63 56
REMARK SMILES IDX 40 57 29 58 30 59 34 60 31 61 33 62 32 63 51 64 52 65 56 66
REMARK SMILES IDX 53 67 55 68 54 69 41 70 42 71 46 72 43 73 45 74 44 75
REMARK H PARENT 13 6 17 24 61 43 39 54
REMARK Flexibility Score: inf
ROOT
ATOM      1  C   UNL A   1      32.211  31.093  26.875  1.00  0.00     0.042 C 
ENDROOT
BRANCH   1   2
ATOM      2  C   UNL A   1      32.769  29.678  26.946  1.00  0.00     0.118 C 
BRANCH   2   3
ATOM      3  N   UNL A   1      33.410  29.168  25.760  1.00  0.00    -0.353 N 
ATOM      4  C   UNL A   1      32.830  29.008  24.532  1.00  0.00     0.260 C 
ATOM      5  O   UNL A   1      33.519  29.307  23.550  1.00  0.00    -0.271 OA
ATOM      6  H   UNL A   1      34.357  28.909  25.842  1.00  0.00     0.163 HD
BRANCH   4   7
ATOM      7  C   UNL A   1      31.423  28.355  24.348  1.00  0.00     0.260 C 
ATOM      8  C   UNL A   1      30.359  29.215  23.667  1.00  0.00     0.064 C 
BRANCH   7   9
ATOM      9  O   UNL A   1      30.922  27.344  25.163  1.00  0.00    -0.463 OA
BRANCH   9  10
ATOM     10  C   UNL A   1      31.388  26.079  25.262  1.00  0.00     0.235 A 
ATOM     11  C   UNL A   1      32.080  21.251  22.415  1.00  0.00     0.067 C 
ATOM     12  C   UNL A   1      32.170  22.569  23.125  1.00  0.00     0.039 A 
ATOM     13  C   UNL A   1      32.608  23.692  22.446  1.00  0.00     0.027 A 
ATOM     14  N   UNL A   1      31.751  22.606  24.393  1.00  0.00    -0.240 NA
ATOM     15  C   UNL A   1      32.517  24.982  23.021  1.00  0.00    -0.034 A 
ATOM     16  C   UNL A   1      31.683  23.833  24.938  1.00  0.00     0.147 A 
ATOM     17  C   UNL A   1      32.992  26.096  22.118  1.00  0.00     0.045 C 
ATOM     18  C   UNL A   1      31.950  25.077  24.341  1.00  0.00     0.078 A 
ATOM     19  S   UNL A   1      31.157  24.018  26.540  1.00  0.00    -0.012 S 
ATOM     20  N   UNL A   1      31.048  25.650  26.478  1.00  0.00    -0.153 NA
ENDBRANCH   9  10
ENDBRANCH   7   9
ENDBRANCH   4   7
ENDBRANCH   2   3
ENDBRANCH   1   2
BRANCH   1  21
ATOM     21  C   UNL A   1      33.198  32.087  27.473  1.00  0.00     0.118 C 
BRANCH  21  22
ATOM     22  N   UNL A   1      32.717  33.474  27.627  1.00  0.00    -0.352 N 
ATOM     23  C   UNL A   1      33.116  34.409  28.593  1.00  0.00     0.251 C 
ATOM     24  H   UNL A   1      32.042  33.776  26.978  1.00  0.00     0.163 HD
ATOM     25  O   UNL A   1      32.549  35.451  28.820  1.00  0.00    -0.269 OA
BRANCH  23  26
ATOM     26  C   UNL A   1      34.357  34.110  29.304  1.00  0.00     0.039 A 
ATOM     27  C   UNL A   1      34.424  33.270  30.422  1.00  0.00     0.014 A 
ATOM     28  C   UNL A   1      35.473  34.517  28.606  1.00  0.00     0.014 A 
ATOM     29  C   UNL A   1      35.666  32.743  30.755  1.00  0.00     0.010 A 
ATOM     30  C   UNL A   1      36.552  33.711  28.710  1.00  0.00     0.010 A 
ATOM     31  C   UNL A   1      36.718  32.951  29.857  1.00  0.00    -0.014 A 
BRANCH  31  32
ATOM     32  C   UNL A   1      38.023  32.334  29.955  1.00  0.00     0.031 A 
ATOM     33  C   UNL A   1      38.071  30.924  29.507  1.00  0.00     0.074 A 
ATOM     34  C   UNL A   1      39.122  33.110  30.103  1.00  0.00     0.049 A 
ATOM     35  N   UNL A   1      38.240  29.882  30.247  1.00  0.00    -0.248 NA
ATOM     36  C   UNL A   1      37.737  30.612  28.106  1.00  0.00     0.031 C 
ATOM     37  C   UNL A   1      39.223  34.581  30.178  1.00  0.00     0.029 A 
ATOM     38  N   UNL A   1      40.419  32.742  30.062  1.00  0.00    -0.354 N 
ATOM     39  C   UNL A   1      38.258  28.799  29.378  1.00  0.00     0.074 A 
ATOM     40  C   UNL A   1      37.725  29.278  28.127  1.00  0.00     0.031 C 
ATOM     41  C   UNL A   1      40.492  34.969  29.924  1.00  0.00     0.029 A 
ATOM     42  C   UNL A   1      41.321  33.783  29.887  1.00  0.00     0.049 A 
ATOM     43  H   UNL A   1      40.705  31.805  30.150  1.00  0.00     0.167 HD
ATOM     44  C   UNL A   1      38.964  27.672  29.672  1.00  0.00     0.031 A 
ATOM     45  C   UNL A   1      42.659  33.657  29.716  1.00  0.00     0.031 A 
ATOM     46  C   UNL A   1      39.423  27.686  31.041  1.00  0.00     0.049 A 
ATOM     47  C   UNL A   1      43.020  32.307  30.215  1.00  0.00     0.074 A 
ATOM     48  C   UNL A   1      38.791  27.730  32.268  1.00  0.00     0.029 A 
ATOM     49  N   UNL A   1      40.704  28.142  31.260  1.00  0.00    -0.354 N 
ATOM     50  N   UNL A   1      42.891  31.952  31.463  1.00  0.00    -0.248 NA
ATOM     51  C   UNL A   1      43.034  31.214  29.256  1.00  0.00     0.031 C 
ATOM     52  C   UNL A   1      39.553  28.658  33.040  1.00  0.00     0.029 A 
ATOM     53  C   UNL A   1      40.662  29.055  32.287  1.00  0.00     0.049 A 
ATOM     54  H   UNL A   1      41.510  27.863  30.767  1.00  0.00     0.167 HD
ATOM     55  C   UNL A   1      42.367  30.667  31.416  1.00  0.00     0.074 A 
ATOM     56  C   UNL A   1      42.572  30.229  30.034  1.00  0.00     0.031 C 
ATOM     57  C   UNL A   1      41.547  30.199  32.406  1.00  0.00     0.031 A 
BRANCH  44  58
ATOM     58  C   UNL A   1      39.562  26.760  28.635  1.00  0.00    -0.014 A 
ATOM     59  C   UNL A   1      40.444  27.297  27.683  1.00  0.00     0.009 A 
ATOM     60  C   UNL A   1      39.115  25.442  28.412  1.00  0.00     0.009 A 
ATOM     61  C   UNL A   1      40.830  26.563  26.554  1.00  0.00     0.001 A 
ATOM     62  C   UNL A   1      39.529  24.694  27.309  1.00  0.00     0.001 A 
ATOM     63  C   UNL A   1      40.372  25.262  26.367  1.00  0.00     0.000 A 
ENDBRANCH  44  58
BRANCH  45  64
ATOM     64  C   UNL A   1      43.573  34.471  28.889  1.00  0.00    -0.014 A 
ATOM     65  C   UNL A   1      43.693  34.222  27.513  1.00  0.00     0.009 A 
ATOM     66  C   UNL A   1      44.098  35.679  29.386  1.00  0.00     0.009 A 
ATOM     67  C   UNL A   1      44.259  35.176  26.655  1.00  0.00     0.001 A 
ATOM     68  C   UNL A   1      44.664  36.631  28.528  1.00  0.00     0.001 A 
ATOM     69  C   UNL A   1      44.725  36.388  27.161  1.00  0.00     0.000 A 
ENDBRANCH  45  64
BRANCH  57  70
ATOM     70  C   UNL A   1      41.370  31.065  33.641  1.00  0.00    -0.014 A 
ATOM     71  C   UNL A   1      40.430  32.110  33.728  1.00  0.00     0.009 A 
ATOM     72  C   UNL A   1      42.067  30.716  34.805  1.00  0.00     0.009 A 
ATOM     73  C   UNL A   1      40.216  32.798  34.931  1.00  0.00     0.001 A 
ATOM     74  C   UNL A   1      41.841  31.388  36.011  1.00  0.00     0.001 A 
ATOM     75  C   UNL A   1      40.920  32.431  36.073  1.00  0.00     0.000 A 
ENDBRANCH  57  70
ENDBRANCH  31  32
ENDBRANCH  23  26
ENDBRANCH  21  22
ENDBRANCH   1  21
TORSDOF 12
ENDMDL
