MODEL 1
REMARK VINA RESULT:     -11.0      0.000      0.000
REMARK SMILES Cc1cccc(Cl)c1Nc1ccccc1CC(=O)NCCCNC(=O)c1ccc(-c2c3nc(c(-c4ccccc4)c4ccc([nH]4)c(-c4ccccc4)c4nc(c(-c5ccccc5)c5ccc2[nH]5)C=C4)C=C3)cc1
REMARK SMILES IDX 20 1 19 2 17 3 18 4 16 6 15 7 10 8 11 9 12 10 14 11 13 12
REMARK SMILES IDX 9 13 8 15 1 16 2 17 3 18 4 19 6 20 5 21 7 22 21 23 22 24
REMARK SMILES IDX 23 25 24 26 25 28 26 29 27 30 73 31 28 32 72 33 29 34 30 35
REMARK SMILES IDX 31 36 66 37 32 38 71 39 65 40 67 41 33 42 70 43 64 44 63 45
REMARK SMILES IDX 34 47 56 48 41 49 55 50 42 51 45 52 54 53 68 54 43 55 44 56
REMARK SMILES IDX 53 58 69 59 46 60 35 61 36 62 40 63 37 64 39 65 38 66 57 67
REMARK SMILES IDX 58 68 62 69 59 70 61 71 60 72 47 73 48 74 52 75 49 76 51 77
REMARK SMILES IDX 50 78
REMARK H PARENT 19 5 9 14 23 27 67 46 45 57
REMARK Flexibility Score: inf
ROOT
ATOM      1  C   UNL A   1      34.643  23.705  24.075  1.00  0.00     0.117 C 
ENDROOT
BRANCH   1   2
ATOM      2  N   UNL A   1      34.309  25.006  23.531  1.00  0.00    -0.356 N 
ATOM      3  C   UNL A   1      33.968  26.144  24.208  1.00  0.00     0.224 C 
ATOM      4  O   UNL A   1      33.621  27.129  23.554  1.00  0.00    -0.275 OA
ATOM      5  H   UNL A   1      34.329  25.079  22.550  1.00  0.00     0.163 HD
BRANCH   3   6
ATOM      6  C   UNL A   1      34.060  26.179  25.724  1.00  0.00     0.137 C 
BRANCH   6   7
ATOM      7  C   UNL A   1      33.465  27.426  26.348  1.00  0.00    -0.015 A 
ATOM      8  C   UNL A   1      32.091  27.572  26.636  1.00  0.00     0.042 A 
ATOM      9  C   UNL A   1      31.636  28.811  27.127  1.00  0.00     0.026 A 
ATOM     10  C   UNL A   1      32.511  29.872  27.361  1.00  0.00     0.002 A 
ATOM     11  C   UNL A   1      34.340  28.500  26.616  1.00  0.00     0.006 A 
ATOM     12  C   UNL A   1      33.868  29.711  27.117  1.00  0.00     0.000 A 
BRANCH   8  13
ATOM     13  N   UNL A   1      31.133  26.544  26.522  1.00  0.00    -0.354 N 
ATOM     14  H   UNL A   1      30.483  26.523  27.261  1.00  0.00     0.167 HD
BRANCH  13  15
ATOM     15  C   UNL A   1      30.923  25.534  25.551  1.00  0.00     0.060 A 
ATOM     16  C   UNL A   1      29.957  27.336  24.008  1.00  0.00     0.046 C 
ATOM     17  C   UNL A   1      30.377  25.916  24.296  1.00  0.00    -0.026 A 
ATOM     18  C   UNL A   1      30.249  24.969  23.264  1.00  0.00     0.005 A 
ATOM     19  C   UNL A   1      30.637  23.647  23.456  1.00  0.00     0.002 A 
ATOM     20  C   UNL A   1      31.276  24.175  25.730  1.00  0.00     0.064 A 
ATOM     21  C   UNL A   1      31.140  23.250  24.688  1.00  0.00     0.023 A 
ATOM     22  Cl  UNL A   1      31.787  23.520  27.251  1.00  0.00    -0.082 Cl
ENDBRANCH  13  15
ENDBRANCH   8  13
ENDBRANCH   6   7
ENDBRANCH   3   6
ENDBRANCH   1   2
BRANCH   1  23
ATOM     23  C   UNL A   1      36.132  23.398  23.952  1.00  0.00     0.042 C 
BRANCH  23  24
ATOM     24  C   UNL A   1      36.930  23.703  25.215  1.00  0.00     0.118 C 
BRANCH  24  25
ATOM     25  N   UNL A   1      37.995  22.734  25.446  1.00  0.00    -0.352 N 
ATOM     26  C   UNL A   1      39.212  22.893  26.048  1.00  0.00     0.251 C 
ATOM     27  H   UNL A   1      37.809  21.824  25.118  1.00  0.00     0.163 HD
ATOM     28  O   UNL A   1      40.048  21.991  25.970  1.00  0.00    -0.269 OA
BRANCH  26  29
ATOM     29  C   UNL A   1      39.543  24.135  26.778  1.00  0.00     0.039 A 
ATOM     30  C   UNL A   1      40.321  25.104  26.138  1.00  0.00     0.014 A 
ATOM     31  C   UNL A   1      39.135  24.330  28.101  1.00  0.00     0.014 A 
ATOM     32  C   UNL A   1      40.650  26.286  26.805  1.00  0.00     0.010 A 
ATOM     33  C   UNL A   1      39.401  25.539  28.739  1.00  0.00     0.010 A 
ATOM     34  C   UNL A   1      40.171  26.524  28.103  1.00  0.00    -0.014 A 
BRANCH  34  35
ATOM     35  C   UNL A   1      40.483  27.786  28.819  1.00  0.00     0.031 A 
ATOM     36  C   UNL A   1      41.800  27.943  29.531  1.00  0.00     0.074 A 
ATOM     37  C   UNL A   1      39.562  28.767  28.879  1.00  0.00     0.049 A 
ATOM     38  N   UNL A   1      42.226  28.937  30.268  1.00  0.00    -0.248 NA
ATOM     39  C   UNL A   1      42.752  26.826  29.422  1.00  0.00     0.031 C 
ATOM     40  C   UNL A   1      38.236  28.726  28.257  1.00  0.00     0.029 A 
ATOM     41  N   UNL A   1      39.600  29.990  29.500  1.00  0.00    -0.354 N 
ATOM     42  C   UNL A   1      43.482  28.557  30.726  1.00  0.00     0.074 A 
ATOM     43  C   UNL A   1      43.730  27.223  30.223  1.00  0.00     0.031 C 
ATOM     44  C   UNL A   1      37.598  29.881  28.509  1.00  0.00     0.029 A 
ATOM     45  C   UNL A   1      38.449  30.723  29.342  1.00  0.00     0.049 A 
ATOM     46  H   UNL A   1      40.377  30.312  30.010  1.00  0.00     0.167 HD
ATOM     47  C   UNL A   1      44.357  29.258  31.484  1.00  0.00     0.031 A 
ATOM     48  C   UNL A   1      38.114  31.936  29.821  1.00  0.00     0.031 A 
ATOM     49  C   UNL A   1      44.119  30.591  31.969  1.00  0.00     0.049 A 
ATOM     50  C   UNL A   1      39.101  32.690  30.667  1.00  0.00     0.074 A 
ATOM     51  C   UNL A   1      44.968  31.407  32.696  1.00  0.00     0.029 A 
ATOM     52  N   UNL A   1      42.946  31.303  31.775  1.00  0.00    -0.354 N 
ATOM     53  N   UNL A   1      40.310  32.341  31.037  1.00  0.00    -0.248 NA
ATOM     54  C   UNL A   1      38.682  34.013  31.153  1.00  0.00     0.031 C 
ATOM     55  C   UNL A   1      44.291  32.596  32.983  1.00  0.00     0.029 A 
ATOM     56  C   UNL A   1      43.041  32.541  32.386  1.00  0.00     0.049 A 
ATOM     57  H   UNL A   1      42.163  30.976  31.277  1.00  0.00     0.167 HD
ATOM     58  C   UNL A   1      40.806  33.413  31.769  1.00  0.00     0.074 A 
ATOM     59  C   UNL A   1      39.774  34.429  31.778  1.00  0.00     0.031 C 
ATOM     60  C   UNL A   1      42.009  33.545  32.377  1.00  0.00     0.031 A 
BRANCH  47  61
ATOM     61  C   UNL A   1      45.658  28.594  31.841  1.00  0.00    -0.014 A 
ATOM     62  C   UNL A   1      46.841  28.891  31.148  1.00  0.00     0.009 A 
ATOM     63  C   UNL A   1      45.710  27.692  32.917  1.00  0.00     0.009 A 
ATOM     64  C   UNL A   1      48.044  28.275  31.503  1.00  0.00     0.001 A 
ATOM     65  C   UNL A   1      46.917  27.100  33.288  1.00  0.00     0.001 A 
ATOM     66  C   UNL A   1      48.081  27.386  32.576  1.00  0.00     0.000 A 
ENDBRANCH  47  61
BRANCH  48  67
ATOM     67  C   UNL A   1      36.786  32.526  29.506  1.00  0.00    -0.014 A 
ATOM     68  C   UNL A   1      35.717  32.393  30.404  1.00  0.00     0.009 A 
ATOM     69  C   UNL A   1      36.573  33.204  28.295  1.00  0.00     0.009 A 
ATOM     70  C   UNL A   1      34.454  32.894  30.083  1.00  0.00     0.001 A 
ATOM     71  C   UNL A   1      35.318  33.733  27.990  1.00  0.00     0.001 A 
ATOM     72  C   UNL A   1      34.256  33.567  28.878  1.00  0.00     0.000 A 
ENDBRANCH  48  67
BRANCH  60  73
ATOM     73  C   UNL A   1      42.294  34.851  33.062  1.00  0.00    -0.014 A 
ATOM     74  C   UNL A   1      43.076  35.842  32.450  1.00  0.00     0.009 A 
ATOM     75  C   UNL A   1      41.733  35.108  34.323  1.00  0.00     0.009 A 
ATOM     76  C   UNL A   1      43.320  37.051  33.105  1.00  0.00     0.001 A 
ATOM     77  C   UNL A   1      41.953  36.329  34.961  1.00  0.00     0.001 A 
ATOM     78  C   UNL A   1      42.754  37.295  34.355  1.00  0.00     0.000 A 
ENDBRANCH  60  73
ENDBRANCH  34  35
ENDBRANCH  26  29
ENDBRANCH  24  25
ENDBRANCH  23  24
ENDBRANCH   1  23
TORSDOF 13
ENDMDL
MODEL 2
REMARK VINA RESULT:     -10.9      2.590      7.285
REMARK SMILES Cc1cccc(Cl)c1Nc1ccccc1CC(=O)NCCCNC(=O)c1ccc(-c2c3nc(c(-c4ccccc4)c4ccc([nH]4)c(-c4ccccc4)c4nc(c(-c5ccccc5)c5ccc2[nH]5)C=C4)C=C3)cc1
REMARK SMILES IDX 20 1 19 2 17 3 18 4 16 6 15 7 10 8 11 9 12 10 14 11 13 12
REMARK SMILES IDX 9 13 8 15 1 16 2 17 3 18 4 19 6 20 5 21 7 22 21 23 22 24
REMARK SMILES IDX 23 25 24 26 25 28 26 29 27 30 73 31 28 32 72 33 29 34 30 35
REMARK SMILES IDX 31 36 66 37 32 38 71 39 65 40 67 41 33 42 70 43 64 44 63 45
REMARK SMILES IDX 34 47 56 48 41 49 55 50 42 51 45 52 54 53 68 54 43 55 44 56
REMARK SMILES IDX 53 58 69 59 46 60 35 61 36 62 40 63 37 64 39 65 38 66 57 67
REMARK SMILES IDX 58 68 62 69 59 70 61 71 60 72 47 73 48 74 52 75 49 76 51 77
REMARK SMILES IDX 50 78
REMARK H PARENT 19 5 9 14 23 27 67 46 45 57
REMARK Flexibility Score: inf
ROOT
ATOM      1  C   UNL A   1      36.139  20.383  24.980  1.00  0.00     0.117 C 
ENDROOT
BRANCH   1   2
ATOM      2  N   UNL A   1      36.385  21.729  24.504  1.00  0.00    -0.356 N 
ATOM      3  C   UNL A   1      35.894  22.904  24.998  1.00  0.00     0.224 C 
ATOM      4  O   UNL A   1      36.146  23.945  24.387  1.00  0.00    -0.275 OA
ATOM      5  H   UNL A   1      36.983  21.806  23.725  1.00  0.00     0.163 HD
BRANCH   3   6
ATOM      6  C   UNL A   1      35.091  22.907  26.288  1.00  0.00     0.137 C 
BRANCH   6   7
ATOM      7  C   UNL A   1      33.608  23.147  26.090  1.00  0.00    -0.015 A 
ATOM      8  C   UNL A   1      33.043  24.428  25.909  1.00  0.00     0.042 A 
ATOM      9  C   UNL A   1      31.641  24.539  25.830  1.00  0.00     0.026 A 
ATOM     10  C   UNL A   1      30.814  23.418  25.894  1.00  0.00     0.002 A 
ATOM     11  C   UNL A   1      32.757  22.021  26.125  1.00  0.00     0.006 A 
ATOM     12  C   UNL A   1      31.374  22.156  26.029  1.00  0.00     0.000 A 
BRANCH   8  13
ATOM     13  N   UNL A   1      33.784  25.615  25.743  1.00  0.00    -0.354 N 
ATOM     14  H   UNL A   1      34.561  25.687  26.344  1.00  0.00     0.167 HD
BRANCH  13  15
ATOM     15  C   UNL A   1      33.629  26.727  24.878  1.00  0.00     0.060 A 
ATOM     16  C   UNL A   1      33.447  28.212  26.956  1.00  0.00     0.046 C 
ATOM     17  C   UNL A   1      33.497  28.016  25.462  1.00  0.00    -0.026 A 
ATOM     18  C   UNL A   1      33.445  29.159  24.645  1.00  0.00     0.005 A 
ATOM     19  C   UNL A   1      33.508  29.051  23.259  1.00  0.00     0.002 A 
ATOM     20  C   UNL A   1      33.654  26.643  23.466  1.00  0.00     0.064 A 
ATOM     21  C   UNL A   1      33.603  27.795  22.672  1.00  0.00     0.023 A 
ATOM     22  Cl  UNL A   1      33.634  25.139  22.604  1.00  0.00    -0.082 Cl
ENDBRANCH  13  15
ENDBRANCH   8  13
ENDBRANCH   6   7
ENDBRANCH   3   6
ENDBRANCH   1   2
BRANCH   1  23
ATOM     23  C   UNL A   1      37.401  19.527  24.960  1.00  0.00     0.042 C 
BRANCH  23  24
ATOM     24  C   UNL A   1      38.620  20.216  25.566  1.00  0.00     0.118 C 
BRANCH  24  25
ATOM     25  N   UNL A   1      39.754  19.310  25.710  1.00  0.00    -0.352 N 
ATOM     26  C   UNL A   1      41.047  19.572  26.068  1.00  0.00     0.251 C 
ATOM     27  H   UNL A   1      39.558  18.364  25.523  1.00  0.00     0.163 HD
ATOM     28  O   UNL A   1      41.899  18.691  25.944  1.00  0.00    -0.269 OA
BRANCH  26  29
ATOM     29  C   UNL A   1      41.438  20.899  26.588  1.00  0.00     0.039 A 
ATOM     30  C   UNL A   1      41.322  21.144  27.960  1.00  0.00     0.014 A 
ATOM     31  C   UNL A   1      41.871  21.916  25.732  1.00  0.00     0.014 A 
ATOM     32  C   UNL A   1      41.682  22.389  28.478  1.00  0.00     0.010 A 
ATOM     33  C   UNL A   1      42.300  23.132  26.259  1.00  0.00     0.010 A 
ATOM     34  C   UNL A   1      42.198  23.386  27.634  1.00  0.00    -0.014 A 
BRANCH  34  35
ATOM     35  C   UNL A   1      42.616  24.707  28.168  1.00  0.00     0.031 A 
ATOM     36  C   UNL A   1      41.592  25.787  28.394  1.00  0.00     0.074 A 
ATOM     37  C   UNL A   1      43.921  24.954  28.395  1.00  0.00     0.049 A 
ATOM     38  N   UNL A   1      41.770  27.023  28.786  1.00  0.00    -0.248 NA
ATOM     39  C   UNL A   1      40.188  25.440  28.120  1.00  0.00     0.031 C 
ATOM     40  C   UNL A   1      45.015  24.003  28.187  1.00  0.00     0.029 A 
ATOM     41  N   UNL A   1      44.549  26.088  28.845  1.00  0.00    -0.354 N 
ATOM     42  C   UNL A   1      40.509  27.605  28.783  1.00  0.00     0.074 A 
ATOM     43  C   UNL A   1      39.580  26.602  28.309  1.00  0.00     0.031 C 
ATOM     44  C   UNL A   1      46.175  24.585  28.531  1.00  0.00     0.029 A 
ATOM     45  C   UNL A   1      45.913  25.960  28.943  1.00  0.00     0.049 A 
ATOM     46  H   UNL A   1      44.068  26.915  29.077  1.00  0.00     0.167 HD
ATOM     47  C   UNL A   1      40.150  28.856  29.157  1.00  0.00     0.031 A 
ATOM     48  C   UNL A   1      46.849  26.853  29.315  1.00  0.00     0.031 A 
ATOM     49  C   UNL A   1      41.069  29.848  29.646  1.00  0.00     0.049 A 
ATOM     50  C   UNL A   1      46.425  28.238  29.717  1.00  0.00     0.074 A 
ATOM     51  C   UNL A   1      40.795  31.125  30.105  1.00  0.00     0.029 A 
ATOM     52  N   UNL A   1      42.440  29.672  29.743  1.00  0.00    -0.354 N 
ATOM     53  N   UNL A   1      45.219  28.751  29.770  1.00  0.00    -0.248 NA
ATOM     54  C   UNL A   1      47.491  29.165  30.123  1.00  0.00     0.031 C 
ATOM     55  C   UNL A   1      42.006  31.740  30.434  1.00  0.00     0.029 A 
ATOM     56  C   UNL A   1      43.028  30.826  30.234  1.00  0.00     0.049 A 
ATOM     57  H   UNL A   1      42.924  28.851  29.499  1.00  0.00     0.167 HD
ATOM     58  C   UNL A   1      45.380  30.046  30.246  1.00  0.00     0.074 A 
ATOM     59  C   UNL A   1      46.797  30.235  30.480  1.00  0.00     0.031 C 
ATOM     60  C   UNL A   1      44.438  30.994  30.471  1.00  0.00     0.031 A 
BRANCH  47  61
ATOM     61  C   UNL A   1      38.697  29.227  29.047  1.00  0.00    -0.014 A 
ATOM     62  C   UNL A   1      37.832  29.117  30.147  1.00  0.00     0.009 A 
ATOM     63  C   UNL A   1      38.196  29.736  27.838  1.00  0.00     0.009 A 
ATOM     64  C   UNL A   1      36.489  29.480  30.030  1.00  0.00     0.001 A 
ATOM     65  C   UNL A   1      36.861  30.125  27.732  1.00  0.00     0.001 A 
ATOM     66  C   UNL A   1      36.006  29.990  28.825  1.00  0.00     0.000 A 
ENDBRANCH  47  61
BRANCH  48  67
ATOM     67  C   UNL A   1      48.285  26.468  29.339  1.00  0.00    -0.014 A 
ATOM     68  C   UNL A   1      48.845  25.880  30.483  1.00  0.00     0.009 A 
ATOM     69  C   UNL A   1      49.109  26.708  28.228  1.00  0.00     0.009 A 
ATOM     70  C   UNL A   1      50.207  25.573  30.527  1.00  0.00     0.001 A 
ATOM     71  C   UNL A   1      50.463  26.371  28.263  1.00  0.00     0.001 A 
ATOM     72  C   UNL A   1      51.014  25.814  29.417  1.00  0.00     0.000 A 
ENDBRANCH  48  67
BRANCH  60  73
ATOM     73  C   UNL A   1      44.903  32.303  31.042  1.00  0.00    -0.014 A 
ATOM     74  C   UNL A   1      45.257  33.379  30.214  1.00  0.00     0.009 A 
ATOM     75  C   UNL A   1      44.946  32.473  32.435  1.00  0.00     0.009 A 
ATOM     76  C   UNL A   1      45.679  34.588  30.771  1.00  0.00     0.001 A 
ATOM     77  C   UNL A   1      45.338  33.692  32.989  1.00  0.00     0.001 A 
ATOM     78  C   UNL A   1      45.714  34.744  32.156  1.00  0.00     0.000 A 
ENDBRANCH  60  73
ENDBRANCH  34  35
ENDBRANCH  26  29
ENDBRANCH  24  25
ENDBRANCH  23  24
ENDBRANCH   1  23
TORSDOF 13
ENDMDL
MODEL 3
REMARK VINA RESULT:     -10.9      2.052      7.335
REMARK SMILES Cc1cccc(Cl)c1Nc1ccccc1CC(=O)NCCCNC(=O)c1ccc(-c2c3nc(c(-c4ccccc4)c4ccc([nH]4)c(-c4ccccc4)c4nc(c(-c5ccccc5)c5ccc2[nH]5)C=C4)C=C3)cc1
REMARK SMILES IDX 20 1 19 2 17 3 18 4 16 6 15 7 10 8 11 9 12 10 14 11 13 12
REMARK SMILES IDX 9 13 8 15 1 16 2 17 3 18 4 19 6 20 5 21 7 22 21 23 22 24
REMARK SMILES IDX 23 25 24 26 25 28 26 29 27 30 73 31 28 32 72 33 29 34 30 35
REMARK SMILES IDX 31 36 66 37 32 38 71 39 65 40 67 41 33 42 70 43 64 44 63 45
REMARK SMILES IDX 34 47 56 48 41 49 55 50 42 51 45 52 54 53 68 54 43 55 44 56
REMARK SMILES IDX 53 58 69 59 46 60 35 61 36 62 40 63 37 64 39 65 38 66 57 67
REMARK SMILES IDX 58 68 62 69 59 70 61 71 60 72 47 73 48 74 52 75 49 76 51 77
REMARK SMILES IDX 50 78
REMARK H PARENT 19 5 9 14 23 27 67 46 45 57
REMARK Flexibility Score: inf
ROOT
ATOM      1  C   UNL A   1      31.440  30.793  25.864  1.00  0.00     0.117 C 
ENDROOT
BRANCH   1   2
ATOM      2  N   UNL A   1      31.655  29.706  26.799  1.00  0.00    -0.356 N 
ATOM      3  C   UNL A   1      32.645  28.764  26.788  1.00  0.00     0.224 C 
ATOM      4  O   UNL A   1      32.597  27.858  27.623  1.00  0.00    -0.275 OA
ATOM      5  H   UNL A   1      31.005  29.639  27.536  1.00  0.00     0.163 HD
BRANCH   3   6
ATOM      6  C   UNL A   1      33.783  28.874  25.788  1.00  0.00     0.137 C 
BRANCH   6   7
ATOM      7  C   UNL A   1      33.613  27.999  24.563  1.00  0.00    -0.015 A 
ATOM      8  C   UNL A   1      33.855  26.608  24.560  1.00  0.00     0.042 A 
ATOM      9  C   UNL A   1      33.756  25.912  23.340  1.00  0.00     0.026 A 
ATOM     10  C   UNL A   1      33.398  26.557  22.156  1.00  0.00     0.002 A 
ATOM     11  C   UNL A   1      33.225  28.630  23.361  1.00  0.00     0.006 A 
ATOM     12  C   UNL A   1      33.120  27.916  22.170  1.00  0.00     0.000 A 
BRANCH   8  13
ATOM     13  N   UNL A   1      34.136  25.839  25.708  1.00  0.00    -0.354 N 
ATOM     14  H   UNL A   1      34.660  26.319  26.389  1.00  0.00     0.167 HD
BRANCH  13  15
ATOM     15  C   UNL A   1      33.809  24.510  26.073  1.00  0.00     0.060 A 
ATOM     16  C   UNL A   1      36.278  23.907  25.761  1.00  0.00     0.046 C 
ATOM     17  C   UNL A   1      34.861  23.556  26.137  1.00  0.00    -0.026 A 
ATOM     18  C   UNL A   1      34.604  22.252  26.595  1.00  0.00     0.005 A 
ATOM     19  C   UNL A   1      33.322  21.868  26.977  1.00  0.00     0.002 A 
ATOM     20  C   UNL A   1      32.509  24.083  26.433  1.00  0.00     0.064 A 
ATOM     21  C   UNL A   1      32.277  22.779  26.888  1.00  0.00     0.023 A 
ATOM     22  Cl  UNL A   1      31.098  25.071  26.242  1.00  0.00    -0.082 Cl
ENDBRANCH  13  15
ENDBRANCH   8  13
ENDBRANCH   6   7
ENDBRANCH   3   6
ENDBRANCH   1   2
BRANCH   1  23
ATOM     23  C   UNL A   1      31.304  32.138  26.570  1.00  0.00     0.042 C 
BRANCH  23  24
ATOM     24  C   UNL A   1      32.638  32.769  26.951  1.00  0.00     0.118 C 
BRANCH  24  25
ATOM     25  N   UNL A   1      32.471  34.007  27.704  1.00  0.00    -0.352 N 
ATOM     26  C   UNL A   1      33.195  34.503  28.752  1.00  0.00     0.251 C 
ATOM     27  H   UNL A   1      31.721  34.575  27.411  1.00  0.00     0.163 HD
ATOM     28  O   UNL A   1      32.771  35.479  29.373  1.00  0.00    -0.269 OA
BRANCH  26  29
ATOM     29  C   UNL A   1      34.471  33.878  29.157  1.00  0.00     0.039 A 
ATOM     30  C   UNL A   1      34.476  33.009  30.253  1.00  0.00     0.014 A 
ATOM     31  C   UNL A   1      35.669  34.177  28.500  1.00  0.00     0.014 A 
ATOM     32  C   UNL A   1      35.668  32.406  30.659  1.00  0.00     0.010 A 
ATOM     33  C   UNL A   1      36.842  33.518  28.859  1.00  0.00     0.010 A 
ATOM     34  C   UNL A   1      36.857  32.636  29.949  1.00  0.00    -0.014 A 
BRANCH  34  35
ATOM     35  C   UNL A   1      38.130  31.982  30.345  1.00  0.00     0.031 A 
ATOM     36  C   UNL A   1      39.052  32.658  31.323  1.00  0.00     0.074 A 
ATOM     37  C   UNL A   1      38.482  30.809  29.783  1.00  0.00     0.049 A 
ATOM     38  N   UNL A   1      40.236  32.281  31.736  1.00  0.00    -0.248 NA
ATOM     39  C   UNL A   1      38.598  33.938  31.891  1.00  0.00     0.031 C 
ATOM     40  C   UNL A   1      37.690  30.067  28.799  1.00  0.00     0.029 A 
ATOM     41  N   UNL A   1      39.605  30.039  29.955  1.00  0.00    -0.354 N 
ATOM     42  C   UNL A   1      40.674  33.284  32.592  1.00  0.00     0.074 A 
ATOM     43  C   UNL A   1      39.651  34.307  32.604  1.00  0.00     0.031 C 
ATOM     44  C   UNL A   1      38.341  28.938  28.473  1.00  0.00     0.029 A 
ATOM     45  C   UNL A   1      39.611  28.898  29.191  1.00  0.00     0.049 A 
ATOM     46  H   UNL A   1      40.336  30.281  30.567  1.00  0.00     0.167 HD
ATOM     47  C   UNL A   1      41.817  33.343  33.316  1.00  0.00     0.031 A 
ATOM     48  C   UNL A   1      40.540  27.930  29.075  1.00  0.00     0.031 A 
ATOM     49  C   UNL A   1      42.825  32.318  33.319  1.00  0.00     0.049 A 
ATOM     50  C   UNL A   1      41.803  28.024  29.884  1.00  0.00     0.074 A 
ATOM     51  C   UNL A   1      43.991  32.258  34.063  1.00  0.00     0.029 A 
ATOM     52  N   UNL A   1      42.786  31.171  32.543  1.00  0.00    -0.354 N 
ATOM     53  N   UNL A   1      42.172  28.949  30.737  1.00  0.00    -0.248 NA
ATOM     54  C   UNL A   1      42.775  26.933  29.722  1.00  0.00     0.031 C 
ATOM     55  C   UNL A   1      44.682  31.098  33.701  1.00  0.00     0.029 A 
ATOM     56  C   UNL A   1      43.918  30.407  32.773  1.00  0.00     0.049 A 
ATOM     57  H   UNL A   1      42.062  30.935  31.919  1.00  0.00     0.167 HD
ATOM     58  C   UNL A   1      43.400  28.534  31.237  1.00  0.00     0.074 A 
ATOM     59  C   UNL A   1      43.706  27.268  30.603  1.00  0.00     0.031 C 
ATOM     60  C   UNL A   1      44.202  29.146  32.142  1.00  0.00     0.031 A 
BRANCH  47  61
ATOM     61  C   UNL A   1      42.041  34.563  34.166  1.00  0.00    -0.014 A 
ATOM     62  C   UNL A   1      42.616  35.727  33.632  1.00  0.00     0.009 A 
ATOM     63  C   UNL A   1      41.629  34.564  35.508  1.00  0.00     0.009 A 
ATOM     64  C   UNL A   1      42.804  36.855  34.433  1.00  0.00     0.001 A 
ATOM     65  C   UNL A   1      41.791  35.702  36.298  1.00  0.00     0.001 A 
ATOM     66  C   UNL A   1      42.385  36.844  35.763  1.00  0.00     0.000 A 
ENDBRANCH  47  61
BRANCH  48  67
ATOM     67  C   UNL A   1      40.311  26.776  28.166  1.00  0.00    -0.014 A 
ATOM     68  C   UNL A   1      39.594  25.654  28.607  1.00  0.00     0.009 A 
ATOM     69  C   UNL A   1      40.828  26.780  26.861  1.00  0.00     0.009 A 
ATOM     70  C   UNL A   1      39.430  24.545  27.774  1.00  0.00     0.001 A 
ATOM     71  C   UNL A   1      40.636  25.683  26.018  1.00  0.00     0.001 A 
ATOM     72  C   UNL A   1      39.947  24.562  26.479  1.00  0.00     0.000 A 
ENDBRANCH  48  67
BRANCH  60  73
ATOM     73  C   UNL A   1      45.463  28.431  32.537  1.00  0.00    -0.014 A 
ATOM     74  C   UNL A   1      46.668  28.639  31.849  1.00  0.00     0.009 A 
ATOM     75  C   UNL A   1      45.450  27.567  33.644  1.00  0.00     0.009 A 
ATOM     76  C   UNL A   1      47.828  27.968  32.242  1.00  0.00     0.001 A 
ATOM     77  C   UNL A   1      46.618  26.921  34.052  1.00  0.00     0.001 A 
ATOM     78  C   UNL A   1      47.803  27.115  33.344  1.00  0.00     0.000 A 
ENDBRANCH  60  73
ENDBRANCH  34  35
ENDBRANCH  26  29
ENDBRANCH  24  25
ENDBRANCH  23  24
ENDBRANCH   1  23
TORSDOF 13
ENDMDL
