MODEL 1
REMARK VINA RESULT:     -12.8      0.000      0.000
REMARK SMILES Cc1c(-c2nn(-c3ccccc3)cc2/C=N/O)nnn1-c1ccc(C(=O)NCCCNC(=O)c2ccc(-c3c4nc(c(-c5ccccc5)c5ccc([nH]5)c(-c5ccccc5)c5nc(c(-c6ccccc6)c6ccc3[nH]6)C=C5)C=C4)cc2)cc1
REMARK SMILES IDX 28 1 27 2 25 3 26 4 24 6 21 7 22 8 83 9 23 10 82 11 20 12
REMARK SMILES IDX 1 13 2 14 3 15 18 16 19 17 4 18 5 19 14 20 6 21 13 22 15 23
REMARK SMILES IDX 16 24 17 25 7 27 8 28 12 29 9 30 11 31 10 32 29 33 30 34
REMARK SMILES IDX 31 35 32 36 33 38 34 39 35 40 81 41 36 42 80 43 37 44 38 45
REMARK SMILES IDX 39 46 74 47 40 48 79 49 73 50 75 51 41 52 78 53 72 54 71 55
REMARK SMILES IDX 42 57 64 58 49 59 63 60 50 61 53 62 62 63 76 64 51 65 52 66
REMARK SMILES IDX 61 68 77 69 54 70 43 71 44 72 48 73 45 74 47 75 46 76 65 77
REMARK SMILES IDX 66 78 70 79 67 80 69 81 68 82 55 83 56 84 60 85 57 86 59 87
REMARK SMILES IDX 58 88
REMARK H PARENT 27 5 17 26 31 37 75 56 53 67
REMARK Flexibility Score: inf
ROOT
ATOM      1  C   UNL A   1      40.638  22.209  27.433  1.00  0.00     0.118 C 
ENDROOT
BRANCH   1   2
ATOM      2  N   UNL A   1      40.405  20.969  26.710  1.00  0.00    -0.352 N 
ATOM      3  C   UNL A   1      39.398  20.544  25.879  1.00  0.00     0.251 C 
ATOM      4  O   UNL A   1      39.516  19.420  25.388  1.00  0.00    -0.269 OA
ATOM      5  H   UNL A   1      41.113  20.298  26.843  1.00  0.00     0.163 HD
BRANCH   3   6
ATOM      6  C   UNL A   1      38.217  21.379  25.507  1.00  0.00     0.039 A 
ATOM      7  C   UNL A   1      35.963  22.802  24.619  1.00  0.00     0.067 A 
ATOM      8  C   UNL A   1      35.940  21.405  24.623  1.00  0.00     0.029 A 
ATOM      9  C   UNL A   1      37.066  23.487  25.129  1.00  0.00     0.029 A 
ATOM     10  C   UNL A   1      37.077  20.704  25.036  1.00  0.00     0.016 A 
ATOM     11  C   UNL A   1      38.163  22.771  25.613  1.00  0.00     0.016 A 
BRANCH   7  12
ATOM     12  N   UNL A   1      34.856  23.519  24.123  1.00  0.00    -0.217 N 
ATOM     13  C   UNL A   1      33.923  24.540  26.263  1.00  0.00     0.069 C 
ATOM     14  C   UNL A   1      33.870  24.186  24.824  1.00  0.00     0.071 A 
ATOM     15  C   UNL A   1      32.953  24.503  23.843  1.00  0.00     0.137 A 
ATOM     16  N   UNL A   1      33.428  24.143  22.616  1.00  0.00    -0.128 NA
ATOM     17  N   UNL A   1      34.632  23.613  22.791  1.00  0.00    -0.061 NA
BRANCH  15  18
ATOM     18  C   UNL A   1      31.694  25.220  23.977  1.00  0.00     0.124 A 
ATOM     19  N   UNL A   1      31.400  26.270  23.203  1.00  0.00    -0.165 NA
ATOM     20  C   UNL A   1      30.668  24.921  24.902  1.00  0.00     0.044 A 
ATOM     21  N   UNL A   1      30.212  26.711  23.667  1.00  0.00    -0.240 N 
ATOM     22  C   UNL A   1      29.744  25.930  24.701  1.00  0.00     0.125 A 
BRANCH  20  23
ATOM     23  C   UNL A   1      30.529  23.848  25.853  1.00  0.00     0.166 C 
ATOM     24  N   UNL A   1      29.932  24.056  26.979  1.00  0.00    -0.097 NA
BRANCH  24  25
ATOM     25  O   UNL A   1      29.952  22.878  27.736  1.00  0.00    -0.411 OA
ATOM     26  H   UNL A   1      30.661  22.271  27.640  1.00  0.00     0.330 HD
ENDBRANCH  24  25
ENDBRANCH  20  23
BRANCH  21  27
ATOM     27  C   UNL A   1      29.608  27.863  23.113  1.00  0.00     0.065 A 
ATOM     28  C   UNL A   1      30.412  28.806  22.459  1.00  0.00     0.028 A 
ATOM     29  C   UNL A   1      28.229  28.075  23.233  1.00  0.00     0.028 A 
ATOM     30  C   UNL A   1      29.835  29.949  21.907  1.00  0.00     0.002 A 
ATOM     31  C   UNL A   1      27.667  29.248  22.721  1.00  0.00     0.002 A 
ATOM     32  C   UNL A   1      28.467  30.176  22.052  1.00  0.00     0.000 A 
ENDBRANCH  21  27
ENDBRANCH  15  18
ENDBRANCH   7  12
ENDBRANCH   3   6
ENDBRANCH   1   2
BRANCH   1  33
ATOM     33  C   UNL A   1      41.968  22.174  28.197  1.00  0.00     0.042 C 
BRANCH  33  34
ATOM     34  C   UNL A   1      42.344  23.538  28.754  1.00  0.00     0.118 C 
BRANCH  34  35
ATOM     35  N   UNL A   1      43.741  23.591  29.184  1.00  0.00    -0.352 N 
ATOM     36  C   UNL A   1      44.580  24.678  29.250  1.00  0.00     0.251 C 
ATOM     37  H   UNL A   1      44.133  22.733  29.465  1.00  0.00     0.163 HD
ATOM     38  O   UNL A   1      45.802  24.517  29.276  1.00  0.00    -0.269 OA
BRANCH  36  39
ATOM     39  C   UNL A   1      44.014  26.037  29.275  1.00  0.00     0.039 A 
ATOM     40  C   UNL A   1      43.701  26.698  28.085  1.00  0.00     0.014 A 
ATOM     41  C   UNL A   1      43.785  26.650  30.506  1.00  0.00     0.014 A 
ATOM     42  C   UNL A   1      43.073  27.937  28.152  1.00  0.00     0.010 A 
ATOM     43  C   UNL A   1      43.040  27.803  30.574  1.00  0.00     0.010 A 
ATOM     44  C   UNL A   1      42.712  28.470  29.402  1.00  0.00    -0.014 A 
BRANCH  44  45
ATOM     45  C   UNL A   1      41.839  29.638  29.476  1.00  0.00     0.031 A 
ATOM     46  C   UNL A   1      42.559  30.922  29.284  1.00  0.00     0.074 A 
ATOM     47  C   UNL A   1      40.490  29.595  29.530  1.00  0.00     0.049 A 
ATOM     48  N   UNL A   1      42.857  31.777  30.204  1.00  0.00    -0.248 NA
ATOM     49  C   UNL A   1      43.171  31.211  27.977  1.00  0.00     0.031 C 
ATOM     50  C   UNL A   1      39.617  28.421  29.439  1.00  0.00     0.029 A 
ATOM     51  N   UNL A   1      39.597  30.625  29.573  1.00  0.00    -0.354 N 
ATOM     52  C   UNL A   1      43.470  32.835  29.549  1.00  0.00     0.074 A 
ATOM     53  C   UNL A   1      43.827  32.344  28.241  1.00  0.00     0.031 C 
ATOM     54  C   UNL A   1      38.348  28.816  29.192  1.00  0.00     0.029 A 
ATOM     55  C   UNL A   1      38.286  30.264  29.279  1.00  0.00     0.049 A 
ATOM     56  H   UNL A   1      39.859  31.549  29.794  1.00  0.00     0.167 HD
ATOM     57  C   UNL A   1      43.334  34.105  30.023  1.00  0.00     0.031 A 
ATOM     58  C   UNL A   1      37.228  31.094  29.104  1.00  0.00     0.031 A 
ATOM     59  C   UNL A   1      42.828  34.109  31.378  1.00  0.00     0.049 A 
ATOM     60  C   UNL A   1      37.554  32.367  29.780  1.00  0.00     0.074 A 
ATOM     61  C   UNL A   1      43.219  33.538  32.574  1.00  0.00     0.029 A 
ATOM     62  N   UNL A   1      41.505  34.447  31.535  1.00  0.00    -0.354 N 
ATOM     63  N   UNL A   1      37.649  32.486  31.072  1.00  0.00    -0.248 NA
ATOM     64  C   UNL A   1      38.195  33.416  29.006  1.00  0.00     0.031 C 
ATOM     65  C   UNL A   1      42.003  33.139  33.206  1.00  0.00     0.029 A 
ATOM     66  C   UNL A   1      40.936  33.566  32.413  1.00  0.00     0.049 A 
ATOM     67  H   UNL A   1      41.045  35.195  31.091  1.00  0.00     0.167 HD
ATOM     68  C   UNL A   1      38.747  33.311  31.258  1.00  0.00     0.074 A 
ATOM     69  C   UNL A   1      38.959  33.953  29.961  1.00  0.00     0.031 C 
ATOM     70  C   UNL A   1      39.548  33.164  32.354  1.00  0.00     0.031 A 
BRANCH  57  71
ATOM     71  C   UNL A   1      43.152  35.304  29.118  1.00  0.00    -0.014 A 
ATOM     72  C   UNL A   1      41.955  35.408  28.385  1.00  0.00     0.009 A 
ATOM     73  C   UNL A   1      44.213  36.135  28.708  1.00  0.00     0.009 A 
ATOM     74  C   UNL A   1      41.867  36.208  27.241  1.00  0.00     0.001 A 
ATOM     75  C   UNL A   1      44.114  36.970  27.594  1.00  0.00     0.001 A 
ATOM     76  C   UNL A   1      42.952  36.979  26.838  1.00  0.00     0.000 A 
ENDBRANCH  57  71
BRANCH  58  77
ATOM     77  C   UNL A   1      36.050  30.971  28.218  1.00  0.00    -0.014 A 
ATOM     78  C   UNL A   1      35.738  29.738  27.615  1.00  0.00     0.009 A 
ATOM     79  C   UNL A   1      35.062  31.971  28.205  1.00  0.00     0.009 A 
ATOM     80  C   UNL A   1      34.465  29.495  27.083  1.00  0.00     0.001 A 
ATOM     81  C   UNL A   1      33.792  31.728  27.667  1.00  0.00     0.001 A 
ATOM     82  C   UNL A   1      33.486  30.484  27.126  1.00  0.00     0.000 A 
ENDBRANCH  58  77
BRANCH  70  83
ATOM     83  C   UNL A   1      39.037  32.329  33.502  1.00  0.00    -0.014 A 
ATOM     84  C   UNL A   1      39.406  30.992  33.728  1.00  0.00     0.009 A 
ATOM     85  C   UNL A   1      38.234  32.967  34.461  1.00  0.00     0.009 A 
ATOM     86  C   UNL A   1      38.950  30.306  34.861  1.00  0.00     0.001 A 
ATOM     87  C   UNL A   1      37.801  32.292  35.602  1.00  0.00     0.001 A 
ATOM     88  C   UNL A   1      38.151  30.959  35.799  1.00  0.00     0.000 A 
ENDBRANCH  70  83
ENDBRANCH  44  45
ENDBRANCH  36  39
ENDBRANCH  34  35
ENDBRANCH  33  34
ENDBRANCH   1  33
TORSDOF 15
ENDMDL
MODEL 2
REMARK VINA RESULT:     -12.8      2.546      3.717
REMARK SMILES Cc1c(-c2nn(-c3ccccc3)cc2/C=N/O)nnn1-c1ccc(C(=O)NCCCNC(=O)c2ccc(-c3c4nc(c(-c5ccccc5)c5ccc([nH]5)c(-c5ccccc5)c5nc(c(-c6ccccc6)c6ccc3[nH]6)C=C5)C=C4)cc2)cc1
REMARK SMILES IDX 28 1 27 2 25 3 26 4 24 6 21 7 22 8 83 9 23 10 82 11 20 12
REMARK SMILES IDX 1 13 2 14 3 15 18 16 19 17 4 18 5 19 14 20 6 21 13 22 15 23
REMARK SMILES IDX 16 24 17 25 7 27 8 28 12 29 9 30 11 31 10 32 29 33 30 34
REMARK SMILES IDX 31 35 32 36 33 38 34 39 35 40 81 41 36 42 80 43 37 44 38 45
REMARK SMILES IDX 39 46 74 47 40 48 79 49 73 50 75 51 41 52 78 53 72 54 71 55
REMARK SMILES IDX 42 57 64 58 49 59 63 60 50 61 53 62 62 63 76 64 51 65 52 66
REMARK SMILES IDX 61 68 77 69 54 70 43 71 44 72 48 73 45 74 47 75 46 76 65 77
REMARK SMILES IDX 66 78 70 79 67 80 69 81 68 82 55 83 56 84 60 85 57 86 59 87
REMARK SMILES IDX 58 88
REMARK H PARENT 27 5 17 26 31 37 75 56 53 67
REMARK Flexibility Score: inf
ROOT
ATOM      1  C   UNL A   1      38.158  21.191  25.366  1.00  0.00     0.118 C 
ENDROOT
BRANCH   1   2
ATOM      2  N   UNL A   1      37.222  20.124  25.051  1.00  0.00    -0.352 N 
ATOM      3  C   UNL A   1      35.852  20.068  24.986  1.00  0.00     0.251 C 
ATOM      4  O   UNL A   1      35.351  18.994  24.651  1.00  0.00    -0.269 OA
ATOM      5  H   UNL A   1      37.660  19.267  24.842  1.00  0.00     0.163 HD
BRANCH   3   6
ATOM      6  C   UNL A   1      34.958  21.236  25.245  1.00  0.00     0.039 A 
ATOM      7  C   UNL A   1      33.279  23.475  25.495  1.00  0.00     0.067 A 
ATOM      8  C   UNL A   1      33.061  22.561  24.462  1.00  0.00     0.029 A 
ATOM      9  C   UNL A   1      34.270  23.235  26.447  1.00  0.00     0.029 A 
ATOM     10  C   UNL A   1      33.921  21.467  24.324  1.00  0.00     0.016 A 
ATOM     11  C   UNL A   1      35.069  22.094  26.342  1.00  0.00     0.016 A 
BRANCH   7  12
ATOM     12  N   UNL A   1      32.474  24.628  25.593  1.00  0.00    -0.217 N 
ATOM     13  C   UNL A   1      33.425  26.062  23.713  1.00  0.00     0.069 C 
ATOM     14  C   UNL A   1      32.591  25.827  24.916  1.00  0.00     0.071 A 
ATOM     15  C   UNL A   1      31.684  26.639  25.566  1.00  0.00     0.137 A 
ATOM     16  N   UNL A   1      30.990  25.923  26.498  1.00  0.00    -0.128 NA
ATOM     17  N   UNL A   1      31.428  24.671  26.450  1.00  0.00    -0.061 NA
BRANCH  15  18
ATOM     18  C   UNL A   1      31.354  28.029  25.294  1.00  0.00     0.124 A 
ATOM     19  N   UNL A   1      30.448  28.367  24.370  1.00  0.00    -0.165 NA
ATOM     20  C   UNL A   1      31.925  29.153  25.933  1.00  0.00     0.044 A 
ATOM     21  N   UNL A   1      30.475  29.716  24.347  1.00  0.00    -0.240 N 
ATOM     22  C   UNL A   1      31.363  30.228  25.267  1.00  0.00     0.125 A 
BRANCH  20  23
ATOM     23  C   UNL A   1      32.864  29.253  27.022  1.00  0.00     0.166 C 
ATOM     24  N   UNL A   1      34.128  29.107  26.801  1.00  0.00    -0.097 NA
BRANCH  24  25
ATOM     25  O   UNL A   1      34.822  29.216  28.013  1.00  0.00    -0.411 OA
ATOM     26  H   UNL A   1      35.751  29.085  28.034  1.00  0.00     0.330 HD
ENDBRANCH  24  25
ENDBRANCH  20  23
BRANCH  21  27
ATOM     27  C   UNL A   1      29.670  30.434  23.433  1.00  0.00     0.065 A 
ATOM     28  C   UNL A   1      28.991  31.578  23.875  1.00  0.00     0.028 A 
ATOM     29  C   UNL A   1      29.530  30.000  22.109  1.00  0.00     0.028 A 
ATOM     30  C   UNL A   1      28.192  32.298  22.989  1.00  0.00     0.002 A 
ATOM     31  C   UNL A   1      28.686  30.699  21.242  1.00  0.00     0.002 A 
ATOM     32  C   UNL A   1      28.028  31.850  21.679  1.00  0.00     0.000 A 
ENDBRANCH  21  27
ENDBRANCH  15  18
ENDBRANCH   7  12
ENDBRANCH   3   6
ENDBRANCH   1   2
BRANCH   1  33
ATOM     33  C   UNL A   1      39.518  20.635  25.807  1.00  0.00     0.042 C 
BRANCH  33  34
ATOM     34  C   UNL A   1      40.339  21.667  26.564  1.00  0.00     0.118 C 
BRANCH  34  35
ATOM     35  N   UNL A   1      41.610  21.955  25.898  1.00  0.00    -0.352 N 
ATOM     36  C   UNL A   1      42.246  23.164  25.745  1.00  0.00     0.251 C 
ATOM     37  H   UNL A   1      42.071  21.178  25.507  1.00  0.00     0.163 HD
ATOM     38  O   UNL A   1      43.099  23.308  24.867  1.00  0.00    -0.269 OA
BRANCH  36  39
ATOM     39  C   UNL A   1      41.895  24.290  26.626  1.00  0.00     0.039 A 
ATOM     40  C   UNL A   1      42.514  24.439  27.869  1.00  0.00     0.014 A 
ATOM     41  C   UNL A   1      40.943  25.212  26.195  1.00  0.00     0.014 A 
ATOM     42  C   UNL A   1      42.232  25.571  28.627  1.00  0.00     0.010 A 
ATOM     43  C   UNL A   1      40.772  26.395  26.873  1.00  0.00     0.010 A 
ATOM     44  C   UNL A   1      41.385  26.566  28.107  1.00  0.00    -0.014 A 
BRANCH  44  45
ATOM     45  C   UNL A   1      41.279  27.860  28.775  1.00  0.00     0.031 A 
ATOM     46  C   UNL A   1      42.277  28.850  28.300  1.00  0.00     0.074 A 
ATOM     47  C   UNL A   1      40.281  28.220  29.611  1.00  0.00     0.049 A 
ATOM     48  N   UNL A   1      43.335  29.234  28.932  1.00  0.00    -0.248 NA
ATOM     49  C   UNL A   1      42.200  29.334  26.911  1.00  0.00     0.031 C 
ATOM     50  C   UNL A   1      39.073  27.465  29.958  1.00  0.00     0.029 A 
ATOM     51  N   UNL A   1      40.083  29.406  30.256  1.00  0.00    -0.354 N 
ATOM     52  C   UNL A   1      43.921  30.202  28.129  1.00  0.00     0.074 A 
ATOM     53  C   UNL A   1      43.315  30.065  26.829  1.00  0.00     0.031 C 
ATOM     54  C   UNL A   1      38.173  28.289  30.540  1.00  0.00     0.029 A 
ATOM     55  C   UNL A   1      38.799  29.579  30.764  1.00  0.00     0.049 A 
ATOM     56  H   UNL A   1      40.791  30.084  30.353  1.00  0.00     0.167 HD
ATOM     57  C   UNL A   1      44.611  31.232  28.693  1.00  0.00     0.031 A 
ATOM     58  C   UNL A   1      38.283  30.705  31.315  1.00  0.00     0.031 A 
ATOM     59  C   UNL A   1      44.919  30.963  30.080  1.00  0.00     0.049 A 
ATOM     60  C   UNL A   1      39.420  31.533  31.767  1.00  0.00     0.074 A 
ATOM     61  C   UNL A   1      45.565  29.952  30.764  1.00  0.00     0.029 A 
ATOM     62  N   UNL A   1      44.158  31.625  31.014  1.00  0.00    -0.354 N 
ATOM     63  N   UNL A   1      40.194  31.202  32.759  1.00  0.00    -0.248 NA
ATOM     64  C   UNL A   1      39.964  32.521  30.852  1.00  0.00     0.031 C 
ATOM     65  C   UNL A   1      44.803  29.769  31.958  1.00  0.00     0.029 A 
ATOM     66  C   UNL A   1      43.793  30.732  31.984  1.00  0.00     0.049 A 
ATOM     67  H   UNL A   1      43.915  32.579  30.990  1.00  0.00     0.167 HD
ATOM     68  C   UNL A   1      41.466  31.544  32.327  1.00  0.00     0.074 A 
ATOM     69  C   UNL A   1      41.249  32.465  31.212  1.00  0.00     0.031 C 
ATOM     70  C   UNL A   1      42.553  30.818  32.723  1.00  0.00     0.031 A 
BRANCH  57  71
ATOM     71  C   UNL A   1      44.540  32.651  28.169  1.00  0.00    -0.014 A 
ATOM     72  C   UNL A   1      43.449  33.449  28.561  1.00  0.00     0.009 A 
ATOM     73  C   UNL A   1      45.295  33.112  27.073  1.00  0.00     0.009 A 
ATOM     74  C   UNL A   1      43.069  34.577  27.825  1.00  0.00     0.001 A 
ATOM     75  C   UNL A   1      44.945  34.263  26.365  1.00  0.00     0.001 A 
ATOM     76  C   UNL A   1      43.810  34.975  26.718  1.00  0.00     0.000 A 
ENDBRANCH  57  71
BRANCH  58  77
ATOM     77  C   UNL A   1      36.903  31.239  31.287  1.00  0.00    -0.014 A 
ATOM     78  C   UNL A   1      36.289  31.688  32.471  1.00  0.00     0.009 A 
ATOM     79  C   UNL A   1      36.303  31.594  30.067  1.00  0.00     0.009 A 
ATOM     80  C   UNL A   1      35.160  32.516  32.431  1.00  0.00     0.001 A 
ATOM     81  C   UNL A   1      35.170  32.417  30.029  1.00  0.00     0.001 A 
ATOM     82  C   UNL A   1      34.612  32.895  31.210  1.00  0.00     0.000 A 
ENDBRANCH  58  77
BRANCH  70  83
ATOM     83  C   UNL A   1      42.388  29.863  33.880  1.00  0.00    -0.014 A 
ATOM     84  C   UNL A   1      42.566  30.222  35.227  1.00  0.00     0.009 A 
ATOM     85  C   UNL A   1      41.917  28.572  33.594  1.00  0.00     0.009 A 
ATOM     86  C   UNL A   1      42.318  29.300  36.252  1.00  0.00     0.001 A 
ATOM     87  C   UNL A   1      41.646  27.662  34.615  1.00  0.00     0.001 A 
ATOM     88  C   UNL A   1      41.854  28.022  35.944  1.00  0.00     0.000 A 
ENDBRANCH  70  83
ENDBRANCH  44  45
ENDBRANCH  36  39
ENDBRANCH  34  35
ENDBRANCH  33  34
ENDBRANCH   1  33
TORSDOF 15
ENDMDL
MODEL 3
REMARK VINA RESULT:     -12.7      3.264      9.141
REMARK SMILES Cc1c(-c2nn(-c3ccccc3)cc2/C=N/O)nnn1-c1ccc(C(=O)NCCCNC(=O)c2ccc(-c3c4nc(c(-c5ccccc5)c5ccc([nH]5)c(-c5ccccc5)c5nc(c(-c6ccccc6)c6ccc3[nH]6)C=C5)C=C4)cc2)cc1
REMARK SMILES IDX 28 1 27 2 25 3 26 4 24 6 21 7 22 8 83 9 23 10 82 11 20 12
REMARK SMILES IDX 1 13 2 14 3 15 18 16 19 17 4 18 5 19 14 20 6 21 13 22 15 23
REMARK SMILES IDX 16 24 17 25 7 27 8 28 12 29 9 30 11 31 10 32 29 33 30 34
REMARK SMILES IDX 31 35 32 36 33 38 34 39 35 40 81 41 36 42 80 43 37 44 38 45
REMARK SMILES IDX 39 46 74 47 40 48 79 49 73 50 75 51 41 52 78 53 72 54 71 55
REMARK SMILES IDX 42 57 64 58 49 59 63 60 50 61 53 62 62 63 76 64 51 65 52 66
REMARK SMILES IDX 61 68 77 69 54 70 43 71 44 72 48 73 45 74 47 75 46 76 65 77
REMARK SMILES IDX 66 78 70 79 67 80 69 81 68 82 55 83 56 84 60 85 57 86 59 87
REMARK SMILES IDX 58 88
REMARK H PARENT 27 5 17 26 31 37 75 56 53 67
REMARK Flexibility Score: inf
ROOT
ATOM      1  C   UNL A   1      32.309  30.706  26.919  1.00  0.00     0.118 C 
ENDROOT
BRANCH   1   2
ATOM      2  N   UNL A   1      31.331  30.910  25.862  1.00  0.00    -0.352 N 
ATOM      3  C   UNL A   1      30.994  30.186  24.745  1.00  0.00     0.251 C 
ATOM      4  O   UNL A   1      30.076  30.625  24.051  1.00  0.00    -0.269 OA
ATOM      5  H   UNL A   1      30.803  31.734  25.969  1.00  0.00     0.163 HD
BRANCH   3   6
ATOM      6  C   UNL A   1      31.636  28.892  24.366  1.00  0.00     0.039 A 
ATOM      7  C   UNL A   1      32.696  26.350  23.811  1.00  0.00     0.067 A 
ATOM      8  C   UNL A   1      31.314  26.510  23.932  1.00  0.00     0.029 A 
ATOM      9  C   UNL A   1      33.541  27.459  23.883  1.00  0.00     0.029 A 
ATOM     10  C   UNL A   1      30.796  27.771  24.241  1.00  0.00     0.016 A 
ATOM     11  C   UNL A   1      33.000  28.726  24.111  1.00  0.00     0.016 A 
BRANCH   7  12
ATOM     12  N   UNL A   1      33.237  25.068  23.587  1.00  0.00    -0.217 N 
ATOM     13  C   UNL A   1      32.795  23.940  25.829  1.00  0.00     0.069 C 
ATOM     14  C   UNL A   1      33.412  24.031  24.484  1.00  0.00     0.071 A 
ATOM     15  C   UNL A   1      34.170  23.127  23.768  1.00  0.00     0.137 A 
ATOM     16  N   UNL A   1      34.334  23.558  22.484  1.00  0.00    -0.128 NA
ATOM     17  N   UNL A   1      33.689  24.712  22.362  1.00  0.00    -0.061 NA
BRANCH  15  18
ATOM     18  C   UNL A   1      34.667  21.826  24.190  1.00  0.00     0.124 A 
ATOM     19  N   UNL A   1      33.899  20.733  24.140  1.00  0.00    -0.165 NA
ATOM     20  C   UNL A   1      35.961  21.560  24.691  1.00  0.00     0.044 A 
ATOM     21  N   UNL A   1      34.662  19.758  24.677  1.00  0.00    -0.240 N 
ATOM     22  C   UNL A   1      35.909  20.221  25.034  1.00  0.00     0.125 A 
BRANCH  20  23
ATOM     23  C   UNL A   1      37.116  22.408  24.839  1.00  0.00     0.166 C 
ATOM     24  N   UNL A   1      37.998  22.148  25.746  1.00  0.00    -0.097 NA
BRANCH  24  25
ATOM     25  O   UNL A   1      39.000  23.126  25.710  1.00  0.00    -0.411 OA
ATOM     26  H   UNL A   1      39.259  23.561  26.499  1.00  0.00     0.330 HD
ENDBRANCH  24  25
ENDBRANCH  20  23
BRANCH  21  27
ATOM     27  C   UNL A   1      34.146  18.452  24.840  1.00  0.00     0.065 A 
ATOM     28  C   UNL A   1      34.907  17.360  24.399  1.00  0.00     0.028 A 
ATOM     29  C   UNL A   1      32.884  18.246  25.411  1.00  0.00     0.028 A 
ATOM     30  C   UNL A   1      34.416  16.064  24.550  1.00  0.00     0.002 A 
ATOM     31  C   UNL A   1      32.379  16.947  25.511  1.00  0.00     0.002 A 
ATOM     32  C   UNL A   1      33.147  15.860  25.091  1.00  0.00     0.000 A 
ENDBRANCH  21  27
ENDBRANCH  15  18
ENDBRANCH   7  12
ENDBRANCH   3   6
ENDBRANCH   1   2
BRANCH   1  33
ATOM     33  C   UNL A   1      32.957  32.030  27.348  1.00  0.00     0.042 C 
BRANCH  33  34
ATOM     34  C   UNL A   1      34.332  31.819  27.963  1.00  0.00     0.118 C 
BRANCH  34  35
ATOM     35  N   UNL A   1      34.428  32.395  29.304  1.00  0.00    -0.352 N 
ATOM     36  C   UNL A   1      35.253  32.027  30.341  1.00  0.00     0.251 C 
ATOM     37  H   UNL A   1      33.821  33.148  29.489  1.00  0.00     0.163 HD
ATOM     38  O   UNL A   1      34.974  32.348  31.498  1.00  0.00    -0.269 OA
BRANCH  36  39
ATOM     39  C   UNL A   1      36.464  31.237  30.065  1.00  0.00     0.039 A 
ATOM     40  C   UNL A   1      37.687  31.869  29.832  1.00  0.00     0.014 A 
ATOM     41  C   UNL A   1      36.373  29.846  30.052  1.00  0.00     0.014 A 
ATOM     42  C   UNL A   1      38.827  31.087  29.678  1.00  0.00     0.010 A 
ATOM     43  C   UNL A   1      37.514  29.080  30.042  1.00  0.00     0.010 A 
ATOM     44  C   UNL A   1      38.741  29.691  29.820  1.00  0.00    -0.014 A 
BRANCH  44  45
ATOM     45  C   UNL A   1      39.956  28.887  29.909  1.00  0.00     0.031 A 
ATOM     46  C   UNL A   1      40.469  28.748  31.294  1.00  0.00     0.074 A 
ATOM     47  C   UNL A   1      40.490  28.175  28.892  1.00  0.00     0.049 A 
ATOM     48  N   UNL A   1      41.495  29.351  31.794  1.00  0.00    -0.248 NA
ATOM     49  C   UNL A   1      39.667  28.010  32.284  1.00  0.00     0.031 C 
ATOM     50  C   UNL A   1      39.949  27.977  27.543  1.00  0.00     0.029 A 
ATOM     51  N   UNL A   1      41.598  27.379  28.887  1.00  0.00    -0.354 N 
ATOM     52  C   UNL A   1      41.619  28.869  33.089  1.00  0.00     0.074 A 
ATOM     53  C   UNL A   1      40.365  28.230  33.401  1.00  0.00     0.031 C 
ATOM     54  C   UNL A   1      40.587  26.945  26.946  1.00  0.00     0.029 A 
ATOM     55  C   UNL A   1      41.687  26.524  27.793  1.00  0.00     0.049 A 
ATOM     56  H   UNL A   1      42.277  27.408  29.599  1.00  0.00     0.167 HD
ATOM     57  C   UNL A   1      42.849  28.757  33.663  1.00  0.00     0.031 A 
ATOM     58  C   UNL A   1      42.592  25.531  27.603  1.00  0.00     0.031 A 
ATOM     59  C   UNL A   1      43.845  29.501  32.922  1.00  0.00     0.049 A 
ATOM     60  C   UNL A   1      43.760  25.833  28.457  1.00  0.00     0.074 A 
ATOM     61  C   UNL A   1      43.985  30.812  32.510  1.00  0.00     0.029 A 
ATOM     62  N   UNL A   1      44.699  28.764  32.137  1.00  0.00    -0.354 N 
ATOM     63  N   UNL A   1      44.562  26.833  28.240  1.00  0.00    -0.248 NA
ATOM     64  C   UNL A   1      43.796  25.280  29.799  1.00  0.00     0.031 C 
ATOM     65  C   UNL A   1      44.553  30.728  31.202  1.00  0.00     0.029 A 
ATOM     66  C   UNL A   1      44.812  29.385  30.924  1.00  0.00     0.049 A 
ATOM     67  H   UNL A   1      45.151  27.931  32.402  1.00  0.00     0.167 HD
ATOM     68  C   UNL A   1      44.822  27.342  29.503  1.00  0.00     0.074 A 
ATOM     69  C   UNL A   1      44.434  26.274  30.424  1.00  0.00     0.031 C 
ATOM     70  C   UNL A   1      45.041  28.677  29.683  1.00  0.00     0.031 A 
BRANCH  57  71
ATOM     71  C   UNL A   1      43.241  27.590  34.543  1.00  0.00    -0.014 A 
ATOM     72  C   UNL A   1      43.966  27.860  35.720  1.00  0.00     0.009 A 
ATOM     73  C   UNL A   1      43.225  26.250  34.109  1.00  0.00     0.009 A 
ATOM     74  C   UNL A   1      44.723  26.869  36.353  1.00  0.00     0.001 A 
ATOM     75  C   UNL A   1      43.942  25.249  34.766  1.00  0.00     0.001 A 
ATOM     76  C   UNL A   1      44.721  25.566  35.867  1.00  0.00     0.000 A 
ENDBRANCH  57  71
BRANCH  58  77
ATOM     77  C   UNL A   1      42.451  24.225  26.922  1.00  0.00    -0.014 A 
ATOM     78  C   UNL A   1      43.085  23.994  25.687  1.00  0.00     0.009 A 
ATOM     79  C   UNL A   1      41.957  23.109  27.619  1.00  0.00     0.009 A 
ATOM     80  C   UNL A   1      43.277  22.693  25.205  1.00  0.00     0.001 A 
ATOM     81  C   UNL A   1      42.143  21.809  27.132  1.00  0.00     0.001 A 
ATOM     82  C   UNL A   1      42.822  21.600  25.937  1.00  0.00     0.000 A 
ENDBRANCH  58  77
BRANCH  70  83
ATOM     83  C   UNL A   1      45.324  29.522  28.465  1.00  0.00    -0.014 A 
ATOM     84  C   UNL A   1      44.336  30.202  27.733  1.00  0.00     0.009 A 
ATOM     85  C   UNL A   1      46.668  29.729  28.116  1.00  0.00     0.009 A 
ATOM     86  C   UNL A   1      44.684  31.032  26.659  1.00  0.00     0.001 A 
ATOM     87  C   UNL A   1      47.017  30.574  27.063  1.00  0.00     0.001 A 
ATOM     88  C   UNL A   1      46.025  31.219  26.329  1.00  0.00     0.000 A 
ENDBRANCH  70  83
ENDBRANCH  44  45
ENDBRANCH  36  39
ENDBRANCH  34  35
ENDBRANCH  33  34
ENDBRANCH   1  33
TORSDOF 15
ENDMDL
