MODEL 1
REMARK VINA RESULT:     -11.9      0.000      0.000
REMARK SMILES C[C@H](C(=O)NCCCNC(=O)c1ccc(-c2c3nc(c(-c4ccccc4)c4ccc([nH]4)c(-c4ccccc4)c4nc(c(-c5ccccc5)c5ccc2[nH]5)C=C4)C=C3)cc1)N1C(=O)C[C@](C)(c2ccccc2)C1=O
REMARK SMILES IDX 7 1 6 2 5 3 3 4 4 5 2 7 1 8 60 9 61 10 72 11 62 12 63 13
REMARK SMILES IDX 64 14 73 15 65 16 66 17 67 18 71 19 68 20 70 21 69 22 8 23
REMARK SMILES IDX 9 24 10 25 11 27 12 28 13 29 59 30 14 31 58 32 15 33 16 34
REMARK SMILES IDX 17 35 52 36 18 37 57 38 51 39 53 40 19 41 56 42 50 43 49 44
REMARK SMILES IDX 20 46 42 47 27 48 41 49 28 50 31 51 40 52 54 53 29 54 30 55
REMARK SMILES IDX 39 57 55 58 32 59 21 60 22 61 26 62 23 63 25 64 24 65 43 66
REMARK SMILES IDX 44 67 48 68 45 69 47 70 46 71 33 72 34 73 38 74 35 75 37 76
REMARK SMILES IDX 36 77
REMARK H PARENT 5 6 9 26 53 45 31 56
REMARK Flexibility Score: inf
ROOT
ATOM      1  C   UNL A   1      37.345  21.090  24.615  1.00  0.00     0.042 C 
ENDROOT
BRANCH   1   2
ATOM      2  C   UNL A   1      35.967  21.587  25.013  1.00  0.00     0.117 C 
BRANCH   2   3
ATOM      3  N   UNL A   1      35.030  20.574  25.449  1.00  0.00    -0.354 N 
ATOM      4  C   UNL A   1      33.714  20.682  25.795  1.00  0.00     0.243 C 
ATOM      5  O   UNL A   1      33.073  19.623  25.705  1.00  0.00    -0.273 OA
ATOM      6  H   UNL A   1      35.399  19.664  25.504  1.00  0.00     0.163 HD
BRANCH   4   7
ATOM      7  C   UNL A   1      33.062  21.886  26.542  1.00  0.00     0.179 C 
ATOM      8  C   UNL A   1      34.059  22.161  27.695  1.00  0.00     0.042 C 
BRANCH   7   9
ATOM      9  N   UNL A   1      32.748  23.134  25.843  1.00  0.00    -0.269 N 
ATOM     10  C   UNL A   1      32.731  23.290  24.493  1.00  0.00     0.231 C 
ATOM     11  C   UNL A   1      31.840  24.042  26.324  1.00  0.00     0.240 C 
ATOM     12  O   UNL A   1      32.799  22.423  23.642  1.00  0.00    -0.274 OA
ATOM     13  C   UNL A   1      32.676  24.770  24.230  1.00  0.00     0.122 C 
ATOM     14  C   UNL A   1      31.755  25.232  25.362  1.00  0.00     0.081 C 
ATOM     15  O   UNL A   1      31.130  23.909  27.313  1.00  0.00    -0.273 OA
ATOM     16  C   UNL A   1      30.322  25.300  24.802  1.00  0.00     0.027 C 
BRANCH  14  17
ATOM     17  C   UNL A   1      32.236  26.505  26.070  1.00  0.00    -0.032 A 
ATOM     18  C   UNL A   1      33.568  26.943  25.999  1.00  0.00     0.005 A 
ATOM     19  C   UNL A   1      31.317  27.331  26.754  1.00  0.00     0.005 A 
ATOM     20  C   UNL A   1      33.956  28.173  26.545  1.00  0.00     0.000 A 
ATOM     21  C   UNL A   1      31.705  28.561  27.293  1.00  0.00     0.000 A 
ATOM     22  C   UNL A   1      33.023  28.986  27.180  1.00  0.00     0.000 A 
ENDBRANCH  14  17
ENDBRANCH   7   9
ENDBRANCH   4   7
ENDBRANCH   2   3
ENDBRANCH   1   2
BRANCH   1  23
ATOM     23  C   UNL A   1      38.404  21.129  25.703  1.00  0.00     0.118 C 
BRANCH  23  24
ATOM     24  N   UNL A   1      39.336  20.010  25.667  1.00  0.00    -0.352 N 
ATOM     25  C   UNL A   1      40.661  19.915  26.032  1.00  0.00     0.251 C 
ATOM     26  H   UNL A   1      38.951  19.173  25.321  1.00  0.00     0.163 HD
ATOM     27  O   UNL A   1      41.269  18.869  25.819  1.00  0.00    -0.269 OA
BRANCH  25  28
ATOM     28  C   UNL A   1      41.386  21.066  26.618  1.00  0.00     0.039 A 
ATOM     29  C   UNL A   1      41.996  21.983  25.755  1.00  0.00     0.014 A 
ATOM     30  C   UNL A   1      41.468  21.266  27.995  1.00  0.00     0.014 A 
ATOM     31  C   UNL A   1      42.566  23.154  26.266  1.00  0.00     0.010 A 
ATOM     32  C   UNL A   1      41.941  22.477  28.497  1.00  0.00     0.010 A 
ATOM     33  C   UNL A   1      42.474  23.446  27.635  1.00  0.00    -0.014 A 
BRANCH  33  34
ATOM     34  C   UNL A   1      42.866  24.774  28.177  1.00  0.00     0.031 A 
ATOM     35  C   UNL A   1      41.832  25.841  28.422  1.00  0.00     0.074 A 
ATOM     36  C   UNL A   1      44.175  25.056  28.353  1.00  0.00     0.049 A 
ATOM     37  N   UNL A   1      42.006  27.088  28.783  1.00  0.00    -0.248 NA
ATOM     38  C   UNL A   1      40.424  25.469  28.210  1.00  0.00     0.031 C 
ATOM     39  C   UNL A   1      45.284  24.129  28.108  1.00  0.00     0.029 A 
ATOM     40  N   UNL A   1      44.798  26.209  28.762  1.00  0.00    -0.354 N 
ATOM     41  C   UNL A   1      40.737  27.652  28.817  1.00  0.00     0.074 A 
ATOM     42  C   UNL A   1      39.804  26.625  28.408  1.00  0.00     0.031 C 
ATOM     43  C   UNL A   1      46.444  24.743  28.389  1.00  0.00     0.029 A 
ATOM     44  C   UNL A   1      46.171  26.120  28.780  1.00  0.00     0.049 A 
ATOM     45  H   UNL A   1      44.308  27.025  29.018  1.00  0.00     0.167 HD
ATOM     46  C   UNL A   1      40.379  28.910  29.172  1.00  0.00     0.031 A 
ATOM     47  C   UNL A   1      47.109  27.047  29.056  1.00  0.00     0.031 A 
ATOM     48  C   UNL A   1      41.302  29.925  29.604  1.00  0.00     0.049 A 
ATOM     49  C   UNL A   1      46.679  28.441  29.420  1.00  0.00     0.074 A 
ATOM     50  C   UNL A   1      41.021  31.198  30.069  1.00  0.00     0.029 A 
ATOM     51  N   UNL A   1      42.680  29.790  29.616  1.00  0.00    -0.354 N 
ATOM     52  N   UNL A   1      45.467  28.926  29.543  1.00  0.00    -0.248 NA
ATOM     53  C   UNL A   1      47.747  29.417  29.683  1.00  0.00     0.031 C 
ATOM     54  C   UNL A   1      42.232  31.857  30.300  1.00  0.00     0.029 A 
ATOM     55  C   UNL A   1      43.264  30.973  30.034  1.00  0.00     0.049 A 
ATOM     56  H   UNL A   1      43.171  28.974  29.363  1.00  0.00     0.167 HD
ATOM     57  C   UNL A   1      45.628  30.254  29.915  1.00  0.00     0.074 A 
ATOM     58  C   UNL A   1      47.053  30.492  30.024  1.00  0.00     0.031 C 
ATOM     59  C   UNL A   1      44.682  31.196  30.137  1.00  0.00     0.031 A 
BRANCH  46  60
ATOM     60  C   UNL A   1      38.924  29.277  29.107  1.00  0.00    -0.014 A 
ATOM     61  C   UNL A   1      38.338  29.727  27.914  1.00  0.00     0.009 A 
ATOM     62  C   UNL A   1      38.108  29.078  30.232  1.00  0.00     0.009 A 
ATOM     63  C   UNL A   1      36.967  29.985  27.854  1.00  0.00     0.001 A 
ATOM     64  C   UNL A   1      36.734  29.313  30.162  1.00  0.00     0.001 A 
ATOM     65  C   UNL A   1      36.165  29.768  28.975  1.00  0.00     0.000 A 
ENDBRANCH  46  60
BRANCH  47  66
ATOM     66  C   UNL A   1      48.555  26.708  28.970  1.00  0.00    -0.014 A 
ATOM     67  C   UNL A   1      49.254  26.852  27.761  1.00  0.00     0.009 A 
ATOM     68  C   UNL A   1      49.235  26.192  30.087  1.00  0.00     0.009 A 
ATOM     69  C   UNL A   1      50.588  26.450  27.661  1.00  0.00     0.001 A 
ATOM     70  C   UNL A   1      50.578  25.823  29.992  1.00  0.00     0.001 A 
ATOM     71  C   UNL A   1      51.249  25.938  28.777  1.00  0.00     0.000 A 
ENDBRANCH  47  66
BRANCH  59  72
ATOM     72  C   UNL A   1      45.152  32.566  30.535  1.00  0.00    -0.014 A 
ATOM     73  C   UNL A   1      45.379  32.890  31.882  1.00  0.00     0.009 A 
ATOM     74  C   UNL A   1      45.416  33.527  29.548  1.00  0.00     0.009 A 
ATOM     75  C   UNL A   1      45.835  34.161  32.233  1.00  0.00     0.001 A 
ATOM     76  C   UNL A   1      45.901  34.788  29.901  1.00  0.00     0.001 A 
ATOM     77  C   UNL A   1      46.102  35.106  31.242  1.00  0.00     0.000 A 
ENDBRANCH  59  72
ENDBRANCH  33  34
ENDBRANCH  25  28
ENDBRANCH  23  24
ENDBRANCH   1  23
TORSDOF 12
ENDMDL
MODEL 2
REMARK VINA RESULT:     -11.8      1.838      7.408
REMARK SMILES C[C@H](C(=O)NCCCNC(=O)c1ccc(-c2c3nc(c(-c4ccccc4)c4ccc([nH]4)c(-c4ccccc4)c4nc(c(-c5ccccc5)c5ccc2[nH]5)C=C4)C=C3)cc1)N1C(=O)C[C@](C)(c2ccccc2)C1=O
REMARK SMILES IDX 7 1 6 2 5 3 3 4 4 5 2 7 1 8 60 9 61 10 72 11 62 12 63 13
REMARK SMILES IDX 64 14 73 15 65 16 66 17 67 18 71 19 68 20 70 21 69 22 8 23
REMARK SMILES IDX 9 24 10 25 11 27 12 28 13 29 59 30 14 31 58 32 15 33 16 34
REMARK SMILES IDX 17 35 52 36 18 37 57 38 51 39 53 40 19 41 56 42 50 43 49 44
REMARK SMILES IDX 20 46 42 47 27 48 41 49 28 50 31 51 40 52 54 53 29 54 30 55
REMARK SMILES IDX 39 57 55 58 32 59 21 60 22 61 26 62 23 63 25 64 24 65 43 66
REMARK SMILES IDX 44 67 48 68 45 69 47 70 46 71 33 72 34 73 38 74 35 75 37 76
REMARK SMILES IDX 36 77
REMARK H PARENT 5 6 9 26 53 45 31 56
REMARK Flexibility Score: inf
ROOT
ATOM      1  C   UNL A   1      32.192  28.811  27.319  1.00  0.00     0.042 C 
ENDROOT
BRANCH   1   2
ATOM      2  C   UNL A   1      32.125  27.376  26.831  1.00  0.00     0.117 C 
BRANCH   2   3
ATOM      3  N   UNL A   1      31.060  27.074  25.899  1.00  0.00    -0.354 N 
ATOM      4  C   UNL A   1      30.822  25.944  25.169  1.00  0.00     0.243 C 
ATOM      5  O   UNL A   1      29.642  25.809  24.807  1.00  0.00    -0.273 OA
ATOM      6  H   UNL A   1      30.404  27.796  25.770  1.00  0.00     0.163 HD
BRANCH   4   7
ATOM      7  C   UNL A   1      31.907  25.024  24.532  1.00  0.00     0.179 C 
ATOM      8  C   UNL A   1      32.856  26.032  23.837  1.00  0.00     0.042 C 
BRANCH   7   9
ATOM      9  N   UNL A   1      32.682  24.086  25.348  1.00  0.00    -0.269 N 
ATOM     10  C   UNL A   1      32.382  23.730  26.625  1.00  0.00     0.231 C 
ATOM     11  C   UNL A   1      33.334  23.004  24.813  1.00  0.00     0.240 C 
ATOM     12  O   UNL A   1      31.366  23.973  27.247  1.00  0.00    -0.274 OA
ATOM     13  C   UNL A   1      33.590  23.017  27.168  1.00  0.00     0.122 C 
ATOM     14  C   UNL A   1      34.051  22.241  25.932  1.00  0.00     0.081 C 
ATOM     15  O   UNL A   1      33.293  22.633  23.647  1.00  0.00    -0.273 OA
ATOM     16  C   UNL A   1      33.449  20.826  26.014  1.00  0.00     0.027 C 
BRANCH  14  17
ATOM     17  C   UNL A   1      35.567  22.289  25.701  1.00  0.00    -0.032 A 
ATOM     18  C   UNL A   1      36.339  23.415  26.029  1.00  0.00     0.005 A 
ATOM     19  C   UNL A   1      36.252  21.149  25.224  1.00  0.00     0.005 A 
ATOM     20  C   UNL A   1      37.735  23.389  25.930  1.00  0.00     0.000 A 
ATOM     21  C   UNL A   1      37.646  21.124  25.131  1.00  0.00     0.000 A 
ATOM     22  C   UNL A   1      38.388  22.241  25.493  1.00  0.00     0.000 A 
ENDBRANCH  14  17
ENDBRANCH   7   9
ENDBRANCH   4   7
ENDBRANCH   2   3
ENDBRANCH   1   2
BRANCH   1  23
ATOM     23  C   UNL A   1      33.472  29.563  26.993  1.00  0.00     0.118 C 
BRANCH  23  24
ATOM     24  N   UNL A   1      33.662  30.780  27.771  1.00  0.00    -0.352 N 
ATOM     25  C   UNL A   1      34.712  31.208  28.552  1.00  0.00     0.251 C 
ATOM     26  H   UNL A   1      32.905  31.408  27.730  1.00  0.00     0.163 HD
ATOM     27  O   UNL A   1      34.598  32.250  29.193  1.00  0.00    -0.269 OA
BRANCH  25  28
ATOM     28  C   UNL A   1      35.952  30.408  28.687  1.00  0.00     0.039 A 
ATOM     29  C   UNL A   1      36.862  30.401  27.624  1.00  0.00     0.014 A 
ATOM     30  C   UNL A   1      36.240  29.676  29.837  1.00  0.00     0.014 A 
ATOM     31  C   UNL A   1      38.104  29.774  27.770  1.00  0.00     0.010 A 
ATOM     32  C   UNL A   1      37.514  29.142  30.024  1.00  0.00     0.010 A 
ATOM     33  C   UNL A   1      38.469  29.206  29.000  1.00  0.00    -0.014 A 
BRANCH  33  34
ATOM     34  C   UNL A   1      39.856  28.734  29.259  1.00  0.00     0.031 A 
ATOM     35  C   UNL A   1      40.887  29.660  29.848  1.00  0.00     0.074 A 
ATOM     36  C   UNL A   1      40.215  27.492  28.867  1.00  0.00     0.049 A 
ATOM     37  N   UNL A   1      42.166  29.454  30.037  1.00  0.00    -0.248 NA
ATOM     38  C   UNL A   1      40.430  30.999  30.252  1.00  0.00     0.031 C 
ATOM     39  C   UNL A   1      39.328  26.510  28.240  1.00  0.00     0.029 A 
ATOM     40  N   UNL A   1      41.428  26.851  28.919  1.00  0.00    -0.354 N 
ATOM     41  C   UNL A   1      42.668  30.640  30.558  1.00  0.00     0.074 A 
ATOM     42  C   UNL A   1      41.566  31.574  30.624  1.00  0.00     0.031 C 
ATOM     43  C   UNL A   1      40.019  25.387  27.985  1.00  0.00     0.029 A 
ATOM     44  C   UNL A   1      41.409  25.586  28.378  1.00  0.00     0.049 A 
ATOM     45  H   UNL A   1      42.237  27.257  29.309  1.00  0.00     0.167 HD
ATOM     46  C   UNL A   1      43.932  30.921  30.958  1.00  0.00     0.031 A 
ATOM     47  C   UNL A   1      42.400  24.693  28.194  1.00  0.00     0.031 A 
ATOM     48  C   UNL A   1      45.023  29.985  30.917  1.00  0.00     0.049 A 
ATOM     49  C   UNL A   1      43.797  25.047  28.625  1.00  0.00     0.074 A 
ATOM     50  C   UNL A   1      46.315  30.152  31.386  1.00  0.00     0.029 A 
ATOM     51  N   UNL A   1      44.957  28.715  30.369  1.00  0.00    -0.354 N 
ATOM     52  N   UNL A   1      44.229  26.138  29.207  1.00  0.00    -0.248 NA
ATOM     53  C   UNL A   1      44.843  24.044  28.371  1.00  0.00     0.031 C 
ATOM     54  C   UNL A   1      47.049  29.009  31.063  1.00  0.00     0.029 A 
ATOM     55  C   UNL A   1      46.199  28.107  30.446  1.00  0.00     0.049 A 
ATOM     56  H   UNL A   1      44.149  28.306  29.983  1.00  0.00     0.167 HD
ATOM     57  C   UNL A   1      45.590  25.946  29.406  1.00  0.00     0.074 A 
ATOM     58  C   UNL A   1      45.906  24.623  28.908  1.00  0.00     0.031 C 
ATOM     59  C   UNL A   1      46.499  26.792  29.946  1.00  0.00     0.031 A 
BRANCH  46  60
ATOM     60  C   UNL A   1      44.219  32.301  31.475  1.00  0.00    -0.014 A 
ATOM     61  C   UNL A   1      44.126  32.601  32.843  1.00  0.00     0.009 A 
ATOM     62  C   UNL A   1      44.682  33.290  30.592  1.00  0.00     0.009 A 
ATOM     63  C   UNL A   1      44.477  33.868  33.313  1.00  0.00     0.001 A 
ATOM     64  C   UNL A   1      45.056  34.548  31.069  1.00  0.00     0.001 A 
ATOM     65  C   UNL A   1      44.950  34.837  32.428  1.00  0.00     0.000 A 
ENDBRANCH  46  60
BRANCH  47  66
ATOM     66  C   UNL A   1      42.127  23.384  27.541  1.00  0.00    -0.014 A 
ATOM     67  C   UNL A   1      41.604  22.311  28.279  1.00  0.00     0.009 A 
ATOM     68  C   UNL A   1      42.434  23.186  26.184  1.00  0.00     0.009 A 
ATOM     69  C   UNL A   1      41.432  21.058  27.684  1.00  0.00     0.001 A 
ATOM     70  C   UNL A   1      42.228  21.942  25.584  1.00  0.00     0.001 A 
ATOM     71  C   UNL A   1      41.742  20.876  26.337  1.00  0.00     0.000 A 
ENDBRANCH  47  66
BRANCH  59  72
ATOM     72  C   UNL A   1      47.919  26.310  30.039  1.00  0.00    -0.014 A 
ATOM     73  C   UNL A   1      48.405  25.717  31.215  1.00  0.00     0.009 A 
ATOM     74  C   UNL A   1      48.764  26.407  28.924  1.00  0.00     0.009 A 
ATOM     75  C   UNL A   1      49.721  25.257  31.279  1.00  0.00     0.001 A 
ATOM     76  C   UNL A   1      50.071  25.918  28.982  1.00  0.00     0.001 A 
ATOM     77  C   UNL A   1      50.549  25.351  30.161  1.00  0.00     0.000 A 
ENDBRANCH  59  72
ENDBRANCH  33  34
ENDBRANCH  25  28
ENDBRANCH  23  24
ENDBRANCH   1  23
TORSDOF 12
ENDMDL
MODEL 3
REMARK VINA RESULT:     -11.8      3.904      8.815
REMARK SMILES C[C@H](C(=O)NCCCNC(=O)c1ccc(-c2c3nc(c(-c4ccccc4)c4ccc([nH]4)c(-c4ccccc4)c4nc(c(-c5ccccc5)c5ccc2[nH]5)C=C4)C=C3)cc1)N1C(=O)C[C@](C)(c2ccccc2)C1=O
REMARK SMILES IDX 7 1 6 2 5 3 3 4 4 5 2 7 1 8 60 9 61 10 72 11 62 12 63 13
REMARK SMILES IDX 64 14 73 15 65 16 66 17 67 18 71 19 68 20 70 21 69 22 8 23
REMARK SMILES IDX 9 24 10 25 11 27 12 28 13 29 59 30 14 31 58 32 15 33 16 34
REMARK SMILES IDX 17 35 52 36 18 37 57 38 51 39 53 40 19 41 56 42 50 43 49 44
REMARK SMILES IDX 20 46 42 47 27 48 41 49 28 50 31 51 40 52 54 53 29 54 30 55
REMARK SMILES IDX 39 57 55 58 32 59 21 60 22 61 26 62 23 63 25 64 24 65 43 66
REMARK SMILES IDX 44 67 48 68 45 69 47 70 46 71 33 72 34 73 38 74 35 75 37 76
REMARK SMILES IDX 36 77
REMARK H PARENT 5 6 9 26 53 45 31 56
REMARK Flexibility Score: inf
ROOT
ATOM      1  C   UNL A   1      31.766  30.403  26.606  1.00  0.00     0.042 C 
ENDROOT
BRANCH   1   2
ATOM      2  C   UNL A   1      32.086  29.422  25.492  1.00  0.00     0.117 C 
BRANCH   2   3
ATOM      3  N   UNL A   1      31.532  29.737  24.193  1.00  0.00    -0.354 N 
ATOM      4  C   UNL A   1      31.435  28.971  23.067  1.00  0.00     0.243 C 
ATOM      5  O   UNL A   1      30.553  29.337  22.274  1.00  0.00    -0.273 OA
ATOM      6  H   UNL A   1      31.168  30.647  24.107  1.00  0.00     0.163 HD
BRANCH   4   7
ATOM      7  C   UNL A   1      32.483  27.921  22.585  1.00  0.00     0.179 C 
ATOM      8  C   UNL A   1      33.823  28.689  22.698  1.00  0.00     0.042 C 
BRANCH   7   9
ATOM      9  N   UNL A   1      32.599  26.611  23.229  1.00  0.00    -0.269 N 
ATOM     10  C   UNL A   1      31.668  26.061  24.052  1.00  0.00     0.231 C 
ATOM     11  C   UNL A   1      33.232  25.549  22.636  1.00  0.00     0.240 C 
ATOM     12  O   UNL A   1      30.536  26.453  24.265  1.00  0.00    -0.274 OA
ATOM     13  C   UNL A   1      32.326  24.886  24.722  1.00  0.00     0.122 C 
ATOM     14  C   UNL A   1      33.182  24.341  23.577  1.00  0.00     0.081 C 
ATOM     15  O   UNL A   1      33.691  25.516  21.502  1.00  0.00    -0.273 OA
ATOM     16  C   UNL A   1      32.383  23.221  22.885  1.00  0.00     0.027 C 
BRANCH  14  17
ATOM     17  C   UNL A   1      34.606  23.955  23.999  1.00  0.00    -0.032 A 
ATOM     18  C   UNL A   1      35.165  24.374  25.216  1.00  0.00     0.005 A 
ATOM     19  C   UNL A   1      35.376  23.083  23.198  1.00  0.00     0.005 A 
ATOM     20  C   UNL A   1      36.415  23.906  25.639  1.00  0.00     0.000 A 
ATOM     21  C   UNL A   1      36.621  22.612  23.624  1.00  0.00     0.000 A 
ATOM     22  C   UNL A   1      37.137  23.017  24.849  1.00  0.00     0.000 A 
ENDBRANCH  14  17
ENDBRANCH   7   9
ENDBRANCH   4   7
ENDBRANCH   2   3
ENDBRANCH   1   2
BRANCH   1  23
ATOM     23  C   UNL A   1      32.905  31.312  27.035  1.00  0.00     0.118 C 
BRANCH  23  24
ATOM     24  N   UNL A   1      32.496  32.678  27.335  1.00  0.00    -0.352 N 
ATOM     25  C   UNL A   1      33.098  33.668  28.079  1.00  0.00     0.251 C 
ATOM     26  H   UNL A   1      31.637  32.940  26.933  1.00  0.00     0.163 HD
ATOM     27  O   UNL A   1      32.504  34.727  28.263  1.00  0.00    -0.269 OA
BRANCH  25  28
ATOM     28  C   UNL A   1      34.421  33.461  28.715  1.00  0.00     0.039 A 
ATOM     29  C   UNL A   1      34.477  32.783  29.937  1.00  0.00     0.014 A 
ATOM     30  C   UNL A   1      35.602  33.911  28.128  1.00  0.00     0.014 A 
ATOM     31  C   UNL A   1      35.715  32.446  30.495  1.00  0.00     0.010 A 
ATOM     32  C   UNL A   1      36.833  33.487  28.626  1.00  0.00     0.010 A 
ATOM     33  C   UNL A   1      36.903  32.729  29.803  1.00  0.00    -0.014 A 
BRANCH  33  34
ATOM     34  C   UNL A   1      38.214  32.191  30.253  1.00  0.00     0.031 A 
ATOM     35  C   UNL A   1      38.742  30.891  29.705  1.00  0.00     0.074 A 
ATOM     36  C   UNL A   1      38.886  32.826  31.238  1.00  0.00     0.049 A 
ATOM     37  N   UNL A   1      39.807  30.219  30.064  1.00  0.00    -0.248 NA
ATOM     38  C   UNL A   1      37.961  30.250  28.636  1.00  0.00     0.031 C 
ATOM     39  C   UNL A   1      38.463  34.068  31.890  1.00  0.00     0.029 A 
ATOM     40  N   UNL A   1      40.058  32.504  31.876  1.00  0.00    -0.354 N 
ATOM     41  C   UNL A   1      39.809  29.069  29.284  1.00  0.00     0.074 A 
ATOM     42  C   UNL A   1      38.624  29.115  28.456  1.00  0.00     0.031 C 
ATOM     43  C   UNL A   1      39.370  34.411  32.819  1.00  0.00     0.029 A 
ATOM     44  C   UNL A   1      40.409  33.390  32.869  1.00  0.00     0.049 A 
ATOM     45  H   UNL A   1      40.599  31.713  31.645  1.00  0.00     0.167 HD
ATOM     46  C   UNL A   1      40.725  28.072  29.250  1.00  0.00     0.031 A 
ATOM     47  C   UNL A   1      41.436  33.373  33.741  1.00  0.00     0.031 A 
ATOM     48  C   UNL A   1      41.918  28.037  30.053  1.00  0.00     0.049 A 
ATOM     49  C   UNL A   1      42.420  32.236  33.694  1.00  0.00     0.074 A 
ATOM     50  C   UNL A   1      42.948  27.112  30.021  1.00  0.00     0.029 A 
ATOM     51  N   UNL A   1      42.237  28.956  31.038  1.00  0.00    -0.354 N 
ATOM     52  N   UNL A   1      42.457  31.210  32.880  1.00  0.00    -0.248 NA
ATOM     53  C   UNL A   1      43.503  32.256  34.689  1.00  0.00     0.031 C 
ATOM     54  C   UNL A   1      43.857  27.435  31.030  1.00  0.00     0.029 A 
ATOM     55  C   UNL A   1      43.424  28.593  31.652  1.00  0.00     0.049 A 
ATOM     56  H   UNL A   1      41.700  29.749  31.268  1.00  0.00     0.167 HD
ATOM     57  C   UNL A   1      43.575  30.475  33.252  1.00  0.00     0.074 A 
ATOM     58  C   UNL A   1      44.204  31.186  34.345  1.00  0.00     0.031 C 
ATOM     59  C   UNL A   1      44.036  29.310  32.739  1.00  0.00     0.031 A 
BRANCH  46  60
ATOM     60  C   UNL A   1      40.482  26.919  28.317  1.00  0.00    -0.014 A 
ATOM     61  C   UNL A   1      39.688  25.828  28.698  1.00  0.00     0.009 A 
ATOM     62  C   UNL A   1      40.978  26.975  27.005  1.00  0.00     0.009 A 
ATOM     63  C   UNL A   1      39.408  24.806  27.787  1.00  0.00     0.001 A 
ATOM     64  C   UNL A   1      40.676  25.965  26.089  1.00  0.00     0.001 A 
ATOM     65  C   UNL A   1      39.894  24.881  26.482  1.00  0.00     0.000 A 
ENDBRANCH  46  60
BRANCH  47  66
ATOM     66  C   UNL A   1      41.579  34.446  34.761  1.00  0.00    -0.014 A 
ATOM     67  C   UNL A   1      40.982  34.317  36.025  1.00  0.00     0.009 A 
ATOM     68  C   UNL A   1      42.275  35.628  34.460  1.00  0.00     0.009 A 
ATOM     69  C   UNL A   1      41.044  35.363  36.949  1.00  0.00     0.001 A 
ATOM     70  C   UNL A   1      42.365  36.659  35.398  1.00  0.00     0.001 A 
ATOM     71  C   UNL A   1      41.736  36.532  36.635  1.00  0.00     0.000 A 
ENDBRANCH  47  66
BRANCH  59  72
ATOM     72  C   UNL A   1      45.287  28.737  33.343  1.00  0.00    -0.014 A 
ATOM     73  C   UNL A   1      45.224  27.815  34.399  1.00  0.00     0.009 A 
ATOM     74  C   UNL A   1      46.540  29.089  32.819  1.00  0.00     0.009 A 
ATOM     75  C   UNL A   1      46.394  27.278  34.936  1.00  0.00     0.001 A 
ATOM     76  C   UNL A   1      47.707  28.527  33.338  1.00  0.00     0.001 A 
ATOM     77  C   UNL A   1      47.633  27.628  34.401  1.00  0.00     0.000 A 
ENDBRANCH  59  72
ENDBRANCH  33  34
ENDBRANCH  25  28
ENDBRANCH  23  24
ENDBRANCH   1  23
TORSDOF 12
ENDMDL
