MODEL 1
REMARK VINA RESULT:     -10.3      0.000      0.000
REMARK SMILES C[C@H](NC(=O)N(CC(=O)NCCCNC(=O)c1ccc(-c2c3nc(c(-c4ccccc4)c4ccc([nH]4)c(-c4ccccc4)c4nc(c(-c5ccccc5)c5ccc2[nH]5)C=C4)C=C3)cc1)CC(F)(F)F)[C@@H]1CCCO1
REMARK SMILES IDX 11 1 10 2 8 3 9 4 7 6 6 7 4 8 3 9 5 11 2 12 1 13 70 14 71 15
REMARK SMILES IDX 74 16 72 17 73 18 65 19 66 20 67 21 68 22 69 23 12 24 13 25
REMARK SMILES IDX 14 26 15 27 16 29 17 30 18 31 64 32 19 33 63 34 20 35 21 36
REMARK SMILES IDX 22 37 57 38 23 39 62 40 56 41 58 42 24 43 61 44 55 45 54 46
REMARK SMILES IDX 25 48 47 49 32 50 46 51 33 52 36 53 45 54 59 55 34 56 35 57
REMARK SMILES IDX 44 59 60 60 37 61 26 62 27 63 31 64 28 65 30 66 29 67 48 68
REMARK SMILES IDX 49 69 53 70 50 71 52 72 51 73 38 74 39 75 43 76 40 77 42 78
REMARK SMILES IDX 41 79
REMARK H PARENT 10 5 3 10 14 28 58 47 36 58
REMARK Flexibility Score: inf
ROOT
ATOM      1  C   UNL A   1      36.368  21.254  24.788  1.00  0.00     0.117 C 
ENDROOT
BRANCH   1   2
ATOM      2  N   UNL A   1      35.405  20.861  25.795  1.00  0.00    -0.354 N 
ATOM      3  C   UNL A   1      34.582  21.610  26.575  1.00  0.00     0.239 C 
ATOM      4  O   UNL A   1      33.859  21.016  27.380  1.00  0.00    -0.273 OA
ATOM      5  H   UNL A   1      35.334  19.888  25.938  1.00  0.00     0.163 HD
BRANCH   3   6
ATOM      6  C   UNL A   1      34.427  23.119  26.366  1.00  0.00     0.221 C 
BRANCH   6   7
ATOM      7  N   UNL A   1      33.121  23.640  25.944  1.00  0.00    -0.306 N 
BRANCH   7   8
ATOM      8  C   UNL A   1      32.097  24.134  26.695  1.00  0.00     0.318 C 
ATOM      9  N   UNL A   1      31.736  25.427  26.732  1.00  0.00    -0.333 N 
ATOM     10  H   UNL A   1      31.112  25.615  27.470  1.00  0.00     0.165 HD
ATOM     11  O   UNL A   1      31.404  23.384  27.389  1.00  0.00    -0.249 OA
BRANCH   9  12
ATOM     12  C   UNL A   1      32.039  26.629  25.948  1.00  0.00     0.109 C 
ATOM     13  C   UNL A   1      30.784  27.138  25.229  1.00  0.00     0.034 C 
BRANCH  12  14
ATOM     14  C   UNL A   1      32.727  27.735  26.794  1.00  0.00     0.140 C 
ATOM     15  C   UNL A   1      31.791  28.766  27.424  1.00  0.00     0.036 C 
ATOM     16  O   UNL A   1      33.660  28.463  25.967  1.00  0.00    -0.376 OA
ATOM     17  C   UNL A   1      32.469  30.086  27.146  1.00  0.00     0.031 C 
ATOM     18  C   UNL A   1      33.193  29.812  25.852  1.00  0.00     0.160 C 
ENDBRANCH  12  14
ENDBRANCH   9  12
ENDBRANCH   7   8
BRANCH   7  19
ATOM     19  C   UNL A   1      32.882  23.612  24.477  1.00  0.00     0.237 C 
BRANCH  19  20
ATOM     20  C   UNL A   1      31.811  22.656  23.942  1.00  0.00     0.406 C 
ATOM     21  F   UNL A   1      30.579  23.198  23.884  1.00  0.00    -0.169 F 
ATOM     22  F   UNL A   1      32.133  22.261  22.685  1.00  0.00    -0.169 F 
ATOM     23  F   UNL A   1      31.730  21.534  24.696  1.00  0.00    -0.169 F 
ENDBRANCH  19  20
ENDBRANCH   7  19
ENDBRANCH   6   7
ENDBRANCH   3   6
ENDBRANCH   1   2
BRANCH   1  24
ATOM     24  C   UNL A   1      37.552  20.298  24.722  1.00  0.00     0.042 C 
BRANCH  24  25
ATOM     25  C   UNL A   1      38.600  20.568  25.792  1.00  0.00     0.118 C 
BRANCH  25  26
ATOM     26  N   UNL A   1      39.654  19.562  25.792  1.00  0.00    -0.352 N 
ATOM     27  C   UNL A   1      40.996  19.716  26.031  1.00  0.00     0.251 C 
ATOM     28  H   UNL A   1      39.362  18.643  25.591  1.00  0.00     0.163 HD
ATOM     29  O   UNL A   1      41.777  18.808  25.775  1.00  0.00    -0.269 OA
BRANCH  27  30
ATOM     30  C   UNL A   1      41.493  20.991  26.586  1.00  0.00     0.039 A 
ATOM     31  C   UNL A   1      41.979  21.965  25.711  1.00  0.00     0.014 A 
ATOM     32  C   UNL A   1      41.476  21.222  27.964  1.00  0.00     0.014 A 
ATOM     33  C   UNL A   1      42.399  23.196  26.218  1.00  0.00     0.010 A 
ATOM     34  C   UNL A   1      41.818  22.475  28.459  1.00  0.00     0.010 A 
ATOM     35  C   UNL A   1      42.290  23.471  27.592  1.00  0.00    -0.014 A 
BRANCH  35  36
ATOM     36  C   UNL A   1      42.671  24.794  28.142  1.00  0.00     0.031 A 
ATOM     37  C   UNL A   1      41.626  25.857  28.344  1.00  0.00     0.074 A 
ATOM     38  C   UNL A   1      43.966  25.058  28.403  1.00  0.00     0.049 A 
ATOM     39  N   UNL A   1      41.771  27.087  28.767  1.00  0.00    -0.248 NA
ATOM     40  C   UNL A   1      40.239  25.498  28.004  1.00  0.00     0.031 C 
ATOM     41  C   UNL A   1      45.077  24.125  28.212  1.00  0.00     0.029 A 
ATOM     42  N   UNL A   1      44.565  26.195  28.882  1.00  0.00    -0.354 N 
ATOM     43  C   UNL A   1      40.503  27.650  28.728  1.00  0.00     0.074 A 
ATOM     44  C   UNL A   1      39.610  26.648  28.189  1.00  0.00     0.031 C 
ATOM     45  C   UNL A   1      46.218  24.715  28.600  1.00  0.00     0.029 A 
ATOM     46  C   UNL A   1      45.927  26.081  29.022  1.00  0.00     0.049 A 
ATOM     47  H   UNL A   1      44.067  27.015  29.104  1.00  0.00     0.167 HD
ATOM     48  C   UNL A   1      40.109  28.884  29.124  1.00  0.00     0.031 A 
ATOM     49  C   UNL A   1      46.840  26.979  29.436  1.00  0.00     0.031 A 
ATOM     50  C   UNL A   1      40.999  29.880  29.658  1.00  0.00     0.049 A 
ATOM     51  C   UNL A   1      46.383  28.354  29.839  1.00  0.00     0.074 A 
ATOM     52  C   UNL A   1      40.694  31.142  30.135  1.00  0.00     0.029 A 
ATOM     53  N   UNL A   1      42.372  29.728  29.776  1.00  0.00    -0.354 N 
ATOM     54  N   UNL A   1      45.169  28.848  29.865  1.00  0.00    -0.248 NA
ATOM     55  C   UNL A   1      47.426  29.292  30.278  1.00  0.00     0.031 C 
ATOM     56  C   UNL A   1      41.889  31.777  30.487  1.00  0.00     0.029 A 
ATOM     57  C   UNL A   1      42.933  30.886  30.291  1.00  0.00     0.049 A 
ATOM     58  H   UNL A   1      42.875  28.918  29.531  1.00  0.00     0.167 HD
ATOM     59  C   UNL A   1      45.298  30.143  30.349  1.00  0.00     0.074 A 
ATOM     60  C   UNL A   1      46.706  30.351  30.621  1.00  0.00     0.031 C 
ATOM     61  C   UNL A   1      44.337  31.079  30.550  1.00  0.00     0.031 A 
BRANCH  48  62
ATOM     62  C   UNL A   1      38.652  29.226  28.976  1.00  0.00    -0.014 A 
ATOM     63  C   UNL A   1      37.757  29.089  30.050  1.00  0.00     0.009 A 
ATOM     64  C   UNL A   1      38.170  29.716  27.752  1.00  0.00     0.009 A 
ATOM     65  C   UNL A   1      36.404  29.394  29.889  1.00  0.00     0.001 A 
ATOM     66  C   UNL A   1      36.822  30.052  27.603  1.00  0.00     0.001 A 
ATOM     67  C   UNL A   1      35.939  29.880  28.667  1.00  0.00     0.000 A 
ENDBRANCH  48  62
BRANCH  49  68
ATOM     68  C   UNL A   1      48.277  26.604  29.502  1.00  0.00    -0.014 A 
ATOM     69  C   UNL A   1      48.802  25.995  30.651  1.00  0.00     0.009 A 
ATOM     70  C   UNL A   1      49.132  26.854  28.417  1.00  0.00     0.009 A 
ATOM     71  C   UNL A   1      50.158  25.668  30.724  1.00  0.00     0.001 A 
ATOM     72  C   UNL A   1      50.481  26.498  28.480  1.00  0.00     0.001 A 
ATOM     73  C   UNL A   1      50.995  25.915  29.638  1.00  0.00     0.000 A 
ENDBRANCH  49  68
BRANCH  61  74
ATOM     74  C   UNL A   1      44.773  32.399  31.121  1.00  0.00    -0.014 A 
ATOM     75  C   UNL A   1      45.130  33.473  30.292  1.00  0.00     0.009 A 
ATOM     76  C   UNL A   1      44.788  32.581  32.514  1.00  0.00     0.009 A 
ATOM     77  C   UNL A   1      45.530  34.690  30.846  1.00  0.00     0.001 A 
ATOM     78  C   UNL A   1      45.156  33.808  33.064  1.00  0.00     0.001 A 
ATOM     79  C   UNL A   1      45.538  34.859  32.230  1.00  0.00     0.000 A 
ENDBRANCH  61  74
ENDBRANCH  35  36
ENDBRANCH  27  30
ENDBRANCH  25  26
ENDBRANCH  24  25
ENDBRANCH   1  24
TORSDOF 16
ENDMDL
MODEL 2
REMARK VINA RESULT:     -10.3      1.015      6.106
REMARK SMILES C[C@H](NC(=O)N(CC(=O)NCCCNC(=O)c1ccc(-c2c3nc(c(-c4ccccc4)c4ccc([nH]4)c(-c4ccccc4)c4nc(c(-c5ccccc5)c5ccc2[nH]5)C=C4)C=C3)cc1)CC(F)(F)F)[C@@H]1CCCO1
REMARK SMILES IDX 11 1 10 2 8 3 9 4 7 6 6 7 4 8 3 9 5 11 2 12 1 13 70 14 71 15
REMARK SMILES IDX 74 16 72 17 73 18 65 19 66 20 67 21 68 22 69 23 12 24 13 25
REMARK SMILES IDX 14 26 15 27 16 29 17 30 18 31 64 32 19 33 63 34 20 35 21 36
REMARK SMILES IDX 22 37 57 38 23 39 62 40 56 41 58 42 24 43 61 44 55 45 54 46
REMARK SMILES IDX 25 48 47 49 32 50 46 51 33 52 36 53 45 54 59 55 34 56 35 57
REMARK SMILES IDX 44 59 60 60 37 61 26 62 27 63 31 64 28 65 30 66 29 67 48 68
REMARK SMILES IDX 49 69 53 70 50 71 52 72 51 73 38 74 39 75 43 76 40 77 42 78
REMARK SMILES IDX 41 79
REMARK H PARENT 10 5 3 10 14 28 58 47 36 58
REMARK Flexibility Score: inf
ROOT
ATOM      1  C   UNL A   1      36.422  20.314  25.002  1.00  0.00     0.117 C 
ENDROOT
BRANCH   1   2
ATOM      2  N   UNL A   1      36.383  21.679  25.483  1.00  0.00    -0.354 N 
ATOM      3  C   UNL A   1      35.396  22.369  26.113  1.00  0.00     0.239 C 
ATOM      4  O   UNL A   1      35.617  23.547  26.405  1.00  0.00    -0.273 OA
ATOM      5  H   UNL A   1      37.209  22.193  25.328  1.00  0.00     0.163 HD
BRANCH   3   6
ATOM      6  C   UNL A   1      34.114  21.683  26.594  1.00  0.00     0.221 C 
BRANCH   6   7
ATOM      7  N   UNL A   1      32.822  22.206  26.135  1.00  0.00    -0.306 N 
BRANCH   7   8
ATOM      8  C   UNL A   1      32.212  23.392  26.419  1.00  0.00     0.318 C 
ATOM      9  N   UNL A   1      32.364  24.516  25.699  1.00  0.00    -0.333 N 
ATOM     10  H   UNL A   1      32.004  25.304  26.167  1.00  0.00     0.165 HD
ATOM     11  O   UNL A   1      31.438  23.491  27.375  1.00  0.00    -0.249 OA
BRANCH   9  12
ATOM     12  C   UNL A   1      32.930  24.863  24.392  1.00  0.00     0.109 C 
ATOM     13  C   UNL A   1      31.876  24.718  23.288  1.00  0.00     0.034 C 
BRANCH  12  14
ATOM     14  C   UNL A   1      33.605  26.262  24.387  1.00  0.00     0.140 C 
ATOM     15  C   UNL A   1      34.030  26.797  25.754  1.00  0.00     0.036 C 
ATOM     16  O   UNL A   1      32.698  27.232  23.818  1.00  0.00    -0.376 OA
ATOM     17  C   UNL A   1      33.560  28.233  25.741  1.00  0.00     0.031 C 
ATOM     18  C   UNL A   1      32.351  28.169  24.843  1.00  0.00     0.160 C 
ENDBRANCH  12  14
ENDBRANCH   9  12
ENDBRANCH   7   8
BRANCH   7  19
ATOM     19  C   UNL A   1      32.066  21.298  25.232  1.00  0.00     0.237 C 
BRANCH  19  20
ATOM     20  C   UNL A   1      32.723  20.889  23.910  1.00  0.00     0.406 C 
ATOM     21  F   UNL A   1      33.357  19.702  23.962  1.00  0.00    -0.169 F 
ATOM     22  F   UNL A   1      31.781  20.796  22.938  1.00  0.00    -0.169 F 
ATOM     23  F   UNL A   1      33.620  21.815  23.498  1.00  0.00    -0.169 F 
ENDBRANCH  19  20
ENDBRANCH   7  19
ENDBRANCH   6   7
ENDBRANCH   3   6
ENDBRANCH   1   2
BRANCH   1  24
ATOM     24  C   UNL A   1      37.839  19.858  24.683  1.00  0.00     0.042 C 
BRANCH  24  25
ATOM     25  C   UNL A   1      38.849  20.251  25.751  1.00  0.00     0.118 C 
BRANCH  25  26
ATOM     26  N   UNL A   1      39.957  19.307  25.829  1.00  0.00    -0.352 N 
ATOM     27  C   UNL A   1      41.281  19.550  26.096  1.00  0.00     0.251 C 
ATOM     28  H   UNL A   1      39.723  18.364  25.669  1.00  0.00     0.163 HD
ATOM     29  O   UNL A   1      42.119  18.675  25.907  1.00  0.00    -0.269 OA
BRANCH  27  30
ATOM     30  C   UNL A   1      41.690  20.877  26.597  1.00  0.00     0.039 A 
ATOM     31  C   UNL A   1      42.165  21.826  25.690  1.00  0.00     0.014 A 
ATOM     32  C   UNL A   1      41.602  21.180  27.959  1.00  0.00     0.014 A 
ATOM     33  C   UNL A   1      42.501  23.102  26.143  1.00  0.00     0.010 A 
ATOM     34  C   UNL A   1      41.860  22.475  28.395  1.00  0.00     0.010 A 
ATOM     35  C   UNL A   1      42.320  23.445  27.493  1.00  0.00    -0.014 A 
BRANCH  35  36
ATOM     36  C   UNL A   1      42.611  24.814  27.983  1.00  0.00     0.031 A 
ATOM     37  C   UNL A   1      44.013  25.197  28.369  1.00  0.00     0.074 A 
ATOM     38  C   UNL A   1      41.601  25.693  28.137  1.00  0.00     0.049 A 
ATOM     39  N   UNL A   1      44.454  26.326  28.861  1.00  0.00    -0.248 NA
ATOM     40  C   UNL A   1      45.052  24.168  28.200  1.00  0.00     0.031 C 
ATOM     41  C   UNL A   1      40.193  25.429  27.835  1.00  0.00     0.029 A 
ATOM     42  N   UNL A   1      41.607  26.987  28.591  1.00  0.00    -0.354 N 
ATOM     43  C   UNL A   1      45.813  26.138  29.076  1.00  0.00     0.074 A 
ATOM     44  C   UNL A   1      46.114  24.771  28.713  1.00  0.00     0.031 C 
ATOM     45  C   UNL A   1      39.476  26.537  28.082  1.00  0.00     0.029 A 
ATOM     46  C   UNL A   1      40.364  27.571  28.602  1.00  0.00     0.049 A 
ATOM     47  H   UNL A   1      42.424  27.454  28.882  1.00  0.00     0.167 HD
ATOM     48  C   UNL A   1      46.734  27.027  29.517  1.00  0.00     0.031 A 
ATOM     49  C   UNL A   1      39.980  28.800  28.996  1.00  0.00     0.031 A 
ATOM     50  C   UNL A   1      46.432  28.386  29.880  1.00  0.00     0.049 A 
ATOM     51  C   UNL A   1      41.016  29.759  29.513  1.00  0.00     0.074 A 
ATOM     52  C   UNL A   1      47.300  29.383  30.289  1.00  0.00     0.029 A 
ATOM     53  N   UNL A   1      45.159  28.937  29.884  1.00  0.00    -0.354 N 
ATOM     54  N   UNL A   1      42.310  29.590  29.641  1.00  0.00    -0.248 NA
ATOM     55  C   UNL A   1      40.537  31.084  29.931  1.00  0.00     0.031 C 
ATOM     56  C   UNL A   1      46.546  30.519  30.599  1.00  0.00     0.029 A 
ATOM     57  C   UNL A   1      45.215  30.251  30.319  1.00  0.00     0.049 A 
ATOM     58  H   UNL A   1      44.338  28.464  29.618  1.00  0.00     0.167 HD
ATOM     59  C   UNL A   1      42.803  30.793  30.128  1.00  0.00     0.074 A 
ATOM     60  C   UNL A   1      41.671  31.690  30.253  1.00  0.00     0.031 C 
ATOM     61  C   UNL A   1      44.079  31.128  30.443  1.00  0.00     0.031 A 
BRANCH  48  62
ATOM     62  C   UNL A   1      48.154  26.547  29.645  1.00  0.00    -0.014 A 
ATOM     63  C   UNL A   1      48.633  25.999  30.847  1.00  0.00     0.009 A 
ATOM     64  C   UNL A   1      49.019  26.620  28.542  1.00  0.00     0.009 A 
ATOM     65  C   UNL A   1      49.959  25.575  30.953  1.00  0.00     0.001 A 
ATOM     66  C   UNL A   1      50.335  26.164  28.642  1.00  0.00     0.001 A 
ATOM     67  C   UNL A   1      50.807  25.653  29.849  1.00  0.00     0.000 A 
ENDBRANCH  48  62
BRANCH  49  68
ATOM     68  C   UNL A   1      38.550  29.198  28.905  1.00  0.00    -0.014 A 
ATOM     69  C   UNL A   1      38.025  29.696  27.703  1.00  0.00     0.009 A 
ATOM     70  C   UNL A   1      37.705  29.086  30.020  1.00  0.00     0.009 A 
ATOM     71  C   UNL A   1      36.689  30.096  27.626  1.00  0.00     0.001 A 
ATOM     72  C   UNL A   1      36.362  29.457  29.931  1.00  0.00     0.001 A 
ATOM     73  C   UNL A   1      35.857  29.973  28.737  1.00  0.00     0.000 A 
ENDBRANCH  49  68
BRANCH  61  74
ATOM     74  C   UNL A   1      44.321  32.531  30.924  1.00  0.00    -0.014 A 
ATOM     75  C   UNL A   1      44.337  32.845  32.292  1.00  0.00     0.009 A 
ATOM     76  C   UNL A   1      44.577  33.549  29.990  1.00  0.00     0.009 A 
ATOM     77  C   UNL A   1      44.566  34.156  32.712  1.00  0.00     0.001 A 
ATOM     78  C   UNL A   1      44.839  34.851  30.415  1.00  0.00     0.001 A 
ATOM     79  C   UNL A   1      44.823  35.156  31.776  1.00  0.00     0.000 A 
ENDBRANCH  61  74
ENDBRANCH  35  36
ENDBRANCH  27  30
ENDBRANCH  25  26
ENDBRANCH  24  25
ENDBRANCH   1  24
TORSDOF 16
ENDMDL
MODEL 3
REMARK VINA RESULT:     -10.2      1.369      6.254
REMARK SMILES C[C@H](NC(=O)N(CC(=O)NCCCNC(=O)c1ccc(-c2c3nc(c(-c4ccccc4)c4ccc([nH]4)c(-c4ccccc4)c4nc(c(-c5ccccc5)c5ccc2[nH]5)C=C4)C=C3)cc1)CC(F)(F)F)[C@@H]1CCCO1
REMARK SMILES IDX 11 1 10 2 8 3 9 4 7 6 6 7 4 8 3 9 5 11 2 12 1 13 70 14 71 15
REMARK SMILES IDX 74 16 72 17 73 18 65 19 66 20 67 21 68 22 69 23 12 24 13 25
REMARK SMILES IDX 14 26 15 27 16 29 17 30 18 31 64 32 19 33 63 34 20 35 21 36
REMARK SMILES IDX 22 37 57 38 23 39 62 40 56 41 58 42 24 43 61 44 55 45 54 46
REMARK SMILES IDX 25 48 47 49 32 50 46 51 33 52 36 53 45 54 59 55 34 56 35 57
REMARK SMILES IDX 44 59 60 60 37 61 26 62 27 63 31 64 28 65 30 66 29 67 48 68
REMARK SMILES IDX 49 69 53 70 50 71 52 72 51 73 38 74 39 75 43 76 40 77 42 78
REMARK SMILES IDX 41 79
REMARK H PARENT 10 5 3 10 14 28 58 47 36 58
REMARK Flexibility Score: inf
ROOT
ATOM      1  C   UNL A   1      36.573  20.633  24.885  1.00  0.00     0.117 C 
ENDROOT
BRANCH   1   2
ATOM      2  N   UNL A   1      35.318  19.938  25.074  1.00  0.00    -0.354 N 
ATOM      3  C   UNL A   1      34.038  20.397  25.056  1.00  0.00     0.239 C 
ATOM      4  O   UNL A   1      33.135  19.583  25.268  1.00  0.00    -0.273 OA
ATOM      5  H   UNL A   1      35.405  18.971  25.244  1.00  0.00     0.163 HD
BRANCH   3   6
ATOM      6  C   UNL A   1      33.703  21.830  24.632  1.00  0.00     0.221 C 
BRANCH   6   7
ATOM      7  N   UNL A   1      33.829  22.904  25.625  1.00  0.00    -0.306 N 
BRANCH   7   8
ATOM      8  C   UNL A   1      34.805  23.844  25.771  1.00  0.00     0.318 C 
ATOM      9  N   UNL A   1      34.695  25.122  25.371  1.00  0.00    -0.333 N 
ATOM     10  H   UNL A   1      35.562  25.589  25.385  1.00  0.00     0.165 HD
ATOM     11  O   UNL A   1      35.873  23.566  26.323  1.00  0.00    -0.249 OA
BRANCH   9  12
ATOM     12  C   UNL A   1      33.607  25.996  24.920  1.00  0.00     0.109 C 
ATOM     13  C   UNL A   1      33.607  27.312  25.706  1.00  0.00     0.034 C 
BRANCH  12  14
ATOM     14  C   UNL A   1      33.623  26.224  23.384  1.00  0.00     0.140 C 
ATOM     15  C   UNL A   1      32.286  26.618  22.758  1.00  0.00     0.036 C 
ATOM     16  O   UNL A   1      34.058  25.015  22.723  1.00  0.00    -0.376 OA
ATOM     17  C   UNL A   1      32.193  25.747  21.527  1.00  0.00     0.031 C 
ATOM     18  C   UNL A   1      32.966  24.521  21.940  1.00  0.00     0.160 C 
ENDBRANCH  12  14
ENDBRANCH   9  12
ENDBRANCH   7   8
BRANCH   7  19
ATOM     19  C   UNL A   1      32.729  22.963  26.624  1.00  0.00     0.237 C 
BRANCH  19  20
ATOM     20  C   UNL A   1      31.290  23.046  26.103  1.00  0.00     0.406 C 
ATOM     21  F   UNL A   1      30.752  21.849  25.801  1.00  0.00    -0.169 F 
ATOM     22  F   UNL A   1      30.494  23.615  27.043  1.00  0.00    -0.169 F 
ATOM     23  F   UNL A   1      31.209  23.824  24.998  1.00  0.00    -0.169 F 
ENDBRANCH  19  20
ENDBRANCH   7  19
ENDBRANCH   6   7
ENDBRANCH   3   6
ENDBRANCH   1   2
BRANCH   1  24
ATOM     24  C   UNL A   1      37.767  19.689  24.942  1.00  0.00     0.042 C 
BRANCH  24  25
ATOM     25  C   UNL A   1      38.950  20.266  25.706  1.00  0.00     0.118 C 
BRANCH  25  26
ATOM     26  N   UNL A   1      40.051  19.316  25.806  1.00  0.00    -0.352 N 
ATOM     27  C   UNL A   1      41.370  19.551  26.103  1.00  0.00     0.251 C 
ATOM     28  H   UNL A   1      39.816  18.375  25.635  1.00  0.00     0.163 HD
ATOM     29  O   UNL A   1      42.208  18.673  25.931  1.00  0.00    -0.269 OA
BRANCH  27  30
ATOM     30  C   UNL A   1      41.774  20.874  26.620  1.00  0.00     0.039 A 
ATOM     31  C   UNL A   1      42.230  21.840  25.722  1.00  0.00     0.014 A 
ATOM     32  C   UNL A   1      41.700  21.156  27.987  1.00  0.00     0.014 A 
ATOM     33  C   UNL A   1      42.561  23.113  26.190  1.00  0.00     0.010 A 
ATOM     34  C   UNL A   1      41.952  22.446  28.440  1.00  0.00     0.010 A 
ATOM     35  C   UNL A   1      42.393  23.433  27.547  1.00  0.00    -0.014 A 
BRANCH  35  36
ATOM     36  C   UNL A   1      42.678  24.797  28.054  1.00  0.00     0.031 A 
ATOM     37  C   UNL A   1      44.073  25.174  28.469  1.00  0.00     0.074 A 
ATOM     38  C   UNL A   1      41.668  25.678  28.197  1.00  0.00     0.049 A 
ATOM     39  N   UNL A   1      44.508  26.297  28.980  1.00  0.00    -0.248 NA
ATOM     40  C   UNL A   1      45.113  24.143  28.311  1.00  0.00     0.031 C 
ATOM     41  C   UNL A   1      40.265  25.420  27.867  1.00  0.00     0.029 A 
ATOM     42  N   UNL A   1      41.669  26.968  28.662  1.00  0.00    -0.354 N 
ATOM     43  C   UNL A   1      45.862  26.103  29.218  1.00  0.00     0.074 A 
ATOM     44  C   UNL A   1      46.167  24.739  28.848  1.00  0.00     0.031 C 
ATOM     45  C   UNL A   1      39.547  26.528  28.110  1.00  0.00     0.029 A 
ATOM     46  C   UNL A   1      40.427  27.555  28.655  1.00  0.00     0.049 A 
ATOM     47  H   UNL A   1      42.482  27.430  28.972  1.00  0.00     0.167 HD
ATOM     48  C   UNL A   1      46.777  26.986  29.684  1.00  0.00     0.031 A 
ATOM     49  C   UNL A   1      40.039  28.782  29.052  1.00  0.00     0.031 A 
ATOM     50  C   UNL A   1      46.472  28.343  30.052  1.00  0.00     0.049 A 
ATOM     51  C   UNL A   1      41.068  29.733  29.597  1.00  0.00     0.074 A 
ATOM     52  C   UNL A   1      47.335  29.334  30.487  1.00  0.00     0.029 A 
ATOM     53  N   UNL A   1      45.201  28.897  30.038  1.00  0.00    -0.354 N 
ATOM     54  N   UNL A   1      42.359  29.560  29.748  1.00  0.00    -0.248 NA
ATOM     55  C   UNL A   1      40.584  31.056  30.017  1.00  0.00     0.031 C 
ATOM     56  C   UNL A   1      46.578  30.469  30.792  1.00  0.00     0.029 A 
ATOM     57  C   UNL A   1      45.252  30.207  30.485  1.00  0.00     0.049 A 
ATOM     58  H   UNL A   1      44.384  28.429  29.752  1.00  0.00     0.167 HD
ATOM     59  C   UNL A   1      42.845  30.757  30.254  1.00  0.00     0.074 A 
ATOM     60  C   UNL A   1      41.714  31.656  30.366  1.00  0.00     0.031 C 
ATOM     61  C   UNL A   1      44.116  31.086  30.596  1.00  0.00     0.031 A 
BRANCH  48  62
ATOM     62  C   UNL A   1      48.193  26.501  29.834  1.00  0.00    -0.014 A 
ATOM     63  C   UNL A   1      49.121  26.620  28.786  1.00  0.00     0.009 A 
ATOM     64  C   UNL A   1      48.614  25.938  31.049  1.00  0.00     0.009 A 
ATOM     65  C   UNL A   1      50.426  26.147  28.937  1.00  0.00     0.001 A 
ATOM     66  C   UNL A   1      49.929  25.496  31.209  1.00  0.00     0.001 A 
ATOM     67  C   UNL A   1      50.830  25.590  30.150  1.00  0.00     0.000 A 
ENDBRANCH  48  62
BRANCH  49  68
ATOM     68  C   UNL A   1      38.612  29.185  28.939  1.00  0.00    -0.014 A 
ATOM     69  C   UNL A   1      37.755  29.087  30.045  1.00  0.00     0.009 A 
ATOM     70  C   UNL A   1      38.100  29.666  27.724  1.00  0.00     0.009 A 
ATOM     71  C   UNL A   1      36.408  29.439  29.931  1.00  0.00     0.001 A 
ATOM     72  C   UNL A   1      36.761  30.047  27.621  1.00  0.00     0.001 A 
ATOM     73  C   UNL A   1      35.913  29.923  28.721  1.00  0.00     0.000 A 
ENDBRANCH  49  68
BRANCH  61  74
ATOM     74  C   UNL A   1      44.353  32.484  31.093  1.00  0.00    -0.014 A 
ATOM     75  C   UNL A   1      44.628  33.539  30.209  1.00  0.00     0.009 A 
ATOM     76  C   UNL A   1      44.261  32.756  32.468  1.00  0.00     0.009 A 
ATOM     77  C   UNL A   1      44.843  34.830  30.696  1.00  0.00     0.001 A 
ATOM     78  C   UNL A   1      44.444  34.053  32.948  1.00  0.00     0.001 A 
ATOM     79  C   UNL A   1      44.745  35.087  32.063  1.00  0.00     0.000 A 
ENDBRANCH  61  74
ENDBRANCH  35  36
ENDBRANCH  27  30
ENDBRANCH  25  26
ENDBRANCH  24  25
ENDBRANCH   1  24
TORSDOF 16
ENDMDL
