MODEL 1
REMARK VINA RESULT:     -11.9      0.000      0.000
REMARK SMILES Cc1ccc(C[C@H](C(=O)NCCCNC(=O)c2ccc(-c3c4nc(c(-c5ccccc5)c5ccc([nH]5)c(-c5ccccc5)c5nc(c(-c6ccccc6)c6ccc3[nH]6)C=C5)C=C4)cc2)[C@@H]2CCCC[C@@H]2O)cc1
REMARK SMILES IDX 12 1 11 2 10 3 8 4 9 5 7 7 6 8 5 9 1 10 2 11 3 12 73 13 4 14
REMARK SMILES IDX 72 15 65 16 66 17 70 18 67 19 69 20 68 21 71 22 13 24 14 25
REMARK SMILES IDX 15 26 16 28 17 29 18 30 64 31 19 32 63 33 20 34 21 35 22 36
REMARK SMILES IDX 57 37 23 38 62 39 56 40 58 41 24 42 61 43 55 44 54 45 25 47
REMARK SMILES IDX 47 48 32 49 46 50 33 51 36 52 45 53 59 54 34 55 35 56 44 58
REMARK SMILES IDX 60 59 37 60 26 61 27 62 31 63 28 64 30 65 29 66 48 67 49 68
REMARK SMILES IDX 53 69 50 70 52 71 51 72 38 73 39 74 43 75 40 76 42 77 41 78
REMARK H PARENT 10 6 71 23 14 27 58 46 36 57
REMARK Flexibility Score: inf
ROOT
ATOM      1  C   UNL A   1      39.115  22.866  26.624  1.00  0.00     0.042 C 
ENDROOT
BRANCH   1   2
ATOM      2  C   UNL A   1      37.738  22.657  26.046  1.00  0.00     0.117 C 
BRANCH   2   3
ATOM      3  N   UNL A   1      37.603  22.517  24.630  1.00  0.00    -0.356 N 
ATOM      4  C   UNL A   1      36.545  22.978  23.897  1.00  0.00     0.223 C 
ATOM      5  O   UNL A   1      36.685  22.950  22.668  1.00  0.00    -0.275 OA
ATOM      6  H   UNL A   1      38.325  22.053  24.146  1.00  0.00     0.163 HD
BRANCH   4   7
ATOM      7  C   UNL A   1      35.205  23.418  24.574  1.00  0.00     0.088 C 
BRANCH   7   8
ATOM      8  C   UNL A   1      34.380  24.457  23.742  1.00  0.00     0.049 C 
BRANCH   8   9
ATOM      9  C   UNL A   1      33.938  25.778  24.349  1.00  0.00    -0.047 A 
ATOM     10  C   UNL A   1      33.242  29.748  25.928  1.00  0.00     0.044 C 
ATOM     11  C   UNL A   1      33.384  28.352  25.392  1.00  0.00    -0.051 A 
ATOM     12  C   UNL A   1      33.781  27.312  26.239  1.00  0.00     0.004 A 
ATOM     13  C   UNL A   1      33.185  28.075  24.035  1.00  0.00     0.004 A 
ATOM     14  C   UNL A   1      34.026  26.029  25.729  1.00  0.00     0.004 A 
ATOM     15  C   UNL A   1      33.452  26.801  23.519  1.00  0.00     0.004 A 
ENDBRANCH   8   9
ENDBRANCH   7   8
BRANCH   7  16
ATOM     16  C   UNL A   1      34.370  22.085  24.826  1.00  0.00     0.030 C 
ATOM     17  C   UNL A   1      33.224  21.778  23.843  1.00  0.00     0.007 C 
ATOM     18  C   UNL A   1      33.820  21.973  26.276  1.00  0.00     0.118 C 
ATOM     19  C   UNL A   1      32.011  22.676  24.054  1.00  0.00     0.001 C 
ATOM     20  C   UNL A   1      32.558  22.811  26.505  1.00  0.00     0.032 C 
ATOM     21  C   UNL A   1      31.476  22.524  25.471  1.00  0.00     0.003 C 
BRANCH  18  22
ATOM     22  O   UNL A   1      34.782  22.357  27.251  1.00  0.00    -0.393 OA
ATOM     23  H   UNL A   1      34.373  22.348  28.130  1.00  0.00     0.210 HD
ENDBRANCH  18  22
ENDBRANCH   7  16
ENDBRANCH   4   7
ENDBRANCH   2   3
ENDBRANCH   1   2
BRANCH   1  24
ATOM     24  C   UNL A   1      40.099  21.753  26.270  1.00  0.00     0.118 C 
BRANCH  24  25
ATOM     25  N   UNL A   1      41.198  22.170  25.377  1.00  0.00    -0.352 N 
ATOM     26  C   UNL A   1      42.577  22.295  25.494  1.00  0.00     0.251 C 
ATOM     27  H   UNL A   1      40.876  22.422  24.482  1.00  0.00     0.163 HD
ATOM     28  O   UNL A   1      43.256  22.429  24.493  1.00  0.00    -0.269 OA
BRANCH  26  29
ATOM     29  C   UNL A   1      43.263  22.117  26.799  1.00  0.00     0.039 A 
ATOM     30  C   UNL A   1      42.363  22.020  27.868  1.00  0.00     0.014 A 
ATOM     31  C   UNL A   1      44.491  22.727  26.959  1.00  0.00     0.014 A 
ATOM     32  C   UNL A   1      42.411  23.009  28.832  1.00  0.00     0.010 A 
ATOM     33  C   UNL A   1      44.508  23.752  27.878  1.00  0.00     0.010 A 
ATOM     34  C   UNL A   1      43.383  23.985  28.691  1.00  0.00    -0.014 A 
BRANCH  34  35
ATOM     35  C   UNL A   1      43.220  25.355  29.165  1.00  0.00     0.031 A 
ATOM     36  C   UNL A   1      42.089  26.137  28.643  1.00  0.00     0.074 A 
ATOM     37  C   UNL A   1      43.982  25.857  30.170  1.00  0.00     0.049 A 
ATOM     38  N   UNL A   1      41.954  27.403  28.811  1.00  0.00    -0.248 NA
ATOM     39  C   UNL A   1      41.038  25.554  27.815  1.00  0.00     0.031 C 
ATOM     40  C   UNL A   1      43.692  27.019  31.013  1.00  0.00     0.029 A 
ATOM     41  N   UNL A   1      45.294  25.525  30.510  1.00  0.00    -0.354 N 
ATOM     42  C   UNL A   1      40.692  27.741  28.399  1.00  0.00     0.074 A 
ATOM     43  C   UNL A   1      40.198  26.583  27.700  1.00  0.00     0.031 C 
ATOM     44  C   UNL A   1      44.827  27.447  31.588  1.00  0.00     0.029 A 
ATOM     45  C   UNL A   1      45.919  26.687  31.013  1.00  0.00     0.049 A 
ATOM     46  H   UNL A   1      45.711  24.637  30.416  1.00  0.00     0.167 HD
ATOM     47  C   UNL A   1      40.182  28.934  28.802  1.00  0.00     0.031 A 
ATOM     48  C   UNL A   1      46.993  27.241  30.374  1.00  0.00     0.031 A 
ATOM     49  C   UNL A   1      41.205  29.771  29.432  1.00  0.00     0.049 A 
ATOM     50  C   UNL A   1      46.735  28.617  29.779  1.00  0.00     0.074 A 
ATOM     51  C   UNL A   1      41.492  30.180  30.723  1.00  0.00     0.029 A 
ATOM     52  N   UNL A   1      42.330  30.078  28.683  1.00  0.00    -0.354 N 
ATOM     53  N   UNL A   1      45.598  29.254  29.848  1.00  0.00    -0.248 NA
ATOM     54  C   UNL A   1      47.715  29.336  28.960  1.00  0.00     0.031 C 
ATOM     55  C   UNL A   1      42.804  30.748  30.726  1.00  0.00     0.029 A 
ATOM     56  C   UNL A   1      43.294  30.711  29.434  1.00  0.00     0.049 A 
ATOM     57  H   UNL A   1      42.427  29.867  27.726  1.00  0.00     0.167 HD
ATOM     58  C   UNL A   1      45.633  30.352  29.028  1.00  0.00     0.074 A 
ATOM     59  C   UNL A   1      46.990  30.378  28.512  1.00  0.00     0.031 C 
ATOM     60  C   UNL A   1      44.528  31.113  28.773  1.00  0.00     0.031 A 
BRANCH  47  61
ATOM     61  C   UNL A   1      38.717  29.286  28.767  1.00  0.00    -0.014 A 
ATOM     62  C   UNL A   1      37.950  29.130  29.933  1.00  0.00     0.009 A 
ATOM     63  C   UNL A   1      38.011  29.702  27.624  1.00  0.00     0.009 A 
ATOM     64  C   UNL A   1      36.563  29.328  29.941  1.00  0.00     0.001 A 
ATOM     65  C   UNL A   1      36.627  29.901  27.620  1.00  0.00     0.001 A 
ATOM     66  C   UNL A   1      35.899  29.705  28.781  1.00  0.00     0.000 A 
ENDBRANCH  47  61
BRANCH  48  67
ATOM     67  C   UNL A   1      47.880  26.204  29.770  1.00  0.00    -0.014 A 
ATOM     68  C   UNL A   1      47.664  25.860  28.420  1.00  0.00     0.009 A 
ATOM     69  C   UNL A   1      49.128  25.927  30.345  1.00  0.00     0.009 A 
ATOM     70  C   UNL A   1      48.720  25.400  27.628  1.00  0.00     0.001 A 
ATOM     71  C   UNL A   1      50.176  25.451  29.549  1.00  0.00     0.001 A 
ATOM     72  C   UNL A   1      49.984  25.235  28.185  1.00  0.00     0.000 A 
ENDBRANCH  48  67
BRANCH  60  73
ATOM     73  C   UNL A   1      44.491  32.275  27.812  1.00  0.00    -0.014 A 
ATOM     74  C   UNL A   1      44.413  33.609  28.228  1.00  0.00     0.009 A 
ATOM     75  C   UNL A   1      44.414  32.042  26.419  1.00  0.00     0.009 A 
ATOM     76  C   UNL A   1      44.317  34.655  27.299  1.00  0.00     0.001 A 
ATOM     77  C   UNL A   1      44.295  33.079  25.490  1.00  0.00     0.001 A 
ATOM     78  C   UNL A   1      44.257  34.391  25.932  1.00  0.00     0.000 A 
ENDBRANCH  60  73
ENDBRANCH  34  35
ENDBRANCH  26  29
ENDBRANCH  24  25
ENDBRANCH   1  24
TORSDOF 14
ENDMDL
MODEL 2
REMARK VINA RESULT:     -11.9      3.520      7.692
REMARK SMILES Cc1ccc(C[C@H](C(=O)NCCCNC(=O)c2ccc(-c3c4nc(c(-c5ccccc5)c5ccc([nH]5)c(-c5ccccc5)c5nc(c(-c6ccccc6)c6ccc3[nH]6)C=C5)C=C4)cc2)[C@@H]2CCCC[C@@H]2O)cc1
REMARK SMILES IDX 12 1 11 2 10 3 8 4 9 5 7 7 6 8 5 9 1 10 2 11 3 12 73 13 4 14
REMARK SMILES IDX 72 15 65 16 66 17 70 18 67 19 69 20 68 21 71 22 13 24 14 25
REMARK SMILES IDX 15 26 16 28 17 29 18 30 64 31 19 32 63 33 20 34 21 35 22 36
REMARK SMILES IDX 57 37 23 38 62 39 56 40 58 41 24 42 61 43 55 44 54 45 25 47
REMARK SMILES IDX 47 48 32 49 46 50 33 51 36 52 45 53 59 54 34 55 35 56 44 58
REMARK SMILES IDX 60 59 37 60 26 61 27 62 31 63 28 64 30 65 29 66 48 67 49 68
REMARK SMILES IDX 53 69 50 70 52 71 51 72 38 73 39 74 43 75 40 76 42 77 41 78
REMARK H PARENT 10 6 71 23 14 27 58 46 36 57
REMARK Flexibility Score: inf
ROOT
ATOM      1  C   UNL A   1      39.081  23.655  26.639  1.00  0.00     0.042 C 
ENDROOT
BRANCH   1   2
ATOM      2  C   UNL A   1      37.762  23.716  25.911  1.00  0.00     0.117 C 
BRANCH   2   3
ATOM      3  N   UNL A   1      37.668  23.128  24.612  1.00  0.00    -0.356 N 
ATOM      4  C   UNL A   1      36.537  23.108  23.843  1.00  0.00     0.223 C 
ATOM      5  O   UNL A   1      36.686  22.740  22.672  1.00  0.00    -0.275 OA
ATOM      6  H   UNL A   1      38.477  22.704  24.243  1.00  0.00     0.163 HD
BRANCH   4   7
ATOM      7  C   UNL A   1      35.130  23.438  24.442  1.00  0.00     0.088 C 
BRANCH   7   8
ATOM      8  C   UNL A   1      34.332  24.521  23.640  1.00  0.00     0.049 C 
BRANCH   8   9
ATOM      9  C   UNL A   1      33.907  25.826  24.290  1.00  0.00    -0.047 A 
ATOM     10  C   UNL A   1      33.293  29.701  26.120  1.00  0.00     0.044 C 
ATOM     11  C   UNL A   1      33.405  28.348  25.477  1.00  0.00    -0.051 A 
ATOM     12  C   UNL A   1      33.535  27.203  26.269  1.00  0.00     0.004 A 
ATOM     13  C   UNL A   1      33.443  28.211  24.085  1.00  0.00     0.004 A 
ATOM     14  C   UNL A   1      33.752  25.948  25.682  1.00  0.00     0.004 A 
ATOM     15  C   UNL A   1      33.685  26.963  23.496  1.00  0.00     0.004 A 
ENDBRANCH   8   9
ENDBRANCH   7   8
BRANCH   7  16
ATOM     16  C   UNL A   1      34.334  22.059  24.502  1.00  0.00     0.030 C 
ATOM     17  C   UNL A   1      33.030  21.965  23.686  1.00  0.00     0.007 C 
ATOM     18  C   UNL A   1      34.044  21.584  25.954  1.00  0.00     0.118 C 
ATOM     19  C   UNL A   1      31.885  22.749  24.314  1.00  0.00     0.001 C 
ATOM     20  C   UNL A   1      32.852  22.303  26.593  1.00  0.00     0.032 C 
ATOM     21  C   UNL A   1      31.603  22.243  25.722  1.00  0.00     0.003 C 
BRANCH  18  22
ATOM     22  O   UNL A   1      35.166  21.749  26.811  1.00  0.00    -0.393 OA
ATOM     23  H   UNL A   1      35.612  20.895  26.928  1.00  0.00     0.210 HD
ENDBRANCH  18  22
ENDBRANCH   7  16
ENDBRANCH   4   7
ENDBRANCH   2   3
ENDBRANCH   1   2
BRANCH   1  24
ATOM     24  C   UNL A   1      39.924  22.436  26.271  1.00  0.00     0.118 C 
BRANCH  24  25
ATOM     25  N   UNL A   1      41.359  22.720  26.080  1.00  0.00    -0.352 N 
ATOM     26  C   UNL A   1      42.403  23.138  26.896  1.00  0.00     0.251 C 
ATOM     27  H   UNL A   1      41.647  22.582  25.149  1.00  0.00     0.163 HD
ATOM     28  O   UNL A   1      43.551  23.045  26.500  1.00  0.00    -0.269 OA
BRANCH  26  29
ATOM     29  C   UNL A   1      42.169  23.556  28.301  1.00  0.00     0.039 A 
ATOM     30  C   UNL A   1      42.062  24.946  28.435  1.00  0.00     0.014 A 
ATOM     31  C   UNL A   1      42.742  22.791  29.296  1.00  0.00     0.014 A 
ATOM     32  C   UNL A   1      43.020  25.588  29.198  1.00  0.00     0.010 A 
ATOM     33  C   UNL A   1      43.738  23.423  30.006  1.00  0.00     0.010 A 
ATOM     34  C   UNL A   1      43.975  24.797  29.813  1.00  0.00    -0.014 A 
BRANCH  34  35
ATOM     35  C   UNL A   1      45.334  25.248  30.092  1.00  0.00     0.031 A 
ATOM     36  C   UNL A   1      46.368  24.995  29.078  1.00  0.00     0.074 A 
ATOM     37  C   UNL A   1      45.620  26.016  31.173  1.00  0.00     0.049 A 
ATOM     38  N   UNL A   1      47.627  25.146  29.284  1.00  0.00    -0.248 NA
ATOM     39  C   UNL A   1      46.065  24.472  27.750  1.00  0.00     0.031 C 
ATOM     40  C   UNL A   1      46.798  26.865  31.377  1.00  0.00     0.029 A 
ATOM     41  N   UNL A   1      44.986  26.034  32.416  1.00  0.00    -0.354 N 
ATOM     42  C   UNL A   1      48.257  25.046  28.072  1.00  0.00     0.074 A 
ATOM     43  C   UNL A   1      47.262  24.532  27.168  1.00  0.00     0.031 C 
ATOM     44  C   UNL A   1      46.938  27.127  32.686  1.00  0.00     0.029 A 
ATOM     45  C   UNL A   1      45.960  26.327  33.396  1.00  0.00     0.049 A 
ATOM     46  H   UNL A   1      44.028  25.871  32.581  1.00  0.00     0.167 HD
ATOM     47  C   UNL A   1      49.526  25.522  27.966  1.00  0.00     0.031 A 
ATOM     48  C   UNL A   1      46.264  25.424  34.376  1.00  0.00     0.031 A 
ATOM     49  C   UNL A   1      50.088  25.850  29.278  1.00  0.00     0.049 A 
ATOM     50  C   UNL A   1      47.677  24.864  34.303  1.00  0.00     0.074 A 
ATOM     51  C   UNL A   1      50.388  27.016  29.962  1.00  0.00     0.029 A 
ATOM     52  N   UNL A   1      50.144  24.837  30.222  1.00  0.00    -0.354 N 
ATOM     53  N   UNL A   1      48.558  25.189  33.397  1.00  0.00    -0.248 NA
ATOM     54  C   UNL A   1      48.170  23.805  35.188  1.00  0.00     0.031 C 
ATOM     55  C   UNL A   1      50.637  26.676  31.328  1.00  0.00     0.029 A 
ATOM     56  C   UNL A   1      50.518  25.305  31.461  1.00  0.00     0.049 A 
ATOM     57  H   UNL A   1      49.940  23.893  30.028  1.00  0.00     0.167 HD
ATOM     58  C   UNL A   1      49.638  24.348  33.479  1.00  0.00     0.074 A 
ATOM     59  C   UNL A   1      49.361  23.513  34.635  1.00  0.00     0.031 C 
ATOM     60  C   UNL A   1      50.640  24.347  32.551  1.00  0.00     0.031 A 
BRANCH  47  61
ATOM     61  C   UNL A   1      50.209  25.836  26.661  1.00  0.00    -0.014 A 
ATOM     62  C   UNL A   1      51.505  25.344  26.434  1.00  0.00     0.009 A 
ATOM     63  C   UNL A   1      49.683  26.658  25.648  1.00  0.00     0.009 A 
ATOM     64  C   UNL A   1      52.242  25.693  25.294  1.00  0.00     0.001 A 
ATOM     65  C   UNL A   1      50.411  27.014  24.508  1.00  0.00     0.001 A 
ATOM     66  C   UNL A   1      51.699  26.537  24.335  1.00  0.00     0.000 A 
ENDBRANCH  47  61
BRANCH  48  67
ATOM     67  C   UNL A   1      45.066  24.657  34.822  1.00  0.00    -0.014 A 
ATOM     68  C   UNL A   1      44.071  25.350  35.540  1.00  0.00     0.009 A 
ATOM     69  C   UNL A   1      44.723  23.457  34.182  1.00  0.00     0.009 A 
ATOM     70  C   UNL A   1      42.737  24.937  35.483  1.00  0.00     0.001 A 
ATOM     71  C   UNL A   1      43.387  23.041  34.143  1.00  0.00     0.001 A 
ATOM     72  C   UNL A   1      42.392  23.806  34.751  1.00  0.00     0.000 A 
ENDBRANCH  48  67
BRANCH  60  73
ATOM     73  C   UNL A   1      51.801  23.385  32.546  1.00  0.00    -0.014 A 
ATOM     74  C   UNL A   1      51.641  21.994  32.541  1.00  0.00     0.009 A 
ATOM     75  C   UNL A   1      53.124  23.868  32.669  1.00  0.00     0.009 A 
ATOM     76  C   UNL A   1      52.750  21.136  32.601  1.00  0.00     0.001 A 
ATOM     77  C   UNL A   1      54.229  23.018  32.753  1.00  0.00     0.001 A 
ATOM     78  C   UNL A   1      54.042  21.647  32.708  1.00  0.00     0.000 A 
ENDBRANCH  60  73
ENDBRANCH  34  35
ENDBRANCH  26  29
ENDBRANCH  24  25
ENDBRANCH   1  24
TORSDOF 14
ENDMDL
MODEL 3
REMARK VINA RESULT:     -11.8      3.277      8.240
REMARK SMILES Cc1ccc(C[C@H](C(=O)NCCCNC(=O)c2ccc(-c3c4nc(c(-c5ccccc5)c5ccc([nH]5)c(-c5ccccc5)c5nc(c(-c6ccccc6)c6ccc3[nH]6)C=C5)C=C4)cc2)[C@@H]2CCCC[C@@H]2O)cc1
REMARK SMILES IDX 12 1 11 2 10 3 8 4 9 5 7 7 6 8 5 9 1 10 2 11 3 12 73 13 4 14
REMARK SMILES IDX 72 15 65 16 66 17 70 18 67 19 69 20 68 21 71 22 13 24 14 25
REMARK SMILES IDX 15 26 16 28 17 29 18 30 64 31 19 32 63 33 20 34 21 35 22 36
REMARK SMILES IDX 57 37 23 38 62 39 56 40 58 41 24 42 61 43 55 44 54 45 25 47
REMARK SMILES IDX 47 48 32 49 46 50 33 51 36 52 45 53 59 54 34 55 35 56 44 58
REMARK SMILES IDX 60 59 37 60 26 61 27 62 31 63 28 64 30 65 29 66 48 67 49 68
REMARK SMILES IDX 53 69 50 70 52 71 51 72 38 73 39 74 43 75 40 76 42 77 41 78
REMARK H PARENT 10 6 71 23 14 27 58 46 36 57
REMARK Flexibility Score: inf
ROOT
ATOM      1  C   UNL A   1      34.801  30.411  27.623  1.00  0.00     0.042 C 
ENDROOT
BRANCH   1   2
ATOM      2  C   UNL A   1      33.484  30.363  26.891  1.00  0.00     0.117 C 
BRANCH   2   3
ATOM      3  N   UNL A   1      32.389  29.670  27.496  1.00  0.00    -0.356 N 
ATOM      4  C   UNL A   1      31.981  28.409  27.160  1.00  0.00     0.223 C 
ATOM      5  O   UNL A   1      31.153  27.889  27.917  1.00  0.00    -0.275 OA
ATOM      6  H   UNL A   1      31.891  30.136  28.207  1.00  0.00     0.163 HD
BRANCH   4   7
ATOM      7  C   UNL A   1      32.463  27.713  25.844  1.00  0.00     0.088 C 
BRANCH   7   8
ATOM      8  C   UNL A   1      32.113  26.188  25.764  1.00  0.00     0.049 C 
BRANCH   8   9
ATOM      9  C   UNL A   1      33.139  25.169  25.299  1.00  0.00    -0.047 A 
ATOM     10  C   UNL A   1      36.206  22.675  23.534  1.00  0.00     0.044 C 
ATOM     11  C   UNL A   1      35.139  23.476  24.225  1.00  0.00    -0.051 A 
ATOM     12  C   UNL A   1      33.794  23.288  23.891  1.00  0.00     0.004 A 
ATOM     13  C   UNL A   1      35.468  24.460  25.164  1.00  0.00     0.004 A 
ATOM     14  C   UNL A   1      32.799  24.106  24.446  1.00  0.00     0.004 A 
ATOM     15  C   UNL A   1      34.479  25.294  25.701  1.00  0.00     0.004 A 
ENDBRANCH   8   9
ENDBRANCH   7   8
BRANCH   7  16
ATOM     16  C   UNL A   1      31.803  28.522  24.641  1.00  0.00     0.030 C 
ATOM     17  C   UNL A   1      30.435  28.030  24.130  1.00  0.00     0.007 C 
ATOM     18  C   UNL A   1      32.754  28.689  23.422  1.00  0.00     0.118 C 
ATOM     19  C   UNL A   1      30.537  26.744  23.319  1.00  0.00     0.001 C 
ATOM     20  C   UNL A   1      32.828  27.436  22.543  1.00  0.00     0.032 C 
ATOM     21  C   UNL A   1      31.449  26.945  22.117  1.00  0.00     0.003 C 
BRANCH  18  22
ATOM     22  O   UNL A   1      34.079  29.028  23.812  1.00  0.00    -0.393 OA
ATOM     23  H   UNL A   1      34.121  29.108  24.778  1.00  0.00     0.210 HD
ENDBRANCH  18  22
ENDBRANCH   7  16
ENDBRANCH   4   7
ENDBRANCH   2   3
ENDBRANCH   1   2
BRANCH   1  24
ATOM     24  C   UNL A   1      35.175  31.809  28.112  1.00  0.00     0.118 C 
BRANCH  24  25
ATOM     25  N   UNL A   1      36.421  31.867  28.901  1.00  0.00    -0.352 N 
ATOM     26  C   UNL A   1      37.562  31.081  29.012  1.00  0.00     0.251 C 
ATOM     27  H   UNL A   1      36.452  32.653  29.493  1.00  0.00     0.163 HD
ATOM     28  O   UNL A   1      38.546  31.524  29.575  1.00  0.00    -0.269 OA
BRANCH  26  29
ATOM     29  C   UNL A   1      37.667  29.767  28.328  1.00  0.00     0.039 A 
ATOM     30  C   UNL A   1      37.534  28.691  29.214  1.00  0.00     0.014 A 
ATOM     31  C   UNL A   1      38.504  29.685  27.234  1.00  0.00     0.014 A 
ATOM     32  C   UNL A   1      38.621  27.851  29.364  1.00  0.00     0.010 A 
ATOM     33  C   UNL A   1      39.616  28.895  27.419  1.00  0.00     0.010 A 
ATOM     34  C   UNL A   1      39.734  28.111  28.582  1.00  0.00    -0.014 A 
BRANCH  34  35
ATOM     35  C   UNL A   1      41.098  27.803  28.999  1.00  0.00     0.031 A 
ATOM     36  C   UNL A   1      41.730  26.593  28.453  1.00  0.00     0.074 A 
ATOM     37  C   UNL A   1      41.830  28.673  29.740  1.00  0.00     0.049 A 
ATOM     38  N   UNL A   1      42.830  26.097  28.894  1.00  0.00    -0.248 NA
ATOM     39  C   UNL A   1      41.125  25.791  27.395  1.00  0.00     0.031 C 
ATOM     40  C   UNL A   1      43.287  28.707  29.892  1.00  0.00     0.029 A 
ATOM     41  N   UNL A   1      41.381  29.601  30.680  1.00  0.00    -0.354 N 
ATOM     42  C   UNL A   1      43.227  25.127  28.012  1.00  0.00     0.074 A 
ATOM     43  C   UNL A   1      42.092  24.906  27.154  1.00  0.00     0.031 C 
ATOM     44  C   UNL A   1      43.604  29.409  30.992  1.00  0.00     0.029 A 
ATOM     45  C   UNL A   1      42.368  29.714  31.684  1.00  0.00     0.049 A 
ATOM     46  H   UNL A   1      40.527  30.092  30.648  1.00  0.00     0.167 HD
ATOM     47  C   UNL A   1      44.520  24.710  28.054  1.00  0.00     0.031 A 
ATOM     48  C   UNL A   1      42.098  29.361  32.977  1.00  0.00     0.031 A 
ATOM     49  C   UNL A   1      45.213  25.226  29.237  1.00  0.00     0.049 A 
ATOM     50  C   UNL A   1      42.880  28.156  33.480  1.00  0.00     0.074 A 
ATOM     51  C   UNL A   1      46.182  26.185  29.475  1.00  0.00     0.029 A 
ATOM     52  N   UNL A   1      44.678  24.917  30.477  1.00  0.00    -0.354 N 
ATOM     53  N   UNL A   1      43.744  27.484  32.770  1.00  0.00    -0.248 NA
ATOM     54  C   UNL A   1      42.661  27.547  34.795  1.00  0.00     0.031 C 
ATOM     55  C   UNL A   1      46.223  26.432  30.883  1.00  0.00     0.029 A 
ATOM     56  C   UNL A   1      45.303  25.600  31.495  1.00  0.00     0.049 A 
ATOM     57  H   UNL A   1      43.937  24.282  30.614  1.00  0.00     0.167 HD
ATOM     58  C   UNL A   1      44.096  26.337  33.435  1.00  0.00     0.074 A 
ATOM     59  C   UNL A   1      43.412  26.434  34.712  1.00  0.00     0.031 C 
ATOM     60  C   UNL A   1      44.858  25.361  32.860  1.00  0.00     0.031 A 
BRANCH  47  61
ATOM     61  C   UNL A   1      45.206  23.958  26.944  1.00  0.00    -0.014 A 
ATOM     62  C   UNL A   1      45.995  24.669  26.025  1.00  0.00     0.009 A 
ATOM     63  C   UNL A   1      45.069  22.581  26.692  1.00  0.00     0.009 A 
ATOM     64  C   UNL A   1      46.567  24.052  24.904  1.00  0.00     0.001 A 
ATOM     65  C   UNL A   1      45.634  21.955  25.575  1.00  0.00     0.001 A 
ATOM     66  C   UNL A   1      46.378  22.696  24.673  1.00  0.00     0.000 A 
ENDBRANCH  47  61
BRANCH  48  67
ATOM     67  C   UNL A   1      40.697  29.691  33.366  1.00  0.00    -0.014 A 
ATOM     68  C   UNL A   1      40.395  31.036  33.660  1.00  0.00     0.009 A 
ATOM     69  C   UNL A   1      39.650  28.825  33.018  1.00  0.00     0.009 A 
ATOM     70  C   UNL A   1      39.106  31.535  33.453  1.00  0.00     0.001 A 
ATOM     71  C   UNL A   1      38.358  29.330  32.828  1.00  0.00     0.001 A 
ATOM     72  C   UNL A   1      38.099  30.689  32.998  1.00  0.00     0.000 A 
ENDBRANCH  48  67
BRANCH  60  73
ATOM     73  C   UNL A   1      45.199  24.045  33.514  1.00  0.00    -0.014 A 
ATOM     74  C   UNL A   1      44.259  23.027  33.718  1.00  0.00     0.009 A 
ATOM     75  C   UNL A   1      46.485  23.837  34.065  1.00  0.00     0.009 A 
ATOM     76  C   UNL A   1      44.605  21.844  34.388  1.00  0.00     0.001 A 
ATOM     77  C   UNL A   1      46.827  22.671  34.753  1.00  0.00     0.001 A 
ATOM     78  C   UNL A   1      45.886  21.666  34.906  1.00  0.00     0.000 A 
ENDBRANCH  60  73
ENDBRANCH  34  35
ENDBRANCH  26  29
ENDBRANCH  24  25
ENDBRANCH   1  24
TORSDOF 14
ENDMDL
