MODEL 1
REMARK VINA RESULT:     -12.8      0.000      0.000
REMARK SMILES Cc1ccc(C(=O)NC2(CC(=O)NCCCNC(=O)c3ccc(-c4c5nc(c(-c6ccccc6)c6ccc([nH]6)c(-c6ccccc6)c6nc(c(-c7ccccc7)c7ccc4[nH]7)C=C6)C=C5)cc3)CCC2)cc1
REMARK SMILES IDX 14 1 13 2 11 3 12 4 10 6 9 7 68 8 70 9 69 10 8 11 6 12 7 13
REMARK SMILES IDX 5 15 1 16 2 17 3 18 72 19 4 20 71 21 15 22 16 23 17 24 18 25
REMARK SMILES IDX 19 27 20 28 21 29 67 30 22 31 66 32 23 33 24 34 25 35 60 36
REMARK SMILES IDX 26 37 65 38 59 39 61 40 27 41 64 42 58 43 57 44 28 46 50 47
REMARK SMILES IDX 35 48 49 49 36 50 39 51 48 52 62 53 37 54 38 55 47 57 63 58
REMARK SMILES IDX 40 59 29 60 30 61 34 62 31 63 33 64 32 65 51 66 52 67 56 68
REMARK SMILES IDX 53 69 55 70 54 71 41 72 42 73 46 74 43 75 45 76 44 77
REMARK H PARENT 13 5 8 14 17 26 61 45 39 56
REMARK Flexibility Score: inf
ROOT
ATOM      1  C   UNL A   1      31.403  30.355  25.777  1.00  0.00     0.117 C 
ENDROOT
BRANCH   1   2
ATOM      2  N   UNL A   1      30.646  30.458  24.277  1.00  0.00    -0.356 N 
ATOM      3  C   UNL A   1      30.056  29.218  22.854  1.00  0.00     0.222 C 
ATOM      4  O   UNL A   1      29.082  29.283  22.057  1.00  0.00    -0.275 OA
ATOM      5  H   UNL A   1      30.443  31.392  24.043  1.00  0.00     0.163 HD
BRANCH   3   6
ATOM      6  C   UNL A   1      31.012  27.654  22.377  1.00  0.00     0.128 C 
BRANCH   6   7
ATOM      7  C   UNL A   1      32.693  27.522  22.405  1.00  0.00     0.049 C 
ATOM      8  C   UNL A   1      33.366  27.222  23.792  1.00  0.00     0.029 C 
ATOM      9  C   UNL A   1      34.027  28.570  22.290  1.00  0.00     0.029 C 
ATOM     10  C   UNL A   1      34.021  28.639  23.797  1.00  0.00     0.005 C 
BRANCH   7  11
ATOM     11  N   UNL A   1      32.990  26.689  21.250  1.00  0.00    -0.346 N 
ATOM     12  C   UNL A   1      32.904  25.344  21.492  1.00  0.00     0.251 C 
ATOM     13  O   UNL A   1      32.959  24.499  20.613  1.00  0.00    -0.269 OA
ATOM     14  H   UNL A   1      33.232  27.060  20.371  1.00  0.00     0.164 HD
BRANCH  12  15
ATOM     15  C   UNL A   1      32.940  25.000  22.963  1.00  0.00     0.039 A 
ATOM     16  C   UNL A   1      32.064  22.589  27.248  1.00  0.00     0.044 C 
ATOM     17  C   UNL A   1      32.422  22.758  25.783  1.00  0.00    -0.051 A 
ATOM     18  C   UNL A   1      31.029  23.278  24.762  1.00  0.00     0.004 A 
ATOM     19  C   UNL A   1      34.118  23.242  25.394  1.00  0.00     0.004 A 
ATOM     20  C   UNL A   1      31.289  24.375  23.367  1.00  0.00     0.014 A 
ATOM     21  C   UNL A   1      34.408  24.447  24.021  1.00  0.00     0.014 A 
ENDBRANCH  12  15
ENDBRANCH   7  11
ENDBRANCH   6   7
ENDBRANCH   3   6
ENDBRANCH   1   2
BRANCH   1  22
ATOM     22  C   UNL A   1      31.483  31.682  26.501  1.00  0.00     0.042 C 
BRANCH  22  23
ATOM     23  C   UNL A   1      32.685  31.662  27.382  1.00  0.00     0.118 C 
BRANCH  23  24
ATOM     24  N   UNL A   1      33.502  30.484  27.128  1.00  0.00    -0.352 N 
ATOM     25  C   UNL A   1      34.816  30.233  27.432  1.00  0.00     0.251 C 
ATOM     26  H   UNL A   1      33.036  29.750  26.666  1.00  0.00     0.163 HD
ATOM     27  O   UNL A   1      35.380  29.294  26.877  1.00  0.00    -0.269 OA
BRANCH  25  28
ATOM     28  C   UNL A   1      35.431  30.898  28.618  1.00  0.00     0.039 A 
ATOM     29  C   UNL A   1      36.354  31.875  28.224  1.00  0.00     0.014 A 
ATOM     30  C   UNL A   1      35.706  30.115  29.728  1.00  0.00     0.014 A 
ATOM     31  C   UNL A   1      37.667  31.755  28.642  1.00  0.00     0.010 A 
ATOM     32  C   UNL A   1      37.018  29.802  29.930  1.00  0.00     0.010 A 
ATOM     33  C   UNL A   1      37.994  30.615  29.359  1.00  0.00    -0.014 A 
BRANCH  33  34
ATOM     34  C   UNL A   1      39.311  30.271  29.822  1.00  0.00     0.031 A 
ATOM     35  C   UNL A   1      39.804  29.012  29.235  1.00  0.00     0.074 A 
ATOM     36  C   UNL A   1      39.991  31.221  30.504  1.00  0.00     0.049 A 
ATOM     37  N   UNL A   1      40.589  28.187  29.818  1.00  0.00    -0.248 NA
ATOM     38  C   UNL A   1      39.336  28.500  27.932  1.00  0.00     0.031 C 
ATOM     39  C   UNL A   1      41.414  31.347  30.788  1.00  0.00     0.029 A 
ATOM     40  N   UNL A   1      39.420  32.263  31.245  1.00  0.00    -0.354 N 
ATOM     41  C   UNL A   1      41.071  27.367  28.816  1.00  0.00     0.074 A 
ATOM     42  C   UNL A   1      40.124  27.442  27.742  1.00  0.00     0.031 C 
ATOM     43  C   UNL A   1      41.576  32.157  31.857  1.00  0.00     0.029 A 
ATOM     44  C   UNL A   1      40.248  32.478  32.366  1.00  0.00     0.049 A 
ATOM     45  H   UNL A   1      38.594  32.752  31.025  1.00  0.00     0.167 HD
ATOM     46  C   UNL A   1      42.360  26.950  28.894  1.00  0.00     0.031 A 
ATOM     47  C   UNL A   1      39.785  32.140  33.611  1.00  0.00     0.031 A 
ATOM     48  C   UNL A   1      42.977  27.512  30.091  1.00  0.00     0.049 A 
ATOM     49  C   UNL A   1      40.493  30.910  34.143  1.00  0.00     0.074 A 
ATOM     50  C   UNL A   1      43.760  28.636  30.284  1.00  0.00     0.029 A 
ATOM     51  N   UNL A   1      42.427  27.194  31.323  1.00  0.00    -0.354 N 
ATOM     52  N   UNL A   1      41.028  29.994  33.381  1.00  0.00    -0.248 NA
ATOM     53  C   UNL A   1      40.673  30.635  35.564  1.00  0.00     0.031 C 
ATOM     54  C   UNL A   1      43.636  29.019  31.648  1.00  0.00     0.029 A 
ATOM     55  C   UNL A   1      42.784  28.126  32.275  1.00  0.00     0.049 A 
ATOM     56  H   UNL A   1      41.861  26.408  31.496  1.00  0.00     0.167 HD
ATOM     57  C   UNL A   1      41.631  29.047  34.163  1.00  0.00     0.074 A 
ATOM     58  C   UNL A   1      41.372  29.486  35.522  1.00  0.00     0.031 C 
ATOM     59  C   UNL A   1      42.301  27.978  33.639  1.00  0.00     0.031 A 
BRANCH  46  60
ATOM     60  C   UNL A   1      43.148  26.338  27.772  1.00  0.00    -0.014 A 
ATOM     61  C   UNL A   1      43.904  27.190  26.945  1.00  0.00     0.009 A 
ATOM     62  C   UNL A   1      43.218  24.965  27.481  1.00  0.00     0.009 A 
ATOM     63  C   UNL A   1      44.666  26.713  25.876  1.00  0.00     0.001 A 
ATOM     64  C   UNL A   1      43.969  24.480  26.397  1.00  0.00     0.001 A 
ATOM     65  C   UNL A   1      44.695  25.354  25.599  1.00  0.00     0.000 A 
ENDBRANCH  46  60
BRANCH  47  66
ATOM     66  C   UNL A   1      38.310  32.391  33.738  1.00  0.00    -0.014 A 
ATOM     67  C   UNL A   1      37.862  33.727  33.642  1.00  0.00     0.009 A 
ATOM     68  C   UNL A   1      37.404  31.363  33.441  1.00  0.00     0.009 A 
ATOM     69  C   UNL A   1      36.631  34.024  33.047  1.00  0.00     0.001 A 
ATOM     70  C   UNL A   1      36.159  31.670  32.875  1.00  0.00     0.001 A 
ATOM     71  C   UNL A   1      35.804  32.993  32.613  1.00  0.00     0.000 A 
ENDBRANCH  47  66
BRANCH  59  72
ATOM     72  C   UNL A   1      42.624  26.698  34.375  1.00  0.00    -0.014 A 
ATOM     73  C   UNL A   1      41.694  25.962  35.115  1.00  0.00     0.009 A 
ATOM     74  C   UNL A   1      43.900  26.106  34.214  1.00  0.00     0.009 A 
ATOM     75  C   UNL A   1      42.042  24.753  35.730  1.00  0.00     0.001 A 
ATOM     76  C   UNL A   1      44.227  24.862  34.752  1.00  0.00     0.001 A 
ATOM     77  C   UNL A   1      43.304  24.199  35.539  1.00  0.00     0.000 A 
ENDBRANCH  59  72
ENDBRANCH  33  34
ENDBRANCH  25  28
ENDBRANCH  23  24
ENDBRANCH  22  23
ENDBRANCH   1  22
TORSDOF 13
ENDMDL
MODEL 2
REMARK VINA RESULT:     -12.7      4.032      8.124
REMARK SMILES Cc1ccc(C(=O)NC2(CC(=O)NCCCNC(=O)c3ccc(-c4c5nc(c(-c6ccccc6)c6ccc([nH]6)c(-c6ccccc6)c6nc(c(-c7ccccc7)c7ccc4[nH]7)C=C6)C=C5)cc3)CCC2)cc1
REMARK SMILES IDX 14 1 13 2 11 3 12 4 10 6 9 7 68 8 70 9 69 10 8 11 6 12 7 13
REMARK SMILES IDX 5 15 1 16 2 17 3 18 72 19 4 20 71 21 15 22 16 23 17 24 18 25
REMARK SMILES IDX 19 27 20 28 21 29 67 30 22 31 66 32 23 33 24 34 25 35 60 36
REMARK SMILES IDX 26 37 65 38 59 39 61 40 27 41 64 42 58 43 57 44 28 46 50 47
REMARK SMILES IDX 35 48 49 49 36 50 39 51 48 52 62 53 37 54 38 55 47 57 63 58
REMARK SMILES IDX 40 59 29 60 30 61 34 62 31 63 33 64 32 65 51 66 52 67 56 68
REMARK SMILES IDX 53 69 55 70 54 71 41 72 42 73 46 74 43 75 45 76 44 77
REMARK H PARENT 13 5 8 14 17 26 61 45 39 56
REMARK Flexibility Score: inf
ROOT
ATOM      1  C   UNL A   1      34.759  30.605  27.416  1.00  0.00     0.117 C 
ENDROOT
BRANCH   1   2
ATOM      2  N   UNL A   1      33.154  30.135  27.605  1.00  0.00    -0.356 N 
ATOM      3  C   UNL A   1      32.080  28.491  27.378  1.00  0.00     0.222 C 
ATOM      4  O   UNL A   1      31.066  28.077  28.001  1.00  0.00    -0.275 OA
ATOM      5  H   UNL A   1      32.597  30.886  27.912  1.00  0.00     0.163 HD
BRANCH   3   6
ATOM      6  C   UNL A   1      32.391  27.229  26.000  1.00  0.00     0.128 C 
BRANCH   6   7
ATOM      7  C   UNL A   1      31.175  26.492  25.094  1.00  0.00     0.049 C 
ATOM      8  C   UNL A   1      31.565  25.960  23.668  1.00  0.00     0.029 C 
ATOM      9  C   UNL A   1      29.791  26.981  24.234  1.00  0.00     0.029 C 
ATOM     10  C   UNL A   1      30.657  27.039  23.000  1.00  0.00     0.005 C 
BRANCH   7  11
ATOM     11  N   UNL A   1      30.519  25.614  26.050  1.00  0.00    -0.346 N 
ATOM     12  C   UNL A   1      31.231  24.486  26.355  1.00  0.00     0.251 C 
ATOM     13  O   UNL A   1      30.922  23.717  27.251  1.00  0.00    -0.269 OA
ATOM     14  H   UNL A   1      29.640  25.814  26.444  1.00  0.00     0.164 HD
BRANCH  12  15
ATOM     15  C   UNL A   1      32.316  24.176  25.349  1.00  0.00     0.039 A 
ATOM     16  C   UNL A   1      36.652  22.576  23.455  1.00  0.00     0.044 C 
ATOM     17  C   UNL A   1      35.387  22.532  24.293  1.00  0.00    -0.051 A 
ATOM     18  C   UNL A   1      35.401  23.696  25.671  1.00  0.00     0.004 A 
ATOM     19  C   UNL A   1      33.854  22.067  23.459  1.00  0.00     0.004 A 
ATOM     20  C   UNL A   1      33.885  24.497  26.195  1.00  0.00     0.014 A 
ATOM     21  C   UNL A   1      32.291  22.944  23.912  1.00  0.00     0.014 A 
ENDBRANCH  12  15
ENDBRANCH   7  11
ENDBRANCH   6   7
ENDBRANCH   3   6
ENDBRANCH   1   2
BRANCH   1  22
ATOM     22  C   UNL A   1      35.750  29.516  27.766  1.00  0.00     0.042 C 
BRANCH  22  23
ATOM     23  C   UNL A   1      36.516  29.949  28.968  1.00  0.00     0.118 C 
BRANCH  23  24
ATOM     24  N   UNL A   1      37.371  28.878  29.459  1.00  0.00    -0.352 N 
ATOM     25  C   UNL A   1      38.607  28.462  29.032  1.00  0.00     0.251 C 
ATOM     26  H   UNL A   1      37.004  28.371  30.220  1.00  0.00     0.163 HD
ATOM     27  O   UNL A   1      39.019  27.366  29.400  1.00  0.00    -0.269 OA
BRANCH  25  28
ATOM     28  C   UNL A   1      39.527  29.447  28.392  1.00  0.00     0.039 A 
ATOM     29  C   UNL A   1      39.898  29.027  27.108  1.00  0.00     0.014 A 
ATOM     30  C   UNL A   1      40.465  30.073  29.198  1.00  0.00     0.014 A 
ATOM     31  C   UNL A   1      41.240  28.837  26.834  1.00  0.00     0.010 A 
ATOM     32  C   UNL A   1      41.752  29.638  29.068  1.00  0.00     0.010 A 
ATOM     33  C   UNL A   1      42.124  28.996  27.891  1.00  0.00    -0.014 A 
BRANCH  33  34
ATOM     34  C   UNL A   1      43.544  28.777  27.830  1.00  0.00     0.031 A 
ATOM     35  C   UNL A   1      44.280  29.972  27.379  1.00  0.00     0.074 A 
ATOM     36  C   UNL A   1      44.017  27.646  28.401  1.00  0.00     0.049 A 
ATOM     37  N   UNL A   1      45.366  29.956  26.704  1.00  0.00    -0.248 NA
ATOM     38  C   UNL A   1      43.763  31.344  27.559  1.00  0.00     0.031 C 
ATOM     39  C   UNL A   1      45.364  27.293  28.830  1.00  0.00     0.029 A 
ATOM     40  N   UNL A   1      43.300  26.455  28.574  1.00  0.00    -0.354 N 
ATOM     41  C   UNL A   1      45.886  31.231  26.812  1.00  0.00     0.074 A 
ATOM     42  C   UNL A   1      44.785  32.090  27.140  1.00  0.00     0.031 C 
ATOM     43  C   UNL A   1      45.462  25.948  28.899  1.00  0.00     0.029 A 
ATOM     44  C   UNL A   1      44.211  25.393  28.397  1.00  0.00     0.049 A 
ATOM     45  H   UNL A   1      42.341  26.375  28.780  1.00  0.00     0.167 HD
ATOM     46  C   UNL A   1      47.233  31.368  26.902  1.00  0.00     0.031 A 
ATOM     47  C   UNL A   1      44.099  24.597  27.286  1.00  0.00     0.031 A 
ATOM     48  C   UNL A   1      47.855  30.048  26.870  1.00  0.00     0.049 A 
ATOM     49  C   UNL A   1      45.225  24.861  26.308  1.00  0.00     0.074 A 
ATOM     50  C   UNL A   1      48.286  29.208  27.881  1.00  0.00     0.029 A 
ATOM     51  N   UNL A   1      47.653  29.255  25.752  1.00  0.00    -0.354 N 
ATOM     52  N   UNL A   1      45.866  25.997  26.228  1.00  0.00    -0.248 NA
ATOM     53  C   UNL A   1      45.728  23.865  25.369  1.00  0.00     0.031 C 
ATOM     54  C   UNL A   1      48.296  27.883  27.365  1.00  0.00     0.029 A 
ATOM     55  C   UNL A   1      47.876  27.926  26.046  1.00  0.00     0.049 A 
ATOM     56  H   UNL A   1      47.389  29.593  24.867  1.00  0.00     0.167 HD
ATOM     57  C   UNL A   1      46.854  25.896  25.286  1.00  0.00     0.074 A 
ATOM     58  C   UNL A   1      46.720  24.547  24.769  1.00  0.00     0.031 C 
ATOM     59  C   UNL A   1      47.709  26.923  25.005  1.00  0.00     0.031 A 
BRANCH  46  60
ATOM     60  C   UNL A   1      47.957  32.609  27.340  1.00  0.00    -0.014 A 
ATOM     61  C   UNL A   1      48.213  33.605  26.379  1.00  0.00     0.009 A 
ATOM     62  C   UNL A   1      48.390  32.879  28.649  1.00  0.00     0.009 A 
ATOM     63  C   UNL A   1      48.881  34.792  26.692  1.00  0.00     0.001 A 
ATOM     64  C   UNL A   1      49.078  34.062  28.966  1.00  0.00     0.001 A 
ATOM     65  C   UNL A   1      49.318  35.018  27.988  1.00  0.00     0.000 A 
ENDBRANCH  46  60
BRANCH  47  66
ATOM     66  C   UNL A   1      42.663  24.398  26.894  1.00  0.00    -0.014 A 
ATOM     67  C   UNL A   1      41.780  23.894  27.874  1.00  0.00     0.009 A 
ATOM     68  C   UNL A   1      42.126  25.139  25.832  1.00  0.00     0.009 A 
ATOM     69  C   UNL A   1      40.446  24.315  27.914  1.00  0.00     0.001 A 
ATOM     70  C   UNL A   1      40.780  25.529  25.863  1.00  0.00     0.001 A 
ATOM     71  C   UNL A   1      39.962  25.179  26.936  1.00  0.00     0.000 A 
ENDBRANCH  47  66
BRANCH  59  72
ATOM     72  C   UNL A   1      48.526  27.065  23.741  1.00  0.00    -0.014 A 
ATOM     73  C   UNL A   1      48.020  27.542  22.529  1.00  0.00     0.009 A 
ATOM     74  C   UNL A   1      49.924  26.840  23.787  1.00  0.00     0.009 A 
ATOM     75  C   UNL A   1      48.841  27.701  21.407  1.00  0.00     0.001 A 
ATOM     76  C   UNL A   1      50.761  27.079  22.699  1.00  0.00     0.001 A 
ATOM     77  C   UNL A   1      50.212  27.481  21.495  1.00  0.00     0.000 A 
ENDBRANCH  59  72
ENDBRANCH  33  34
ENDBRANCH  25  28
ENDBRANCH  23  24
ENDBRANCH  22  23
ENDBRANCH   1  22
TORSDOF 13
ENDMDL
MODEL 3
REMARK VINA RESULT:     -12.6      3.058      6.859
REMARK SMILES Cc1ccc(C(=O)NC2(CC(=O)NCCCNC(=O)c3ccc(-c4c5nc(c(-c6ccccc6)c6ccc([nH]6)c(-c6ccccc6)c6nc(c(-c7ccccc7)c7ccc4[nH]7)C=C6)C=C5)cc3)CCC2)cc1
REMARK SMILES IDX 14 1 13 2 11 3 12 4 10 6 9 7 68 8 70 9 69 10 8 11 6 12 7 13
REMARK SMILES IDX 5 15 1 16 2 17 3 18 72 19 4 20 71 21 15 22 16 23 17 24 18 25
REMARK SMILES IDX 19 27 20 28 21 29 67 30 22 31 66 32 23 33 24 34 25 35 60 36
REMARK SMILES IDX 26 37 65 38 59 39 61 40 27 41 64 42 58 43 57 44 28 46 50 47
REMARK SMILES IDX 35 48 49 49 36 50 39 51 48 52 62 53 37 54 38 55 47 57 63 58
REMARK SMILES IDX 40 59 29 60 30 61 34 62 31 63 33 64 32 65 51 66 52 67 56 68
REMARK SMILES IDX 53 69 55 70 54 71 41 72 42 73 46 74 43 75 45 76 44 77
REMARK H PARENT 13 5 8 14 17 26 61 45 39 56
REMARK Flexibility Score: inf
ROOT
ATOM      1  C   UNL A   1      38.917  22.654  26.501  1.00  0.00     0.117 C 
ENDROOT
BRANCH   1   2
ATOM      2  N   UNL A   1      38.282  22.187  25.014  1.00  0.00    -0.356 N 
ATOM      3  C   UNL A   1      36.748  22.675  23.866  1.00  0.00     0.222 C 
ATOM      4  O   UNL A   1      36.627  22.682  22.611  1.00  0.00    -0.275 OA
ATOM      5  H   UNL A   1      38.822  21.475  24.603  1.00  0.00     0.163 HD
BRANCH   3   6
ATOM      6  C   UNL A   1      35.049  23.160  24.551  1.00  0.00     0.128 C 
BRANCH   6   7
ATOM      7  C   UNL A   1      33.583  22.574  23.959  1.00  0.00     0.049 C 
ATOM      8  C   UNL A   1      32.341  22.648  24.918  1.00  0.00     0.029 C 
ATOM      9  C   UNL A   1      32.892  21.057  23.623  1.00  0.00     0.029 C 
ATOM     10  C   UNL A   1      32.302  21.091  25.012  1.00  0.00     0.005 C 
BRANCH   7  11
ATOM     11  N   UNL A   1      33.508  23.131  22.618  1.00  0.00    -0.346 N 
ATOM     12  C   UNL A   1      33.276  24.480  22.583  1.00  0.00     0.251 C 
ATOM     13  O   UNL A   1      33.341  25.147  21.564  1.00  0.00    -0.269 OA
ATOM     14  H   UNL A   1      33.616  22.586  21.805  1.00  0.00     0.164 HD
BRANCH  12  15
ATOM     15  C   UNL A   1      32.732  25.024  23.884  1.00  0.00     0.039 A 
ATOM     16  C   UNL A   1      31.785  28.201  27.620  1.00  0.00     0.044 C 
ATOM     17  C   UNL A   1      31.924  27.727  26.185  1.00  0.00    -0.051 A 
ATOM     18  C   UNL A   1      33.634  27.425  25.694  1.00  0.00     0.004 A 
ATOM     19  C   UNL A   1      30.555  26.778  25.488  1.00  0.00     0.004 A 
ATOM     20  C   UNL A   1      34.027  26.098  24.553  1.00  0.00     0.014 A 
ATOM     21  C   UNL A   1      30.935  25.344  24.383  1.00  0.00     0.014 A 
ENDBRANCH  12  15
ENDBRANCH   7  11
ENDBRANCH   6   7
ENDBRANCH   3   6
ENDBRANCH   1   2
BRANCH   1  22
ATOM     22  C   UNL A   1      38.564  24.074  26.886  1.00  0.00     0.042 C 
BRANCH  22  23
ATOM     23  C   UNL A   1      39.700  24.958  26.502  1.00  0.00     0.118 C 
BRANCH  23  24
ATOM     24  N   UNL A   1      40.604  25.168  27.624  1.00  0.00    -0.352 N 
ATOM     25  C   UNL A   1      40.871  26.301  28.349  1.00  0.00     0.251 C 
ATOM     26  H   UNL A   1      41.103  24.368  27.907  1.00  0.00     0.163 HD
ATOM     27  O   UNL A   1      41.871  26.323  29.062  1.00  0.00    -0.269 OA
BRANCH  25  28
ATOM     28  C   UNL A   1      39.813  27.344  28.489  1.00  0.00     0.039 A 
ATOM     29  C   UNL A   1      40.137  28.491  27.752  1.00  0.00     0.014 A 
ATOM     30  C   UNL A   1      39.202  27.484  29.725  1.00  0.00     0.014 A 
ATOM     31  C   UNL A   1      40.257  29.696  28.418  1.00  0.00     0.010 A 
ATOM     32  C   UNL A   1      39.578  28.571  30.459  1.00  0.00     0.010 A 
ATOM     33  C   UNL A   1      40.131  29.664  29.798  1.00  0.00    -0.014 A 
BRANCH  33  34
ATOM     34  C   UNL A   1      40.290  30.793  30.676  1.00  0.00     0.031 A 
ATOM     35  C   UNL A   1      41.343  30.578  31.684  1.00  0.00     0.074 A 
ATOM     36  C   UNL A   1      39.663  31.938  30.325  1.00  0.00     0.049 A 
ATOM     37  N   UNL A   1      41.339  31.066  32.867  1.00  0.00    -0.248 NA
ATOM     38  C   UNL A   1      42.477  29.656  31.472  1.00  0.00     0.031 C 
ATOM     39  C   UNL A   1      39.887  33.311  30.756  1.00  0.00     0.029 A 
ATOM     40  N   UNL A   1      38.504  32.030  29.543  1.00  0.00    -0.354 N 
ATOM     41  C   UNL A   1      42.634  30.926  33.327  1.00  0.00     0.074 A 
ATOM     42  C   UNL A   1      43.227  29.875  32.553  1.00  0.00     0.031 C 
ATOM     43  C   UNL A   1      38.767  34.030  30.524  1.00  0.00     0.029 A 
ATOM     44  C   UNL A   1      37.746  33.106  30.049  1.00  0.00     0.049 A 
ATOM     45  H   UNL A   1      38.266  31.451  28.782  1.00  0.00     0.167 HD
ATOM     46  C   UNL A   1      43.147  31.911  34.107  1.00  0.00     0.031 A 
ATOM     47  C   UNL A   1      36.566  32.843  30.695  1.00  0.00     0.031 A 
ATOM     48  C   UNL A   1      42.146  32.959  34.279  1.00  0.00     0.049 A 
ATOM     49  C   UNL A   1      36.693  33.085  32.185  1.00  0.00     0.074 A 
ATOM     50  C   UNL A   1      41.942  34.156  33.614  1.00  0.00     0.029 A 
ATOM     51  N   UNL A   1      40.942  32.625  34.877  1.00  0.00    -0.354 N 
ATOM     52  N   UNL A   1      37.821  33.008  32.840  1.00  0.00    -0.248 NA
ATOM     53  C   UNL A   1      35.571  33.456  33.041  1.00  0.00     0.031 C 
ATOM     54  C   UNL A   1      40.576  34.515  33.784  1.00  0.00     0.029 A 
ATOM     55  C   UNL A   1      39.962  33.540  34.551  1.00  0.00     0.049 A 
ATOM     56  H   UNL A   1      40.804  31.843  35.457  1.00  0.00     0.167 HD
ATOM     57  C   UNL A   1      37.608  33.331  34.152  1.00  0.00     0.074 A 
ATOM     58  C   UNL A   1      36.183  33.593  34.231  1.00  0.00     0.031 C 
ATOM     59  C   UNL A   1      38.615  33.364  35.074  1.00  0.00     0.031 A 
BRANCH  46  60
ATOM     60  C   UNL A   1      44.601  32.100  34.432  1.00  0.00    -0.014 A 
ATOM     61  C   UNL A   1      45.035  31.806  35.738  1.00  0.00     0.009 A 
ATOM     62  C   UNL A   1      45.588  32.529  33.528  1.00  0.00     0.009 A 
ATOM     63  C   UNL A   1      46.367  31.953  36.133  1.00  0.00     0.001 A 
ATOM     64  C   UNL A   1      46.925  32.695  33.924  1.00  0.00     0.001 A 
ATOM     65  C   UNL A   1      47.314  32.403  35.225  1.00  0.00     0.000 A 
ENDBRANCH  46  60
BRANCH  47  66
ATOM     66  C   UNL A   1      35.851  31.672  30.084  1.00  0.00    -0.014 A 
ATOM     67  C   UNL A   1      35.078  31.908  28.925  1.00  0.00     0.009 A 
ATOM     68  C   UNL A   1      36.327  30.373  30.312  1.00  0.00     0.009 A 
ATOM     69  C   UNL A   1      34.986  30.938  27.921  1.00  0.00     0.001 A 
ATOM     70  C   UNL A   1      36.202  29.398  29.314  1.00  0.00     0.001 A 
ATOM     71  C   UNL A   1      35.598  29.701  28.095  1.00  0.00     0.000 A 
ENDBRANCH  47  66
BRANCH  59  72
ATOM     72  C   UNL A   1      38.437  33.293  36.574  1.00  0.00    -0.014 A 
ATOM     73  C   UNL A   1      38.771  34.326  37.454  1.00  0.00     0.009 A 
ATOM     74  C   UNL A   1      37.768  32.182  37.143  1.00  0.00     0.009 A 
ATOM     75  C   UNL A   1      38.531  34.220  38.829  1.00  0.00     0.001 A 
ATOM     76  C   UNL A   1      37.449  32.108  38.497  1.00  0.00     0.001 A 
ATOM     77  C   UNL A   1      37.861  33.117  39.348  1.00  0.00     0.000 A 
ENDBRANCH  59  72
ENDBRANCH  33  34
ENDBRANCH  25  28
ENDBRANCH  23  24
ENDBRANCH  22  23
ENDBRANCH   1  22
TORSDOF 13
ENDMDL
