MODEL 1
REMARK VINA RESULT:     -12.5      0.000      0.000
REMARK SMILES O=C(NCCCNC(=O)c1ccc2c(c1)[C@@H]1C=CC[C@@H]1[C@H](c1ccncc1)N2)c1ccc(-c2c3nc(c(-c4ccccc4)c4ccc([nH]4)c(-c4ccccc4)c4nc(c(-c5ccccc5)c5ccc2[nH]5)C=C4)C=C3)cc1
REMARK SMILES IDX 4 1 3 2 1 3 2 4 29 6 30 7 76 8 31 9 75 10 32 11 33 12 34 13
REMARK SMILES IDX 69 14 35 15 74 16 68 17 70 18 36 19 73 20 67 21 66 22 37 24
REMARK SMILES IDX 59 25 44 26 58 27 45 28 48 29 57 30 71 31 46 32 47 33 56 35
REMARK SMILES IDX 72 36 49 37 38 38 39 39 43 40 40 41 42 42 41 43 60 44 61 45
REMARK SMILES IDX 65 46 62 47 64 48 63 49 50 50 51 51 55 52 52 53 54 54 53 55
REMARK SMILES IDX 5 56 6 57 7 58 8 59 9 61 10 62 11 63 15 64 12 65 14 66 13 67
REMARK SMILES IDX 16 68 28 69 17 70 20 71 21 72 18 74 19 75 22 76 23 77 27 78
REMARK SMILES IDX 24 79 26 80 25 81
REMARK H PARENT 3 5 70 23 48 34 7 60 28 73
REMARK Flexibility Score: inf
ROOT
ATOM      1  C   UNL A   1      38.611  20.223  25.546  1.00  0.00     0.118 C 
ENDROOT
BRANCH   1   2
ATOM      2  N   UNL A   1      39.751  19.316  25.644  1.00  0.00    -0.352 N 
ATOM      3  O   UNL A   1      41.898  18.672  25.842  1.00  0.00    -0.269 OA
ATOM      4  C   UNL A   1      41.054  19.551  26.009  1.00  0.00     0.251 C 
ATOM      5  H   UNL A   1      39.552  18.381  25.410  1.00  0.00     0.163 HD
BRANCH   4   6
ATOM      6  C   UNL A   1      41.455  20.854  26.579  1.00  0.00     0.039 A 
ATOM      7  C   UNL A   1      41.400  21.078  27.954  1.00  0.00     0.014 A 
ATOM      8  C   UNL A   1      41.927  21.860  25.731  1.00  0.00     0.014 A 
ATOM      9  C   UNL A   1      41.636  22.350  28.458  1.00  0.00     0.010 A 
ATOM     10  C   UNL A   1      42.277  23.110  26.254  1.00  0.00     0.010 A 
ATOM     11  C   UNL A   1      42.099  23.376  27.620  1.00  0.00    -0.014 A 
BRANCH  11  12
ATOM     12  C   UNL A   1      42.449  24.687  28.224  1.00  0.00     0.031 A 
ATOM     13  C   UNL A   1      43.866  25.032  28.586  1.00  0.00     0.074 A 
ATOM     14  C   UNL A   1      41.469  25.600  28.382  1.00  0.00     0.049 A 
ATOM     15  N   UNL A   1      44.341  26.161  29.050  1.00  0.00    -0.248 NA
ATOM     16  C   UNL A   1      44.881  23.981  28.412  1.00  0.00     0.031 C 
ATOM     17  C   UNL A   1      40.052  25.378  28.077  1.00  0.00     0.029 A 
ATOM     18  N   UNL A   1      41.516  26.904  28.802  1.00  0.00    -0.354 N 
ATOM     19  C   UNL A   1      45.703  25.956  29.233  1.00  0.00     0.074 A 
ATOM     20  C   UNL A   1      45.975  24.584  28.861  1.00  0.00     0.031 C 
ATOM     21  C   UNL A   1      39.379  26.523  28.256  1.00  0.00     0.029 A 
ATOM     22  C   UNL A   1      40.298  27.538  28.753  1.00  0.00     0.049 A 
ATOM     23  H   UNL A   1      42.342  27.343  29.109  1.00  0.00     0.167 HD
ATOM     24  C   UNL A   1      46.643  26.833  29.661  1.00  0.00     0.031 A 
ATOM     25  C   UNL A   1      39.952  28.796  29.081  1.00  0.00     0.031 A 
ATOM     26  C   UNL A   1      46.371  28.197  30.038  1.00  0.00     0.049 A 
ATOM     27  C   UNL A   1      41.010  29.735  29.577  1.00  0.00     0.074 A 
ATOM     28  C   UNL A   1      47.258  29.162  30.483  1.00  0.00     0.029 A 
ATOM     29  N   UNL A   1      45.118  28.788  30.013  1.00  0.00    -0.354 N 
ATOM     30  N   UNL A   1      42.296  29.526  29.722  1.00  0.00    -0.248 NA
ATOM     31  C   UNL A   1      40.568  31.084  29.952  1.00  0.00     0.031 C 
ATOM     32  C   UNL A   1      46.534  30.325  30.768  1.00  0.00     0.029 A 
ATOM     33  C   UNL A   1      45.205  30.100  30.449  1.00  0.00     0.049 A 
ATOM     34  H   UNL A   1      44.288  28.341  29.727  1.00  0.00     0.167 HD
ATOM     35  C   UNL A   1      42.819  30.721  30.196  1.00  0.00     0.074 A 
ATOM     36  C   UNL A   1      41.716  31.657  30.282  1.00  0.00     0.031 C 
ATOM     37  C   UNL A   1      44.097  31.015  30.537  1.00  0.00     0.031 A 
BRANCH  24  38
ATOM     38  C   UNL A   1      48.060  26.341  29.760  1.00  0.00    -0.014 A 
ATOM     39  C   UNL A   1      48.951  26.468  28.683  1.00  0.00     0.009 A 
ATOM     40  C   UNL A   1      48.528  25.792  30.966  1.00  0.00     0.009 A 
ATOM     41  C   UNL A   1      50.273  26.032  28.801  1.00  0.00     0.001 A 
ATOM     42  C   UNL A   1      49.857  25.381  31.090  1.00  0.00     0.001 A 
ATOM     43  C   UNL A   1      50.726  25.495  30.006  1.00  0.00     0.000 A 
ENDBRANCH  24  38
BRANCH  25  44
ATOM     44  C   UNL A   1      38.535  29.227  28.970  1.00  0.00    -0.014 A 
ATOM     45  C   UNL A   1      38.019  29.701  27.755  1.00  0.00     0.009 A 
ATOM     46  C   UNL A   1      37.689  29.162  30.088  1.00  0.00     0.009 A 
ATOM     47  C   UNL A   1      36.692  30.128  27.670  1.00  0.00     0.001 A 
ATOM     48  C   UNL A   1      36.354  29.558  29.993  1.00  0.00     0.001 A 
ATOM     49  C   UNL A   1      35.860  30.052  28.786  1.00  0.00     0.000 A 
ENDBRANCH  25  44
BRANCH  37  50
ATOM     50  C   UNL A   1      44.364  32.414  31.012  1.00  0.00    -0.014 A 
ATOM     51  C   UNL A   1      44.296  32.745  32.374  1.00  0.00     0.009 A 
ATOM     52  C   UNL A   1      44.696  33.412  30.082  1.00  0.00     0.009 A 
ATOM     53  C   UNL A   1      44.514  34.059  32.792  1.00  0.00     0.001 A 
ATOM     54  C   UNL A   1      44.941  34.719  30.507  1.00  0.00     0.001 A 
ATOM     55  C   UNL A   1      44.839  35.042  31.859  1.00  0.00     0.000 A 
ENDBRANCH  37  50
ENDBRANCH  11  12
ENDBRANCH   4   6
ENDBRANCH   1   2
BRANCH   1  56
ATOM     56  C   UNL A   1      37.381  19.559  24.949  1.00  0.00     0.042 C 
BRANCH  56  57
ATOM     57  C   UNL A   1      36.143  20.441  24.975  1.00  0.00     0.118 C 
BRANCH  57  58
ATOM     58  N   UNL A   1      34.909  19.665  24.937  1.00  0.00    -0.352 N 
ATOM     59  C   UNL A   1      33.631  20.014  25.302  1.00  0.00     0.251 C 
ATOM     60  H   UNL A   1      35.007  18.748  24.596  1.00  0.00     0.163 HD
ATOM     61  O   UNL A   1      32.771  19.145  25.417  1.00  0.00    -0.269 OA
BRANCH  59  62
ATOM     62  C   UNL A   1      33.290  21.425  25.574  1.00  0.00     0.040 A 
ATOM     63  C   UNL A   1      33.614  21.983  26.809  1.00  0.00     0.016 A 
ATOM     64  C   UNL A   1      32.644  22.200  24.611  1.00  0.00     0.020 A 
ATOM     65  C   UNL A   1      33.329  23.329  27.052  1.00  0.00     0.027 A 
ATOM     66  C   UNL A   1      32.455  23.573  24.813  1.00  0.00    -0.017 A 
ATOM     67  C   UNL A   1      32.731  24.133  26.069  1.00  0.00     0.038 A 
ATOM     68  C   UNL A   1      31.982  24.429  23.661  1.00  0.00     0.049 C 
ATOM     69  N   UNL A   1      32.510  25.480  26.328  1.00  0.00    -0.378 N 
ATOM     70  C   UNL A   1      32.916  24.361  22.473  1.00  0.00    -0.023 C 
ATOM     71  C   UNL A   1      32.017  25.938  23.956  1.00  0.00     0.031 C 
ATOM     72  C   UNL A   1      31.671  26.246  25.415  1.00  0.00     0.114 C 
ATOM     73  H   UNL A   1      32.914  25.910  27.116  1.00  0.00     0.161 HD
ATOM     74  C   UNL A   1      33.693  25.448  22.378  1.00  0.00    -0.030 C 
ATOM     75  C   UNL A   1      33.395  26.423  23.473  1.00  0.00     0.034 C 
BRANCH  72  76
ATOM     76  C   UNL A   1      31.708  27.739  25.709  1.00  0.00    -0.022 A 
ATOM     77  C   UNL A   1      32.241  28.183  26.929  1.00  0.00     0.026 A 
ATOM     78  C   UNL A   1      31.225  28.711  24.825  1.00  0.00     0.026 A 
ATOM     79  C   UNL A   1      32.271  29.541  27.202  1.00  0.00     0.111 A 
ATOM     80  C   UNL A   1      31.314  30.048  25.181  1.00  0.00     0.111 A 
ATOM     81  N   UNL A   1      31.825  30.485  26.350  1.00  0.00    -0.265 NA
ENDBRANCH  72  76
ENDBRANCH  59  62
ENDBRANCH  57  58
ENDBRANCH  56  57
ENDBRANCH   1  56
TORSDOF 11
ENDMDL
MODEL 2
REMARK VINA RESULT:     -12.5      3.601      9.010
REMARK SMILES O=C(NCCCNC(=O)c1ccc2c(c1)[C@@H]1C=CC[C@@H]1[C@H](c1ccncc1)N2)c1ccc(-c2c3nc(c(-c4ccccc4)c4ccc([nH]4)c(-c4ccccc4)c4nc(c(-c5ccccc5)c5ccc2[nH]5)C=C4)C=C3)cc1
REMARK SMILES IDX 4 1 3 2 1 3 2 4 29 6 30 7 76 8 31 9 75 10 32 11 33 12 34 13
REMARK SMILES IDX 69 14 35 15 74 16 68 17 70 18 36 19 73 20 67 21 66 22 37 24
REMARK SMILES IDX 59 25 44 26 58 27 45 28 48 29 57 30 71 31 46 32 47 33 56 35
REMARK SMILES IDX 72 36 49 37 38 38 39 39 43 40 40 41 42 42 41 43 60 44 61 45
REMARK SMILES IDX 65 46 62 47 64 48 63 49 50 50 51 51 55 52 52 53 54 54 53 55
REMARK SMILES IDX 5 56 6 57 7 58 8 59 9 61 10 62 11 63 15 64 12 65 14 66 13 67
REMARK SMILES IDX 16 68 28 69 17 70 20 71 21 72 18 74 19 75 22 76 23 77 27 78
REMARK SMILES IDX 24 79 26 80 25 81
REMARK H PARENT 3 5 70 23 48 34 7 60 28 73
REMARK Flexibility Score: inf
ROOT
ATOM      1  C   UNL A   1      32.136  31.913  26.882  1.00  0.00     0.118 C 
ENDROOT
BRANCH   1   2
ATOM      2  N   UNL A   1      32.073  33.310  27.302  1.00  0.00    -0.352 N 
ATOM      3  O   UNL A   1      32.562  35.159  28.487  1.00  0.00    -0.269 OA
ATOM      4  C   UNL A   1      32.906  34.039  28.113  1.00  0.00     0.251 C 
ATOM      5  H   UNL A   1      31.306  33.811  26.943  1.00  0.00     0.163 HD
BRANCH   4   6
ATOM      6  C   UNL A   1      34.202  33.485  28.559  1.00  0.00     0.039 A 
ATOM      7  C   UNL A   1      34.262  32.553  29.594  1.00  0.00     0.014 A 
ATOM      8  C   UNL A   1      35.378  33.877  27.911  1.00  0.00     0.014 A 
ATOM      9  C   UNL A   1      35.492  32.157  30.099  1.00  0.00     0.010 A 
ATOM     10  C   UNL A   1      36.614  33.387  28.346  1.00  0.00     0.010 A 
ATOM     11  C   UNL A   1      36.683  32.550  29.469  1.00  0.00    -0.014 A 
BRANCH  11  12
ATOM     12  C   UNL A   1      37.970  32.008  29.975  1.00  0.00     0.031 A 
ATOM     13  C   UNL A   1      38.708  32.665  31.108  1.00  0.00     0.074 A 
ATOM     14  C   UNL A   1      38.436  30.861  29.440  1.00  0.00     0.049 A 
ATOM     15  N   UNL A   1      39.802  32.271  31.711  1.00  0.00    -0.248 NA
ATOM     16  C   UNL A   1      38.159  33.927  31.628  1.00  0.00     0.031 C 
ATOM     17  C   UNL A   1      37.813  30.135  28.330  1.00  0.00     0.029 A 
ATOM     18  N   UNL A   1      39.516  30.087  29.776  1.00  0.00    -0.354 N 
ATOM     19  C   UNL A   1      40.078  33.235  32.672  1.00  0.00     0.074 A 
ATOM     20  C   UNL A   1      39.055  34.252  32.551  1.00  0.00     0.031 C 
ATOM     21  C   UNL A   1      38.481  28.991  28.121  1.00  0.00     0.029 A 
ATOM     22  C   UNL A   1      39.616  28.935  29.033  1.00  0.00     0.049 A 
ATOM     23  H   UNL A   1      40.158  30.332  30.481  1.00  0.00     0.167 HD
ATOM     24  C   UNL A   1      41.084  33.266  33.579  1.00  0.00     0.031 A 
ATOM     25  C   UNL A   1      40.525  27.946  29.070  1.00  0.00     0.031 A 
ATOM     26  C   UNL A   1      42.106  32.257  33.694  1.00  0.00     0.049 A 
ATOM     27  C   UNL A   1      41.642  28.021  30.067  1.00  0.00     0.074 A 
ATOM     28  C   UNL A   1      43.166  32.200  34.583  1.00  0.00     0.029 A 
ATOM     29  N   UNL A   1      42.194  31.128  32.896  1.00  0.00    -0.354 N 
ATOM     30  N   UNL A   1      41.871  28.932  30.980  1.00  0.00    -0.248 NA
ATOM     31  C   UNL A   1      42.624  26.930  30.038  1.00  0.00     0.031 C 
ATOM     32  C   UNL A   1      43.920  31.058  34.294  1.00  0.00     0.029 A 
ATOM     33  C   UNL A   1      43.299  30.376  33.260  1.00  0.00     0.049 A 
ATOM     34  H   UNL A   1      41.565  30.895  32.175  1.00  0.00     0.167 HD
ATOM     35  C   UNL A   1      43.019  28.519  31.643  1.00  0.00     0.074 A 
ATOM     36  C   UNL A   1      43.417  27.260  31.046  1.00  0.00     0.031 C 
ATOM     37  C   UNL A   1      43.687  29.131  32.650  1.00  0.00     0.031 A 
BRANCH  24  38
ATOM     38  C   UNL A   1      41.140  34.441  34.516  1.00  0.00    -0.014 A 
ATOM     39  C   UNL A   1      41.833  35.612  34.172  1.00  0.00     0.009 A 
ATOM     40  C   UNL A   1      40.444  34.398  35.736  1.00  0.00     0.009 A 
ATOM     41  C   UNL A   1      41.851  36.706  35.041  1.00  0.00     0.001 A 
ATOM     42  C   UNL A   1      40.443  35.502  36.591  1.00  0.00     0.001 A 
ATOM     43  C   UNL A   1      41.152  36.652  36.246  1.00  0.00     0.000 A 
ENDBRANCH  24  38
BRANCH  25  44
ATOM     44  C   UNL A   1      40.425  26.812  28.115  1.00  0.00    -0.014 A 
ATOM     45  C   UNL A   1      39.723  25.645  28.452  1.00  0.00     0.009 A 
ATOM     46  C   UNL A   1      41.035  26.896  26.853  1.00  0.00     0.009 A 
ATOM     47  C   UNL A   1      39.659  24.576  27.556  1.00  0.00     0.001 A 
ATOM     48  C   UNL A   1      40.941  25.840  25.946  1.00  0.00     0.001 A 
ATOM     49  C   UNL A   1      40.263  24.676  26.304  1.00  0.00     0.000 A 
ENDBRANCH  25  44
BRANCH  37  50
ATOM     50  C   UNL A   1      44.904  28.427  33.178  1.00  0.00    -0.014 A 
ATOM     51  C   UNL A   1      46.178  28.681  32.646  1.00  0.00     0.009 A 
ATOM     52  C   UNL A   1      44.773  27.505  34.227  1.00  0.00     0.009 A 
ATOM     53  C   UNL A   1      47.292  27.992  33.127  1.00  0.00     0.001 A 
ATOM     54  C   UNL A   1      45.894  26.838  34.725  1.00  0.00     0.001 A 
ATOM     55  C   UNL A   1      47.149  27.074  34.167  1.00  0.00     0.000 A 
ENDBRANCH  37  50
ENDBRANCH  11  12
ENDBRANCH   4   6
ENDBRANCH   1   2
BRANCH   1  56
ATOM     56  C   UNL A   1      31.055  31.551  25.876  1.00  0.00     0.042 C 
BRANCH  56  57
ATOM     57  C   UNL A   1      31.308  30.235  25.161  1.00  0.00     0.118 C 
BRANCH  57  58
ATOM     58  N   UNL A   1      30.496  30.093  23.957  1.00  0.00    -0.352 N 
ATOM     59  C   UNL A   1      30.610  29.211  22.910  1.00  0.00     0.251 C 
ATOM     60  H   UNL A   1      29.749  30.729  23.885  1.00  0.00     0.163 HD
ATOM     61  O   UNL A   1      29.973  29.405  21.879  1.00  0.00    -0.269 OA
BRANCH  59  62
ATOM     62  C   UNL A   1      31.506  28.042  23.011  1.00  0.00     0.040 A 
ATOM     63  C   UNL A   1      32.841  28.166  22.632  1.00  0.00     0.016 A 
ATOM     64  C   UNL A   1      31.028  26.817  23.476  1.00  0.00     0.020 A 
ATOM     65  C   UNL A   1      33.699  27.072  22.766  1.00  0.00     0.027 A 
ATOM     66  C   UNL A   1      31.909  25.753  23.710  1.00  0.00    -0.017 A 
ATOM     67  C   UNL A   1      33.242  25.852  23.287  1.00  0.00     0.038 A 
ATOM     68  C   UNL A   1      31.409  24.529  24.443  1.00  0.00     0.049 C 
ATOM     69  N   UNL A   1      34.137  24.801  23.454  1.00  0.00    -0.378 N 
ATOM     70  C   UNL A   1      30.866  24.864  25.815  1.00  0.00    -0.023 C 
ATOM     71  C   UNL A   1      32.520  23.535  24.818  1.00  0.00     0.031 C 
ATOM     72  C   UNL A   1      33.618  23.472  23.753  1.00  0.00     0.114 C 
ATOM     73  H   UNL A   1      35.106  24.953  23.371  1.00  0.00     0.161 HD
ATOM     74  C   UNL A   1      31.728  24.545  26.790  1.00  0.00    -0.030 C 
ATOM     75  C   UNL A   1      32.974  23.934  26.233  1.00  0.00     0.034 C 
BRANCH  72  76
ATOM     76  C   UNL A   1      34.719  22.490  24.124  1.00  0.00    -0.022 A 
ATOM     77  C   UNL A   1      36.059  22.854  23.917  1.00  0.00     0.026 A 
ATOM     78  C   UNL A   1      34.472  21.221  24.659  1.00  0.00     0.026 A 
ATOM     79  C   UNL A   1      37.064  21.960  24.248  1.00  0.00     0.111 A 
ATOM     80  C   UNL A   1      35.546  20.403  24.975  1.00  0.00     0.111 A 
ATOM     81  N   UNL A   1      36.837  20.743  24.780  1.00  0.00    -0.265 NA
ENDBRANCH  72  76
ENDBRANCH  59  62
ENDBRANCH  57  58
ENDBRANCH  56  57
ENDBRANCH   1  56
TORSDOF 11
ENDMDL
MODEL 3
REMARK VINA RESULT:     -12.5      2.416      8.148
REMARK SMILES O=C(NCCCNC(=O)c1ccc2c(c1)[C@@H]1C=CC[C@@H]1[C@H](c1ccncc1)N2)c1ccc(-c2c3nc(c(-c4ccccc4)c4ccc([nH]4)c(-c4ccccc4)c4nc(c(-c5ccccc5)c5ccc2[nH]5)C=C4)C=C3)cc1
REMARK SMILES IDX 4 1 3 2 1 3 2 4 29 6 30 7 76 8 31 9 75 10 32 11 33 12 34 13
REMARK SMILES IDX 69 14 35 15 74 16 68 17 70 18 36 19 73 20 67 21 66 22 37 24
REMARK SMILES IDX 59 25 44 26 58 27 45 28 48 29 57 30 71 31 46 32 47 33 56 35
REMARK SMILES IDX 72 36 49 37 38 38 39 39 43 40 40 41 42 42 41 43 60 44 61 45
REMARK SMILES IDX 65 46 62 47 64 48 63 49 50 50 51 51 55 52 52 53 54 54 53 55
REMARK SMILES IDX 5 56 6 57 7 58 8 59 9 61 10 62 11 63 15 64 12 65 14 66 13 67
REMARK SMILES IDX 16 68 28 69 17 70 20 71 21 72 18 74 19 75 22 76 23 77 27 78
REMARK SMILES IDX 24 79 26 80 25 81
REMARK H PARENT 3 5 70 23 48 34 7 60 28 73
REMARK Flexibility Score: inf
ROOT
ATOM      1  C   UNL A   1      33.902  28.853  27.265  1.00  0.00     0.118 C 
ENDROOT
BRANCH   1   2
ATOM      2  N   UNL A   1      33.860  30.130  27.971  1.00  0.00    -0.352 N 
ATOM      3  O   UNL A   1      34.501  31.756  29.388  1.00  0.00    -0.269 OA
ATOM      4  C   UNL A   1      34.813  30.769  28.724  1.00  0.00     0.251 C 
ATOM      5  H   UNL A   1      33.005  30.611  27.896  1.00  0.00     0.163 HD
BRANCH   4   6
ATOM      6  C   UNL A   1      36.205  30.272  28.761  1.00  0.00     0.039 A 
ATOM      7  C   UNL A   1      37.018  30.341  27.630  1.00  0.00     0.014 A 
ATOM      8  C   UNL A   1      36.721  29.758  29.955  1.00  0.00     0.014 A 
ATOM      9  C   UNL A   1      38.266  29.735  27.637  1.00  0.00     0.010 A 
ATOM     10  C   UNL A   1      38.025  29.252  29.993  1.00  0.00     0.010 A 
ATOM     11  C   UNL A   1      38.796  29.204  28.823  1.00  0.00    -0.014 A 
BRANCH  11  12
ATOM     12  C   UNL A   1      40.182  28.671  28.808  1.00  0.00     0.031 A 
ATOM     13  C   UNL A   1      40.471  27.243  28.441  1.00  0.00     0.074 A 
ATOM     14  C   UNL A   1      41.197  29.521  29.068  1.00  0.00     0.049 A 
ATOM     15  N   UNL A   1      41.632  26.649  28.309  1.00  0.00    -0.248 NA
ATOM     16  C   UNL A   1      39.318  26.364  28.194  1.00  0.00     0.031 C 
ATOM     17  C   UNL A   1      41.042  30.929  29.447  1.00  0.00     0.029 A 
ATOM     18  N   UNL A   1      42.555  29.340  29.020  1.00  0.00    -0.354 N 
ATOM     19  C   UNL A   1      41.351  25.330  27.976  1.00  0.00     0.074 A 
ATOM     20  C   UNL A   1      39.910  25.200  27.956  1.00  0.00     0.031 C 
ATOM     21  C   UNL A   1      42.252  31.498  29.531  1.00  0.00     0.029 A 
ATOM     22  C   UNL A   1      43.269  30.485  29.281  1.00  0.00     0.049 A 
ATOM     23  H   UNL A   1      42.977  28.474  28.817  1.00  0.00     0.167 HD
ATOM     24  C   UNL A   1      42.214  24.323  27.700  1.00  0.00     0.031 A 
ATOM     25  C   UNL A   1      44.595  30.697  29.327  1.00  0.00     0.031 A 
ATOM     26  C   UNL A   1      43.649  24.451  27.727  1.00  0.00     0.049 A 
ATOM     27  C   UNL A   1      45.526  29.556  29.044  1.00  0.00     0.074 A 
ATOM     28  C   UNL A   1      44.606  23.487  27.461  1.00  0.00     0.029 A 
ATOM     29  N   UNL A   1      44.332  25.616  28.036  1.00  0.00    -0.354 N 
ATOM     30  N   UNL A   1      45.238  28.322  28.710  1.00  0.00    -0.248 NA
ATOM     31  C   UNL A   1      46.963  29.839  29.142  1.00  0.00     0.031 C 
ATOM     32  C   UNL A   1      45.869  24.058  27.652  1.00  0.00     0.029 A 
ATOM     33  C   UNL A   1      45.698  25.393  27.984  1.00  0.00     0.049 A 
ATOM     34  H   UNL A   1      43.909  26.477  28.261  1.00  0.00     0.167 HD
ATOM     35  C   UNL A   1      46.459  27.683  28.547  1.00  0.00     0.074 A 
ATOM     36  C   UNL A   1      47.487  28.675  28.788  1.00  0.00     0.031 C 
ATOM     37  C   UNL A   1      46.707  26.388  28.235  1.00  0.00     0.031 A 
BRANCH  24  38
ATOM     38  C   UNL A   1      41.629  22.980  27.359  1.00  0.00    -0.014 A 
ATOM     39  C   UNL A   1      41.116  22.716  26.080  1.00  0.00     0.009 A 
ATOM     40  C   UNL A   1      41.643  21.947  28.311  1.00  0.00     0.009 A 
ATOM     41  C   UNL A   1      40.603  21.454  25.769  1.00  0.00     0.001 A 
ATOM     42  C   UNL A   1      41.153  20.680  27.990  1.00  0.00     0.001 A 
ATOM     43  C   UNL A   1      40.628  20.436  26.722  1.00  0.00     0.000 A 
ENDBRANCH  24  38
BRANCH  25  44
ATOM     44  C   UNL A   1      45.118  32.043  29.677  1.00  0.00    -0.014 A 
ATOM     45  C   UNL A   1      45.368  32.394  31.012  1.00  0.00     0.009 A 
ATOM     46  C   UNL A   1      45.369  32.986  28.668  1.00  0.00     0.009 A 
ATOM     47  C   UNL A   1      45.834  33.672  31.330  1.00  0.00     0.001 A 
ATOM     48  C   UNL A   1      45.867  34.251  28.985  1.00  0.00     0.001 A 
ATOM     49  C   UNL A   1      46.087  34.596  30.318  1.00  0.00     0.000 A 
ENDBRANCH  25  44
BRANCH  37  50
ATOM     50  C   UNL A   1      48.149  25.987  28.116  1.00  0.00    -0.014 A 
ATOM     51  C   UNL A   1      48.811  26.016  26.879  1.00  0.00     0.009 A 
ATOM     52  C   UNL A   1      48.855  25.583  29.259  1.00  0.00     0.009 A 
ATOM     53  C   UNL A   1      50.143  25.608  26.782  1.00  0.00     0.001 A 
ATOM     54  C   UNL A   1      50.195  25.202  29.164  1.00  0.00     0.001 A 
ATOM     55  C   UNL A   1      50.833  25.205  27.925  1.00  0.00     0.000 A 
ENDBRANCH  37  50
ENDBRANCH  11  12
ENDBRANCH   4   6
ENDBRANCH   1   2
BRANCH   1  56
ATOM     56  C   UNL A   1      32.547  28.166  27.208  1.00  0.00     0.042 C 
BRANCH  56  57
ATOM     57  C   UNL A   1      31.832  28.345  25.879  1.00  0.00     0.118 C 
BRANCH  57  58
ATOM     58  N   UNL A   1      32.738  28.752  24.812  1.00  0.00    -0.352 N 
ATOM     59  C   UNL A   1      33.536  27.995  23.988  1.00  0.00     0.251 C 
ATOM     60  H   UNL A   1      32.786  29.723  24.657  1.00  0.00     0.163 HD
ATOM     61  O   UNL A   1      34.403  28.539  23.311  1.00  0.00    -0.269 OA
BRANCH  59  62
ATOM     62  C   UNL A   1      33.367  26.529  23.925  1.00  0.00     0.040 A 
ATOM     63  C   UNL A   1      32.564  25.974  22.931  1.00  0.00     0.016 A 
ATOM     64  C   UNL A   1      33.995  25.699  24.853  1.00  0.00     0.020 A 
ATOM     65  C   UNL A   1      32.435  24.585  22.845  1.00  0.00     0.027 A 
ATOM     66  C   UNL A   1      33.953  24.307  24.704  1.00  0.00    -0.017 A 
ATOM     67  C   UNL A   1      33.111  23.739  23.738  1.00  0.00     0.038 A 
ATOM     68  C   UNL A   1      34.843  23.446  25.572  1.00  0.00     0.049 C 
ATOM     69  N   UNL A   1      33.000  22.361  23.591  1.00  0.00    -0.378 N 
ATOM     70  C   UNL A   1      36.308  23.786  25.409  1.00  0.00    -0.023 C 
ATOM     71  C   UNL A   1      34.855  21.963  25.165  1.00  0.00     0.031 C 
ATOM     72  C   UNL A   1      33.489  21.495  24.656  1.00  0.00     0.114 C 
ATOM     73  H   UNL A   1      32.597  21.977  22.779  1.00  0.00     0.161 HD
ATOM     74  C   UNL A   1      36.951  22.897  24.642  1.00  0.00    -0.030 C 
ATOM     75  C   UNL A   1      36.029  21.813  24.182  1.00  0.00     0.034 C 
BRANCH  72  76
ATOM     76  C   UNL A   1      33.501  20.029  24.251  1.00  0.00    -0.022 A 
ATOM     77  C   UNL A   1      32.527  19.558  23.358  1.00  0.00     0.026 A 
ATOM     78  C   UNL A   1      34.435  19.103  24.733  1.00  0.00     0.026 A 
ATOM     79  C   UNL A   1      32.531  18.221  22.992  1.00  0.00     0.111 A 
ATOM     80  C   UNL A   1      34.369  17.790  24.294  1.00  0.00     0.111 A 
ATOM     81  N   UNL A   1      33.436  17.327  23.435  1.00  0.00    -0.265 NA
ENDBRANCH  72  76
ENDBRANCH  59  62
ENDBRANCH  57  58
ENDBRANCH  56  57
ENDBRANCH   1  56
TORSDOF 11
ENDMDL
