MODEL 1
REMARK VINA RESULT:     -11.7      0.000      0.000
REMARK SMILES CC[C@@H]1CC[C@](C[C@@H]2CCCc3ccccc32)(C(=O)NCCCNC(=O)c2ccc(-c3c4nc(c(-c5ccccc5)c5ccc([nH]5)c(-c5ccccc5)c5nc(c(-c6ccccc6)c6ccc3[nH]6)C=C5)C=C4)cc2)C1
REMARK SMILES IDX 22 1 21 2 20 3 18 4 19 5 6 7 3 8 4 9 75 10 5 11 2 12 1 13
REMARK SMILES IDX 7 14 8 15 9 16 17 17 10 18 12 19 16 20 11 21 13 22 15 23
REMARK SMILES IDX 14 24 23 25 24 26 25 27 26 29 27 30 28 31 74 32 29 33 73 34
REMARK SMILES IDX 30 35 31 36 32 37 67 38 33 39 72 40 66 41 68 42 34 43 71 44
REMARK SMILES IDX 65 45 64 46 35 48 57 49 42 50 56 51 43 52 46 53 55 54 69 55
REMARK SMILES IDX 44 56 45 57 54 59 70 60 47 61 36 62 37 63 41 64 38 65 40 66
REMARK SMILES IDX 39 67 58 68 59 69 63 70 60 71 62 72 61 73 48 74 49 75 53 76
REMARK SMILES IDX 50 77 52 78 51 79
REMARK H PARENT 20 6 24 28 68 47 46 58
REMARK Flexibility Score: inf
ROOT
ATOM      1  C   UNL A   1      33.804  28.336  25.798  1.00  0.00     0.042 C 
ENDROOT
BRANCH   1   2
ATOM      2  C   UNL A   1      33.095  27.121  25.239  1.00  0.00     0.117 C 
BRANCH   2   3
ATOM      3  N   UNL A   1      33.398  26.870  23.836  1.00  0.00    -0.356 N 
ATOM      4  C   UNL A   1      33.751  25.685  23.236  1.00  0.00     0.226 C 
ATOM      5  O   UNL A   1      33.922  25.695  22.017  1.00  0.00    -0.274 OA
ATOM      6  H   UNL A   1      33.345  27.652  23.242  1.00  0.00     0.163 HD
BRANCH   4   7
ATOM      7  C   UNL A   1      33.987  24.429  24.120  1.00  0.00     0.050 C 
ATOM      8  C   UNL A   1      36.036  23.473  25.062  1.00  0.00    -0.010 C 
ATOM      9  C   UNL A   1      36.106  23.244  23.575  1.00  0.00     0.005 C 
ATOM     10  C   UNL A   1      35.112  24.688  25.167  1.00  0.00     0.020 C 
ATOM     11  C   UNL A   1      34.639  23.364  23.180  1.00  0.00     0.017 C 
BRANCH   8  12
ATOM     12  C   UNL A   1      37.364  23.602  25.791  1.00  0.00     0.000 C 
ATOM     13  C   UNL A   1      38.130  22.284  25.786  1.00  0.00     0.004 C 
ENDBRANCH   8  12
BRANCH   7  14
ATOM     14  C   UNL A   1      32.591  24.215  24.842  1.00  0.00     0.025 C 
BRANCH  14  15
ATOM     15  C   UNL A   1      32.101  23.004  25.693  1.00  0.00     0.020 C 
ATOM     16  C   UNL A   1      32.190  23.145  27.216  1.00  0.00     0.009 C 
ATOM     17  C   UNL A   1      32.573  21.653  25.231  1.00  0.00    -0.042 A 
ATOM     18  C   UNL A   1      33.541  22.774  27.790  1.00  0.00     0.005 C 
ATOM     19  C   UNL A   1      33.606  20.989  25.909  1.00  0.00    -0.045 A 
ATOM     20  C   UNL A   1      31.998  21.065  24.092  1.00  0.00     0.004 A 
ATOM     21  C   UNL A   1      34.091  21.442  27.266  1.00  0.00     0.036 C 
ATOM     22  C   UNL A   1      34.149  19.828  25.338  1.00  0.00     0.004 A 
ATOM     23  C   UNL A   1      32.521  19.890  23.558  1.00  0.00     0.000 A 
ATOM     24  C   UNL A   1      33.623  19.294  24.160  1.00  0.00     0.000 A 
ENDBRANCH  14  15
ENDBRANCH   7  14
ENDBRANCH   4   7
ENDBRANCH   2   3
ENDBRANCH   1   2
BRANCH   1  25
ATOM     25  C   UNL A   1      33.446  28.593  27.248  1.00  0.00     0.118 C 
BRANCH  25  26
ATOM     26  N   UNL A   1      33.497  30.011  27.588  1.00  0.00    -0.352 N 
ATOM     27  C   UNL A   1      34.490  30.730  28.201  1.00  0.00     0.251 C 
ATOM     28  H   UNL A   1      32.698  30.530  27.340  1.00  0.00     0.163 HD
ATOM     29  O   UNL A   1      34.270  31.869  28.607  1.00  0.00    -0.269 OA
BRANCH  27  30
ATOM     30  C   UNL A   1      35.819  30.120  28.386  1.00  0.00     0.039 A 
ATOM     31  C   UNL A   1      36.742  30.162  27.341  1.00  0.00     0.014 A 
ATOM     32  C   UNL A   1      36.155  29.524  29.604  1.00  0.00     0.014 A 
ATOM     33  C   UNL A   1      38.030  29.668  27.547  1.00  0.00     0.010 A 
ATOM     34  C   UNL A   1      37.465  29.142  29.844  1.00  0.00     0.010 A 
ATOM     35  C   UNL A   1      38.412  29.195  28.813  1.00  0.00    -0.014 A 
BRANCH  35  36
ATOM     36  C   UNL A   1      39.792  28.729  29.081  1.00  0.00     0.031 A 
ATOM     37  C   UNL A   1      40.785  29.659  29.722  1.00  0.00     0.074 A 
ATOM     38  C   UNL A   1      40.169  27.500  28.682  1.00  0.00     0.049 A 
ATOM     39  N   UNL A   1      42.051  29.460  29.986  1.00  0.00    -0.248 NA
ATOM     40  C   UNL A   1      40.302  31.003  30.085  1.00  0.00     0.031 C 
ATOM     41  C   UNL A   1      39.310  26.527  28.001  1.00  0.00     0.029 A 
ATOM     42  N   UNL A   1      41.377  26.859  28.789  1.00  0.00    -0.354 N 
ATOM     43  C   UNL A   1      42.515  30.654  30.522  1.00  0.00     0.074 A 
ATOM     44  C   UNL A   1      41.417  31.591  30.488  1.00  0.00     0.031 C 
ATOM     45  C   UNL A   1      40.008  25.400  27.787  1.00  0.00     0.029 A 
ATOM     46  C   UNL A   1      41.371  25.586  28.271  1.00  0.00     0.049 A 
ATOM     47  H   UNL A   1      42.171  27.271  29.198  1.00  0.00     0.167 HD
ATOM     48  C   UNL A   1      43.741  30.938  31.021  1.00  0.00     0.031 A 
ATOM     49  C   UNL A   1      42.357  24.674  28.192  1.00  0.00     0.031 A 
ATOM     50  C   UNL A   1      44.827  29.998  31.063  1.00  0.00     0.049 A 
ATOM     51  C   UNL A   1      43.712  25.016  28.746  1.00  0.00     0.074 A 
ATOM     52  C   UNL A   1      46.088  30.162  31.607  1.00  0.00     0.029 A 
ATOM     53  N   UNL A   1      44.780  28.717  30.536  1.00  0.00    -0.354 N 
ATOM     54  N   UNL A   1      44.114  26.123  29.325  1.00  0.00    -0.248 NA
ATOM     55  C   UNL A   1      44.746  23.977  28.647  1.00  0.00     0.031 C 
ATOM     56  C   UNL A   1      46.825  29.001  31.355  1.00  0.00     0.029 A 
ATOM     57  C   UNL A   1      46.001  28.089  30.714  1.00  0.00     0.049 A 
ATOM     58  H   UNL A   1      43.995  28.313  30.101  1.00  0.00     0.167 HD
ATOM     59  C   UNL A   1      45.439  25.905  29.681  1.00  0.00     0.074 A 
ATOM     60  C   UNL A   1      45.763  24.553  29.271  1.00  0.00     0.031 C 
ATOM     61  C   UNL A   1      46.308  26.747  30.291  1.00  0.00     0.031 A 
BRANCH  48  62
ATOM     62  C   UNL A   1      43.965  32.328  31.551  1.00  0.00    -0.014 A 
ATOM     63  C   UNL A   1      43.721  32.647  32.897  1.00  0.00     0.009 A 
ATOM     64  C   UNL A   1      44.447  33.331  30.695  1.00  0.00     0.009 A 
ATOM     65  C   UNL A   1      43.911  33.949  33.363  1.00  0.00     0.001 A 
ATOM     66  C   UNL A   1      44.668  34.624  31.172  1.00  0.00     0.001 A 
ATOM     67  C   UNL A   1      44.389  34.936  32.502  1.00  0.00     0.000 A 
ENDBRANCH  48  62
BRANCH  49  68
ATOM     68  C   UNL A   1      42.094  23.346  27.581  1.00  0.00    -0.014 A 
ATOM     69  C   UNL A   1      42.464  23.088  26.251  1.00  0.00     0.009 A 
ATOM     70  C   UNL A   1      41.476  22.327  28.321  1.00  0.00     0.009 A 
ATOM     71  C   UNL A   1      42.195  21.848  25.669  1.00  0.00     0.001 A 
ATOM     72  C   UNL A   1      41.236  21.077  27.746  1.00  0.00     0.001 A 
ATOM     73  C   UNL A   1      41.587  20.842  26.419  1.00  0.00     0.000 A 
ENDBRANCH  49  68
BRANCH  61  74
ATOM     74  C   UNL A   1      47.685  26.218  30.579  1.00  0.00    -0.014 A 
ATOM     75  C   UNL A   1      48.686  26.215  29.596  1.00  0.00     0.009 A 
ATOM     76  C   UNL A   1      47.994  25.753  31.866  1.00  0.00     0.009 A 
ATOM     77  C   UNL A   1      49.960  25.722  29.888  1.00  0.00     0.001 A 
ATOM     78  C   UNL A   1      49.276  25.291  32.164  1.00  0.00     0.001 A 
ATOM     79  C   UNL A   1      50.254  25.266  31.172  1.00  0.00     0.000 A 
ENDBRANCH  61  74
ENDBRANCH  35  36
ENDBRANCH  27  30
ENDBRANCH  25  26
ENDBRANCH   1  25
TORSDOF 13
ENDMDL
MODEL 2
REMARK VINA RESULT:     -11.5      2.655      7.908
REMARK SMILES CC[C@@H]1CC[C@](C[C@@H]2CCCc3ccccc32)(C(=O)NCCCNC(=O)c2ccc(-c3c4nc(c(-c5ccccc5)c5ccc([nH]5)c(-c5ccccc5)c5nc(c(-c6ccccc6)c6ccc3[nH]6)C=C5)C=C4)cc2)C1
REMARK SMILES IDX 22 1 21 2 20 3 18 4 19 5 6 7 3 8 4 9 75 10 5 11 2 12 1 13
REMARK SMILES IDX 7 14 8 15 9 16 17 17 10 18 12 19 16 20 11 21 13 22 15 23
REMARK SMILES IDX 14 24 23 25 24 26 25 27 26 29 27 30 28 31 74 32 29 33 73 34
REMARK SMILES IDX 30 35 31 36 32 37 67 38 33 39 72 40 66 41 68 42 34 43 71 44
REMARK SMILES IDX 65 45 64 46 35 48 57 49 42 50 56 51 43 52 46 53 55 54 69 55
REMARK SMILES IDX 44 56 45 57 54 59 70 60 47 61 36 62 37 63 41 64 38 65 40 66
REMARK SMILES IDX 39 67 58 68 59 69 63 70 60 71 62 72 61 73 48 74 49 75 53 76
REMARK SMILES IDX 50 77 52 78 51 79
REMARK H PARENT 20 6 24 28 68 47 46 58
REMARK Flexibility Score: inf
ROOT
ATOM      1  C   UNL A   1      35.908  23.305  26.083  1.00  0.00     0.042 C 
ENDROOT
BRANCH   1   2
ATOM      2  C   UNL A   1      34.628  23.852  25.488  1.00  0.00     0.117 C 
BRANCH   2   3
ATOM      3  N   UNL A   1      33.470  23.685  26.355  1.00  0.00    -0.356 N 
ATOM      4  C   UNL A   1      32.375  24.507  26.489  1.00  0.00     0.226 C 
ATOM      5  O   UNL A   1      31.485  24.145  27.258  1.00  0.00    -0.274 OA
ATOM      6  H   UNL A   1      33.471  22.879  26.918  1.00  0.00     0.163 HD
BRANCH   4   7
ATOM      7  C   UNL A   1      32.352  25.866  25.736  1.00  0.00     0.050 C 
ATOM      8  C   UNL A   1      33.083  28.105  26.410  1.00  0.00    -0.010 C 
ATOM      9  C   UNL A   1      31.857  27.794  27.229  1.00  0.00     0.005 C 
ATOM     10  C   UNL A   1      33.618  26.711  26.071  1.00  0.00     0.020 C 
ATOM     11  C   UNL A   1      31.205  26.698  26.395  1.00  0.00     0.017 C 
BRANCH   8  12
ATOM     12  C   UNL A   1      34.093  29.054  27.034  1.00  0.00     0.000 C 
ATOM     13  C   UNL A   1      33.558  30.481  27.079  1.00  0.00     0.004 C 
ENDBRANCH   8  12
BRANCH   7  14
ATOM     14  C   UNL A   1      32.354  25.443  24.206  1.00  0.00     0.025 C 
BRANCH  14  15
ATOM     15  C   UNL A   1      32.204  26.340  22.940  1.00  0.00     0.020 C 
ATOM     16  C   UNL A   1      33.497  26.795  22.255  1.00  0.00     0.009 C 
ATOM     17  C   UNL A   1      31.210  27.462  23.053  1.00  0.00    -0.042 A 
ATOM     18  C   UNL A   1      34.101  28.047  22.853  1.00  0.00     0.005 C 
ATOM     19  C   UNL A   1      31.644  28.782  23.245  1.00  0.00    -0.045 A 
ATOM     20  C   UNL A   1      29.833  27.183  22.999  1.00  0.00     0.004 A 
ATOM     21  C   UNL A   1      33.090  29.181  23.066  1.00  0.00     0.036 C 
ATOM     22  C   UNL A   1      30.691  29.768  23.540  1.00  0.00     0.004 A 
ATOM     23  C   UNL A   1      28.896  28.181  23.254  1.00  0.00     0.000 A 
ATOM     24  C   UNL A   1      29.328  29.465  23.564  1.00  0.00     0.000 A 
ENDBRANCH  14  15
ENDBRANCH   7  14
ENDBRANCH   4   7
ENDBRANCH   2   3
ENDBRANCH   1   2
BRANCH   1  25
ATOM     25  C   UNL A   1      37.092  23.474  25.153  1.00  0.00     0.118 C 
BRANCH  25  26
ATOM     26  N   UNL A   1      38.202  22.594  25.504  1.00  0.00    -0.352 N 
ATOM     27  C   UNL A   1      39.380  22.881  26.143  1.00  0.00     0.251 C 
ATOM     28  H   UNL A   1      38.087  21.651  25.243  1.00  0.00     0.163 HD
ATOM     29  O   UNL A   1      40.294  22.060  26.157  1.00  0.00    -0.269 OA
BRANCH  27  30
ATOM     30  C   UNL A   1      39.549  24.191  26.798  1.00  0.00     0.039 A 
ATOM     31  C   UNL A   1      39.065  24.376  28.093  1.00  0.00     0.014 A 
ATOM     32  C   UNL A   1      40.207  25.228  26.133  1.00  0.00     0.014 A 
ATOM     33  C   UNL A   1      39.307  25.584  28.747  1.00  0.00     0.010 A 
ATOM     34  C   UNL A   1      40.548  26.380  26.824  1.00  0.00     0.010 A 
ATOM     35  C   UNL A   1      40.087  26.577  28.132  1.00  0.00    -0.014 A 
BRANCH  35  36
ATOM     36  C   UNL A   1      40.420  27.841  28.829  1.00  0.00     0.031 A 
ATOM     37  C   UNL A   1      41.752  27.992  29.509  1.00  0.00     0.074 A 
ATOM     38  C   UNL A   1      39.498  28.818  28.909  1.00  0.00     0.049 A 
ATOM     39  N   UNL A   1      42.207  28.995  30.218  1.00  0.00    -0.248 NA
ATOM     40  C   UNL A   1      42.684  26.856  29.411  1.00  0.00     0.031 C 
ATOM     41  C   UNL A   1      38.150  28.766  28.335  1.00  0.00     0.029 A 
ATOM     42  N   UNL A   1      39.554  30.050  29.512  1.00  0.00    -0.354 N 
ATOM     43  C   UNL A   1      43.462  28.600  30.663  1.00  0.00     0.074 A 
ATOM     44  C   UNL A   1      43.671  27.247  30.201  1.00  0.00     0.031 C 
ATOM     45  C   UNL A   1      37.523  29.927  28.580  1.00  0.00     0.029 A 
ATOM     46  C   UNL A   1      38.403  30.786  29.366  1.00  0.00     0.049 A 
ATOM     47  H   UNL A   1      40.344  30.374  30.001  1.00  0.00     0.167 HD
ATOM     48  C   UNL A   1      44.370  29.309  31.373  1.00  0.00     0.031 A 
ATOM     49  C   UNL A   1      38.092  32.014  29.819  1.00  0.00     0.031 A 
ATOM     50  C   UNL A   1      44.162  30.659  31.819  1.00  0.00     0.049 A 
ATOM     51  C   UNL A   1      39.114  32.778  30.612  1.00  0.00     0.074 A 
ATOM     52  C   UNL A   1      45.042  31.491  32.487  1.00  0.00     0.029 A 
ATOM     53  N   UNL A   1      42.987  31.373  31.645  1.00  0.00    -0.354 N 
ATOM     54  N   UNL A   1      40.329  32.423  30.957  1.00  0.00    -0.248 NA
ATOM     55  C   UNL A   1      38.726  34.120  31.068  1.00  0.00     0.031 C 
ATOM     56  C   UNL A   1      44.377  32.688  32.771  1.00  0.00     0.029 A 
ATOM     57  C   UNL A   1      43.107  32.626  32.221  1.00  0.00     0.049 A 
ATOM     58  H   UNL A   1      42.186  31.039  31.181  1.00  0.00     0.167 HD
ATOM     59  C   UNL A   1      40.859  33.505  31.647  1.00  0.00     0.074 A 
ATOM     60  C   UNL A   1      39.840  34.536  31.653  1.00  0.00     0.031 C 
ATOM     61  C   UNL A   1      42.079  33.634  32.224  1.00  0.00     0.031 A 
BRANCH  48  62
ATOM     62  C   UNL A   1      45.666  28.625  31.714  1.00  0.00    -0.014 A 
ATOM     63  C   UNL A   1      45.820  27.901  32.907  1.00  0.00     0.009 A 
ATOM     64  C   UNL A   1      46.745  28.690  30.818  1.00  0.00     0.009 A 
ATOM     65  C   UNL A   1      47.039  27.295  33.218  1.00  0.00     0.001 A 
ATOM     66  C   UNL A   1      47.953  28.055  31.116  1.00  0.00     0.001 A 
ATOM     67  C   UNL A   1      48.103  27.367  32.319  1.00  0.00     0.000 A 
ENDBRANCH  48  62
BRANCH  49  68
ATOM     68  C   UNL A   1      36.761  32.601  29.518  1.00  0.00    -0.014 A 
ATOM     69  C   UNL A   1      36.533  33.264  28.301  1.00  0.00     0.009 A 
ATOM     70  C   UNL A   1      35.709  32.501  30.442  1.00  0.00     0.009 A 
ATOM     71  C   UNL A   1      35.289  33.836  28.030  1.00  0.00     0.001 A 
ATOM     72  C   UNL A   1      34.456  33.047  30.154  1.00  0.00     0.001 A 
ATOM     73  C   UNL A   1      34.250  33.722  28.953  1.00  0.00     0.000 A 
ENDBRANCH  49  68
BRANCH  61  74
ATOM     74  C   UNL A   1      42.387  34.948  32.886  1.00  0.00    -0.014 A 
ATOM     75  C   UNL A   1      41.920  35.245  34.175  1.00  0.00     0.009 A 
ATOM     76  C   UNL A   1      43.191  35.888  32.220  1.00  0.00     0.009 A 
ATOM     77  C   UNL A   1      42.223  36.471  34.770  1.00  0.00     0.001 A 
ATOM     78  C   UNL A   1      43.519  37.098  32.830  1.00  0.00     0.001 A 
ATOM     79  C   UNL A   1      43.025  37.394  34.099  1.00  0.00     0.000 A 
ENDBRANCH  61  74
ENDBRANCH  35  36
ENDBRANCH  27  30
ENDBRANCH  25  26
ENDBRANCH   1  25
TORSDOF 13
ENDMDL
MODEL 3
REMARK VINA RESULT:     -11.2      2.680      7.683
REMARK SMILES CC[C@@H]1CC[C@](C[C@@H]2CCCc3ccccc32)(C(=O)NCCCNC(=O)c2ccc(-c3c4nc(c(-c5ccccc5)c5ccc([nH]5)c(-c5ccccc5)c5nc(c(-c6ccccc6)c6ccc3[nH]6)C=C5)C=C4)cc2)C1
REMARK SMILES IDX 22 1 21 2 20 3 18 4 19 5 6 7 3 8 4 9 75 10 5 11 2 12 1 13
REMARK SMILES IDX 7 14 8 15 9 16 17 17 10 18 12 19 16 20 11 21 13 22 15 23
REMARK SMILES IDX 14 24 23 25 24 26 25 27 26 29 27 30 28 31 74 32 29 33 73 34
REMARK SMILES IDX 30 35 31 36 32 37 67 38 33 39 72 40 66 41 68 42 34 43 71 44
REMARK SMILES IDX 65 45 64 46 35 48 57 49 42 50 56 51 43 52 46 53 55 54 69 55
REMARK SMILES IDX 44 56 45 57 54 59 70 60 47 61 36 62 37 63 41 64 38 65 40 66
REMARK SMILES IDX 39 67 58 68 59 69 63 70 60 71 62 72 61 73 48 74 49 75 53 76
REMARK SMILES IDX 50 77 52 78 51 79
REMARK H PARENT 20 6 24 28 68 47 46 58
REMARK Flexibility Score: inf
ROOT
ATOM      1  C   UNL A   1      35.894  23.420  26.152  1.00  0.00     0.042 C 
ENDROOT
BRANCH   1   2
ATOM      2  C   UNL A   1      34.602  23.898  25.526  1.00  0.00     0.117 C 
BRANCH   2   3
ATOM      3  N   UNL A   1      33.439  23.706  26.383  1.00  0.00    -0.356 N 
ATOM      4  C   UNL A   1      32.315  24.490  26.488  1.00  0.00     0.226 C 
ATOM      5  O   UNL A   1      31.429  24.112  27.254  1.00  0.00    -0.274 OA
ATOM      6  H   UNL A   1      33.463  22.912  26.962  1.00  0.00     0.163 HD
BRANCH   4   7
ATOM      7  C   UNL A   1      32.252  25.833  25.708  1.00  0.00     0.050 C 
ATOM      8  C   UNL A   1      32.897  28.109  26.344  1.00  0.00    -0.010 C 
ATOM      9  C   UNL A   1      31.674  27.772  27.157  1.00  0.00     0.005 C 
ATOM     10  C   UNL A   1      33.484  26.728  26.039  1.00  0.00     0.020 C 
ATOM     11  C   UNL A   1      31.069  26.636  26.339  1.00  0.00     0.017 C 
BRANCH   8  12
ATOM     12  C   UNL A   1      33.866  29.105  26.959  1.00  0.00     0.000 C 
ATOM     13  C   UNL A   1      33.246  30.495  27.055  1.00  0.00     0.004 C 
ENDBRANCH   8  12
BRANCH   7  14
ATOM     14  C   UNL A   1      32.285  25.380  24.187  1.00  0.00     0.025 C 
BRANCH  14  15
ATOM     15  C   UNL A   1      32.134  26.248  22.901  1.00  0.00     0.020 C 
ATOM     16  C   UNL A   1      33.425  26.657  22.184  1.00  0.00     0.009 C 
ATOM     17  C   UNL A   1      31.166  27.395  23.002  1.00  0.00    -0.042 A 
ATOM     18  C   UNL A   1      34.066  27.910  22.741  1.00  0.00     0.005 C 
ATOM     19  C   UNL A   1      31.633  28.709  23.154  1.00  0.00    -0.045 A 
ATOM     20  C   UNL A   1      29.783  27.146  22.978  1.00  0.00     0.004 A 
ATOM     21  C   UNL A   1      33.084  29.071  22.941  1.00  0.00     0.036 C 
ATOM     22  C   UNL A   1      30.707  29.724  23.439  1.00  0.00     0.004 A 
ATOM     23  C   UNL A   1      28.873  28.170  23.223  1.00  0.00     0.000 A 
ATOM     24  C   UNL A   1      29.338  29.452  23.493  1.00  0.00     0.000 A 
ENDBRANCH  14  15
ENDBRANCH   7  14
ENDBRANCH   4   7
ENDBRANCH   2   3
ENDBRANCH   1   2
BRANCH   1  25
ATOM     25  C   UNL A   1      37.076  23.575  25.216  1.00  0.00     0.118 C 
BRANCH  25  26
ATOM     26  N   UNL A   1      38.167  22.662  25.545  1.00  0.00    -0.352 N 
ATOM     27  C   UNL A   1      39.373  22.916  26.144  1.00  0.00     0.251 C 
ATOM     28  H   UNL A   1      38.011  21.721  25.300  1.00  0.00     0.163 HD
ATOM     29  O   UNL A   1      40.258  22.063  26.140  1.00  0.00    -0.269 OA
BRANCH  27  30
ATOM     30  C   UNL A   1      39.606  24.226  26.776  1.00  0.00     0.039 A 
ATOM     31  C   UNL A   1      39.199  24.432  28.095  1.00  0.00     0.014 A 
ATOM     32  C   UNL A   1      40.249  25.243  26.067  1.00  0.00     0.014 A 
ATOM     33  C   UNL A   1      39.503  25.639  28.724  1.00  0.00     0.010 A 
ATOM     34  C   UNL A   1      40.652  26.393  26.728  1.00  0.00     0.010 A 
ATOM     35  C   UNL A   1      40.269  26.610  28.058  1.00  0.00    -0.014 A 
BRANCH  35  36
ATOM     36  C   UNL A   1      40.668  27.871  28.724  1.00  0.00     0.031 A 
ATOM     37  C   UNL A   1      39.664  28.978  28.894  1.00  0.00     0.074 A 
ATOM     38  C   UNL A   1      41.946  28.046  29.107  1.00  0.00     0.049 A 
ATOM     39  N   UNL A   1      39.832  30.175  29.397  1.00  0.00    -0.248 NA
ATOM     40  C   UNL A   1      38.299  28.721  28.403  1.00  0.00     0.031 C 
ATOM     41  C   UNL A   1      43.024  27.065  28.946  1.00  0.00     0.029 A 
ATOM     42  N   UNL A   1      42.558  29.115  29.710  1.00  0.00    -0.354 N 
ATOM     43  C   UNL A   1      38.607  30.813  29.263  1.00  0.00     0.074 A 
ATOM     44  C   UNL A   1      37.723  29.900  28.577  1.00  0.00     0.031 C 
ATOM     45  C   UNL A   1      44.154  27.564  29.473  1.00  0.00     0.029 A 
ATOM     46  C   UNL A   1      43.893  28.912  29.965  1.00  0.00     0.049 A 
ATOM     47  H   UNL A   1      42.086  29.947  29.939  1.00  0.00     0.167 HD
ATOM     48  C   UNL A   1      38.241  32.043  29.695  1.00  0.00     0.031 A 
ATOM     49  C   UNL A   1      44.805  29.726  30.529  1.00  0.00     0.031 A 
ATOM     50  C   UNL A   1      39.120  32.943  30.389  1.00  0.00     0.049 A 
ATOM     51  C   UNL A   1      44.377  31.089  30.993  1.00  0.00     0.074 A 
ATOM     52  C   UNL A   1      38.833  34.184  30.928  1.00  0.00     0.029 A 
ATOM     53  N   UNL A   1      40.462  32.699  30.635  1.00  0.00    -0.354 N 
ATOM     54  N   UNL A   1      43.192  31.650  30.933  1.00  0.00    -0.248 NA
ATOM     55  C   UNL A   1      45.411  31.928  31.615  1.00  0.00     0.031 C 
ATOM     56  C   UNL A   1      40.018  34.717  31.447  1.00  0.00     0.029 A 
ATOM     57  C   UNL A   1      41.026  33.780  31.291  1.00  0.00     0.049 A 
ATOM     58  H   UNL A   1      40.944  31.878  30.381  1.00  0.00     0.167 HD
ATOM     59  C   UNL A   1      43.331  32.895  31.531  1.00  0.00     0.074 A 
ATOM     60  C   UNL A   1      44.711  32.998  31.965  1.00  0.00     0.031 C 
ATOM     61  C   UNL A   1      42.402  33.866  31.706  1.00  0.00     0.031 A 
BRANCH  48  62
ATOM     62  C   UNL A   1      36.829  32.480  29.418  1.00  0.00    -0.014 A 
ATOM     63  C   UNL A   1      35.793  32.236  30.334  1.00  0.00     0.009 A 
ATOM     64  C   UNL A   1      36.532  33.166  28.229  1.00  0.00     0.009 A 
ATOM     65  C   UNL A   1      34.483  32.628  30.046  1.00  0.00     0.001 A 
ATOM     66  C   UNL A   1      35.229  33.586  27.959  1.00  0.00     0.001 A 
ATOM     67  C   UNL A   1      34.203  33.307  28.861  1.00  0.00     0.000 A 
ENDBRANCH  48  62
BRANCH  49  68
ATOM     68  C   UNL A   1      46.207  29.264  30.700  1.00  0.00    -0.014 A 
ATOM     69  C   UNL A   1      47.160  29.494  29.694  1.00  0.00     0.009 A 
ATOM     70  C   UNL A   1      46.603  28.596  31.868  1.00  0.00     0.009 A 
ATOM     71  C   UNL A   1      48.472  29.040  29.846  1.00  0.00     0.001 A 
ATOM     72  C   UNL A   1      47.924  28.170  32.030  1.00  0.00     0.001 A 
ATOM     73  C   UNL A   1      48.853  28.383  31.015  1.00  0.00     0.000 A 
ENDBRANCH  49  68
BRANCH  61  74
ATOM     74  C   UNL A   1      42.842  35.113  32.422  1.00  0.00    -0.014 A 
ATOM     75  C   UNL A   1      42.669  35.260  33.806  1.00  0.00     0.009 A 
ATOM     76  C   UNL A   1      43.475  36.139  31.703  1.00  0.00     0.009 A 
ATOM     77  C   UNL A   1      43.088  36.427  34.450  1.00  0.00     0.001 A 
ATOM     78  C   UNL A   1      43.923  37.288  32.353  1.00  0.00     0.001 A 
ATOM     79  C   UNL A   1      43.719  37.436  33.723  1.00  0.00     0.000 A 
ENDBRANCH  61  74
ENDBRANCH  35  36
ENDBRANCH  27  30
ENDBRANCH  25  26
ENDBRANCH   1  25
TORSDOF 13
ENDMDL
