MODEL 1
REMARK VINA RESULT:     -10.6      0.000      0.000
REMARK SMILES C[C@H]1CCN1c1cc(C(=O)NCCCNC(=O)c2ccc(-c3c4nc(c(-c5ccccc5)c5ccc([nH]5)c(-c5ccccc5)c5nc(c(-c6ccccc6)c6ccc3[nH]6)C=C5)C=C4)cc2)ccc1Cl
REMARK SMILES IDX 13 1 12 2 11 3 9 4 10 5 8 7 6 8 7 9 68 10 67 11 69 12 66 13
REMARK SMILES IDX 5 14 1 15 2 16 3 17 4 18 14 19 15 20 16 21 17 23 18 24 19 25
REMARK SMILES IDX 65 26 20 27 64 28 21 29 22 30 23 31 58 32 24 33 63 34 57 35
REMARK SMILES IDX 59 36 25 37 62 38 56 39 55 40 26 42 48 43 33 44 47 45 34 46
REMARK SMILES IDX 37 47 46 48 60 49 35 50 36 51 45 53 61 54 38 55 27 56 28 57
REMARK SMILES IDX 32 58 29 59 31 60 30 61 49 62 50 63 54 64 51 65 53 66 52 67
REMARK SMILES IDX 39 68 40 69 44 70 41 71 43 72 42 73
REMARK H PARENT 11 6 15 22 59 41 37 52
REMARK Flexibility Score: inf
ROOT
ATOM      1  C   UNL A   1      38.168  19.798  24.820  1.00  0.00     0.042 C 
ENDROOT
BRANCH   1   2
ATOM      2  C   UNL A   1      37.261  20.999  24.550  1.00  0.00     0.118 C 
BRANCH   2   3
ATOM      3  N   UNL A   1      37.822  22.211  25.115  1.00  0.00    -0.352 N 
ATOM      4  C   UNL A   1      37.266  23.326  25.683  1.00  0.00     0.251 C 
ATOM      5  O   UNL A   1      38.047  24.185  26.098  1.00  0.00    -0.269 OA
ATOM      6  H   UNL A   1      38.806  22.236  25.085  1.00  0.00     0.163 HD
BRANCH   4   7
ATOM      7  C   UNL A   1      35.801  23.539  25.860  1.00  0.00     0.041 A 
ATOM      8  C   UNL A   1      33.810  24.736  25.022  1.00  0.00     0.057 A 
ATOM      9  C   UNL A   1      35.186  24.440  24.974  1.00  0.00     0.041 A 
ATOM     10  C   UNL A   1      33.040  24.098  26.004  1.00  0.00     0.064 A 
ATOM     11  C   UNL A   1      33.632  23.171  26.871  1.00  0.00     0.023 A 
ATOM     12  Cl  UNL A   1      31.329  24.292  26.143  1.00  0.00    -0.082 Cl
ATOM     13  C   UNL A   1      34.997  22.875  26.783  1.00  0.00     0.015 A 
BRANCH   8  14
ATOM     14  N   UNL A   1      33.321  25.609  24.034  1.00  0.00    -0.367 N 
ATOM     15  C   UNL A   1      31.348  25.409  22.630  1.00  0.00     0.031 C 
ATOM     16  C   UNL A   1      32.867  25.437  22.689  1.00  0.00     0.081 C 
ATOM     17  C   UNL A   1      33.518  26.788  22.358  1.00  0.00     0.046 C 
ATOM     18  C   UNL A   1      33.720  26.974  23.859  1.00  0.00     0.119 C 
ENDBRANCH   8  14
ENDBRANCH   4   7
ENDBRANCH   2   3
ENDBRANCH   1   2
BRANCH   1  19
ATOM     19  C   UNL A   1      39.089  19.992  26.026  1.00  0.00     0.118 C 
BRANCH  19  20
ATOM     20  N   UNL A   1      40.323  19.229  25.898  1.00  0.00    -0.352 N 
ATOM     21  C   UNL A   1      41.630  19.633  25.984  1.00  0.00     0.251 C 
ATOM     22  H   UNL A   1      40.197  18.268  25.722  1.00  0.00     0.163 HD
ATOM     23  O   UNL A   1      42.521  18.872  25.620  1.00  0.00    -0.269 OA
BRANCH  21  24
ATOM     24  C   UNL A   1      41.982  20.975  26.502  1.00  0.00     0.039 A 
ATOM     25  C   UNL A   1      41.995  21.176  27.886  1.00  0.00     0.014 A 
ATOM     26  C   UNL A   1      42.230  22.046  25.640  1.00  0.00     0.014 A 
ATOM     27  C   UNL A   1      42.305  22.435  28.405  1.00  0.00     0.010 A 
ATOM     28  C   UNL A   1      42.601  23.285  26.158  1.00  0.00     0.010 A 
ATOM     29  C   UNL A   1      42.635  23.495  27.545  1.00  0.00    -0.014 A 
BRANCH  29  30
ATOM     30  C   UNL A   1      43.014  24.827  28.077  1.00  0.00     0.031 A 
ATOM     31  C   UNL A   1      41.963  25.871  28.333  1.00  0.00     0.074 A 
ATOM     32  C   UNL A   1      44.314  25.122  28.272  1.00  0.00     0.049 A 
ATOM     33  N   UNL A   1      42.107  27.109  28.735  1.00  0.00    -0.248 NA
ATOM     34  C   UNL A   1      40.567  25.479  28.082  1.00  0.00     0.031 C 
ATOM     35  C   UNL A   1      45.434  24.210  28.035  1.00  0.00     0.029 A 
ATOM     36  N   UNL A   1      44.911  26.277  28.708  1.00  0.00    -0.354 N 
ATOM     37  C   UNL A   1      40.827  27.648  28.765  1.00  0.00     0.074 A 
ATOM     38  C   UNL A   1      39.925  26.617  28.299  1.00  0.00     0.031 C 
ATOM     39  C   UNL A   1      46.580  24.830  28.357  1.00  0.00     0.029 A 
ATOM     40  C   UNL A   1      46.280  26.193  28.782  1.00  0.00     0.049 A 
ATOM     41  H   UNL A   1      44.407  27.089  28.945  1.00  0.00     0.167 HD
ATOM     42  C   UNL A   1      40.434  28.884  29.158  1.00  0.00     0.031 A 
ATOM     43  C   UNL A   1      47.193  27.112  29.148  1.00  0.00     0.031 A 
ATOM     44  C   UNL A   1      41.329  29.908  29.630  1.00  0.00     0.049 A 
ATOM     45  C   UNL A   1      46.737  28.481  29.563  1.00  0.00     0.074 A 
ATOM     46  C   UNL A   1      41.022  31.172  30.102  1.00  0.00     0.029 A 
ATOM     47  N   UNL A   1      42.709  29.783  29.684  1.00  0.00    -0.354 N 
ATOM     48  N   UNL A   1      45.517  28.958  29.637  1.00  0.00    -0.248 NA
ATOM     49  C   UNL A   1      47.784  29.436  29.950  1.00  0.00     0.031 C 
ATOM     50  C   UNL A   1      42.222  31.830  30.399  1.00  0.00     0.029 A 
ATOM     51  C   UNL A   1      43.270  30.957  30.159  1.00  0.00     0.049 A 
ATOM     52  H   UNL A   1      43.215  28.980  29.422  1.00  0.00     0.167 HD
ATOM     53  C   UNL A   1      45.649  30.259  30.104  1.00  0.00     0.074 A 
ATOM     54  C   UNL A   1      47.065  30.492  30.306  1.00  0.00     0.031 C 
ATOM     55  C   UNL A   1      44.681  31.176  30.348  1.00  0.00     0.031 A 
BRANCH  42  56
ATOM     56  C   UNL A   1      38.964  29.195  29.075  1.00  0.00    -0.014 A 
ATOM     57  C   UNL A   1      38.391  29.693  27.894  1.00  0.00     0.009 A 
ATOM     58  C   UNL A   1      38.141  28.978  30.190  1.00  0.00     0.009 A 
ATOM     59  C   UNL A   1      37.033  30.016  27.848  1.00  0.00     0.001 A 
ATOM     60  C   UNL A   1      36.777  29.272  30.132  1.00  0.00     0.001 A 
ATOM     61  C   UNL A   1      36.227  29.803  28.966  1.00  0.00     0.000 A 
ENDBRANCH  42  56
BRANCH  43  62
ATOM     62  C   UNL A   1      48.634  26.752  29.166  1.00  0.00    -0.014 A 
ATOM     63  C   UNL A   1      49.435  26.993  28.041  1.00  0.00     0.009 A 
ATOM     64  C   UNL A   1      49.218  26.185  30.309  1.00  0.00     0.009 A 
ATOM     65  C   UNL A   1      50.791  26.660  28.053  1.00  0.00     0.001 A 
ATOM     66  C   UNL A   1      50.579  25.875  30.327  1.00  0.00     0.001 A 
ATOM     67  C   UNL A   1      51.363  26.108  29.198  1.00  0.00     0.000 A 
ENDBRANCH  43  62
BRANCH  55  68
ATOM     68  C   UNL A   1      45.122  32.507  30.888  1.00  0.00    -0.014 A 
ATOM     69  C   UNL A   1      45.257  32.724  32.267  1.00  0.00     0.009 A 
ATOM     70  C   UNL A   1      45.439  33.546  29.999  1.00  0.00     0.009 A 
ATOM     71  C   UNL A   1      45.673  33.968  32.747  1.00  0.00     0.001 A 
ATOM     72  C   UNL A   1      45.880  34.780  30.481  1.00  0.00     0.001 A 
ATOM     73  C   UNL A   1      45.988  34.992  31.854  1.00  0.00     0.000 A 
ENDBRANCH  55  68
ENDBRANCH  29  30
ENDBRANCH  21  24
ENDBRANCH  19  20
ENDBRANCH   1  19
TORSDOF 11
ENDMDL
MODEL 2
REMARK VINA RESULT:     -10.5      3.071      7.859
REMARK SMILES C[C@H]1CCN1c1cc(C(=O)NCCCNC(=O)c2ccc(-c3c4nc(c(-c5ccccc5)c5ccc([nH]5)c(-c5ccccc5)c5nc(c(-c6ccccc6)c6ccc3[nH]6)C=C5)C=C4)cc2)ccc1Cl
REMARK SMILES IDX 13 1 12 2 11 3 9 4 10 5 8 7 6 8 7 9 68 10 67 11 69 12 66 13
REMARK SMILES IDX 5 14 1 15 2 16 3 17 4 18 14 19 15 20 16 21 17 23 18 24 19 25
REMARK SMILES IDX 65 26 20 27 64 28 21 29 22 30 23 31 58 32 24 33 63 34 57 35
REMARK SMILES IDX 59 36 25 37 62 38 56 39 55 40 26 42 48 43 33 44 47 45 34 46
REMARK SMILES IDX 37 47 46 48 60 49 35 50 36 51 45 53 61 54 38 55 27 56 28 57
REMARK SMILES IDX 32 58 29 59 31 60 30 61 49 62 50 63 54 64 51 65 53 66 52 67
REMARK SMILES IDX 39 68 40 69 44 70 41 71 43 72 42 73
REMARK H PARENT 11 6 15 22 59 41 37 52
REMARK Flexibility Score: inf
ROOT
ATOM      1  C   UNL A   1      32.942  28.145  25.967  1.00  0.00     0.042 C 
ENDROOT
BRANCH   1   2
ATOM      2  C   UNL A   1      33.404  29.003  24.788  1.00  0.00     0.118 C 
BRANCH   2   3
ATOM      3  N   UNL A   1      33.471  28.218  23.569  1.00  0.00    -0.352 N 
ATOM      4  C   UNL A   1      32.519  27.651  22.766  1.00  0.00     0.251 C 
ATOM      5  O   UNL A   1      32.922  27.056  21.764  1.00  0.00    -0.269 OA
ATOM      6  H   UNL A   1      34.391  28.063  23.256  1.00  0.00     0.163 HD
BRANCH   4   7
ATOM      7  C   UNL A   1      31.050  27.743  23.007  1.00  0.00     0.041 A 
ATOM      8  C   UNL A   1      29.077  29.228  22.962  1.00  0.00     0.057 A 
ATOM      9  C   UNL A   1      30.454  28.995  22.778  1.00  0.00     0.041 A 
ATOM     10  C   UNL A   1      28.287  28.155  23.397  1.00  0.00     0.064 A 
ATOM     11  C   UNL A   1      28.861  26.893  23.595  1.00  0.00     0.023 A 
ATOM     12  Cl  UNL A   1      26.574  28.256  23.593  1.00  0.00    -0.082 Cl
ATOM     13  C   UNL A   1      30.227  26.682  23.378  1.00  0.00     0.015 A 
BRANCH   8  14
ATOM     14  N   UNL A   1      28.609  30.513  22.635  1.00  0.00    -0.367 N 
ATOM     15  C   UNL A   1      27.934  31.413  20.481  1.00  0.00     0.031 C 
ATOM     16  C   UNL A   1      28.939  31.465  21.621  1.00  0.00     0.081 C 
ATOM     17  C   UNL A   1      28.704  32.569  22.662  1.00  0.00     0.046 C 
ATOM     18  C   UNL A   1      28.129  31.486  23.571  1.00  0.00     0.119 C 
ENDBRANCH   8  14
ENDBRANCH   4   7
ENDBRANCH   2   3
ENDBRANCH   1   2
BRANCH   1  19
ATOM     19  C   UNL A   1      33.668  28.468  27.273  1.00  0.00     0.118 C 
BRANCH  19  20
ATOM     20  N   UNL A   1      33.605  29.887  27.595  1.00  0.00    -0.352 N 
ATOM     21  C   UNL A   1      34.519  30.698  28.216  1.00  0.00     0.251 C 
ATOM     22  H   UNL A   1      32.771  30.335  27.324  1.00  0.00     0.163 HD
ATOM     23  O   UNL A   1      34.177  31.814  28.594  1.00  0.00    -0.269 OA
BRANCH  21  24
ATOM     24  C   UNL A   1      35.911  30.245  28.443  1.00  0.00     0.039 A 
ATOM     25  C   UNL A   1      36.254  29.739  29.701  1.00  0.00     0.014 A 
ATOM     26  C   UNL A   1      36.890  30.378  27.456  1.00  0.00     0.014 A 
ATOM     27  C   UNL A   1      37.563  29.321  29.952  1.00  0.00     0.010 A 
ATOM     28  C   UNL A   1      38.180  29.902  27.684  1.00  0.00     0.010 A 
ATOM     29  C   UNL A   1      38.531  29.376  28.937  1.00  0.00    -0.014 A 
BRANCH  29  30
ATOM     30  C   UNL A   1      39.915  28.892  29.167  1.00  0.00     0.031 A 
ATOM     31  C   UNL A   1      40.944  29.798  29.785  1.00  0.00     0.074 A 
ATOM     32  C   UNL A   1      40.265  27.656  28.763  1.00  0.00     0.049 A 
ATOM     33  N   UNL A   1      42.216  29.575  30.005  1.00  0.00    -0.248 NA
ATOM     34  C   UNL A   1      40.490  31.138  30.185  1.00  0.00     0.031 C 
ATOM     35  C   UNL A   1      39.370  26.688  28.125  1.00  0.00     0.029 A 
ATOM     36  N   UNL A   1      41.471  27.005  28.824  1.00  0.00    -0.354 N 
ATOM     37  C   UNL A   1      42.716  30.751  30.549  1.00  0.00     0.074 A 
ATOM     38  C   UNL A   1      41.623  31.698  30.584  1.00  0.00     0.031 C 
ATOM     39  C   UNL A   1      40.050  25.557  27.881  1.00  0.00     0.029 A 
ATOM     40  C   UNL A   1      41.435  25.733  28.306  1.00  0.00     0.049 A 
ATOM     41  H   UNL A   1      42.284  27.410  29.203  1.00  0.00     0.167 HD
ATOM     42  C   UNL A   1      43.968  31.016  30.994  1.00  0.00     0.031 A 
ATOM     43  C   UNL A   1      42.408  24.813  28.183  1.00  0.00     0.031 A 
ATOM     44  C   UNL A   1      45.055  30.074  30.967  1.00  0.00     0.049 A 
ATOM     45  C   UNL A   1      43.794  25.134  28.666  1.00  0.00     0.074 A 
ATOM     46  C   UNL A   1      46.345  30.229  31.444  1.00  0.00     0.029 A 
ATOM     47  N   UNL A   1      44.978  28.798  30.429  1.00  0.00    -0.354 N 
ATOM     48  N   UNL A   1      44.237  26.233  29.228  1.00  0.00    -0.248 NA
ATOM     49  C   UNL A   1      44.810  24.086  28.502  1.00  0.00     0.031 C 
ATOM     50  C   UNL A   1      47.062  29.062  31.152  1.00  0.00     0.029 A 
ATOM     51  C   UNL A   1      46.204  28.164  30.540  1.00  0.00     0.049 A 
ATOM     52  H   UNL A   1      44.171  28.402  30.027  1.00  0.00     0.167 HD
ATOM     53  C   UNL A   1      45.577  25.998  29.509  1.00  0.00     0.074 A 
ATOM     54  C   UNL A   1      45.869  24.649  29.065  1.00  0.00     0.031 C 
ATOM     55  C   UNL A   1      46.482  26.825  30.087  1.00  0.00     0.031 A 
BRANCH  42  56
ATOM     56  C   UNL A   1      44.226  32.397  31.533  1.00  0.00    -0.014 A 
ATOM     57  C   UNL A   1      43.993  32.706  32.884  1.00  0.00     0.009 A 
ATOM     58  C   UNL A   1      44.716  33.400  30.683  1.00  0.00     0.009 A 
ATOM     59  C   UNL A   1      44.199  34.004  33.358  1.00  0.00     0.001 A 
ATOM     60  C   UNL A   1      44.950  34.688  31.167  1.00  0.00     0.001 A 
ATOM     61  C   UNL A   1      44.678  34.993  32.500  1.00  0.00     0.000 A 
ENDBRANCH  42  56
BRANCH  43  62
ATOM     62  C   UNL A   1      42.095  23.482  27.601  1.00  0.00    -0.014 A 
ATOM     63  C   UNL A   1      41.538  22.476  28.403  1.00  0.00     0.009 A 
ATOM     64  C   UNL A   1      42.332  23.218  26.244  1.00  0.00     0.009 A 
ATOM     65  C   UNL A   1      41.239  21.224  27.861  1.00  0.00     0.001 A 
ATOM     66  C   UNL A   1      42.008  21.975  25.699  1.00  0.00     0.001 A 
ATOM     67  C   UNL A   1      41.467  20.977  26.509  1.00  0.00     0.000 A 
ENDBRANCH  43  62
BRANCH  55  68
ATOM     68  C   UNL A   1      47.866  26.282  30.298  1.00  0.00    -0.014 A 
ATOM     69  C   UNL A   1      48.252  25.730  31.528  1.00  0.00     0.009 A 
ATOM     70  C   UNL A   1      48.786  26.293  29.237  1.00  0.00     0.009 A 
ATOM     71  C   UNL A   1      49.543  25.227  31.702  1.00  0.00     0.001 A 
ATOM     72  C   UNL A   1      50.067  25.765  29.406  1.00  0.00     0.001 A 
ATOM     73  C   UNL A   1      50.447  25.240  30.639  1.00  0.00     0.000 A 
ENDBRANCH  55  68
ENDBRANCH  29  30
ENDBRANCH  21  24
ENDBRANCH  19  20
ENDBRANCH   1  19
TORSDOF 11
ENDMDL
MODEL 3
REMARK VINA RESULT:     -10.5      0.448      6.132
REMARK SMILES C[C@H]1CCN1c1cc(C(=O)NCCCNC(=O)c2ccc(-c3c4nc(c(-c5ccccc5)c5ccc([nH]5)c(-c5ccccc5)c5nc(c(-c6ccccc6)c6ccc3[nH]6)C=C5)C=C4)cc2)ccc1Cl
REMARK SMILES IDX 13 1 12 2 11 3 9 4 10 5 8 7 6 8 7 9 68 10 67 11 69 12 66 13
REMARK SMILES IDX 5 14 1 15 2 16 3 17 4 18 14 19 15 20 16 21 17 23 18 24 19 25
REMARK SMILES IDX 65 26 20 27 64 28 21 29 22 30 23 31 58 32 24 33 63 34 57 35
REMARK SMILES IDX 59 36 25 37 62 38 56 39 55 40 26 42 48 43 33 44 47 45 34 46
REMARK SMILES IDX 37 47 46 48 60 49 35 50 36 51 45 53 61 54 38 55 27 56 28 57
REMARK SMILES IDX 32 58 29 59 31 60 30 61 49 62 50 63 54 64 51 65 53 66 52 67
REMARK SMILES IDX 39 68 40 69 44 70 41 71 43 72 42 73
REMARK H PARENT 11 6 15 22 59 41 37 52
REMARK Flexibility Score: inf
ROOT
ATOM      1  C   UNL A   1      38.367  19.724  24.782  1.00  0.00     0.042 C 
ENDROOT
BRANCH   1   2
ATOM      2  C   UNL A   1      37.355  20.863  24.645  1.00  0.00     0.118 C 
BRANCH   2   3
ATOM      3  N   UNL A   1      37.928  22.121  25.085  1.00  0.00    -0.352 N 
ATOM      4  C   UNL A   1      37.387  23.270  25.596  1.00  0.00     0.251 C 
ATOM      5  O   UNL A   1      38.176  24.167  25.901  1.00  0.00    -0.269 OA
ATOM      6  H   UNL A   1      38.908  22.154  25.000  1.00  0.00     0.163 HD
BRANCH   4   7
ATOM      7  C   UNL A   1      35.930  23.480  25.836  1.00  0.00     0.041 A 
ATOM      8  C   UNL A   1      33.902  24.675  25.086  1.00  0.00     0.057 A 
ATOM      9  C   UNL A   1      35.276  24.381  24.978  1.00  0.00     0.041 A 
ATOM     10  C   UNL A   1      33.176  24.034  26.100  1.00  0.00     0.064 A 
ATOM     11  C   UNL A   1      33.807  23.107  26.939  1.00  0.00     0.023 A 
ATOM     12  Cl  UNL A   1      31.473  24.225  26.312  1.00  0.00    -0.082 Cl
ATOM     13  C   UNL A   1      35.168  22.813  26.792  1.00  0.00     0.015 A 
BRANCH   8  14
ATOM     14  N   UNL A   1      33.370  25.548  24.121  1.00  0.00    -0.367 N 
ATOM     15  C   UNL A   1      31.403  25.291  22.717  1.00  0.00     0.031 C 
ATOM     16  C   UNL A   1      32.920  25.388  22.773  1.00  0.00     0.081 C 
ATOM     17  C   UNL A   1      33.505  26.775  22.474  1.00  0.00     0.046 C 
ATOM     18  C   UNL A   1      33.704  26.934  23.979  1.00  0.00     0.119 C 
ENDBRANCH   8  14
ENDBRANCH   4   7
ENDBRANCH   2   3
ENDBRANCH   1   2
BRANCH   1  19
ATOM     19  C   UNL A   1      39.220  19.818  26.048  1.00  0.00     0.118 C 
BRANCH  19  20
ATOM     20  N   UNL A   1      40.502  19.145  25.893  1.00  0.00    -0.352 N 
ATOM     21  C   UNL A   1      41.779  19.640  25.956  1.00  0.00     0.251 C 
ATOM     22  H   UNL A   1      40.441  18.179  25.713  1.00  0.00     0.163 HD
ATOM     23  O   UNL A   1      42.715  18.946  25.572  1.00  0.00    -0.269 OA
BRANCH  21  24
ATOM     24  C   UNL A   1      42.044  21.001  26.476  1.00  0.00     0.039 A 
ATOM     25  C   UNL A   1      41.977  21.217  27.857  1.00  0.00     0.014 A 
ATOM     26  C   UNL A   1      42.290  22.074  25.616  1.00  0.00     0.014 A 
ATOM     27  C   UNL A   1      42.204  22.493  28.376  1.00  0.00     0.010 A 
ATOM     28  C   UNL A   1      42.579  23.334  26.137  1.00  0.00     0.010 A 
ATOM     29  C   UNL A   1      42.532  23.558  27.521  1.00  0.00    -0.014 A 
BRANCH  29  30
ATOM     30  C   UNL A   1      42.824  24.911  28.057  1.00  0.00     0.031 A 
ATOM     31  C   UNL A   1      44.226  25.289  28.444  1.00  0.00     0.074 A 
ATOM     32  C   UNL A   1      41.816  25.782  28.254  1.00  0.00     0.049 A 
ATOM     33  N   UNL A   1      44.664  26.397  28.987  1.00  0.00    -0.248 NA
ATOM     34  C   UNL A   1      45.270  24.278  28.214  1.00  0.00     0.031 C 
ATOM     35  C   UNL A   1      40.406  25.530  27.946  1.00  0.00     0.029 A 
ATOM     36  N   UNL A   1      41.823  27.054  28.766  1.00  0.00    -0.354 N 
ATOM     37  C   UNL A   1      46.027  26.210  29.181  1.00  0.00     0.074 A 
ATOM     38  C   UNL A   1      46.335  24.867  28.739  1.00  0.00     0.031 C 
ATOM     39  C   UNL A   1      39.689  26.623  28.248  1.00  0.00     0.029 A 
ATOM     40  C   UNL A   1      40.579  27.636  28.808  1.00  0.00     0.049 A 
ATOM     41  H   UNL A   1      42.640  27.507  29.074  1.00  0.00     0.167 HD
ATOM     42  C   UNL A   1      46.943  27.081  29.668  1.00  0.00     0.031 A 
ATOM     43  C   UNL A   1      40.196  28.848  29.249  1.00  0.00     0.031 A 
ATOM     44  C   UNL A   1      46.641  28.420  30.100  1.00  0.00     0.049 A 
ATOM     45  C   UNL A   1      41.226  29.790  29.803  1.00  0.00     0.074 A 
ATOM     46  C   UNL A   1      47.508  29.397  30.558  1.00  0.00     0.029 A 
ATOM     47  N   UNL A   1      45.367  28.968  30.131  1.00  0.00    -0.354 N 
ATOM     48  N   UNL A   1      42.520  29.618  29.929  1.00  0.00    -0.248 NA
ATOM     49  C   UNL A   1      40.742  31.097  30.268  1.00  0.00     0.031 C 
ATOM     50  C   UNL A   1      46.752  30.522  30.909  1.00  0.00     0.029 A 
ATOM     51  C   UNL A   1      45.422  30.262  30.622  1.00  0.00     0.049 A 
ATOM     52  H   UNL A   1      44.546  28.506  29.846  1.00  0.00     0.167 HD
ATOM     53  C   UNL A   1      43.008  30.803  30.464  1.00  0.00     0.074 A 
ATOM     54  C   UNL A   1      41.872  31.689  30.627  1.00  0.00     0.031 C 
ATOM     55  C   UNL A   1      44.283  31.129  30.786  1.00  0.00     0.031 A 
BRANCH  42  56
ATOM     56  C   UNL A   1      48.364  26.595  29.772  1.00  0.00    -0.014 A 
ATOM     57  C   UNL A   1      49.266  26.750  28.708  1.00  0.00     0.009 A 
ATOM     58  C   UNL A   1      48.807  25.981  30.953  1.00  0.00     0.009 A 
ATOM     59  C   UNL A   1      50.569  26.256  28.806  1.00  0.00     0.001 A 
ATOM     60  C   UNL A   1      50.119  25.515  31.061  1.00  0.00     0.001 A 
ATOM     61  C   UNL A   1      50.994  25.641  29.983  1.00  0.00     0.000 A 
ENDBRANCH  42  56
BRANCH  43  62
ATOM     62  C   UNL A   1      38.769  29.249  29.157  1.00  0.00    -0.014 A 
ATOM     63  C   UNL A   1      38.271  29.814  27.974  1.00  0.00     0.009 A 
ATOM     64  C   UNL A   1      37.896  29.053  30.238  1.00  0.00     0.009 A 
ATOM     65  C   UNL A   1      36.930  30.190  27.879  1.00  0.00     0.001 A 
ATOM     66  C   UNL A   1      36.550  29.407  30.132  1.00  0.00     0.001 A 
ATOM     67  C   UNL A   1      36.069  29.980  28.955  1.00  0.00     0.000 A 
ENDBRANCH  43  62
BRANCH  55  68
ATOM     68  C   UNL A   1      44.522  32.512  31.321  1.00  0.00    -0.014 A 
ATOM     69  C   UNL A   1      44.494  32.775  32.698  1.00  0.00     0.009 A 
ATOM     70  C   UNL A   1      44.813  33.559  30.432  1.00  0.00     0.009 A 
ATOM     71  C   UNL A   1      44.724  34.068  33.174  1.00  0.00     0.001 A 
ATOM     72  C   UNL A   1      45.067  34.845  30.912  1.00  0.00     0.001 A 
ATOM     73  C   UNL A   1      45.014  35.099  32.281  1.00  0.00     0.000 A 
ENDBRANCH  55  68
ENDBRANCH  29  30
ENDBRANCH  21  24
ENDBRANCH  19  20
ENDBRANCH   1  19
TORSDOF 11
ENDMDL
