MODEL 1
REMARK VINA RESULT:     -12.3      0.000      0.000
REMARK SMILES Cc1cccc(-c2noc(C[N@@H+](C)Cc3ncccc3C(=O)NCCCNC(=O)c3ccc(-c4c5nc(c(-c6ccccc6)c6ccc([nH]6)c(-c6ccccc6)c6nc(c(-c7ccccc7)c7ccc4[nH]7)C=C6)C=C5)cc3)n2)c1
REMARK SMILES IDX 21 1 22 2 23 3 20 5 15 6 16 7 17 8 19 9 18 10 14 11 12 12
REMARK SMILES IDX 13 13 11 15 10 16 7 17 8 18 78 19 9 20 6 21 1 22 2 23 3 24
REMARK SMILES IDX 79 25 4 26 5 27 24 28 25 29 26 30 27 31 28 32 29 34 30 35
REMARK SMILES IDX 31 36 77 37 32 38 76 39 33 40 34 41 35 42 70 43 36 44 75 45
REMARK SMILES IDX 69 46 71 47 37 48 74 49 68 50 67 51 38 53 60 54 45 55 59 56
REMARK SMILES IDX 46 57 49 58 58 59 72 60 47 61 48 62 57 64 73 65 50 66 39 67
REMARK SMILES IDX 40 68 44 69 41 70 43 71 42 72 61 73 62 74 66 75 63 76 65 77
REMARK SMILES IDX 64 78 51 79 52 80 56 81 53 82 55 83 54 84
REMARK H PARENT 23 4 12 14 27 33 71 52 49 63
REMARK Flexibility Score: inf
ROOT
ATOM      1  C   UNL A   1      34.853  21.395  26.194  1.00  0.00     0.253 C 
ATOM      2  O   UNL A   1      34.387  21.649  27.303  1.00  0.00    -0.269 OA
ATOM      3  N   UNL A   1      36.156  21.808  26.011  1.00  0.00    -0.352 N 
ATOM      4  H   UNL A   1      36.526  22.271  26.798  1.00  0.00     0.163 HD
ENDROOT
BRANCH   1   5
ATOM      5  C   UNL A   1      34.038  20.667  25.165  1.00  0.00     0.067 A 
ATOM      6  C   UNL A   1      33.150  21.312  24.280  1.00  0.00     0.107 A 
ATOM      7  N   UNL A   1      32.344  20.600  23.424  1.00  0.00    -0.254 NA
ATOM      8  C   UNL A   1      32.464  19.264  23.352  1.00  0.00     0.111 A 
ATOM      9  C   UNL A   1      34.158  19.279  25.001  1.00  0.00     0.017 A 
ATOM     10  C   UNL A   1      33.373  18.564  24.101  1.00  0.00     0.021 A 
BRANCH   6  11
ATOM     11  C   UNL A   1      32.967  22.822  24.151  1.00  0.00     0.320 C 
BRANCH  11  12
ATOM     12  N   UNL A   1      32.157  23.318  23.002  1.00  0.00    -0.325 N 
ATOM     13  C   UNL A   1      32.935  24.106  22.051  1.00  0.00     0.333 C 
ATOM     14  H   UNL A   1      31.853  22.470  22.523  1.00  0.00     0.348 HD
BRANCH  12  15
ATOM     15  C   UNL A   1      30.936  24.045  23.409  1.00  0.00     0.364 C 
BRANCH  15  16
ATOM     16  C   UNL A   1      31.156  25.085  24.457  1.00  0.00     0.282 A 
ATOM     17  C   UNL A   1      31.711  26.688  25.686  1.00  0.00     0.202 A 
ATOM     18  N   UNL A   1      31.031  25.878  26.513  1.00  0.00    -0.057 NA
ATOM     19  N   UNL A   1      31.763  26.251  24.378  1.00  0.00    -0.186 NA
ATOM     20  O   UNL A   1      30.660  24.814  25.698  1.00  0.00    -0.333 OA
BRANCH  17  21
ATOM     21  C   UNL A   1      32.321  27.932  26.123  1.00  0.00     0.023 A 
ATOM     22  C   UNL A   1      31.403  31.616  26.504  1.00  0.00     0.044 C 
ATOM     23  C   UNL A   1      32.175  30.331  26.529  1.00  0.00    -0.050 A 
ATOM     24  C   UNL A   1      33.473  30.308  27.059  1.00  0.00     0.003 A 
ATOM     25  C   UNL A   1      31.612  29.140  26.047  1.00  0.00     0.015 A 
ATOM     26  C   UNL A   1      34.192  29.115  27.119  1.00  0.00     0.001 A 
ATOM     27  C   UNL A   1      33.617  27.931  26.659  1.00  0.00     0.012 A 
ENDBRANCH  17  21
ENDBRANCH  15  16
ENDBRANCH  12  15
ENDBRANCH  11  12
ENDBRANCH   6  11
ENDBRANCH   1   5
BRANCH   3  28
ATOM     28  C   UNL A   1      37.106  21.710  24.912  1.00  0.00     0.118 C 
BRANCH  28  29
ATOM     29  C   UNL A   1      38.549  21.734  25.417  1.00  0.00     0.042 C 
BRANCH  29  30
ATOM     30  C   UNL A   1      38.861  22.898  26.345  1.00  0.00     0.118 C 
BRANCH  30  31
ATOM     31  N   UNL A   1      40.280  23.040  26.663  1.00  0.00    -0.352 N 
ATOM     32  C   UNL A   1      40.960  24.178  27.077  1.00  0.00     0.251 C 
ATOM     33  H   UNL A   1      40.825  22.224  26.571  1.00  0.00     0.163 HD
ATOM     34  O   UNL A   1      42.147  24.141  27.336  1.00  0.00    -0.269 OA
BRANCH  32  35
ATOM     35  C   UNL A   1      40.168  25.405  27.326  1.00  0.00     0.039 A 
ATOM     36  C   UNL A   1      40.502  26.541  26.585  1.00  0.00     0.014 A 
ATOM     37  C   UNL A   1      39.363  25.499  28.459  1.00  0.00     0.014 A 
ATOM     38  C   UNL A   1      40.262  27.794  27.136  1.00  0.00     0.010 A 
ATOM     39  C   UNL A   1      39.220  26.736  29.056  1.00  0.00     0.010 A 
ATOM     40  C   UNL A   1      39.743  27.872  28.429  1.00  0.00    -0.014 A 
BRANCH  40  41
ATOM     41  C   UNL A   1      39.866  29.074  29.247  1.00  0.00     0.031 A 
ATOM     42  C   UNL A   1      38.821  30.113  29.217  1.00  0.00     0.074 A 
ATOM     43  C   UNL A   1      40.951  29.252  30.033  1.00  0.00     0.049 A 
ATOM     44  N   UNL A   1      39.034  31.360  29.473  1.00  0.00    -0.248 NA
ATOM     45  C   UNL A   1      37.449  29.832  28.816  1.00  0.00     0.031 C 
ATOM     46  C   UNL A   1      41.141  30.256  31.076  1.00  0.00     0.029 A 
ATOM     47  N   UNL A   1      42.206  28.679  29.887  1.00  0.00    -0.354 N 
ATOM     48  C   UNL A   1      37.810  31.978  29.565  1.00  0.00     0.074 A 
ATOM     49  C   UNL A   1      36.869  31.015  29.040  1.00  0.00     0.031 C 
ATOM     50  C   UNL A   1      42.455  30.393  31.315  1.00  0.00     0.029 A 
ATOM     51  C   UNL A   1      43.167  29.589  30.336  1.00  0.00     0.049 A 
ATOM     52  H   UNL A   1      42.389  27.781  29.527  1.00  0.00     0.167 HD
ATOM     53  C   UNL A   1      37.712  33.173  30.213  1.00  0.00     0.031 A 
ATOM     54  C   UNL A   1      44.139  30.063  29.503  1.00  0.00     0.031 A 
ATOM     55  C   UNL A   1      39.024  33.699  30.596  1.00  0.00     0.049 A 
ATOM     56  C   UNL A   1      44.078  31.560  29.280  1.00  0.00     0.074 A 
ATOM     57  C   UNL A   1      39.709  33.741  31.801  1.00  0.00     0.029 A 
ATOM     58  N   UNL A   1      39.944  34.038  29.610  1.00  0.00    -0.354 N 
ATOM     59  N   UNL A   1      43.043  32.300  29.564  1.00  0.00    -0.248 NA
ATOM     60  C   UNL A   1      45.160  32.330  28.669  1.00  0.00     0.031 C 
ATOM     61  C   UNL A   1      41.066  34.051  31.523  1.00  0.00     0.029 A 
ATOM     62  C   UNL A   1      41.198  34.222  30.157  1.00  0.00     0.049 A 
ATOM     63  H   UNL A   1      39.729  34.134  28.653  1.00  0.00     0.167 HD
ATOM     64  C   UNL A   1      43.280  33.593  29.174  1.00  0.00     0.074 A 
ATOM     65  C   UNL A   1      44.628  33.565  28.638  1.00  0.00     0.031 C 
ATOM     66  C   UNL A   1      42.334  34.568  29.310  1.00  0.00     0.031 A 
BRANCH  53  67
ATOM     67  C   UNL A   1      36.409  33.717  30.764  1.00  0.00    -0.014 A 
ATOM     68  C   UNL A   1      35.334  33.961  29.889  1.00  0.00     0.009 A 
ATOM     69  C   UNL A   1      36.194  34.084  32.103  1.00  0.00     0.009 A 
ATOM     70  C   UNL A   1      34.167  34.621  30.303  1.00  0.00     0.001 A 
ATOM     71  C   UNL A   1      35.047  34.771  32.521  1.00  0.00     0.001 A 
ATOM     72  C   UNL A   1      34.036  35.053  31.615  1.00  0.00     0.000 A 
ENDBRANCH  53  67
BRANCH  54  73
ATOM     73  C   UNL A   1      44.586  29.084  28.475  1.00  0.00    -0.014 A 
ATOM     74  C   UNL A   1      45.334  27.968  28.896  1.00  0.00     0.009 A 
ATOM     75  C   UNL A   1      43.999  29.058  27.202  1.00  0.00     0.009 A 
ATOM     76  C   UNL A   1      45.402  26.813  28.110  1.00  0.00     0.001 A 
ATOM     77  C   UNL A   1      44.075  27.901  26.414  1.00  0.00     0.001 A 
ATOM     78  C   UNL A   1      44.747  26.771  26.881  1.00  0.00     0.000 A 
ENDBRANCH  54  73
BRANCH  66  79
ATOM     79  C   UNL A   1      42.395  35.959  28.724  1.00  0.00    -0.014 A 
ATOM     80  C   UNL A   1      43.013  37.055  29.340  1.00  0.00     0.009 A 
ATOM     81  C   UNL A   1      41.916  36.165  27.410  1.00  0.00     0.009 A 
ATOM     82  C   UNL A   1      43.105  38.300  28.700  1.00  0.00     0.001 A 
ATOM     83  C   UNL A   1      42.045  37.390  26.750  1.00  0.00     0.001 A 
ATOM     84  C   UNL A   1      42.631  38.464  27.401  1.00  0.00     0.000 A 
ENDBRANCH  66  79
ENDBRANCH  40  41
ENDBRANCH  32  35
ENDBRANCH  30  31
ENDBRANCH  29  30
ENDBRANCH  28  29
ENDBRANCH   3  28
TORSDOF 15
ENDMDL
MODEL 2
REMARK VINA RESULT:     -12.3      2.814      4.466
REMARK SMILES Cc1cccc(-c2noc(C[N@@H+](C)Cc3ncccc3C(=O)NCCCNC(=O)c3ccc(-c4c5nc(c(-c6ccccc6)c6ccc([nH]6)c(-c6ccccc6)c6nc(c(-c7ccccc7)c7ccc4[nH]7)C=C6)C=C5)cc3)n2)c1
REMARK SMILES IDX 21 1 22 2 23 3 20 5 15 6 16 7 17 8 19 9 18 10 14 11 12 12
REMARK SMILES IDX 13 13 11 15 10 16 7 17 8 18 78 19 9 20 6 21 1 22 2 23 3 24
REMARK SMILES IDX 79 25 4 26 5 27 24 28 25 29 26 30 27 31 28 32 29 34 30 35
REMARK SMILES IDX 31 36 77 37 32 38 76 39 33 40 34 41 35 42 70 43 36 44 75 45
REMARK SMILES IDX 69 46 71 47 37 48 74 49 68 50 67 51 38 53 60 54 45 55 59 56
REMARK SMILES IDX 46 57 49 58 58 59 72 60 47 61 48 62 57 64 73 65 50 66 39 67
REMARK SMILES IDX 40 68 44 69 41 70 43 71 42 72 61 73 62 74 66 75 63 76 65 77
REMARK SMILES IDX 64 78 51 79 52 80 56 81 53 82 55 83 54 84
REMARK H PARENT 23 4 12 14 27 33 71 52 49 63
REMARK Flexibility Score: inf
ROOT
ATOM      1  C   UNL A   1      36.005  22.965  23.794  1.00  0.00     0.253 C 
ATOM      2  O   UNL A   1      35.880  23.383  22.645  1.00  0.00    -0.269 OA
ATOM      3  N   UNL A   1      37.170  23.353  24.421  1.00  0.00    -0.352 N 
ATOM      4  H   UNL A   1      37.753  23.900  23.846  1.00  0.00     0.163 HD
ENDROOT
BRANCH   1   5
ATOM      5  C   UNL A   1      34.935  22.126  24.429  1.00  0.00     0.067 A 
ATOM      6  C   UNL A   1      33.636  22.600  24.702  1.00  0.00     0.107 A 
ATOM      7  N   UNL A   1      32.718  21.833  25.380  1.00  0.00    -0.254 NA
ATOM      8  C   UNL A   1      33.021  20.567  25.710  1.00  0.00     0.111 A 
ATOM      9  C   UNL A   1      35.170  20.779  24.747  1.00  0.00     0.017 A 
ATOM     10  C   UNL A   1      34.222  19.990  25.393  1.00  0.00     0.021 A 
BRANCH   6  11
ATOM     11  C   UNL A   1      33.089  23.968  24.302  1.00  0.00     0.320 C 
BRANCH  11  12
ATOM     12  N   UNL A   1      33.748  25.167  24.895  1.00  0.00    -0.325 N 
ATOM     13  C   UNL A   1      33.051  25.681  26.071  1.00  0.00     0.333 C 
ATOM     14  H   UNL A   1      34.660  24.829  25.202  1.00  0.00     0.348 HD
BRANCH  12  15
ATOM     15  C   UNL A   1      33.994  26.250  23.919  1.00  0.00     0.364 C 
BRANCH  15  16
ATOM     16  C   UNL A   1      32.764  26.780  23.259  1.00  0.00     0.282 A 
ATOM     17  C   UNL A   1      30.967  27.677  22.667  1.00  0.00     0.202 A 
ATOM     18  N   UNL A   1      31.235  26.820  21.668  1.00  0.00    -0.057 NA
ATOM     19  N   UNL A   1      31.929  27.719  23.654  1.00  0.00    -0.186 NA
ATOM     20  O   UNL A   1      32.429  26.224  22.060  1.00  0.00    -0.333 OA
BRANCH  17  21
ATOM     21  C   UNL A   1      29.775  28.509  22.695  1.00  0.00     0.023 A 
ATOM     22  C   UNL A   1      28.681  32.014  21.659  1.00  0.00     0.044 C 
ATOM     23  C   UNL A   1      28.655  30.617  22.202  1.00  0.00    -0.050 A 
ATOM     24  C   UNL A   1      27.450  30.071  22.666  1.00  0.00     0.003 A 
ATOM     25  C   UNL A   1      29.819  29.833  22.236  1.00  0.00     0.015 A 
ATOM     26  C   UNL A   1      27.403  28.762  23.143  1.00  0.00     0.001 A 
ATOM     27  C   UNL A   1      28.559  27.982  23.152  1.00  0.00     0.012 A 
ENDBRANCH  17  21
ENDBRANCH  15  16
ENDBRANCH  12  15
ENDBRANCH  11  12
ENDBRANCH   6  11
ENDBRANCH   1   5
BRANCH   3  28
ATOM     28  C   UNL A   1      37.729  23.133  25.748  1.00  0.00     0.118 C 
BRANCH  28  29
ATOM     29  C   UNL A   1      38.471  21.797  25.826  1.00  0.00     0.042 C 
BRANCH  29  30
ATOM     30  C   UNL A   1      39.934  21.922  26.222  1.00  0.00     0.118 C 
BRANCH  30  31
ATOM     31  N   UNL A   1      40.778  20.838  25.727  1.00  0.00    -0.352 N 
ATOM     32  C   UNL A   1      42.146  20.667  25.893  1.00  0.00     0.251 C 
ATOM     33  H   UNL A   1      40.318  20.137  25.209  1.00  0.00     0.163 HD
ATOM     34  O   UNL A   1      42.716  19.692  25.446  1.00  0.00    -0.269 OA
BRANCH  32  35
ATOM     35  C   UNL A   1      42.866  21.641  26.747  1.00  0.00     0.039 A 
ATOM     36  C   UNL A   1      42.622  21.584  28.122  1.00  0.00     0.014 A 
ATOM     37  C   UNL A   1      43.489  22.746  26.174  1.00  0.00     0.014 A 
ATOM     38  C   UNL A   1      42.750  22.747  28.872  1.00  0.00     0.010 A 
ATOM     39  C   UNL A   1      43.515  23.925  26.892  1.00  0.00     0.010 A 
ATOM     40  C   UNL A   1      43.067  23.938  28.218  1.00  0.00    -0.014 A 
BRANCH  40  41
ATOM     41  C   UNL A   1      42.798  25.246  28.807  1.00  0.00     0.031 A 
ATOM     42  C   UNL A   1      41.628  26.035  28.380  1.00  0.00     0.074 A 
ATOM     43  C   UNL A   1      43.630  25.754  29.743  1.00  0.00     0.049 A 
ATOM     44  N   UNL A   1      41.566  27.323  28.437  1.00  0.00    -0.248 NA
ATOM     45  C   UNL A   1      40.450  25.426  27.778  1.00  0.00     0.031 C 
ATOM     46  C   UNL A   1      43.407  26.915  30.598  1.00  0.00     0.029 A 
ATOM     47  N   UNL A   1      44.963  25.433  29.955  1.00  0.00    -0.354 N 
ATOM     48  C   UNL A   1      40.267  27.686  28.171  1.00  0.00     0.074 A 
ATOM     49  C   UNL A   1      39.645  26.486  27.660  1.00  0.00     0.031 C 
ATOM     50  C   UNL A   1      44.590  27.351  31.060  1.00  0.00     0.029 A 
ATOM     51  C   UNL A   1      45.631  26.574  30.407  1.00  0.00     0.049 A 
ATOM     52  H   UNL A   1      45.371  24.548  29.811  1.00  0.00     0.167 HD
ATOM     53  C   UNL A   1      39.826  28.917  28.553  1.00  0.00     0.031 A 
ATOM     54  C   UNL A   1      46.673  27.109  29.707  1.00  0.00     0.031 A 
ATOM     55  C   UNL A   1      40.909  29.749  29.082  1.00  0.00     0.049 A 
ATOM     56  C   UNL A   1      46.415  28.514  29.202  1.00  0.00     0.074 A 
ATOM     57  C   UNL A   1      41.285  30.104  30.368  1.00  0.00     0.029 A 
ATOM     58  N   UNL A   1      41.959  30.121  28.249  1.00  0.00    -0.354 N 
ATOM     59  N   UNL A   1      45.233  29.061  29.135  1.00  0.00    -0.248 NA
ATOM     60  C   UNL A   1      47.463  29.391  28.684  1.00  0.00     0.031 C 
ATOM     61  C   UNL A   1      42.598  30.640  30.309  1.00  0.00     0.029 A 
ATOM     62  C   UNL A   1      43.007  30.633  28.988  1.00  0.00     0.049 A 
ATOM     63  H   UNL A   1      41.955  30.031  27.268  1.00  0.00     0.167 HD
ATOM     64  C   UNL A   1      45.333  30.305  28.567  1.00  0.00     0.074 A 
ATOM     65  C   UNL A   1      46.753  30.474  28.319  1.00  0.00     0.031 C 
ATOM     66  C   UNL A   1      44.231  31.076  28.330  1.00  0.00     0.031 A 
BRANCH  53  67
ATOM     67  C   UNL A   1      38.360  29.259  28.728  1.00  0.00    -0.014 A 
ATOM     68  C   UNL A   1      37.634  29.779  27.638  1.00  0.00     0.009 A 
ATOM     69  C   UNL A   1      37.653  29.173  29.939  1.00  0.00     0.009 A 
ATOM     70  C   UNL A   1      36.330  30.274  27.777  1.00  0.00     0.001 A 
ATOM     71  C   UNL A   1      36.361  29.694  30.095  1.00  0.00     0.001 A 
ATOM     72  C   UNL A   1      35.702  30.259  29.015  1.00  0.00     0.000 A 
ENDBRANCH  53  67
BRANCH  54  73
ATOM     73  C   UNL A   1      47.499  26.103  28.987  1.00  0.00    -0.014 A 
ATOM     74  C   UNL A   1      47.218  25.853  27.631  1.00  0.00     0.009 A 
ATOM     75  C   UNL A   1      48.731  25.678  29.506  1.00  0.00     0.009 A 
ATOM     76  C   UNL A   1      48.184  25.292  26.790  1.00  0.00     0.001 A 
ATOM     77  C   UNL A   1      49.694  25.109  28.662  1.00  0.00     0.001 A 
ATOM     78  C   UNL A   1      49.433  24.948  27.301  1.00  0.00     0.000 A 
ENDBRANCH  54  73
BRANCH  66  79
ATOM     79  C   UNL A   1      44.191  32.350  27.520  1.00  0.00    -0.014 A 
ATOM     80  C   UNL A   1      44.293  32.410  26.124  1.00  0.00     0.009 A 
ATOM     81  C   UNL A   1      43.902  33.567  28.181  1.00  0.00     0.009 A 
ATOM     82  C   UNL A   1      44.163  33.622  25.430  1.00  0.00     0.001 A 
ATOM     83  C   UNL A   1      43.727  34.770  27.491  1.00  0.00     0.001 A 
ATOM     84  C   UNL A   1      43.870  34.800  26.113  1.00  0.00     0.000 A 
ENDBRANCH  66  79
ENDBRANCH  40  41
ENDBRANCH  32  35
ENDBRANCH  30  31
ENDBRANCH  29  30
ENDBRANCH  28  29
ENDBRANCH   3  28
TORSDOF 15
ENDMDL
MODEL 3
REMARK VINA RESULT:     -12.2      3.405      9.111
REMARK SMILES Cc1cccc(-c2noc(C[N@@H+](C)Cc3ncccc3C(=O)NCCCNC(=O)c3ccc(-c4c5nc(c(-c6ccccc6)c6ccc([nH]6)c(-c6ccccc6)c6nc(c(-c7ccccc7)c7ccc4[nH]7)C=C6)C=C5)cc3)n2)c1
REMARK SMILES IDX 21 1 22 2 23 3 20 5 15 6 16 7 17 8 19 9 18 10 14 11 12 12
REMARK SMILES IDX 13 13 11 15 10 16 7 17 8 18 78 19 9 20 6 21 1 22 2 23 3 24
REMARK SMILES IDX 79 25 4 26 5 27 24 28 25 29 26 30 27 31 28 32 29 34 30 35
REMARK SMILES IDX 31 36 77 37 32 38 76 39 33 40 34 41 35 42 70 43 36 44 75 45
REMARK SMILES IDX 69 46 71 47 37 48 74 49 68 50 67 51 38 53 60 54 45 55 59 56
REMARK SMILES IDX 46 57 49 58 58 59 72 60 47 61 48 62 57 64 73 65 50 66 39 67
REMARK SMILES IDX 40 68 44 69 41 70 43 71 42 72 61 73 62 74 66 75 63 76 65 77
REMARK SMILES IDX 64 78 51 79 52 80 56 81 53 82 55 83 54 84
REMARK H PARENT 23 4 12 14 27 33 71 52 49 63
REMARK Flexibility Score: inf
ROOT
ATOM      1  C   UNL A   1      31.662  29.287  23.610  1.00  0.00     0.253 C 
ATOM      2  O   UNL A   1      32.446  29.087  22.686  1.00  0.00    -0.269 OA
ATOM      3  N   UNL A   1      32.244  29.776  24.760  1.00  0.00    -0.352 N 
ATOM      4  H   UNL A   1      33.220  29.879  24.683  1.00  0.00     0.163 HD
ENDROOT
BRANCH   1   5
ATOM      5  C   UNL A   1      30.192  29.029  23.443  1.00  0.00     0.067 A 
ATOM      6  C   UNL A   1      29.590  27.780  23.694  1.00  0.00     0.107 A 
ATOM      7  N   UNL A   1      28.259  27.556  23.427  1.00  0.00    -0.254 NA
ATOM      8  C   UNL A   1      27.484  28.570  23.009  1.00  0.00     0.111 A 
ATOM      9  C   UNL A   1      29.319  30.060  23.062  1.00  0.00     0.017 A 
ATOM     10  C   UNL A   1      27.963  29.842  22.837  1.00  0.00     0.021 A 
BRANCH   6  11
ATOM     11  C   UNL A   1      30.295  26.555  24.270  1.00  0.00     0.320 C 
BRANCH  11  12
ATOM     12  N   UNL A   1      30.191  26.335  25.741  1.00  0.00    -0.325 N 
ATOM     13  C   UNL A   1      31.334  26.863  26.481  1.00  0.00     0.333 C 
ATOM     14  H   UNL A   1      29.370  26.872  26.020  1.00  0.00     0.348 HD
BRANCH  12  15
ATOM     15  C   UNL A   1      29.933  24.928  26.112  1.00  0.00     0.364 C 
BRANCH  15  16
ATOM     16  C   UNL A   1      31.161  24.126  26.392  1.00  0.00     0.282 A 
ATOM     17  C   UNL A   1      32.962  23.057  26.422  1.00  0.00     0.202 A 
ATOM     18  N   UNL A   1      32.376  22.718  27.582  1.00  0.00    -0.057 NA
ATOM     19  N   UNL A   1      32.257  23.979  25.676  1.00  0.00    -0.186 NA
ATOM     20  O   UNL A   1      31.180  23.428  27.564  1.00  0.00    -0.333 OA
BRANCH  17  21
ATOM     21  C   UNL A   1      34.243  22.518  25.998  1.00  0.00     0.023 A 
ATOM     22  C   UNL A   1      37.870  23.649  25.641  1.00  0.00     0.044 C 
ATOM     23  C   UNL A   1      36.635  22.799  25.621  1.00  0.00    -0.050 A 
ATOM     24  C   UNL A   1      36.727  21.444  25.272  1.00  0.00     0.003 A 
ATOM     25  C   UNL A   1      35.385  23.333  25.967  1.00  0.00     0.015 A 
ATOM     26  C   UNL A   1      35.593  20.633  25.280  1.00  0.00     0.001 A 
ATOM     27  C   UNL A   1      34.358  21.166  25.648  1.00  0.00     0.012 A 
ENDBRANCH  17  21
ENDBRANCH  15  16
ENDBRANCH  12  15
ENDBRANCH  11  12
ENDBRANCH   6  11
ENDBRANCH   1   5
BRANCH   3  28
ATOM     28  C   UNL A   1      31.734  30.176  26.064  1.00  0.00     0.118 C 
BRANCH  28  29
ATOM     29  C   UNL A   1      32.664  31.183  26.743  1.00  0.00     0.042 C 
BRANCH  29  30
ATOM     30  C   UNL A   1      33.704  30.550  27.655  1.00  0.00     0.118 C 
BRANCH  30  31
ATOM     31  N   UNL A   1      34.361  31.496  28.552  1.00  0.00    -0.352 N 
ATOM     32  C   UNL A   1      35.590  31.368  29.188  1.00  0.00     0.251 C 
ATOM     33  H   UNL A   1      33.871  32.331  28.730  1.00  0.00     0.163 HD
ATOM     34  O   UNL A   1      36.029  32.257  29.890  1.00  0.00    -0.269 OA
BRANCH  32  35
ATOM     35  C   UNL A   1      36.410  30.175  28.874  1.00  0.00     0.039 A 
ATOM     36  C   UNL A   1      36.685  29.296  29.925  1.00  0.00     0.014 A 
ATOM     37  C   UNL A   1      37.128  30.115  27.682  1.00  0.00     0.014 A 
ATOM     38  C   UNL A   1      37.857  28.550  29.884  1.00  0.00     0.010 A 
ATOM     39  C   UNL A   1      38.342  29.458  27.685  1.00  0.00     0.010 A 
ATOM     40  C   UNL A   1      38.740  28.742  28.820  1.00  0.00    -0.014 A 
BRANCH  40  41
ATOM     41  C   UNL A   1      40.147  28.364  28.898  1.00  0.00     0.031 A 
ATOM     42  C   UNL A   1      40.601  27.053  28.403  1.00  0.00     0.074 A 
ATOM     43  C   UNL A   1      41.049  29.213  29.439  1.00  0.00     0.049 A 
ATOM     44  N   UNL A   1      41.643  26.433  28.846  1.00  0.00    -0.248 NA
ATOM     45  C   UNL A   1      39.859  26.292  27.405  1.00  0.00     0.031 C 
ATOM     46  C   UNL A   1      42.505  29.114  29.395  1.00  0.00     0.029 A 
ATOM     47  N   UNL A   1      40.811  30.241  30.340  1.00  0.00    -0.354 N 
ATOM     48  C   UNL A   1      41.877  25.367  28.012  1.00  0.00     0.074 A 
ATOM     49  C   UNL A   1      40.683  25.259  27.205  1.00  0.00     0.031 C 
ATOM     50  C   UNL A   1      43.023  29.865  30.381  1.00  0.00     0.029 A 
ATOM     51  C   UNL A   1      41.918  30.361  31.184  1.00  0.00     0.049 A 
ATOM     52  H   UNL A   1      39.996  30.793  30.379  1.00  0.00     0.167 HD
ATOM     53  C   UNL A   1      43.112  24.792  27.993  1.00  0.00     0.031 A 
ATOM     54  C   UNL A   1      41.804  30.192  32.533  1.00  0.00     0.031 A 
ATOM     55  C   UNL A   1      43.990  25.341  29.029  1.00  0.00     0.049 A 
ATOM     56  C   UNL A   1      42.605  29.026  33.074  1.00  0.00     0.074 A 
ATOM     57  C   UNL A   1      45.032  26.254  28.996  1.00  0.00     0.029 A 
ATOM     58  N   UNL A   1      43.665  25.165  30.370  1.00  0.00    -0.354 N 
ATOM     59  N   UNL A   1      43.096  28.070  32.335  1.00  0.00    -0.248 NA
ATOM     60  C   UNL A   1      42.868  28.818  34.497  1.00  0.00     0.031 C 
ATOM     61  C   UNL A   1      45.293  26.671  30.328  1.00  0.00     0.029 A 
ATOM     62  C   UNL A   1      44.428  25.994  31.168  1.00  0.00     0.049 A 
ATOM     63  H   UNL A   1      42.985  24.535  30.703  1.00  0.00     0.167 HD
ATOM     64  C   UNL A   1      43.699  27.134  33.134  1.00  0.00     0.074 A 
ATOM     65  C   UNL A   1      43.548  27.657  34.479  1.00  0.00     0.031 C 
ATOM     66  C   UNL A   1      44.252  25.998  32.616  1.00  0.00     0.031 A 
BRANCH  53  67
ATOM     67  C   UNL A   1      43.620  23.946  26.843  1.00  0.00    -0.014 A 
ATOM     68  C   UNL A   1      44.350  24.555  25.804  1.00  0.00     0.009 A 
ATOM     69  C   UNL A   1      43.357  22.576  26.675  1.00  0.00     0.009 A 
ATOM     70  C   UNL A   1      44.699  23.867  24.633  1.00  0.00     0.001 A 
ATOM     71  C   UNL A   1      43.673  21.888  25.496  1.00  0.00     0.001 A 
ATOM     72  C   UNL A   1      44.334  22.538  24.466  1.00  0.00     0.000 A 
ENDBRANCH  53  67
BRANCH  54  73
ATOM     73  C   UNL A   1      40.499  30.638  33.091  1.00  0.00    -0.014 A 
ATOM     74  C   UNL A   1      40.083  31.960  32.844  1.00  0.00     0.009 A 
ATOM     75  C   UNL A   1      39.548  29.707  33.531  1.00  0.00     0.009 A 
ATOM     76  C   UNL A   1      38.733  32.315  32.931  1.00  0.00     0.001 A 
ATOM     77  C   UNL A   1      38.196  30.067  33.623  1.00  0.00     0.001 A 
ATOM     78  C   UNL A   1      37.787  31.359  33.292  1.00  0.00     0.000 A 
ENDBRANCH  54  73
BRANCH  66  79
ATOM     79  C   UNL A   1      44.741  24.804  33.402  1.00  0.00    -0.014 A 
ATOM     80  C   UNL A   1      46.049  24.648  33.880  1.00  0.00     0.009 A 
ATOM     81  C   UNL A   1      43.804  23.825  33.806  1.00  0.00     0.009 A 
ATOM     82  C   UNL A   1      46.413  23.551  34.676  1.00  0.00     0.001 A 
ATOM     83  C   UNL A   1      44.150  22.755  34.636  1.00  0.00     0.001 A 
ATOM     84  C   UNL A   1      45.461  22.612  35.062  1.00  0.00     0.000 A 
ENDBRANCH  66  79
ENDBRANCH  40  41
ENDBRANCH  32  35
ENDBRANCH  30  31
ENDBRANCH  29  30
ENDBRANCH  28  29
ENDBRANCH   3  28
TORSDOF 15
ENDMDL
