MODEL 1
REMARK VINA RESULT:     -13.5      0.000      0.000
REMARK SMILES O=C(Cc1cncnc1N1CCC2(CC1)OCCC[C@@H]2O)NCCCNC(=O)c1ccc(-c2c3nc(c(-c4ccccc4)c4ccc([nH]4)c(-c4ccccc4)c4nc(c(-c5ccccc5)c5ccc2[nH]5)C=C4)C=C3)cc1
REMARK SMILES IDX 23 1 22 2 1 3 2 4 3 6 4 7 5 8 9 9 6 10 8 11 7 12 10 13 11 14
REMARK SMILES IDX 15 15 12 16 14 17 13 18 16 19 20 20 17 21 19 22 18 23 21 24
REMARK SMILES IDX 24 26 25 27 26 28 27 29 28 31 29 32 30 33 76 34 31 35 75 36
REMARK SMILES IDX 32 37 33 38 34 39 69 40 35 41 74 42 68 43 70 44 36 45 73 46
REMARK SMILES IDX 67 47 66 48 37 50 59 51 44 52 58 53 45 54 48 55 57 56 71 57
REMARK SMILES IDX 46 58 47 59 56 61 72 62 49 63 38 64 39 65 43 66 40 67 42 68
REMARK SMILES IDX 41 69 60 70 61 71 65 72 62 73 64 74 63 75 50 76 51 77 55 78
REMARK SMILES IDX 52 79 54 80 53 81
REMARK H PARENT 22 5 21 25 26 30 70 49 48 60
REMARK Flexibility Score: inf
ROOT
ATOM      1  C   UNL A   1      38.845  19.584  25.059  1.00  0.00     0.117 C 
ENDROOT
BRANCH   1   2
ATOM      2  N   UNL A   1      37.405  19.825  25.002  1.00  0.00    -0.356 N 
ATOM      3  O   UNL A   1      37.417  22.074  24.641  1.00  0.00    -0.275 OA
ATOM      4  C   UNL A   1      36.802  21.053  24.948  1.00  0.00     0.224 C 
ATOM      5  H   UNL A   1      36.817  19.035  25.002  1.00  0.00     0.163 HD
BRANCH   4   6
ATOM      6  C   UNL A   1      35.399  21.139  25.540  1.00  0.00     0.141 C 
BRANCH   6   7
ATOM      7  C   UNL A   1      34.159  20.733  24.777  1.00  0.00     0.022 A 
ATOM      8  C   UNL A   1      33.893  19.375  24.647  1.00  0.00     0.121 A 
ATOM      9  C   UNL A   1      33.297  21.560  24.051  1.00  0.00     0.135 A 
ATOM     10  N   UNL A   1      32.921  18.849  23.881  1.00  0.00    -0.244 NA
ATOM     11  N   UNL A   1      32.303  21.064  23.289  1.00  0.00    -0.219 NA
ATOM     12  C   UNL A   1      32.174  19.736  23.224  1.00  0.00     0.224 A 
BRANCH   9  13
ATOM     13  N   UNL A   1      33.412  22.934  24.080  1.00  0.00    -0.356 N 
ATOM     14  C   UNL A   1      34.486  23.584  23.337  1.00  0.00     0.121 C 
ATOM     15  C   UNL A   1      33.203  23.586  25.349  1.00  0.00     0.121 C 
ATOM     16  C   UNL A   1      33.920  24.890  22.808  1.00  0.00     0.060 C 
ATOM     17  C   UNL A   1      32.401  24.831  25.025  1.00  0.00     0.060 C 
ATOM     18  C   UNL A   1      33.030  25.737  23.774  1.00  0.00     0.097 C 
ATOM     19  O   UNL A   1      34.007  26.439  25.109  1.00  0.00    -0.372 OA
ATOM     20  C   UNL A   1      32.355  27.119  22.467  1.00  0.00     0.146 C 
ATOM     21  C   UNL A   1      33.429  27.904  25.931  1.00  0.00     0.161 C 
ATOM     22  C   UNL A   1      32.031  28.953  23.089  1.00  0.00     0.037 C 
ATOM     23  C   UNL A   1      32.514  29.293  24.949  1.00  0.00     0.031 C 
BRANCH  20  24
ATOM     24  O   UNL A   1      31.330  26.856  21.521  1.00  0.00    -0.390 OA
ATOM     25  H   UNL A   1      30.488  26.725  21.984  1.00  0.00     0.211 HD
ENDBRANCH  20  24
ENDBRANCH   9  13
ENDBRANCH   6   7
ENDBRANCH   4   6
ENDBRANCH   1   2
BRANCH   1  26
ATOM     26  C   UNL A   1      39.811  20.375  26.108  1.00  0.00     0.042 C 
BRANCH  26  27
ATOM     27  C   UNL A   1      41.408  21.249  26.118  1.00  0.00     0.118 C 
BRANCH  27  28
ATOM     28  N   UNL A   1      42.006  23.129  25.779  1.00  0.00    -0.352 N 
ATOM     29  C   UNL A   1      41.975  24.593  25.615  1.00  0.00     0.251 C 
ATOM     30  H   UNL A   1      42.961  22.967  25.607  1.00  0.00     0.163 HD
ATOM     31  O   UNL A   1      42.954  25.111  25.091  1.00  0.00    -0.269 OA
BRANCH  29  32
ATOM     32  C   UNL A   1      41.004  25.560  26.221  1.00  0.00     0.039 A 
ATOM     33  C   UNL A   1      40.052  25.251  27.187  1.00  0.00     0.014 A 
ATOM     34  C   UNL A   1      41.196  26.888  25.930  1.00  0.00     0.014 A 
ATOM     35  C   UNL A   1      39.644  26.262  28.090  1.00  0.00     0.010 A 
ATOM     36  C   UNL A   1      41.134  27.744  27.019  1.00  0.00     0.010 A 
ATOM     37  C   UNL A   1      40.332  27.490  28.133  1.00  0.00    -0.014 A 
BRANCH  37  38
ATOM     38  C   UNL A   1      40.281  28.467  29.285  1.00  0.00     0.031 A 
ATOM     39  C   UNL A   1      39.224  29.578  29.338  1.00  0.00     0.074 A 
ATOM     40  C   UNL A   1      41.219  28.455  30.270  1.00  0.00     0.049 A 
ATOM     41  N   UNL A   1      38.930  30.391  30.328  1.00  0.00    -0.248 NA
ATOM     42  C   UNL A   1      38.438  29.874  28.124  1.00  0.00     0.031 C 
ATOM     43  C   UNL A   1      42.440  27.639  30.301  1.00  0.00     0.029 A 
ATOM     44  N   UNL A   1      41.283  29.147  31.465  1.00  0.00    -0.354 N 
ATOM     45  C   UNL A   1      37.939  31.239  29.837  1.00  0.00     0.074 A 
ATOM     46  C   UNL A   1      37.829  31.002  28.429  1.00  0.00     0.031 C 
ATOM     47  C   UNL A   1      43.061  27.795  31.485  1.00  0.00     0.029 A 
ATOM     48  C   UNL A   1      42.301  28.732  32.301  1.00  0.00     0.049 A 
ATOM     49  H   UNL A   1      40.658  29.872  31.698  1.00  0.00     0.167 HD
ATOM     50  C   UNL A   1      37.087  32.060  30.490  1.00  0.00     0.031 A 
ATOM     51  C   UNL A   1      42.559  29.027  33.594  1.00  0.00     0.031 A 
ATOM     52  C   UNL A   1      37.170  32.319  31.890  1.00  0.00     0.049 A 
ATOM     53  C   UNL A   1      41.605  29.932  34.339  1.00  0.00     0.074 A 
ATOM     54  C   UNL A   1      36.339  33.082  32.685  1.00  0.00     0.029 A 
ATOM     55  N   UNL A   1      38.176  31.822  32.699  1.00  0.00    -0.354 N 
ATOM     56  N   UNL A   1      40.532  30.547  33.901  1.00  0.00    -0.248 NA
ATOM     57  C   UNL A   1      41.873  30.143  35.771  1.00  0.00     0.031 C 
ATOM     58  C   UNL A   1      36.885  33.102  33.972  1.00  0.00     0.029 A 
ATOM     59  C   UNL A   1      38.006  32.284  33.986  1.00  0.00     0.049 A 
ATOM     60  H   UNL A   1      38.902  31.227  32.401  1.00  0.00     0.167 HD
ATOM     61  C   UNL A   1      39.972  31.174  35.010  1.00  0.00     0.074 A 
ATOM     62  C   UNL A   1      40.817  30.854  36.141  1.00  0.00     0.031 C 
ATOM     63  C   UNL A   1      38.857  31.941  35.092  1.00  0.00     0.031 A 
BRANCH  50  64
ATOM     64  C   UNL A   1      35.977  32.681  29.678  1.00  0.00    -0.014 A 
ATOM     65  C   UNL A   1      34.822  31.941  29.352  1.00  0.00     0.009 A 
ATOM     66  C   UNL A   1      36.098  33.988  29.194  1.00  0.00     0.009 A 
ATOM     67  C   UNL A   1      33.846  32.477  28.510  1.00  0.00     0.001 A 
ATOM     68  C   UNL A   1      35.100  34.537  28.383  1.00  0.00     0.001 A 
ATOM     69  C   UNL A   1      33.985  33.777  28.028  1.00  0.00     0.000 A 
ENDBRANCH  50  64
BRANCH  51  70
ATOM     70  C   UNL A   1      43.700  28.386  34.322  1.00  0.00    -0.014 A 
ATOM     71  C   UNL A   1      43.509  27.194  35.046  1.00  0.00     0.009 A 
ATOM     72  C   UNL A   1      44.970  28.981  34.345  1.00  0.00     0.009 A 
ATOM     73  C   UNL A   1      44.546  26.639  35.804  1.00  0.00     0.001 A 
ATOM     74  C   UNL A   1      46.016  28.405  35.079  1.00  0.00     0.001 A 
ATOM     75  C   UNL A   1      45.800  27.244  35.817  1.00  0.00     0.000 A 
ENDBRANCH  51  70
BRANCH  63  76
ATOM     76  C   UNL A   1      38.448  32.438  36.447  1.00  0.00    -0.014 A 
ATOM     77  C   UNL A   1      37.746  31.626  37.349  1.00  0.00     0.009 A 
ATOM     78  C   UNL A   1      38.837  33.727  36.847  1.00  0.00     0.009 A 
ATOM     79  C   UNL A   1      37.402  32.114  38.610  1.00  0.00     0.001 A 
ATOM     80  C   UNL A   1      38.526  34.197  38.121  1.00  0.00     0.001 A 
ATOM     81  C   UNL A   1      37.797  33.394  38.997  1.00  0.00     0.000 A 
ENDBRANCH  63  76
ENDBRANCH  37  38
ENDBRANCH  29  32
ENDBRANCH  27  28
ENDBRANCH  26  27
ENDBRANCH   1  26
TORSDOF 13
ENDMDL
MODEL 2
REMARK VINA RESULT:     -13.4      1.484      6.208
REMARK SMILES O=C(Cc1cncnc1N1CCC2(CC1)OCCC[C@@H]2O)NCCCNC(=O)c1ccc(-c2c3nc(c(-c4ccccc4)c4ccc([nH]4)c(-c4ccccc4)c4nc(c(-c5ccccc5)c5ccc2[nH]5)C=C4)C=C3)cc1
REMARK SMILES IDX 23 1 22 2 1 3 2 4 3 6 4 7 5 8 9 9 6 10 8 11 7 12 10 13 11 14
REMARK SMILES IDX 15 15 12 16 14 17 13 18 16 19 20 20 17 21 19 22 18 23 21 24
REMARK SMILES IDX 24 26 25 27 26 28 27 29 28 31 29 32 30 33 76 34 31 35 75 36
REMARK SMILES IDX 32 37 33 38 34 39 69 40 35 41 74 42 68 43 70 44 36 45 73 46
REMARK SMILES IDX 67 47 66 48 37 50 59 51 44 52 58 53 45 54 48 55 57 56 71 57
REMARK SMILES IDX 46 58 47 59 56 61 72 62 49 63 38 64 39 65 43 66 40 67 42 68
REMARK SMILES IDX 41 69 60 70 61 71 65 72 62 73 64 74 63 75 50 76 51 77 55 78
REMARK SMILES IDX 52 79 54 80 53 81
REMARK H PARENT 22 5 21 25 26 30 70 49 48 60
REMARK Flexibility Score: inf
ROOT
ATOM      1  C   UNL A   1      39.664  22.009  26.510  1.00  0.00     0.117 C 
ENDROOT
BRANCH   1   2
ATOM      2  N   UNL A   1      38.652  22.521  25.588  1.00  0.00    -0.356 N 
ATOM      3  O   UNL A   1      37.881  24.276  26.819  1.00  0.00    -0.275 OA
ATOM      4  C   UNL A   1      37.745  23.509  25.866  1.00  0.00     0.224 C 
ATOM      5  H   UNL A   1      38.620  22.122  24.689  1.00  0.00     0.163 HD
BRANCH   4   6
ATOM      6  C   UNL A   1      36.429  23.448  25.100  1.00  0.00     0.141 C 
BRANCH   6   7
ATOM      7  C   UNL A   1      35.510  22.247  25.137  1.00  0.00     0.022 A 
ATOM      8  C   UNL A   1      36.092  20.986  25.108  1.00  0.00     0.121 A 
ATOM      9  C   UNL A   1      34.116  22.240  25.058  1.00  0.00     0.135 A 
ATOM     10  N   UNL A   1      35.419  19.828  24.987  1.00  0.00    -0.244 NA
ATOM     11  N   UNL A   1      33.411  21.096  24.954  1.00  0.00    -0.219 NA
ATOM     12  C   UNL A   1      34.094  19.949  24.904  1.00  0.00     0.224 A 
BRANCH   9  13
ATOM     13  N   UNL A   1      33.379  23.406  25.089  1.00  0.00    -0.356 N 
ATOM     14  C   UNL A   1      32.428  23.629  26.172  1.00  0.00     0.121 C 
ATOM     15  C   UNL A   1      32.846  23.882  23.837  1.00  0.00     0.121 C 
ATOM     16  C   UNL A   1      32.464  25.115  26.483  1.00  0.00     0.060 C 
ATOM     17  C   UNL A   1      33.041  25.385  23.871  1.00  0.00     0.060 C 
ATOM     18  C   UNL A   1      32.502  26.107  25.276  1.00  0.00     0.097 C 
ATOM     19  O   UNL A   1      30.944  26.101  24.382  1.00  0.00    -0.372 OA
ATOM     20  C   UNL A   1      32.842  27.826  26.277  1.00  0.00     0.146 C 
ATOM     21  C   UNL A   1      30.485  27.528  23.427  1.00  0.00     0.161 C 
ATOM     22  C   UNL A   1      32.068  29.499  25.603  1.00  0.00     0.037 C 
ATOM     23  C   UNL A   1      30.917  29.308  24.040  1.00  0.00     0.031 C 
BRANCH  20  24
ATOM     24  O   UNL A   1      34.115  28.182  26.795  1.00  0.00    -0.390 OA
ATOM     25  H   UNL A   1      34.759  28.224  26.071  1.00  0.00     0.211 HD
ENDBRANCH  20  24
ENDBRANCH   9  13
ENDBRANCH   6   7
ENDBRANCH   4   6
ENDBRANCH   1   2
BRANCH   1  26
ATOM     26  C   UNL A   1      41.234  21.891  26.087  1.00  0.00     0.042 C 
BRANCH  26  27
ATOM     27  C   UNL A   1      42.585  22.959  25.498  1.00  0.00     0.118 C 
BRANCH  27  28
ATOM     28  N   UNL A   1      42.905  24.933  25.409  1.00  0.00    -0.352 N 
ATOM     29  C   UNL A   1      42.657  26.385  25.384  1.00  0.00     0.251 C 
ATOM     30  H   UNL A   1      43.885  24.935  25.327  1.00  0.00     0.163 HD
ATOM     31  O   UNL A   1      43.586  27.099  25.021  1.00  0.00    -0.269 OA
BRANCH  29  32
ATOM     32  C   UNL A   1      41.493  27.123  25.971  1.00  0.00     0.039 A 
ATOM     33  C   UNL A   1      40.413  26.541  26.626  1.00  0.00     0.014 A 
ATOM     34  C   UNL A   1      41.597  28.491  26.026  1.00  0.00     0.014 A 
ATOM     35  C   UNL A   1      39.737  27.284  27.623  1.00  0.00     0.010 A 
ATOM     36  C   UNL A   1      41.240  29.061  27.239  1.00  0.00     0.010 A 
ATOM     37  C   UNL A   1      40.273  28.505  28.077  1.00  0.00    -0.014 A 
BRANCH  37  38
ATOM     38  C   UNL A   1      39.902  29.177  29.380  1.00  0.00     0.031 A 
ATOM     39  C   UNL A   1      40.667  28.876  30.675  1.00  0.00     0.074 A 
ATOM     40  C   UNL A   1      38.827  30.004  29.472  1.00  0.00     0.049 A 
ATOM     41  N   UNL A   1      40.594  29.485  31.838  1.00  0.00    -0.248 NA
ATOM     42  C   UNL A   1      41.577  27.714  30.713  1.00  0.00     0.031 C 
ATOM     43  C   UNL A   1      37.825  30.253  28.426  1.00  0.00     0.029 A 
ATOM     44  N   UNL A   1      38.400  30.819  30.503  1.00  0.00    -0.354 N 
ATOM     45  C   UNL A   1      41.450  28.783  32.684  1.00  0.00     0.074 A 
ATOM     46  C   UNL A   1      41.862  27.599  31.994  1.00  0.00     0.031 C 
ATOM     47  C   UNL A   1      36.982  31.222  28.825  1.00  0.00     0.029 A 
ATOM     48  C   UNL A   1      37.361  31.662  30.161  1.00  0.00     0.049 A 
ATOM     49  H   UNL A   1      38.800  30.798  31.403  1.00  0.00     0.167 HD
ATOM     50  C   UNL A   1      41.973  29.128  33.883  1.00  0.00     0.031 A 
ATOM     51  C   UNL A   1      36.815  32.707  30.822  1.00  0.00     0.031 A 
ATOM     52  C   UNL A   1      41.583  30.300  34.597  1.00  0.00     0.049 A 
ATOM     53  C   UNL A   1      37.400  33.111  32.155  1.00  0.00     0.074 A 
ATOM     54  C   UNL A   1      42.072  30.795  35.788  1.00  0.00     0.029 A 
ATOM     55  N   UNL A   1      40.579  31.152  34.174  1.00  0.00    -0.354 N 
ATOM     56  N   UNL A   1      38.376  32.558  32.835  1.00  0.00    -0.248 NA
ATOM     57  C   UNL A   1      36.837  34.315  32.788  1.00  0.00     0.031 C 
ATOM     58  C   UNL A   1      41.310  31.919  36.123  1.00  0.00     0.029 A 
ATOM     59  C   UNL A   1      40.408  32.161  35.097  1.00  0.00     0.049 A 
ATOM     60  H   UNL A   1      40.065  31.053  33.340  1.00  0.00     0.167 HD
ATOM     61  C   UNL A   1      38.576  33.371  33.945  1.00  0.00     0.074 A 
ATOM     62  C   UNL A   1      37.629  34.461  33.840  1.00  0.00     0.031 C 
ATOM     63  C   UNL A   1      39.465  33.237  34.960  1.00  0.00     0.031 A 
BRANCH  50  64
ATOM     64  C   UNL A   1      43.051  28.233  34.442  1.00  0.00    -0.014 A 
ATOM     65  C   UNL A   1      44.405  28.445  34.116  1.00  0.00     0.009 A 
ATOM     66  C   UNL A   1      42.717  27.147  35.260  1.00  0.00     0.009 A 
ATOM     67  C   UNL A   1      45.390  27.553  34.544  1.00  0.00     0.001 A 
ATOM     68  C   UNL A   1      43.711  26.278  35.720  1.00  0.00     0.001 A 
ATOM     69  C   UNL A   1      45.042  26.471  35.349  1.00  0.00     0.000 A 
ENDBRANCH  50  64
BRANCH  51  70
ATOM     70  C   UNL A   1      35.727  33.530  30.205  1.00  0.00    -0.014 A 
ATOM     71  C   UNL A   1      35.903  34.118  28.938  1.00  0.00     0.009 A 
ATOM     72  C   UNL A   1      34.529  33.780  30.891  1.00  0.00     0.009 A 
ATOM     73  C   UNL A   1      34.929  34.964  28.395  1.00  0.00     0.001 A 
ATOM     74  C   UNL A   1      33.542  34.602  30.331  1.00  0.00     0.001 A 
ATOM     75  C   UNL A   1      33.748  35.203  29.092  1.00  0.00     0.000 A 
ENDBRANCH  51  70
BRANCH  63  76
ATOM     76  C   UNL A   1      39.505  34.314  36.004  1.00  0.00    -0.014 A 
ATOM     77  C   UNL A   1      38.854  34.170  37.237  1.00  0.00     0.009 A 
ATOM     78  C   UNL A   1      40.270  35.467  35.765  1.00  0.00     0.009 A 
ATOM     79  C   UNL A   1      38.933  35.182  38.194  1.00  0.00     0.001 A 
ATOM     80  C   UNL A   1      40.378  36.459  36.737  1.00  0.00     0.001 A 
ATOM     81  C   UNL A   1      39.698  36.321  37.946  1.00  0.00     0.000 A 
ENDBRANCH  63  76
ENDBRANCH  37  38
ENDBRANCH  29  32
ENDBRANCH  27  28
ENDBRANCH  26  27
ENDBRANCH   1  26
TORSDOF 13
ENDMDL
MODEL 3
REMARK VINA RESULT:     -13.3      3.054      8.436
REMARK SMILES O=C(Cc1cncnc1N1CCC2(CC1)OCCC[C@@H]2O)NCCCNC(=O)c1ccc(-c2c3nc(c(-c4ccccc4)c4ccc([nH]4)c(-c4ccccc4)c4nc(c(-c5ccccc5)c5ccc2[nH]5)C=C4)C=C3)cc1
REMARK SMILES IDX 23 1 22 2 1 3 2 4 3 6 4 7 5 8 9 9 6 10 8 11 7 12 10 13 11 14
REMARK SMILES IDX 15 15 12 16 14 17 13 18 16 19 20 20 17 21 19 22 18 23 21 24
REMARK SMILES IDX 24 26 25 27 26 28 27 29 28 31 29 32 30 33 76 34 31 35 75 36
REMARK SMILES IDX 32 37 33 38 34 39 69 40 35 41 74 42 68 43 70 44 36 45 73 46
REMARK SMILES IDX 67 47 66 48 37 50 59 51 44 52 58 53 45 54 48 55 57 56 71 57
REMARK SMILES IDX 46 58 47 59 56 61 72 62 49 63 38 64 39 65 43 66 40 67 42 68
REMARK SMILES IDX 41 69 60 70 61 71 65 72 62 73 64 74 63 75 50 76 51 77 55 78
REMARK SMILES IDX 52 79 54 80 53 81
REMARK H PARENT 22 5 21 25 26 30 70 49 48 60
REMARK Flexibility Score: inf
ROOT
ATOM      1  C   UNL A   1      34.665  30.520  27.630  1.00  0.00     0.117 C 
ENDROOT
BRANCH   1   2
ATOM      2  N   UNL A   1      33.973  29.915  26.494  1.00  0.00    -0.356 N 
ATOM      3  O   UNL A   1      31.828  30.052  27.250  1.00  0.00    -0.275 OA
ATOM      4  C   UNL A   1      32.643  29.593  26.450  1.00  0.00     0.224 C 
ATOM      5  H   UNL A   1      34.509  29.723  25.691  1.00  0.00     0.163 HD
BRANCH   4   6
ATOM      6  C   UNL A   1      32.262  28.439  25.529  1.00  0.00     0.141 C 
BRANCH   6   7
ATOM      7  C   UNL A   1      31.369  28.611  24.321  1.00  0.00     0.022 A 
ATOM      8  C   UNL A   1      30.693  29.816  24.181  1.00  0.00     0.121 A 
ATOM      9  C   UNL A   1      31.021  27.643  23.375  1.00  0.00     0.135 A 
ATOM     10  N   UNL A   1      29.755  30.072  23.252  1.00  0.00    -0.244 NA
ATOM     11  N   UNL A   1      30.098  27.875  22.421  1.00  0.00    -0.219 NA
ATOM     12  C   UNL A   1      29.496  29.067  22.416  1.00  0.00     0.224 A 
BRANCH   9  13
ATOM     13  N   UNL A   1      31.608  26.395  23.361  1.00  0.00    -0.356 N 
ATOM     14  C   UNL A   1      32.935  26.229  22.775  1.00  0.00     0.121 C 
ATOM     15  C   UNL A   1      30.764  25.273  23.036  1.00  0.00     0.121 C 
ATOM     16  C   UNL A   1      33.650  25.183  23.610  1.00  0.00     0.060 C 
ATOM     17  C   UNL A   1      31.188  24.171  23.988  1.00  0.00     0.060 C 
ATOM     18  C   UNL A   1      32.836  23.920  24.043  1.00  0.00     0.097 C 
ATOM     19  O   UNL A   1      32.469  22.870  22.632  1.00  0.00    -0.372 OA
ATOM     20  C   UNL A   1      34.163  23.101  25.324  1.00  0.00     0.146 C 
ATOM     21  C   UNL A   1      32.157  21.141  22.894  1.00  0.00     0.161 C 
ATOM     22  C   UNL A   1      34.272  21.146  25.474  1.00  0.00     0.037 C 
ATOM     23  C   UNL A   1      33.122  20.156  24.247  1.00  0.00     0.031 C 
BRANCH  20  24
ATOM     24  O   UNL A   1      34.376  23.591  26.639  1.00  0.00    -0.390 OA
ATOM     25  H   UNL A   1      35.168  24.151  26.651  1.00  0.00     0.211 HD
ENDBRANCH  20  24
ENDBRANCH   9  13
ENDBRANCH   6   7
ENDBRANCH   4   6
ENDBRANCH   1   2
BRANCH   1  26
ATOM     26  C   UNL A   1      34.717  32.135  27.849  1.00  0.00     0.042 C 
BRANCH  26  27
ATOM     27  C   UNL A   1      33.569  33.532  28.061  1.00  0.00     0.118 C 
BRANCH  27  28
ATOM     28  N   UNL A   1      33.233  34.894  29.488  1.00  0.00    -0.352 N 
ATOM     29  C   UNL A   1      33.081  35.513  30.817  1.00  0.00     0.251 C 
ATOM     30  H   UNL A   1      33.038  35.676  28.924  1.00  0.00     0.163 HD
ATOM     31  O   UNL A   1      32.539  36.612  30.858  1.00  0.00    -0.269 OA
BRANCH  29  32
ATOM     32  C   UNL A   1      33.715  35.080  32.104  1.00  0.00     0.039 A 
ATOM     33  C   UNL A   1      33.377  33.942  32.830  1.00  0.00     0.014 A 
ATOM     34  C   UNL A   1      34.841  35.763  32.495  1.00  0.00     0.014 A 
ATOM     35  C   UNL A   1      34.369  33.320  33.624  1.00  0.00     0.010 A 
ATOM     36  C   UNL A   1      35.898  34.967  32.909  1.00  0.00     0.010 A 
ATOM     37  C   UNL A   1      35.714  33.727  33.521  1.00  0.00    -0.014 A 
BRANCH  37  38
ATOM     38  C   UNL A   1      36.900  32.907  33.976  1.00  0.00     0.031 A 
ATOM     39  C   UNL A   1      37.512  31.828  33.074  1.00  0.00     0.074 A 
ATOM     40  C   UNL A   1      37.412  33.033  35.229  1.00  0.00     0.049 A 
ATOM     41  N   UNL A   1      38.629  31.154  33.235  1.00  0.00    -0.248 NA
ATOM     42  C   UNL A   1      36.766  31.388  31.879  1.00  0.00     0.031 C 
ATOM     43  C   UNL A   1      36.846  33.829  36.327  1.00  0.00     0.029 A 
ATOM     44  N   UNL A   1      38.555  32.500  35.795  1.00  0.00    -0.354 N 
ATOM     45  C   UNL A   1      38.689  30.263  32.165  1.00  0.00     0.074 A 
ATOM     46  C   UNL A   1      37.428  30.318  31.488  1.00  0.00     0.031 C 
ATOM     47  C   UNL A   1      37.688  33.818  37.377  1.00  0.00     0.029 A 
ATOM     48  C   UNL A   1      38.851  33.005  37.047  1.00  0.00     0.049 A 
ATOM     49  H   UNL A   1      39.109  31.821  35.346  1.00  0.00     0.167 HD
ATOM     50  C   UNL A   1      39.727  29.545  31.679  1.00  0.00     0.031 A 
ATOM     51  C   UNL A   1      39.955  32.875  37.814  1.00  0.00     0.031 A 
ATOM     52  C   UNL A   1      40.995  29.468  32.329  1.00  0.00     0.049 A 
ATOM     53  C   UNL A   1      41.127  32.089  37.277  1.00  0.00     0.074 A 
ATOM     54  C   UNL A   1      42.145  28.826  31.918  1.00  0.00     0.029 A 
ATOM     55  N   UNL A   1      41.260  30.051  33.555  1.00  0.00    -0.354 N 
ATOM     56  N   UNL A   1      41.240  31.437  36.144  1.00  0.00    -0.248 NA
ATOM     57  C   UNL A   1      42.343  32.059  38.106  1.00  0.00     0.031 C 
ATOM     58  C   UNL A   1      43.093  28.965  32.936  1.00  0.00     0.029 A 
ATOM     59  C   UNL A   1      42.552  29.761  33.936  1.00  0.00     0.049 A 
ATOM     60  H   UNL A   1      40.623  30.592  34.076  1.00  0.00     0.167 HD
ATOM     61  C   UNL A   1      42.548  30.967  36.102  1.00  0.00     0.074 A 
ATOM     62  C   UNL A   1      43.192  31.418  37.318  1.00  0.00     0.031 C 
ATOM     63  C   UNL A   1      43.168  30.232  35.146  1.00  0.00     0.031 A 
BRANCH  50  64
ATOM     64  C   UNL A   1      39.516  28.841  30.362  1.00  0.00    -0.014 A 
ATOM     65  C   UNL A   1      39.187  27.471  30.322  1.00  0.00     0.009 A 
ATOM     66  C   UNL A   1      39.688  29.528  29.155  1.00  0.00     0.009 A 
ATOM     67  C   UNL A   1      39.100  26.794  29.104  1.00  0.00     0.001 A 
ATOM     68  C   UNL A   1      39.562  28.856  27.935  1.00  0.00     0.001 A 
ATOM     69  C   UNL A   1      39.284  27.489  27.911  1.00  0.00     0.000 A 
ENDBRANCH  50  64
BRANCH  51  70
ATOM     70  C   UNL A   1      40.075  33.589  39.126  1.00  0.00    -0.014 A 
ATOM     71  C   UNL A   1      39.637  32.980  40.316  1.00  0.00     0.009 A 
ATOM     72  C   UNL A   1      40.576  34.898  39.195  1.00  0.00     0.009 A 
ATOM     73  C   UNL A   1      39.659  33.675  41.531  1.00  0.00     0.001 A 
ATOM     74  C   UNL A   1      40.628  35.580  40.418  1.00  0.00     0.001 A 
ATOM     75  C   UNL A   1      40.157  34.974  41.581  1.00  0.00     0.000 A 
ENDBRANCH  51  70
BRANCH  63  76
ATOM     76  C   UNL A   1      44.623  29.920  35.336  1.00  0.00    -0.014 A 
ATOM     77  C   UNL A   1      45.628  30.790  34.889  1.00  0.00     0.009 A 
ATOM     78  C   UNL A   1      44.986  28.759  36.038  1.00  0.00     0.009 A 
ATOM     79  C   UNL A   1      46.971  30.478  35.104  1.00  0.00     0.001 A 
ATOM     80  C   UNL A   1      46.326  28.471  36.286  1.00  0.00     0.001 A 
ATOM     81  C   UNL A   1      47.318  29.324  35.807  1.00  0.00     0.000 A 
ENDBRANCH  63  76
ENDBRANCH  37  38
ENDBRANCH  29  32
ENDBRANCH  27  28
ENDBRANCH  26  27
ENDBRANCH   1  26
TORSDOF 13
ENDMDL
