MODEL 1
REMARK VINA RESULT:     -11.6      0.000      0.000
REMARK SMILES CC1(C)[C@H](C(=O)NCCCNC(=O)c2ccc(-c3c4nc(c(-c5ccccc5)c5ccc([nH]5)c(-c5ccccc5)c5nc(c(-c6ccccc6)c6ccc3[nH]6)C=C5)C=C4)cc2)[C@H]1C(=O)Nc1cccc2[nH]ccc12
REMARK SMILES IDX 9 1 8 2 7 3 5 4 6 5 4 7 1 8 2 9 3 10 62 11 63 12 64 13 65 14
REMARK SMILES IDX 66 16 67 17 74 18 68 19 70 20 73 21 69 22 71 23 72 24 10 26
REMARK SMILES IDX 11 27 12 28 13 30 14 31 15 32 61 33 16 34 60 35 17 36 18 37
REMARK SMILES IDX 19 38 54 39 20 40 59 41 53 42 55 43 21 44 58 45 52 46 51 47
REMARK SMILES IDX 22 49 44 50 29 51 43 52 30 53 33 54 42 55 56 56 31 57 32 58
REMARK SMILES IDX 41 60 57 61 34 62 23 63 24 64 28 65 25 66 27 67 26 68 45 69
REMARK SMILES IDX 46 70 50 71 47 72 49 73 48 74 35 75 36 76 40 77 37 78 39 79
REMARK SMILES IDX 38 80
REMARK H PARENT 7 6 65 15 71 25 11 29 55 48 33 59
REMARK Flexibility Score: inf
ROOT
ATOM      1  C   UNL A   1      33.142  28.735  24.347  1.00  0.00     0.042 C 
ENDROOT
BRANCH   1   2
ATOM      2  C   UNL A   1      34.051  28.950  23.140  1.00  0.00     0.117 C 
BRANCH   2   3
ATOM      3  N   UNL A   1      33.792  27.978  22.103  1.00  0.00    -0.356 N 
ATOM      4  C   UNL A   1      33.375  26.680  22.086  1.00  0.00     0.224 C 
ATOM      5  O   UNL A   1      33.306  26.176  20.961  1.00  0.00    -0.275 OA
ATOM      6  H   UNL A   1      33.952  28.336  21.201  1.00  0.00     0.163 HD
BRANCH   4   7
ATOM      7  C   UNL A   1      32.989  25.815  23.233  1.00  0.00     0.098 C 
ATOM      8  C   UNL A   1      31.400  23.954  23.847  1.00  0.00     0.013 C 
ATOM      9  C   UNL A   1      32.762  24.300  23.306  1.00  0.00    -0.011 C 
ATOM     10  C   UNL A   1      33.259  23.152  22.474  1.00  0.00     0.013 C 
ATOM     11  C   UNL A   1      33.891  25.005  24.086  1.00  0.00     0.098 C 
BRANCH  11  12
ATOM     12  C   UNL A   1      34.036  24.903  25.573  1.00  0.00     0.228 C 
ATOM     13  O   UNL A   1      33.473  25.770  26.242  1.00  0.00    -0.274 OA
ATOM     14  N   UNL A   1      34.497  23.780  26.215  1.00  0.00    -0.325 N 
ATOM     15  H   UNL A   1      33.964  23.486  26.988  1.00  0.00     0.169 HD
BRANCH  14  16
ATOM     16  C   UNL A   1      35.618  22.996  25.924  1.00  0.00     0.050 A 
ATOM     17  C   UNL A   1      36.873  23.614  25.943  1.00  0.00     0.027 A 
ATOM     18  C   UNL A   1      35.530  21.662  25.461  1.00  0.00     0.023 A 
ATOM     19  C   UNL A   1      38.033  22.873  25.720  1.00  0.00     0.004 A 
ATOM     20  C   UNL A   1      36.710  20.928  25.316  1.00  0.00     0.047 A 
ATOM     21  C   UNL A   1      34.478  20.811  25.010  1.00  0.00     0.030 A 
ATOM     22  C   UNL A   1      37.976  21.500  25.467  1.00  0.00     0.027 A 
ATOM     23  N   UNL A   1      36.352  19.629  25.030  1.00  0.00    -0.361 N 
ATOM     24  C   UNL A   1      35.004  19.555  24.798  1.00  0.00     0.083 A 
ATOM     25  H   UNL A   1      36.972  18.866  24.999  1.00  0.00     0.166 HD
ENDBRANCH  14  16
ENDBRANCH  11  12
ENDBRANCH   4   7
ENDBRANCH   2   3
ENDBRANCH   1   2
BRANCH   1  26
ATOM     26  C   UNL A   1      33.851  28.822  25.691  1.00  0.00     0.118 C 
BRANCH  26  27
ATOM     27  N   UNL A   1      33.636  30.103  26.348  1.00  0.00    -0.352 N 
ATOM     28  C   UNL A   1      34.313  30.702  27.381  1.00  0.00     0.251 C 
ATOM     29  H   UNL A   1      32.880  30.624  25.994  1.00  0.00     0.163 HD
ATOM     30  O   UNL A   1      33.819  31.683  27.932  1.00  0.00    -0.269 OA
BRANCH  28  31
ATOM     31  C   UNL A   1      35.622  30.189  27.846  1.00  0.00     0.039 A 
ATOM     32  C   UNL A   1      35.721  29.672  29.142  1.00  0.00     0.014 A 
ATOM     33  C   UNL A   1      36.765  30.273  27.049  1.00  0.00     0.014 A 
ATOM     34  C   UNL A   1      36.948  29.199  29.618  1.00  0.00     0.010 A 
ATOM     35  C   UNL A   1      37.967  29.723  27.489  1.00  0.00     0.010 A 
ATOM     36  C   UNL A   1      38.077  29.196  28.785  1.00  0.00    -0.014 A 
BRANCH  36  37
ATOM     37  C   UNL A   1      39.391  28.687  29.255  1.00  0.00     0.031 A 
ATOM     38  C   UNL A   1      40.253  29.542  30.146  1.00  0.00     0.074 A 
ATOM     39  C   UNL A   1      39.836  27.485  28.837  1.00  0.00     0.049 A 
ATOM     40  N   UNL A   1      41.468  29.322  30.581  1.00  0.00    -0.248 NA
ATOM     41  C   UNL A   1      39.681  30.825  30.588  1.00  0.00     0.031 C 
ATOM     42  C   UNL A   1      39.111  26.567  27.957  1.00  0.00     0.029 A 
ATOM     43  N   UNL A   1      41.017  26.833  29.094  1.00  0.00    -0.354 N 
ATOM     44  C   UNL A   1      41.812  30.445  31.324  1.00  0.00     0.074 A 
ATOM     45  C   UNL A   1      40.699  31.364  31.243  1.00  0.00     0.031 C 
ATOM     46  C   UNL A   1      39.850  25.462  27.768  1.00  0.00     0.029 A 
ATOM     47  C   UNL A   1      41.118  25.611  28.473  1.00  0.00     0.049 A 
ATOM     48  H   UNL A   1      41.724  27.206  29.669  1.00  0.00     0.167 HD
ATOM     49  C   UNL A   1      42.941  30.682  32.032  1.00  0.00     0.031 A 
ATOM     50  C   UNL A   1      42.125  24.717  28.464  1.00  0.00     0.031 A 
ATOM     51  C   UNL A   1      44.041  29.761  32.131  1.00  0.00     0.049 A 
ATOM     52  C   UNL A   1      43.380  25.017  29.237  1.00  0.00     0.074 A 
ATOM     53  C   UNL A   1      45.214  29.892  32.853  1.00  0.00     0.029 A 
ATOM     54  N   UNL A   1      44.098  28.532  31.492  1.00  0.00    -0.354 N 
ATOM     55  N   UNL A   1      43.670  26.065  29.970  1.00  0.00    -0.248 NA
ATOM     56  C   UNL A   1      44.445  24.003  29.188  1.00  0.00     0.031 C 
ATOM     57  C   UNL A   1      46.000  28.759  32.619  1.00  0.00     0.029 A 
ATOM     58  C   UNL A   1      45.292  27.901  31.794  1.00  0.00     0.049 A 
ATOM     59  H   UNL A   1      43.393  28.163  30.912  1.00  0.00     0.167 HD
ATOM     60  C   UNL A   1      44.931  25.819  30.497  1.00  0.00     0.074 A 
ATOM     61  C   UNL A   1      45.346  24.520  30.011  1.00  0.00     0.031 C 
ATOM     62  C   UNL A   1      45.680  26.600  31.314  1.00  0.00     0.031 A 
BRANCH  49  63
ATOM     63  C   UNL A   1      43.043  31.992  32.762  1.00  0.00    -0.014 A 
ATOM     64  C   UNL A   1      42.610  32.116  34.092  1.00  0.00     0.009 A 
ATOM     65  C   UNL A   1      43.620  33.105  32.130  1.00  0.00     0.009 A 
ATOM     66  C   UNL A   1      42.722  33.335  34.763  1.00  0.00     0.001 A 
ATOM     67  C   UNL A   1      43.758  34.315  32.813  1.00  0.00     0.001 A 
ATOM     68  C   UNL A   1      43.302  34.432  34.125  1.00  0.00     0.000 A 
ENDBRANCH  49  63
BRANCH  50  69
ATOM     69  C   UNL A   1      41.994  23.444  27.706  1.00  0.00    -0.014 A 
ATOM     70  C   UNL A   1      42.491  23.342  26.397  1.00  0.00     0.009 A 
ATOM     71  C   UNL A   1      41.347  22.335  28.274  1.00  0.00     0.009 A 
ATOM     72  C   UNL A   1      42.312  22.168  25.660  1.00  0.00     0.001 A 
ATOM     73  C   UNL A   1      41.197  21.153  27.546  1.00  0.00     0.001 A 
ATOM     74  C   UNL A   1      41.667  21.074  26.236  1.00  0.00     0.000 A 
ENDBRANCH  50  69
BRANCH  62  75
ATOM     75  C   UNL A   1      46.997  26.048  31.777  1.00  0.00    -0.014 A 
ATOM     76  C   UNL A   1      48.159  26.179  31.000  1.00  0.00     0.009 A 
ATOM     77  C   UNL A   1      47.083  25.432  33.035  1.00  0.00     0.009 A 
ATOM     78  C   UNL A   1      49.374  25.673  31.462  1.00  0.00     0.001 A 
ATOM     79  C   UNL A   1      48.306  24.953  33.507  1.00  0.00     0.001 A 
ATOM     80  C   UNL A   1      49.448  25.066  32.717  1.00  0.00     0.000 A 
ENDBRANCH  62  75
ENDBRANCH  36  37
ENDBRANCH  28  31
ENDBRANCH  26  27
ENDBRANCH   1  26
TORSDOF 12
ENDMDL
MODEL 2
REMARK VINA RESULT:     -11.5      2.870      7.368
REMARK SMILES CC1(C)[C@H](C(=O)NCCCNC(=O)c2ccc(-c3c4nc(c(-c5ccccc5)c5ccc([nH]5)c(-c5ccccc5)c5nc(c(-c6ccccc6)c6ccc3[nH]6)C=C5)C=C4)cc2)[C@H]1C(=O)Nc1cccc2[nH]ccc12
REMARK SMILES IDX 9 1 8 2 7 3 5 4 6 5 4 7 1 8 2 9 3 10 62 11 63 12 64 13 65 14
REMARK SMILES IDX 66 16 67 17 74 18 68 19 70 20 73 21 69 22 71 23 72 24 10 26
REMARK SMILES IDX 11 27 12 28 13 30 14 31 15 32 61 33 16 34 60 35 17 36 18 37
REMARK SMILES IDX 19 38 54 39 20 40 59 41 53 42 55 43 21 44 58 45 52 46 51 47
REMARK SMILES IDX 22 49 44 50 29 51 43 52 30 53 33 54 42 55 56 56 31 57 32 58
REMARK SMILES IDX 41 60 57 61 34 62 23 63 24 64 28 65 25 66 27 67 26 68 45 69
REMARK SMILES IDX 46 70 50 71 47 72 49 73 48 74 35 75 36 76 40 77 37 78 39 79
REMARK SMILES IDX 38 80
REMARK H PARENT 7 6 65 15 71 25 11 29 55 48 33 59
REMARK Flexibility Score: inf
ROOT
ATOM      1  C   UNL A   1      38.194  19.816  24.931  1.00  0.00     0.042 C 
ENDROOT
BRANCH   1   2
ATOM      2  C   UNL A   1      37.611  21.090  24.326  1.00  0.00     0.117 C 
BRANCH   2   3
ATOM      3  N   UNL A   1      37.971  22.255  25.100  1.00  0.00    -0.356 N 
ATOM      4  C   UNL A   1      37.279  23.164  25.844  1.00  0.00     0.224 C 
ATOM      5  O   UNL A   1      37.972  24.060  26.337  1.00  0.00    -0.275 OA
ATOM      6  H   UNL A   1      38.938  22.433  25.087  1.00  0.00     0.163 HD
BRANCH   4   7
ATOM      7  C   UNL A   1      35.822  23.204  26.139  1.00  0.00     0.098 C 
ATOM      8  C   UNL A   1      33.820  24.729  25.967  1.00  0.00     0.013 C 
ATOM      9  C   UNL A   1      34.643  23.674  25.277  1.00  0.00    -0.011 C 
ATOM     10  C   UNL A   1      34.451  23.802  23.793  1.00  0.00     0.013 C 
ATOM     11  C   UNL A   1      34.799  22.209  25.735  1.00  0.00     0.098 C 
BRANCH  11  12
ATOM     12  C   UNL A   1      33.746  21.487  26.516  1.00  0.00     0.228 C 
ATOM     13  O   UNL A   1      33.768  21.632  27.738  1.00  0.00    -0.274 OA
ATOM     14  N   UNL A   1      32.627  20.930  25.945  1.00  0.00    -0.325 N 
ATOM     15  H   UNL A   1      31.776  21.133  26.397  1.00  0.00     0.169 HD
BRANCH  14  16
ATOM     16  C   UNL A   1      32.527  20.116  24.813  1.00  0.00     0.050 A 
ATOM     17  C   UNL A   1      32.185  20.721  23.599  1.00  0.00     0.027 A 
ATOM     18  C   UNL A   1      32.597  18.705  24.866  1.00  0.00     0.023 A 
ATOM     19  C   UNL A   1      32.127  19.974  22.423  1.00  0.00     0.004 A 
ATOM     20  C   UNL A   1      32.606  17.992  23.664  1.00  0.00     0.047 A 
ATOM     21  C   UNL A   1      32.603  17.726  25.904  1.00  0.00     0.030 A 
ATOM     22  C   UNL A   1      32.402  18.605  22.424  1.00  0.00     0.027 A 
ATOM     23  N   UNL A   1      32.857  16.673  23.971  1.00  0.00    -0.361 N 
ATOM     24  C   UNL A   1      32.811  16.492  25.328  1.00  0.00     0.083 A 
ATOM     25  H   UNL A   1      33.041  15.965  23.313  1.00  0.00     0.166 HD
ENDBRANCH  14  16
ENDBRANCH  11  12
ENDBRANCH   4   7
ENDBRANCH   2   3
ENDBRANCH   1   2
BRANCH   1  26
ATOM     26  C   UNL A   1      39.179  20.055  26.067  1.00  0.00     0.118 C 
BRANCH  26  27
ATOM     27  N   UNL A   1      40.416  19.309  25.893  1.00  0.00    -0.352 N 
ATOM     28  C   UNL A   1      41.724  19.719  25.962  1.00  0.00     0.251 C 
ATOM     29  H   UNL A   1      40.295  18.353  25.692  1.00  0.00     0.163 HD
ATOM     30  O   UNL A   1      42.609  18.972  25.553  1.00  0.00    -0.269 OA
BRANCH  28  31
ATOM     31  C   UNL A   1      42.088  21.045  26.513  1.00  0.00     0.039 A 
ATOM     32  C   UNL A   1      42.396  22.082  25.626  1.00  0.00     0.014 A 
ATOM     33  C   UNL A   1      42.198  21.259  27.889  1.00  0.00     0.014 A 
ATOM     34  C   UNL A   1      42.764  23.339  26.117  1.00  0.00     0.010 A 
ATOM     35  C   UNL A   1      42.480  22.533  28.378  1.00  0.00     0.010 A 
ATOM     36  C   UNL A   1      42.783  23.583  27.498  1.00  0.00    -0.014 A 
BRANCH  36  37
ATOM     37  C   UNL A   1      43.155  24.911  28.050  1.00  0.00     0.031 A 
ATOM     38  C   UNL A   1      42.089  25.946  28.300  1.00  0.00     0.074 A 
ATOM     39  C   UNL A   1      44.450  25.209  28.273  1.00  0.00     0.049 A 
ATOM     40  N   UNL A   1      42.218  27.191  28.682  1.00  0.00    -0.248 NA
ATOM     41  C   UNL A   1      40.696  25.532  28.067  1.00  0.00     0.031 C 
ATOM     42  C   UNL A   1      45.582  24.307  28.053  1.00  0.00     0.029 A 
ATOM     43  N   UNL A   1      45.033  26.366  28.728  1.00  0.00    -0.354 N 
ATOM     44  C   UNL A   1      40.930  27.712  28.711  1.00  0.00     0.074 A 
ATOM     45  C   UNL A   1      40.039  26.666  28.264  1.00  0.00     0.031 C 
ATOM     46  C   UNL A   1      46.719  24.934  28.396  1.00  0.00     0.029 A 
ATOM     47  C   UNL A   1      46.403  26.295  28.816  1.00  0.00     0.049 A 
ATOM     48  H   UNL A   1      44.519  27.171  28.968  1.00  0.00     0.167 HD
ATOM     49  C   UNL A   1      40.520  28.943  29.100  1.00  0.00     0.031 A 
ATOM     50  C   UNL A   1      47.305  27.226  29.182  1.00  0.00     0.031 A 
ATOM     51  C   UNL A   1      41.402  29.979  29.565  1.00  0.00     0.049 A 
ATOM     52  C   UNL A   1      46.823  28.595  29.583  1.00  0.00     0.074 A 
ATOM     53  C   UNL A   1      41.081  31.247  30.016  1.00  0.00     0.029 A 
ATOM     54  N   UNL A   1      42.781  29.861  29.645  1.00  0.00    -0.354 N 
ATOM     55  N   UNL A   1      45.598  29.055  29.647  1.00  0.00    -0.248 NA
ATOM     56  C   UNL A   1      47.855  29.569  29.973  1.00  0.00     0.031 C 
ATOM     57  C   UNL A   1      42.270  31.912  30.331  1.00  0.00     0.029 A 
ATOM     58  C   UNL A   1      43.325  31.038  30.127  1.00  0.00     0.049 A 
ATOM     59  H   UNL A   1      43.295  29.059  29.398  1.00  0.00     0.167 HD
ATOM     60  C   UNL A   1      45.709  30.357  30.118  1.00  0.00     0.074 A 
ATOM     61  C   UNL A   1      47.118  30.609  30.335  1.00  0.00     0.031 C 
ATOM     62  C   UNL A   1      44.729  31.264  30.352  1.00  0.00     0.031 A 
BRANCH  49  63
ATOM     63  C   UNL A   1      39.046  29.235  29.043  1.00  0.00    -0.014 A 
ATOM     64  C   UNL A   1      38.445  29.696  27.861  1.00  0.00     0.009 A 
ATOM     65  C   UNL A   1      38.241  29.005  30.169  1.00  0.00     0.009 A 
ATOM     66  C   UNL A   1      37.073  29.952  27.817  1.00  0.00     0.001 A 
ATOM     67  C   UNL A   1      36.864  29.234  30.114  1.00  0.00     0.001 A 
ATOM     68  C   UNL A   1      36.283  29.714  28.942  1.00  0.00     0.000 A 
ENDBRANCH  49  63
BRANCH  50  69
ATOM     69  C   UNL A   1      48.756  26.904  29.200  1.00  0.00    -0.014 A 
ATOM     70  C   UNL A   1      49.544  27.116  28.058  1.00  0.00     0.009 A 
ATOM     71  C   UNL A   1      49.355  26.355  30.345  1.00  0.00     0.009 A 
ATOM     72  C   UNL A   1      50.894  26.753  28.051  1.00  0.00     0.001 A 
ATOM     73  C   UNL A   1      50.711  26.022  30.345  1.00  0.00     0.001 A 
ATOM     74  C   UNL A   1      51.476  26.208  29.195  1.00  0.00     0.000 A 
ENDBRANCH  50  69
BRANCH  62  75
ATOM     75  C   UNL A   1      45.141  32.592  30.920  1.00  0.00    -0.014 A 
ATOM     76  C   UNL A   1      45.438  33.683  30.088  1.00  0.00     0.009 A 
ATOM     77  C   UNL A   1      45.183  32.763  32.312  1.00  0.00     0.009 A 
ATOM     78  C   UNL A   1      45.801  34.911  30.643  1.00  0.00     0.001 A 
ATOM     79  C   UNL A   1      45.518  34.001  32.864  1.00  0.00     0.001 A 
ATOM     80  C   UNL A   1      45.835  35.071  32.029  1.00  0.00     0.000 A 
ENDBRANCH  62  75
ENDBRANCH  36  37
ENDBRANCH  28  31
ENDBRANCH  26  27
ENDBRANCH   1  26
TORSDOF 12
ENDMDL
MODEL 3
REMARK VINA RESULT:     -11.5      1.821      3.691
REMARK SMILES CC1(C)[C@H](C(=O)NCCCNC(=O)c2ccc(-c3c4nc(c(-c5ccccc5)c5ccc([nH]5)c(-c5ccccc5)c5nc(c(-c6ccccc6)c6ccc3[nH]6)C=C5)C=C4)cc2)[C@H]1C(=O)Nc1cccc2[nH]ccc12
REMARK SMILES IDX 9 1 8 2 7 3 5 4 6 5 4 7 1 8 2 9 3 10 62 11 63 12 64 13 65 14
REMARK SMILES IDX 66 16 67 17 74 18 68 19 70 20 73 21 69 22 71 23 72 24 10 26
REMARK SMILES IDX 11 27 12 28 13 30 14 31 15 32 61 33 16 34 60 35 17 36 18 37
REMARK SMILES IDX 19 38 54 39 20 40 59 41 53 42 55 43 21 44 58 45 52 46 51 47
REMARK SMILES IDX 22 49 44 50 29 51 43 52 30 53 33 54 42 55 56 56 31 57 32 58
REMARK SMILES IDX 41 60 57 61 34 62 23 63 24 64 28 65 25 66 27 67 26 68 45 69
REMARK SMILES IDX 46 70 50 71 47 72 49 73 48 74 35 75 36 76 40 77 37 78 39 79
REMARK SMILES IDX 38 80
REMARK H PARENT 7 6 65 15 71 25 11 29 55 48 33 59
REMARK Flexibility Score: inf
ROOT
ATOM      1  C   UNL A   1      32.804  28.077  26.129  1.00  0.00     0.042 C 
ENDROOT
BRANCH   1   2
ATOM      2  C   UNL A   1      31.355  27.652  26.349  1.00  0.00     0.117 C 
BRANCH   2   3
ATOM      3  N   UNL A   1      31.273  26.316  26.893  1.00  0.00    -0.356 N 
ATOM      4  C   UNL A   1      31.767  25.099  26.527  1.00  0.00     0.224 C 
ATOM      5  O   UNL A   1      31.433  24.165  27.263  1.00  0.00    -0.275 OA
ATOM      6  H   UNL A   1      30.738  26.275  27.717  1.00  0.00     0.163 HD
BRANCH   4   7
ATOM      7  C   UNL A   1      32.651  24.764  25.378  1.00  0.00     0.098 C 
ATOM      8  C   UNL A   1      35.055  24.220  24.839  1.00  0.00     0.013 C 
ATOM      9  C   UNL A   1      33.709  23.664  25.223  1.00  0.00    -0.011 C 
ATOM     10  C   UNL A   1      33.908  22.336  25.895  1.00  0.00     0.013 C 
ATOM     11  C   UNL A   1      32.433  23.711  24.357  1.00  0.00     0.098 C 
BRANCH  11  12
ATOM     12  C   UNL A   1      32.468  23.748  22.861  1.00  0.00     0.228 C 
ATOM     13  O   UNL A   1      32.693  22.682  22.288  1.00  0.00    -0.274 OA
ATOM     14  N   UNL A   1      31.994  24.802  22.117  1.00  0.00    -0.325 N 
ATOM     15  H   UNL A   1      31.413  24.558  21.361  1.00  0.00     0.169 HD
BRANCH  14  16
ATOM     16  C   UNL A   1      32.221  26.171  22.284  1.00  0.00     0.050 A 
ATOM     17  C   UNL A   1      33.543  26.626  22.245  1.00  0.00     0.027 A 
ATOM     18  C   UNL A   1      31.204  27.085  22.646  1.00  0.00     0.023 A 
ATOM     19  C   UNL A   1      33.830  27.987  22.345  1.00  0.00     0.004 A 
ATOM     20  C   UNL A   1      31.511  28.448  22.669  1.00  0.00     0.047 A 
ATOM     21  C   UNL A   1      29.851  26.978  23.087  1.00  0.00     0.030 A 
ATOM     22  C   UNL A   1      32.810  28.931  22.493  1.00  0.00     0.027 A 
ATOM     23  N   UNL A   1      30.331  29.130  22.872  1.00  0.00    -0.361 N 
ATOM     24  C   UNL A   1      29.327  28.249  23.172  1.00  0.00     0.083 A 
ATOM     25  H   UNL A   1      30.225  30.107  22.810  1.00  0.00     0.166 HD
ENDBRANCH  14  16
ENDBRANCH  11  12
ENDBRANCH   4   7
ENDBRANCH   2   3
ENDBRANCH   1   2
BRANCH   1  26
ATOM     26  C   UNL A   1      33.551  28.444  27.404  1.00  0.00     0.118 C 
BRANCH  26  27
ATOM     27  N   UNL A   1      33.563  29.879  27.645  1.00  0.00    -0.352 N 
ATOM     28  C   UNL A   1      34.528  30.685  28.197  1.00  0.00     0.251 C 
ATOM     29  H   UNL A   1      32.745  30.349  27.365  1.00  0.00     0.163 HD
ATOM     30  O   UNL A   1      34.237  31.835  28.515  1.00  0.00    -0.269 OA
BRANCH  28  31
ATOM     31  C   UNL A   1      35.907  30.194  28.419  1.00  0.00     0.039 A 
ATOM     32  C   UNL A   1      36.248  29.694  29.681  1.00  0.00     0.014 A 
ATOM     33  C   UNL A   1      36.884  30.283  27.426  1.00  0.00     0.014 A 
ATOM     34  C   UNL A   1      37.549  29.243  29.929  1.00  0.00     0.010 A 
ATOM     35  C   UNL A   1      38.155  29.754  27.644  1.00  0.00     0.010 A 
ATOM     36  C   UNL A   1      38.506  29.244  28.904  1.00  0.00    -0.014 A 
BRANCH  36  37
ATOM     37  C   UNL A   1      39.891  28.758  29.130  1.00  0.00     0.031 A 
ATOM     38  C   UNL A   1      40.923  29.678  29.729  1.00  0.00     0.074 A 
ATOM     39  C   UNL A   1      40.240  27.513  28.747  1.00  0.00     0.049 A 
ATOM     40  N   UNL A   1      42.203  29.478  29.914  1.00  0.00    -0.248 NA
ATOM     41  C   UNL A   1      40.457  31.008  30.154  1.00  0.00     0.031 C 
ATOM     42  C   UNL A   1      39.345  26.529  28.137  1.00  0.00     0.029 A 
ATOM     43  N   UNL A   1      41.450  26.866  28.810  1.00  0.00    -0.354 N 
ATOM     44  C   UNL A   1      42.696  30.661  30.453  1.00  0.00     0.074 A 
ATOM     45  C   UNL A   1      41.590  31.589  30.521  1.00  0.00     0.031 C 
ATOM     46  C   UNL A   1      40.029  25.397  27.903  1.00  0.00     0.029 A 
ATOM     47  C   UNL A   1      41.418  25.589  28.304  1.00  0.00     0.049 A 
ATOM     48  H   UNL A   1      42.263  27.279  29.181  1.00  0.00     0.167 HD
ATOM     49  C   UNL A   1      43.950  30.943  30.878  1.00  0.00     0.031 A 
ATOM     50  C   UNL A   1      42.401  24.678  28.168  1.00  0.00     0.031 A 
ATOM     51  C   UNL A   1      45.048  30.015  30.829  1.00  0.00     0.049 A 
ATOM     52  C   UNL A   1      43.792  25.028  28.623  1.00  0.00     0.074 A 
ATOM     53  C   UNL A   1      46.348  30.193  31.269  1.00  0.00     0.029 A 
ATOM     54  N   UNL A   1      44.969  28.729  30.317  1.00  0.00    -0.354 N 
ATOM     55  N   UNL A   1      44.230  26.136  29.171  1.00  0.00    -0.248 NA
ATOM     56  C   UNL A   1      44.824  23.994  28.448  1.00  0.00     0.031 C 
ATOM     57  C   UNL A   1      47.068  29.028  30.985  1.00  0.00     0.029 A 
ATOM     58  C   UNL A   1      46.201  28.108  30.418  1.00  0.00     0.049 A 
ATOM     59  H   UNL A   1      44.157  28.320  29.939  1.00  0.00     0.167 HD
ATOM     60  C   UNL A   1      45.575  25.918  29.439  1.00  0.00     0.074 A 
ATOM     61  C   UNL A   1      45.879  24.571  29.005  1.00  0.00     0.031 C 
ATOM     62  C   UNL A   1      46.480  26.760  29.997  1.00  0.00     0.031 A 
BRANCH  49  63
ATOM     63  C   UNL A   1      44.203  32.315  31.437  1.00  0.00    -0.014 A 
ATOM     64  C   UNL A   1      44.585  33.378  30.604  1.00  0.00     0.009 A 
ATOM     65  C   UNL A   1      44.013  32.560  32.806  1.00  0.00     0.009 A 
ATOM     66  C   UNL A   1      44.804  34.651  31.134  1.00  0.00     0.001 A 
ATOM     67  C   UNL A   1      44.205  33.842  33.330  1.00  0.00     0.001 A 
ATOM     68  C   UNL A   1      44.608  34.883  32.495  1.00  0.00     0.000 A 
ENDBRANCH  49  63
BRANCH  50  69
ATOM     69  C   UNL A   1      42.114  23.341  27.584  1.00  0.00    -0.014 A 
ATOM     70  C   UNL A   1      42.375  23.087  26.229  1.00  0.00     0.009 A 
ATOM     71  C   UNL A   1      41.551  22.323  28.369  1.00  0.00     0.009 A 
ATOM     72  C   UNL A   1      42.046  21.852  25.664  1.00  0.00     0.001 A 
ATOM     73  C   UNL A   1      41.251  21.080  27.808  1.00  0.00     0.001 A 
ATOM     74  C   UNL A   1      41.486  20.849  26.453  1.00  0.00     0.000 A 
ENDBRANCH  50  69
BRANCH  62  75
ATOM     75  C   UNL A   1      47.867  26.230  30.220  1.00  0.00    -0.014 A 
ATOM     76  C   UNL A   1      48.823  26.227  29.193  1.00  0.00     0.009 A 
ATOM     77  C   UNL A   1      48.234  25.773  31.495  1.00  0.00     0.009 A 
ATOM     78  C   UNL A   1      50.111  25.745  29.432  1.00  0.00     0.001 A 
ATOM     79  C   UNL A   1      49.531  25.320  31.739  1.00  0.00     0.001 A 
ATOM     80  C   UNL A   1      50.466  25.298  30.706  1.00  0.00     0.000 A 
ENDBRANCH  62  75
ENDBRANCH  36  37
ENDBRANCH  28  31
ENDBRANCH  26  27
ENDBRANCH   1  26
TORSDOF 12
ENDMDL
