MODEL 1
REMARK VINA RESULT:     -12.7      0.000      0.000
REMARK SMILES O=C(NCCCNC(=O)[C@H]1CC2=c3ccccc3=N[C@H]2[C@@H](c2ccccc2)[NH2+]1)c1ccc(-c2c3nc(c(-c4ccccc4)c4ccc([nH]4)c(-c4ccccc4)c4nc(c(-c5ccccc5)c5ccc2[nH]5)C=C4)C=C3)cc1
REMARK SMILES IDX 4 1 3 2 1 3 2 4 29 6 30 7 76 8 31 9 75 10 32 11 33 12 34 13
REMARK SMILES IDX 69 14 35 15 74 16 68 17 70 18 36 19 73 20 67 21 66 22 37 24
REMARK SMILES IDX 59 25 44 26 58 27 45 28 48 29 57 30 71 31 46 32 47 33 56 35
REMARK SMILES IDX 72 36 49 37 38 38 39 39 43 40 40 41 42 42 41 43 60 44 61 45
REMARK SMILES IDX 65 46 62 47 64 48 63 49 50 50 51 51 55 52 52 53 54 54 53 55
REMARK SMILES IDX 5 56 6 57 7 58 8 59 9 61 10 62 11 63 28 64 12 65 21 66 13 69
REMARK SMILES IDX 20 70 14 71 18 72 19 73 15 74 17 75 16 76 22 77 23 78 27 79
REMARK SMILES IDX 24 80 26 81 25 82
REMARK H PARENT 3 5 70 23 48 34 7 60 28 67 28 68
REMARK Flexibility Score: inf
ROOT
ATOM      1  C   UNL A   1      33.437  29.382  27.260  1.00  0.00     0.118 C 
ENDROOT
BRANCH   1   2
ATOM      2  N   UNL A   1      33.676  30.639  27.946  1.00  0.00    -0.352 N 
ATOM      3  O   UNL A   1      34.582  32.060  29.418  1.00  0.00    -0.269 OA
ATOM      4  C   UNL A   1      34.728  31.051  28.718  1.00  0.00     0.251 C 
ATOM      5  H   UNL A   1      32.962  31.308  27.837  1.00  0.00     0.163 HD
BRANCH   4   6
ATOM      6  C   UNL A   1      36.032  30.344  28.741  1.00  0.00     0.039 A 
ATOM      7  C   UNL A   1      36.431  29.725  29.932  1.00  0.00     0.014 A 
ATOM      8  C   UNL A   1      36.927  30.389  27.668  1.00  0.00     0.014 A 
ATOM      9  C   UNL A   1      37.713  29.179  30.051  1.00  0.00     0.010 A 
ATOM     10  C   UNL A   1      38.167  29.752  27.751  1.00  0.00     0.010 A 
ATOM     11  C   UNL A   1      38.597  29.198  28.963  1.00  0.00    -0.014 A 
BRANCH  11  12
ATOM     12  C   UNL A   1      40.014  28.775  29.120  1.00  0.00     0.031 A 
ATOM     13  C   UNL A   1      40.432  27.394  28.673  1.00  0.00     0.074 A 
ATOM     14  C   UNL A   1      40.927  29.613  29.646  1.00  0.00     0.049 A 
ATOM     15  N   UNL A   1      41.610  26.826  28.735  1.00  0.00    -0.248 NA
ATOM     16  C   UNL A   1      39.384  26.527  28.105  1.00  0.00     0.031 C 
ATOM     17  C   UNL A   1      40.657  30.968  30.127  1.00  0.00     0.029 A 
ATOM     18  N   UNL A   1      42.276  29.450  29.848  1.00  0.00    -0.354 N 
ATOM     19  C   UNL A   1      41.434  25.535  28.246  1.00  0.00     0.074 A 
ATOM     20  C   UNL A   1      40.032  25.384  27.937  1.00  0.00     0.031 C 
ATOM     21  C   UNL A   1      41.812  31.533  30.517  1.00  0.00     0.029 A 
ATOM     22  C   UNL A   1      42.897  30.569  30.347  1.00  0.00     0.049 A 
ATOM     23  H   UNL A   1      42.753  28.611  29.653  1.00  0.00     0.167 HD
ATOM     24  C   UNL A   1      42.360  24.570  28.041  1.00  0.00     0.031 A 
ATOM     25  C   UNL A   1      44.197  30.802  30.617  1.00  0.00     0.031 A 
ATOM     26  C   UNL A   1      43.764  24.734  28.291  1.00  0.00     0.049 A 
ATOM     27  C   UNL A   1      45.212  29.724  30.350  1.00  0.00     0.074 A 
ATOM     28  C   UNL A   1      44.786  23.826  28.077  1.00  0.00     0.029 A 
ATOM     29  N   UNL A   1      44.346  25.889  28.785  1.00  0.00    -0.354 N 
ATOM     30  N   UNL A   1      45.030  28.521  29.867  1.00  0.00    -0.248 NA
ATOM     31  C   UNL A   1      46.616  30.046  30.650  1.00  0.00     0.031 C 
ATOM     32  C   UNL A   1      45.986  24.422  28.471  1.00  0.00     0.029 A 
ATOM     33  C   UNL A   1      45.715  25.718  28.881  1.00  0.00     0.049 A 
ATOM     34  H   UNL A   1      43.859  26.709  29.030  1.00  0.00     0.167 HD
ATOM     35  C   UNL A   1      46.296  27.956  29.768  1.00  0.00     0.074 A 
ATOM     36  C   UNL A   1      47.238  28.949  30.238  1.00  0.00     0.031 C 
ATOM     37  C   UNL A   1      46.642  26.724  29.323  1.00  0.00     0.031 A 
BRANCH  24  38
ATOM     38  C   UNL A   1      41.890  23.249  27.502  1.00  0.00    -0.014 A 
ATOM     39  C   UNL A   1      41.399  22.270  28.380  1.00  0.00     0.009 A 
ATOM     40  C   UNL A   1      42.001  22.942  26.136  1.00  0.00     0.009 A 
ATOM     41  C   UNL A   1      41.035  21.009  27.904  1.00  0.00     0.001 A 
ATOM     42  C   UNL A   1      41.610  21.690  25.658  1.00  0.00     0.001 A 
ATOM     43  C   UNL A   1      41.135  20.722  26.543  1.00  0.00     0.000 A 
ENDBRANCH  24  38
BRANCH  25  44
ATOM     44  C   UNL A   1      44.620  32.140  31.103  1.00  0.00    -0.014 A 
ATOM     45  C   UNL A   1      44.721  32.412  32.476  1.00  0.00     0.009 A 
ATOM     46  C   UNL A   1      44.904  33.166  30.186  1.00  0.00     0.009 A 
ATOM     47  C   UNL A   1      45.087  33.684  32.921  1.00  0.00     0.001 A 
ATOM     48  C   UNL A   1      45.296  34.429  30.634  1.00  0.00     0.001 A 
ATOM     49  C   UNL A   1      45.381  34.689  32.000  1.00  0.00     0.000 A 
ENDBRANCH  25  44
BRANCH  37  50
ATOM     50  C   UNL A   1      48.102  26.380  29.266  1.00  0.00    -0.014 A 
ATOM     51  C   UNL A   1      48.816  26.597  28.076  1.00  0.00     0.009 A 
ATOM     52  C   UNL A   1      48.743  25.743  30.340  1.00  0.00     0.009 A 
ATOM     53  C   UNL A   1      50.140  26.175  27.957  1.00  0.00     0.001 A 
ATOM     54  C   UNL A   1      50.076  25.345  30.225  1.00  0.00     0.001 A 
ATOM     55  C   UNL A   1      50.770  25.553  29.033  1.00  0.00     0.000 A 
ENDBRANCH  37  50
ENDBRANCH  11  12
ENDBRANCH   4   6
ENDBRANCH   1   2
BRANCH   1  56
ATOM     56  C   UNL A   1      31.954  29.048  27.195  1.00  0.00     0.042 C 
BRANCH  56  57
ATOM     57  C   UNL A   1      31.617  27.931  26.211  1.00  0.00     0.118 C 
BRANCH  57  58
ATOM     58  N   UNL A   1      31.407  26.659  26.886  1.00  0.00    -0.351 N 
ATOM     59  C   UNL A   1      31.572  25.366  26.475  1.00  0.00     0.278 C 
ATOM     60  H   UNL A   1      31.087  26.747  27.813  1.00  0.00     0.163 HD
ATOM     61  O   UNL A   1      31.146  24.482  27.225  1.00  0.00    -0.268 OA
BRANCH  59  62
ATOM     62  C   UNL A   1      32.264  25.016  25.140  1.00  0.00     0.277 C 
ATOM     63  C   UNL A   1      33.754  25.422  25.154  1.00  0.00     0.109 C 
ATOM     64  N   UNL A   1      31.949  23.606  24.800  1.00  0.00    -0.327 N 
ATOM     65  C   UNL A   1      34.606  24.367  24.543  1.00  0.00    -0.024 C 
ATOM     66  C   UNL A   1      32.642  23.101  23.580  1.00  0.00     0.243 C 
ATOM     67  H   UNL A   1      30.943  23.529  24.651  1.00  0.00     0.347 HD
ATOM     68  H   UNL A   1      32.278  23.036  25.580  1.00  0.00     0.347 HD
ATOM     69  C   UNL A   1      35.736  23.789  24.931  1.00  0.00     0.002 A 
ATOM     70  C   UNL A   1      34.062  23.727  23.300  1.00  0.00     0.196 C 
ATOM     71  C   UNL A   1      36.627  23.917  26.037  1.00  0.00     0.010 A 
ATOM     72  C   UNL A   1      35.960  22.795  23.866  1.00  0.00     0.066 A 
ATOM     73  N   UNL A   1      35.098  22.738  22.899  1.00  0.00    -0.270 NA
ATOM     74  C   UNL A   1      37.684  23.090  26.110  1.00  0.00     0.001 A 
ATOM     75  C   UNL A   1      37.158  21.942  24.002  1.00  0.00     0.028 A 
ATOM     76  C   UNL A   1      37.945  22.096  25.079  1.00  0.00     0.002 A 
BRANCH  66  77
ATOM     77  C   UNL A   1      32.619  21.569  23.504  1.00  0.00     0.012 A 
ATOM     78  C   UNL A   1      32.987  20.836  24.648  1.00  0.00     0.010 A 
ATOM     79  C   UNL A   1      32.180  20.846  22.380  1.00  0.00     0.010 A 
ATOM     80  C   UNL A   1      32.922  19.442  24.668  1.00  0.00     0.001 A 
ATOM     81  C   UNL A   1      32.134  19.450  22.394  1.00  0.00     0.001 A 
ATOM     82  C   UNL A   1      32.501  18.748  23.538  1.00  0.00     0.000 A 
ENDBRANCH  66  77
ENDBRANCH  59  62
ENDBRANCH  57  58
ENDBRANCH  56  57
ENDBRANCH   1  56
TORSDOF 11
ENDMDL
MODEL 2
REMARK VINA RESULT:     -12.7      0.442      5.932
REMARK SMILES O=C(NCCCNC(=O)[C@H]1CC2=c3ccccc3=N[C@H]2[C@@H](c2ccccc2)[NH2+]1)c1ccc(-c2c3nc(c(-c4ccccc4)c4ccc([nH]4)c(-c4ccccc4)c4nc(c(-c5ccccc5)c5ccc2[nH]5)C=C4)C=C3)cc1
REMARK SMILES IDX 4 1 3 2 1 3 2 4 29 6 30 7 76 8 31 9 75 10 32 11 33 12 34 13
REMARK SMILES IDX 69 14 35 15 74 16 68 17 70 18 36 19 73 20 67 21 66 22 37 24
REMARK SMILES IDX 59 25 44 26 58 27 45 28 48 29 57 30 71 31 46 32 47 33 56 35
REMARK SMILES IDX 72 36 49 37 38 38 39 39 43 40 40 41 42 42 41 43 60 44 61 45
REMARK SMILES IDX 65 46 62 47 64 48 63 49 50 50 51 51 55 52 52 53 54 54 53 55
REMARK SMILES IDX 5 56 6 57 7 58 8 59 9 61 10 62 11 63 28 64 12 65 21 66 13 69
REMARK SMILES IDX 20 70 14 71 18 72 19 73 15 74 17 75 16 76 22 77 23 78 27 79
REMARK SMILES IDX 24 80 26 81 25 82
REMARK H PARENT 3 5 70 23 48 34 7 60 28 67 28 68
REMARK Flexibility Score: inf
ROOT
ATOM      1  C   UNL A   1      33.367  29.759  27.059  1.00  0.00     0.118 C 
ENDROOT
BRANCH   1   2
ATOM      2  N   UNL A   1      33.621  30.907  27.910  1.00  0.00    -0.352 N 
ATOM      3  O   UNL A   1      34.520  32.094  29.581  1.00  0.00    -0.269 OA
ATOM      4  C   UNL A   1      34.660  31.180  28.758  1.00  0.00     0.251 C 
ATOM      5  H   UNL A   1      32.929  31.607  27.871  1.00  0.00     0.163 HD
BRANCH   4   6
ATOM      6  C   UNL A   1      35.941  30.434  28.723  1.00  0.00     0.039 A 
ATOM      7  C   UNL A   1      36.357  29.774  29.886  1.00  0.00     0.014 A 
ATOM      8  C   UNL A   1      36.804  30.479  27.624  1.00  0.00     0.014 A 
ATOM      9  C   UNL A   1      37.624  29.187  29.952  1.00  0.00     0.010 A 
ATOM     10  C   UNL A   1      38.025  29.803  27.653  1.00  0.00     0.010 A 
ATOM     11  C   UNL A   1      38.475  29.206  28.837  1.00  0.00    -0.014 A 
BRANCH  11  12
ATOM     12  C   UNL A   1      39.883  28.737  28.939  1.00  0.00     0.031 A 
ATOM     13  C   UNL A   1      40.927  29.646  29.543  1.00  0.00     0.074 A 
ATOM     14  C   UNL A   1      40.232  27.511  28.507  1.00  0.00     0.049 A 
ATOM     15  N   UNL A   1      42.209  29.436  29.711  1.00  0.00    -0.248 NA
ATOM     16  C   UNL A   1      40.479  30.975  29.997  1.00  0.00     0.031 C 
ATOM     17  C   UNL A   1      39.327  26.537  27.895  1.00  0.00     0.029 A 
ATOM     18  N   UNL A   1      41.445  26.866  28.536  1.00  0.00    -0.354 N 
ATOM     19  C   UNL A   1      42.716  30.611  30.256  1.00  0.00     0.074 A 
ATOM     20  C   UNL A   1      41.621  31.547  30.347  1.00  0.00     0.031 C 
ATOM     21  C   UNL A   1      40.002  25.401  27.656  1.00  0.00     0.029 A 
ATOM     22  C   UNL A   1      41.394  25.577  28.065  1.00  0.00     0.049 A 
ATOM     23  H   UNL A   1      42.271  27.288  28.864  1.00  0.00     0.167 HD
ATOM     24  C   UNL A   1      43.974  30.880  30.674  1.00  0.00     0.031 A 
ATOM     25  C   UNL A   1      42.354  24.634  27.990  1.00  0.00     0.031 A 
ATOM     26  C   UNL A   1      45.055  29.935  30.641  1.00  0.00     0.049 A 
ATOM     27  C   UNL A   1      43.738  24.946  28.491  1.00  0.00     0.074 A 
ATOM     28  C   UNL A   1      46.357  30.102  31.079  1.00  0.00     0.029 A 
ATOM     29  N   UNL A   1      44.952  28.639  30.166  1.00  0.00    -0.354 N 
ATOM     30  N   UNL A   1      44.192  26.053  29.024  1.00  0.00    -0.248 NA
ATOM     31  C   UNL A   1      44.737  23.870  28.398  1.00  0.00     0.031 C 
ATOM     32  C   UNL A   1      47.052  28.914  30.841  1.00  0.00     0.029 A 
ATOM     33  C   UNL A   1      46.167  27.993  30.302  1.00  0.00     0.049 A 
ATOM     34  H   UNL A   1      44.136  28.236  29.788  1.00  0.00     0.167 HD
ATOM     35  C   UNL A   1      45.515  25.796  29.364  1.00  0.00     0.074 A 
ATOM     36  C   UNL A   1      45.790  24.428  28.981  1.00  0.00     0.031 C 
ATOM     37  C   UNL A   1      46.417  26.623  29.944  1.00  0.00     0.031 A 
BRANCH  24  38
ATOM     38  C   UNL A   1      44.255  32.251  31.223  1.00  0.00    -0.014 A 
ATOM     39  C   UNL A   1      44.763  33.251  30.381  1.00  0.00     0.009 A 
ATOM     40  C   UNL A   1      44.087  32.532  32.588  1.00  0.00     0.009 A 
ATOM     41  C   UNL A   1      45.105  34.504  30.894  1.00  0.00     0.001 A 
ATOM     42  C   UNL A   1      44.403  33.795  33.094  1.00  0.00     0.001 A 
ATOM     43  C   UNL A   1      44.919  34.777  32.248  1.00  0.00     0.000 A 
ENDBRANCH  24  38
BRANCH  25  44
ATOM     44  C   UNL A   1      42.018  23.279  27.485  1.00  0.00    -0.014 A 
ATOM     45  C   UNL A   1      42.304  22.909  26.161  1.00  0.00     0.009 A 
ATOM     46  C   UNL A   1      41.382  22.350  28.326  1.00  0.00     0.009 A 
ATOM     47  C   UNL A   1      41.952  21.643  25.688  1.00  0.00     0.001 A 
ATOM     48  C   UNL A   1      41.056  21.076  27.857  1.00  0.00     0.001 A 
ATOM     49  C   UNL A   1      41.335  20.726  26.538  1.00  0.00     0.000 A 
ENDBRANCH  25  44
BRANCH  37  50
ATOM     50  C   UNL A   1      47.778  26.073  30.258  1.00  0.00    -0.014 A 
ATOM     51  C   UNL A   1      48.079  25.687  31.575  1.00  0.00     0.009 A 
ATOM     52  C   UNL A   1      48.791  26.039  29.289  1.00  0.00     0.009 A 
ATOM     53  C   UNL A   1      49.370  25.287  31.918  1.00  0.00     0.001 A 
ATOM     54  C   UNL A   1      50.077  25.615  29.631  1.00  0.00     0.001 A 
ATOM     55  C   UNL A   1      50.367  25.247  30.945  1.00  0.00     0.000 A 
ENDBRANCH  37  50
ENDBRANCH  11  12
ENDBRANCH   4   6
ENDBRANCH   1   2
BRANCH   1  56
ATOM     56  C   UNL A   1      31.960  29.212  27.253  1.00  0.00     0.042 C 
BRANCH  56  57
ATOM     57  C   UNL A   1      31.596  28.090  26.284  1.00  0.00     0.118 C 
BRANCH  57  58
ATOM     58  N   UNL A   1      31.475  26.808  26.960  1.00  0.00    -0.351 N 
ATOM     59  C   UNL A   1      31.715  25.528  26.547  1.00  0.00     0.278 C 
ATOM     60  H   UNL A   1      31.162  26.875  27.892  1.00  0.00     0.163 HD
ATOM     61  O   UNL A   1      31.354  24.619  27.301  1.00  0.00    -0.268 OA
BRANCH  59  62
ATOM     62  C   UNL A   1      32.409  25.221  25.202  1.00  0.00     0.277 C 
ATOM     63  C   UNL A   1      33.917  25.552  25.260  1.00  0.00     0.109 C 
ATOM     64  N   UNL A   1      32.033  23.849  24.777  1.00  0.00    -0.327 N 
ATOM     65  C   UNL A   1      34.727  24.494  24.599  1.00  0.00    -0.024 C 
ATOM     66  C   UNL A   1      32.720  23.382  23.540  1.00  0.00     0.243 C 
ATOM     67  H   UNL A   1      31.027  23.830  24.612  1.00  0.00     0.347 HD
ATOM     68  H   UNL A   1      32.322  23.221  25.528  1.00  0.00     0.347 HD
ATOM     69  C   UNL A   1      35.822  23.839  24.968  1.00  0.00     0.002 A 
ATOM     70  C   UNL A   1      34.173  23.953  23.315  1.00  0.00     0.196 C 
ATOM     71  C   UNL A   1      36.701  23.860  26.091  1.00  0.00     0.010 A 
ATOM     72  C   UNL A   1      36.015  22.898  23.850  1.00  0.00     0.066 A 
ATOM     73  N   UNL A   1      35.166  22.939  22.871  1.00  0.00    -0.270 NA
ATOM     74  C   UNL A   1      37.715  22.980  26.129  1.00  0.00     0.001 A 
ATOM     75  C   UNL A   1      37.168  21.982  23.952  1.00  0.00     0.028 A 
ATOM     76  C   UNL A   1      37.945  22.035  25.047  1.00  0.00     0.002 A 
BRANCH  66  77
ATOM     77  C   UNL A   1      32.625  21.860  23.375  1.00  0.00     0.012 A 
ATOM     78  C   UNL A   1      32.960  21.045  24.473  1.00  0.00     0.010 A 
ATOM     79  C   UNL A   1      32.150  21.225  22.213  1.00  0.00     0.010 A 
ATOM     80  C   UNL A   1      32.829  19.656  24.412  1.00  0.00     0.001 A 
ATOM     81  C   UNL A   1      32.038  19.834  22.146  1.00  0.00     0.001 A 
ATOM     82  C   UNL A   1      32.373  19.050  23.245  1.00  0.00     0.000 A 
ENDBRANCH  66  77
ENDBRANCH  59  62
ENDBRANCH  57  58
ENDBRANCH  56  57
ENDBRANCH   1  56
TORSDOF 11
ENDMDL
MODEL 3
REMARK VINA RESULT:     -12.4      2.923      8.205
REMARK SMILES O=C(NCCCNC(=O)[C@H]1CC2=c3ccccc3=N[C@H]2[C@@H](c2ccccc2)[NH2+]1)c1ccc(-c2c3nc(c(-c4ccccc4)c4ccc([nH]4)c(-c4ccccc4)c4nc(c(-c5ccccc5)c5ccc2[nH]5)C=C4)C=C3)cc1
REMARK SMILES IDX 4 1 3 2 1 3 2 4 29 6 30 7 76 8 31 9 75 10 32 11 33 12 34 13
REMARK SMILES IDX 69 14 35 15 74 16 68 17 70 18 36 19 73 20 67 21 66 22 37 24
REMARK SMILES IDX 59 25 44 26 58 27 45 28 48 29 57 30 71 31 46 32 47 33 56 35
REMARK SMILES IDX 72 36 49 37 38 38 39 39 43 40 40 41 42 42 41 43 60 44 61 45
REMARK SMILES IDX 65 46 62 47 64 48 63 49 50 50 51 51 55 52 52 53 54 54 53 55
REMARK SMILES IDX 5 56 6 57 7 58 8 59 9 61 10 62 11 63 28 64 12 65 21 66 13 69
REMARK SMILES IDX 20 70 14 71 18 72 19 73 15 74 17 75 16 76 22 77 23 78 27 79
REMARK SMILES IDX 24 80 26 81 25 82
REMARK H PARENT 3 5 70 23 48 34 7 60 28 67 28 68
REMARK Flexibility Score: inf
ROOT
ATOM      1  C   UNL A   1      37.556  22.879  25.401  1.00  0.00     0.118 C 
ENDROOT
BRANCH   1   2
ATOM      2  N   UNL A   1      38.865  22.322  25.694  1.00  0.00    -0.352 N 
ATOM      3  O   UNL A   1      41.063  22.297  26.109  1.00  0.00    -0.269 OA
ATOM      4  C   UNL A   1      39.991  22.907  26.206  1.00  0.00     0.251 C 
ATOM      5  H   UNL A   1      38.957  21.363  25.491  1.00  0.00     0.163 HD
BRANCH   4   6
ATOM      6  C   UNL A   1      39.975  24.231  26.874  1.00  0.00     0.039 A 
ATOM      7  C   UNL A   1      40.664  25.289  26.268  1.00  0.00     0.014 A 
ATOM      8  C   UNL A   1      39.418  24.423  28.142  1.00  0.00     0.014 A 
ATOM      9  C   UNL A   1      40.807  26.512  26.931  1.00  0.00     0.010 A 
ATOM     10  C   UNL A   1      39.470  25.674  28.758  1.00  0.00     0.010 A 
ATOM     11  C   UNL A   1      40.220  26.712  28.189  1.00  0.00    -0.014 A 
BRANCH  11  12
ATOM     12  C   UNL A   1      40.501  27.940  28.979  1.00  0.00     0.031 A 
ATOM     13  C   UNL A   1      39.457  29.028  29.057  1.00  0.00     0.074 A 
ATOM     14  C   UNL A   1      41.670  28.085  29.630  1.00  0.00     0.049 A 
ATOM     15  N   UNL A   1      39.508  30.181  29.677  1.00  0.00    -0.248 NA
ATOM     16  C   UNL A   1      38.199  28.805  28.321  1.00  0.00     0.031 C 
ATOM     17  C   UNL A   1      42.767  27.118  29.631  1.00  0.00     0.029 A 
ATOM     18  N   UNL A   1      42.121  29.102  30.437  1.00  0.00    -0.354 N 
ATOM     19  C   UNL A   1      38.310  30.823  29.380  1.00  0.00     0.074 A 
ATOM     20  C   UNL A   1      37.573  29.961  28.488  1.00  0.00     0.031 C 
ATOM     21  C   UNL A   1      43.742  27.562  30.442  1.00  0.00     0.029 A 
ATOM     22  C   UNL A   1      43.354  28.859  30.991  1.00  0.00     0.049 A 
ATOM     23  H   UNL A   1      41.609  29.927  30.601  1.00  0.00     0.167 HD
ATOM     24  C   UNL A   1      37.848  32.011  29.833  1.00  0.00     0.031 A 
ATOM     25  C   UNL A   1      44.082  29.587  31.861  1.00  0.00     0.031 A 
ATOM     26  C   UNL A   1      38.550  32.847  30.767  1.00  0.00     0.049 A 
ATOM     27  C   UNL A   1      43.533  30.890  32.376  1.00  0.00     0.074 A 
ATOM     28  C   UNL A   1      38.145  34.051  31.315  1.00  0.00     0.029 A 
ATOM     29  N   UNL A   1      39.790  32.552  31.309  1.00  0.00    -0.354 N 
ATOM     30  N   UNL A   1      42.391  31.469  32.102  1.00  0.00    -0.248 NA
ATOM     31  C   UNL A   1      44.367  31.629  33.336  1.00  0.00     0.031 C 
ATOM     32  C   UNL A   1      39.155  34.501  32.169  1.00  0.00     0.029 A 
ATOM     33  C   UNL A   1      40.164  33.551  32.188  1.00  0.00     0.049 A 
ATOM     34  H   UNL A   1      40.324  31.752  31.100  1.00  0.00     0.167 HD
ATOM     35  C   UNL A   1      42.351  32.619  32.882  1.00  0.00     0.074 A 
ATOM     36  C   UNL A   1      43.582  32.654  33.643  1.00  0.00     0.031 C 
ATOM     37  C   UNL A   1      41.378  33.558  32.959  1.00  0.00     0.031 A 
BRANCH  24  38
ATOM     38  C   UNL A   1      36.508  32.479  29.341  1.00  0.00    -0.014 A 
ATOM     39  C   UNL A   1      36.420  33.230  28.159  1.00  0.00     0.009 A 
ATOM     40  C   UNL A   1      35.340  32.240  30.082  1.00  0.00     0.009 A 
ATOM     41  C   UNL A   1      35.193  33.740  27.732  1.00  0.00     0.001 A 
ATOM     42  C   UNL A   1      34.108  32.727  29.638  1.00  0.00     0.001 A 
ATOM     43  C   UNL A   1      34.037  33.483  28.468  1.00  0.00     0.000 A 
ENDBRANCH  24  38
BRANCH  25  44
ATOM     44  C   UNL A   1      45.379  29.061  32.357  1.00  0.00    -0.014 A 
ATOM     45  C   UNL A   1      46.578  29.347  31.686  1.00  0.00     0.009 A 
ATOM     46  C   UNL A   1      45.419  28.246  33.500  1.00  0.00     0.009 A 
ATOM     47  C   UNL A   1      47.788  28.818  32.142  1.00  0.00     0.001 A 
ATOM     48  C   UNL A   1      46.634  27.741  33.969  1.00  0.00     0.001 A 
ATOM     49  C   UNL A   1      47.816  28.022  33.287  1.00  0.00     0.000 A 
ENDBRANCH  25  44
BRANCH  37  50
ATOM     50  C   UNL A   1      41.562  34.684  33.934  1.00  0.00    -0.014 A 
ATOM     51  C   UNL A   1      42.403  35.758  33.596  1.00  0.00     0.009 A 
ATOM     52  C   UNL A   1      41.001  34.635  35.219  1.00  0.00     0.009 A 
ATOM     53  C   UNL A   1      42.686  36.756  34.529  1.00  0.00     0.001 A 
ATOM     54  C   UNL A   1      41.268  35.648  36.141  1.00  0.00     0.001 A 
ATOM     55  C   UNL A   1      42.116  36.702  35.799  1.00  0.00     0.000 A 
ENDBRANCH  37  50
ENDBRANCH  11  12
ENDBRANCH   4   6
ENDBRANCH   1   2
BRANCH   1  56
ATOM     56  C   UNL A   1      36.788  22.020  24.406  1.00  0.00     0.042 C 
BRANCH  56  57
ATOM     57  C   UNL A   1      35.304  22.367  24.311  1.00  0.00     0.118 C 
BRANCH  57  58
ATOM     58  N   UNL A   1      35.047  23.376  23.294  1.00  0.00    -0.351 N 
ATOM     59  C   UNL A   1      34.052  24.301  23.152  1.00  0.00     0.278 C 
ATOM     60  H   UNL A   1      35.718  23.396  22.573  1.00  0.00     0.163 HD
ATOM     61  O   UNL A   1      34.007  24.915  22.082  1.00  0.00    -0.268 OA
BRANCH  59  62
ATOM     62  C   UNL A   1      33.028  24.576  24.275  1.00  0.00     0.277 C 
ATOM     63  C   UNL A   1      33.703  25.214  25.509  1.00  0.00     0.109 C 
ATOM     64  N   UNL A   1      31.867  25.295  23.691  1.00  0.00    -0.327 N 
ATOM     65  C   UNL A   1      32.877  26.319  26.065  1.00  0.00    -0.024 C 
ATOM     66  C   UNL A   1      30.844  25.717  24.689  1.00  0.00     0.243 C 
ATOM     67  H   UNL A   1      31.418  24.679  23.013  1.00  0.00     0.347 HD
ATOM     68  H   UNL A   1      32.234  26.148  23.268  1.00  0.00     0.347 HD
ATOM     69  C   UNL A   1      33.170  27.557  26.443  1.00  0.00     0.002 A 
ATOM     70  C   UNL A   1      31.400  26.063  26.124  1.00  0.00     0.196 C 
ATOM     71  C   UNL A   1      34.349  28.356  26.516  1.00  0.00     0.010 A 
ATOM     72  C   UNL A   1      31.848  28.089  26.823  1.00  0.00     0.066 A 
ATOM     73  N   UNL A   1      30.825  27.299  26.720  1.00  0.00    -0.270 NA
ATOM     74  C   UNL A   1      34.236  29.632  26.923  1.00  0.00     0.001 A 
ATOM     75  C   UNL A   1      31.810  29.490  27.287  1.00  0.00     0.028 A 
ATOM     76  C   UNL A   1      32.952  30.197  27.310  1.00  0.00     0.002 A 
BRANCH  66  77
ATOM     77  C   UNL A   1      29.900  26.785  24.121  1.00  0.00     0.012 A 
ATOM     78  C   UNL A   1      30.465  27.925  23.518  1.00  0.00     0.010 A 
ATOM     79  C   UNL A   1      28.499  26.661  24.098  1.00  0.00     0.010 A 
ATOM     80  C   UNL A   1      29.664  28.900  22.920  1.00  0.00     0.001 A 
ATOM     81  C   UNL A   1      27.698  27.648  23.517  1.00  0.00     0.001 A 
ATOM     82  C   UNL A   1      28.280  28.765  22.925  1.00  0.00     0.000 A 
ENDBRANCH  66  77
ENDBRANCH  59  62
ENDBRANCH  57  58
ENDBRANCH  56  57
ENDBRANCH   1  56
TORSDOF 11
ENDMDL
