MODEL 1
REMARK VINA RESULT:     -10.8      0.000      0.000
REMARK SMILES Cc1ccc(OCCC[N@H+]2CCCC[C@@H]2C(=O)NCCCNC(=O)c2ccc(-c3c4nc(c(-c5ccccc5)c5ccc([nH]5)c(-c5ccccc5)c5nc(c(-c6ccccc6)c6ccc3[nH]6)C=C5)C=C4)cc2)cc1C
REMARK SMILES IDX 16 1 17 2 18 3 15 5 10 6 11 7 12 9 14 10 13 11 9 12 8 13
REMARK SMILES IDX 7 14 6 15 5 16 1 17 2 18 3 19 74 20 4 21 73 22 75 23 19 24
REMARK SMILES IDX 20 25 21 26 22 27 23 28 24 30 25 31 26 32 72 33 27 34 71 35
REMARK SMILES IDX 28 36 29 37 30 38 65 39 31 40 70 41 64 42 66 43 32 44 69 45
REMARK SMILES IDX 63 46 62 47 33 49 55 50 40 51 54 52 41 53 44 54 53 55 67 56
REMARK SMILES IDX 42 57 43 58 52 60 68 61 45 62 34 63 35 64 39 65 36 66 38 67
REMARK SMILES IDX 37 68 56 69 57 70 61 71 58 72 60 73 59 74 46 75 47 76 51 77
REMARK SMILES IDX 48 78 50 79 49 80
REMARK H PARENT 18 4 10 8 22 29 66 48 44 59
REMARK Flexibility Score: inf
ROOT
ATOM      1  C   UNL A   1      34.786  22.483  26.483  1.00  0.00     0.278 C 
ATOM      2  O   UNL A   1      34.748  22.928  27.635  1.00  0.00    -0.268 OA
ATOM      3  N   UNL A   1      35.636  21.446  26.228  1.00  0.00    -0.351 N 
ATOM      4  H   UNL A   1      36.077  21.066  27.022  1.00  0.00     0.163 HD
ENDROOT
BRANCH   1   5
ATOM      5  C   UNL A   1      33.950  23.151  25.373  1.00  0.00     0.274 C 
ATOM      6  N   UNL A   1      33.079  22.165  24.648  1.00  0.00    -0.325 N 
ATOM      7  C   UNL A   1      32.446  22.809  23.474  1.00  0.00     0.262 C 
ATOM      8  H   UNL A   1      33.663  21.388  24.341  1.00  0.00     0.348 HD
ATOM      9  C   UNL A   1      33.430  23.540  22.559  1.00  0.00     0.062 C 
ATOM     10  C   UNL A   1      34.922  23.949  24.491  1.00  0.00     0.076 C 
ATOM     11  C   UNL A   1      34.201  24.601  23.327  1.00  0.00     0.012 C 
BRANCH   6  12
ATOM     12  C   UNL A   1      32.005  21.668  25.554  1.00  0.00     0.266 C 
BRANCH  12  13
ATOM     13  C   UNL A   1      30.745  22.551  25.649  1.00  0.00     0.103 C 
BRANCH  13  14
ATOM     14  C   UNL A   1      30.736  23.559  26.805  1.00  0.00     0.235 C 
BRANCH  14  15
ATOM     15  O   UNL A   1      30.005  24.768  26.512  1.00  0.00    -0.493 OA
BRANCH  15  16
ATOM     16  C   UNL A   1      30.781  25.682  25.848  1.00  0.00     0.119 A 
ATOM     17  C   UNL A   1      33.269  28.278  23.488  1.00  0.00     0.044 C 
ATOM     18  C   UNL A   1      32.403  27.434  24.382  1.00  0.00    -0.048 A 
ATOM     19  C   UNL A   1      31.173  26.993  23.875  1.00  0.00     0.007 A 
ATOM     20  C   UNL A   1      32.756  27.099  25.705  1.00  0.00    -0.045 A 
ATOM     21  C   UNL A   1      30.348  26.163  24.624  1.00  0.00     0.047 A 
ATOM     22  C   UNL A   1      31.946  26.191  26.422  1.00  0.00     0.050 A 
ATOM     23  C   UNL A   1      33.901  27.769  26.416  1.00  0.00     0.045 C 
ENDBRANCH  15  16
ENDBRANCH  14  15
ENDBRANCH  13  14
ENDBRANCH  12  13
ENDBRANCH   6  12
ENDBRANCH   1   5
BRANCH   3  24
ATOM     24  C   UNL A   1      35.993  20.814  24.967  1.00  0.00     0.118 C 
BRANCH  24  25
ATOM     25  C   UNL A   1      37.431  21.109  24.571  1.00  0.00     0.042 C 
BRANCH  25  26
ATOM     26  C   UNL A   1      38.393  21.071  25.754  1.00  0.00     0.118 C 
BRANCH  26  27
ATOM     27  N   UNL A   1      39.335  19.958  25.688  1.00  0.00    -0.352 N 
ATOM     28  C   UNL A   1      40.681  19.929  25.976  1.00  0.00     0.251 C 
ATOM     29  H   UNL A   1      38.950  19.100  25.396  1.00  0.00     0.163 HD
ATOM     30  O   UNL A   1      41.355  18.943  25.715  1.00  0.00    -0.269 OA
BRANCH  28  31
ATOM     31  C   UNL A   1      41.315  21.118  26.582  1.00  0.00     0.039 A 
ATOM     32  C   UNL A   1      41.884  22.086  25.751  1.00  0.00     0.014 A 
ATOM     33  C   UNL A   1      41.313  21.286  27.967  1.00  0.00     0.014 A 
ATOM     34  C   UNL A   1      42.368  23.274  26.307  1.00  0.00     0.010 A 
ATOM     35  C   UNL A   1      41.726  22.497  28.512  1.00  0.00     0.010 A 
ATOM     36  C   UNL A   1      42.246  23.506  27.686  1.00  0.00    -0.014 A 
BRANCH  36  37
ATOM     37  C   UNL A   1      42.644  24.796  28.303  1.00  0.00     0.031 A 
ATOM     38  C   UNL A   1      41.613  25.864  28.528  1.00  0.00     0.074 A 
ATOM     39  C   UNL A   1      43.944  25.046  28.555  1.00  0.00     0.049 A 
ATOM     40  N   UNL A   1      41.780  27.108  28.898  1.00  0.00    -0.248 NA
ATOM     41  C   UNL A   1      40.212  25.493  28.272  1.00  0.00     0.031 C 
ATOM     42  C   UNL A   1      45.049  24.107  28.347  1.00  0.00     0.029 A 
ATOM     43  N   UNL A   1      44.557  26.181  29.022  1.00  0.00    -0.354 N 
ATOM     44  C   UNL A   1      40.513  27.676  28.882  1.00  0.00     0.074 A 
ATOM     45  C   UNL A   1      39.593  26.652  28.437  1.00  0.00     0.031 C 
ATOM     46  C   UNL A   1      46.201  24.700  28.699  1.00  0.00     0.029 A 
ATOM     47  C   UNL A   1      45.923  26.071  29.113  1.00  0.00     0.049 A 
ATOM     48  H   UNL A   1      44.064  26.997  29.269  1.00  0.00     0.167 HD
ATOM     49  C   UNL A   1      40.146  28.935  29.218  1.00  0.00     0.031 A 
ATOM     50  C   UNL A   1      46.850  26.978  29.474  1.00  0.00     0.031 A 
ATOM     51  C   UNL A   1      41.054  29.945  29.689  1.00  0.00     0.049 A 
ATOM     52  C   UNL A   1      46.417  28.366  29.852  1.00  0.00     0.074 A 
ATOM     53  C   UNL A   1      40.768  31.230  30.117  1.00  0.00     0.029 A 
ATOM     54  N   UNL A   1      42.425  29.780  29.801  1.00  0.00    -0.354 N 
ATOM     55  N   UNL A   1      45.210  28.875  29.878  1.00  0.00    -0.248 NA
ATOM     56  C   UNL A   1      47.475  29.303  30.255  1.00  0.00     0.031 C 
ATOM     57  C   UNL A   1      41.972  31.854  30.457  1.00  0.00     0.029 A 
ATOM     58  C   UNL A   1      43.001  30.944  30.278  1.00  0.00     0.049 A 
ATOM     59  H   UNL A   1      42.916  28.957  29.575  1.00  0.00     0.167 HD
ATOM     60  C   UNL A   1      45.359  30.180  30.324  1.00  0.00     0.074 A 
ATOM     61  C   UNL A   1      46.773  30.385  30.565  1.00  0.00     0.031 C 
ATOM     62  C   UNL A   1      44.408  31.125  30.519  1.00  0.00     0.031 A 
BRANCH  49  63
ATOM     63  C   UNL A   1      38.694  29.288  29.080  1.00  0.00    -0.014 A 
ATOM     64  C   UNL A   1      37.806  29.147  30.157  1.00  0.00     0.009 A 
ATOM     65  C   UNL A   1      38.212  29.794  27.862  1.00  0.00     0.009 A 
ATOM     66  C   UNL A   1      36.456  29.470  30.008  1.00  0.00     0.001 A 
ATOM     67  C   UNL A   1      36.867  30.140  27.723  1.00  0.00     0.001 A 
ATOM     68  C   UNL A   1      35.989  29.969  28.792  1.00  0.00     0.000 A 
ENDBRANCH  49  63
BRANCH  50  69
ATOM     69  C   UNL A   1      48.286  26.601  29.504  1.00  0.00    -0.014 A 
ATOM     70  C   UNL A   1      49.096  26.816  28.378  1.00  0.00     0.009 A 
ATOM     71  C   UNL A   1      48.853  26.026  30.651  1.00  0.00     0.009 A 
ATOM     72  C   UNL A   1      50.442  26.443  28.393  1.00  0.00     0.001 A 
ATOM     73  C   UNL A   1      50.205  25.675  30.671  1.00  0.00     0.001 A 
ATOM     74  C   UNL A   1      50.996  25.877  29.540  1.00  0.00     0.000 A 
ENDBRANCH  50  69
BRANCH  62  75
ATOM     75  C   UNL A   1      44.858  32.452  31.055  1.00  0.00    -0.014 A 
ATOM     76  C   UNL A   1      45.160  33.518  30.195  1.00  0.00     0.009 A 
ATOM     77  C   UNL A   1      44.921  32.653  32.443  1.00  0.00     0.009 A 
ATOM     78  C   UNL A   1      45.540  34.756  30.717  1.00  0.00     0.001 A 
ATOM     79  C   UNL A   1      45.281  33.898  32.961  1.00  0.00     0.001 A 
ATOM     80  C   UNL A   1      45.594  34.946  32.098  1.00  0.00     0.000 A 
ENDBRANCH  62  75
ENDBRANCH  36  37
ENDBRANCH  28  31
ENDBRANCH  26  27
ENDBRANCH  25  26
ENDBRANCH  24  25
ENDBRANCH   3  24
TORSDOF 15
ENDMDL
MODEL 2
REMARK VINA RESULT:     -10.7      2.559      7.041
REMARK SMILES Cc1ccc(OCCC[N@H+]2CCCC[C@@H]2C(=O)NCCCNC(=O)c2ccc(-c3c4nc(c(-c5ccccc5)c5ccc([nH]5)c(-c5ccccc5)c5nc(c(-c6ccccc6)c6ccc3[nH]6)C=C5)C=C4)cc2)cc1C
REMARK SMILES IDX 16 1 17 2 18 3 15 5 10 6 11 7 12 9 14 10 13 11 9 12 8 13
REMARK SMILES IDX 7 14 6 15 5 16 1 17 2 18 3 19 74 20 4 21 73 22 75 23 19 24
REMARK SMILES IDX 20 25 21 26 22 27 23 28 24 30 25 31 26 32 72 33 27 34 71 35
REMARK SMILES IDX 28 36 29 37 30 38 65 39 31 40 70 41 64 42 66 43 32 44 69 45
REMARK SMILES IDX 63 46 62 47 33 49 55 50 40 51 54 52 41 53 44 54 53 55 67 56
REMARK SMILES IDX 42 57 43 58 52 60 68 61 45 62 34 63 35 64 39 65 36 66 38 67
REMARK SMILES IDX 37 68 56 69 57 70 61 71 58 72 60 73 59 74 46 75 47 76 51 77
REMARK SMILES IDX 48 78 50 79 49 80
REMARK H PARENT 18 4 10 8 22 29 66 48 44 59
REMARK Flexibility Score: inf
ROOT
ATOM      1  C   UNL A   1      33.827  25.097  22.977  1.00  0.00     0.278 C 
ATOM      2  O   UNL A   1      33.703  24.676  21.823  1.00  0.00    -0.268 OA
ATOM      3  N   UNL A   1      34.600  24.374  23.839  1.00  0.00    -0.351 N 
ATOM      4  H   UNL A   1      35.085  23.621  23.431  1.00  0.00     0.163 HD
ENDROOT
BRANCH   1   5
ATOM      5  C   UNL A   1      33.058  26.356  23.424  1.00  0.00     0.274 C 
ATOM      6  N   UNL A   1      31.655  26.384  22.886  1.00  0.00    -0.325 N 
ATOM      7  C   UNL A   1      31.023  27.692  23.176  1.00  0.00     0.262 C 
ATOM      8  H   UNL A   1      31.697  26.238  21.878  1.00  0.00     0.348 HD
ATOM      9  C   UNL A   1      31.862  28.897  22.750  1.00  0.00     0.062 C 
ATOM     10  C   UNL A   1      33.928  27.571  23.067  1.00  0.00     0.076 C 
ATOM     11  C   UNL A   1      33.229  28.871  23.415  1.00  0.00     0.012 C 
BRANCH   6  12
ATOM     12  C   UNL A   1      30.842  25.310  23.523  1.00  0.00     0.266 C 
BRANCH  12  13
ATOM     13  C   UNL A   1      30.217  25.664  24.889  1.00  0.00     0.103 C 
BRANCH  13  14
ATOM     14  C   UNL A   1      31.192  25.674  26.072  1.00  0.00     0.235 C 
BRANCH  14  15
ATOM     15  O   UNL A   1      30.880  26.670  27.069  1.00  0.00    -0.493 OA
BRANCH  15  16
ATOM     16  C   UNL A   1      31.753  27.725  27.024  1.00  0.00     0.119 A 
ATOM     17  C   UNL A   1      34.623  30.922  27.234  1.00  0.00     0.044 C 
ATOM     18  C   UNL A   1      33.584  29.845  27.084  1.00  0.00    -0.048 A 
ATOM     19  C   UNL A   1      34.021  28.514  27.044  1.00  0.00     0.007 A 
ATOM     20  C   UNL A   1      32.207  30.117  26.952  1.00  0.00    -0.045 A 
ATOM     21  C   UNL A   1      33.112  27.467  26.965  1.00  0.00     0.047 A 
ATOM     22  C   UNL A   1      31.293  29.040  26.953  1.00  0.00     0.050 A 
ATOM     23  C   UNL A   1      31.692  31.507  26.690  1.00  0.00     0.045 C 
ENDBRANCH  15  16
ENDBRANCH  14  15
ENDBRANCH  13  14
ENDBRANCH  12  13
ENDBRANCH   6  12
ENDBRANCH   1   5
BRANCH   3  24
ATOM     24  C   UNL A   1      34.819  24.540  25.269  1.00  0.00     0.118 C 
BRANCH  24  25
ATOM     25  C   UNL A   1      35.884  23.592  25.795  1.00  0.00     0.042 C 
BRANCH  25  26
ATOM     26  C   UNL A   1      37.174  23.635  24.981  1.00  0.00     0.118 C 
BRANCH  26  27
ATOM     27  N   UNL A   1      38.192  22.715  25.476  1.00  0.00    -0.352 N 
ATOM     28  C   UNL A   1      39.287  22.963  26.272  1.00  0.00     0.251 C 
ATOM     29  H   UNL A   1      38.079  21.777  25.200  1.00  0.00     0.163 HD
ATOM     30  O   UNL A   1      40.130  22.099  26.465  1.00  0.00    -0.269 OA
BRANCH  28  31
ATOM     31  C   UNL A   1      39.451  24.302  26.876  1.00  0.00     0.039 A 
ATOM     32  C   UNL A   1      38.955  24.537  28.161  1.00  0.00     0.014 A 
ATOM     33  C   UNL A   1      40.125  25.308  26.182  1.00  0.00     0.014 A 
ATOM     34  C   UNL A   1      39.221  25.756  28.790  1.00  0.00     0.010 A 
ATOM     35  C   UNL A   1      40.452  26.490  26.835  1.00  0.00     0.010 A 
ATOM     36  C   UNL A   1      40.013  26.721  28.148  1.00  0.00    -0.014 A 
BRANCH  36  37
ATOM     37  C   UNL A   1      40.413  27.983  28.821  1.00  0.00     0.031 A 
ATOM     38  C   UNL A   1      41.769  28.092  29.456  1.00  0.00     0.074 A 
ATOM     39  C   UNL A   1      39.519  28.982  28.959  1.00  0.00     0.049 A 
ATOM     40  N   UNL A   1      42.247  29.036  30.226  1.00  0.00    -0.248 NA
ATOM     41  C   UNL A   1      42.701  26.977  29.218  1.00  0.00     0.031 C 
ATOM     42  C   UNL A   1      38.156  28.986  28.422  1.00  0.00     0.029 A 
ATOM     43  N   UNL A   1      39.620  30.182  29.616  1.00  0.00    -0.354 N 
ATOM     44  C   UNL A   1      43.517  28.610  30.595  1.00  0.00     0.074 A 
ATOM     45  C   UNL A   1      43.723  27.313  29.990  1.00  0.00     0.031 C 
ATOM     46  C   UNL A   1      37.555  30.138  28.759  1.00  0.00     0.029 A 
ATOM     47  C   UNL A   1      38.472  30.932  29.572  1.00  0.00     0.049 A 
ATOM     48  H   UNL A   1      40.440  30.477  30.076  1.00  0.00     0.167 HD
ATOM     49  C   UNL A   1      44.434  29.248  31.359  1.00  0.00     0.031 A 
ATOM     50  C   UNL A   1      38.181  32.120  30.135  1.00  0.00     0.031 A 
ATOM     51  C   UNL A   1      44.243  30.551  31.935  1.00  0.00     0.049 A 
ATOM     52  C   UNL A   1      39.219  32.813  30.972  1.00  0.00     0.074 A 
ATOM     53  C   UNL A   1      45.138  31.308  32.671  1.00  0.00     0.029 A 
ATOM     54  N   UNL A   1      43.076  31.292  31.836  1.00  0.00    -0.354 N 
ATOM     55  N   UNL A   1      40.433  32.421  31.272  1.00  0.00    -0.248 NA
ATOM     56  C   UNL A   1      38.848  34.116  31.543  1.00  0.00     0.031 C 
ATOM     57  C   UNL A   1      44.501  32.496  33.044  1.00  0.00     0.029 A 
ATOM     58  C   UNL A   1      43.224  32.493  32.507  1.00  0.00     0.049 A 
ATOM     59  H   UNL A   1      42.264  31.007  31.357  1.00  0.00     0.167 HD
ATOM     60  C   UNL A   1      40.979  33.437  32.043  1.00  0.00     0.074 A 
ATOM     61  C   UNL A   1      39.968  34.468  32.160  1.00  0.00     0.031 C 
ATOM     62  C   UNL A   1      42.210  33.510  32.604  1.00  0.00     0.031 A 
BRANCH  49  63
ATOM     63  C   UNL A   1      45.729  28.535  31.619  1.00  0.00    -0.014 A 
ATOM     64  C   UNL A   1      45.909  27.753  32.769  1.00  0.00     0.009 A 
ATOM     65  C   UNL A   1      46.774  28.627  30.687  1.00  0.00     0.009 A 
ATOM     66  C   UNL A   1      47.124  27.105  33.000  1.00  0.00     0.001 A 
ATOM     67  C   UNL A   1      47.979  27.958  30.908  1.00  0.00     0.001 A 
ATOM     68  C   UNL A   1      48.156  27.206  32.067  1.00  0.00     0.000 A 
ENDBRANCH  49  63
BRANCH  50  69
ATOM     69  C   UNL A   1      36.848  32.738  29.921  1.00  0.00    -0.014 A 
ATOM     70  C   UNL A   1      36.663  33.681  28.899  1.00  0.00     0.009 A 
ATOM     71  C   UNL A   1      35.758  32.390  30.733  1.00  0.00     0.009 A 
ATOM     72  C   UNL A   1      35.416  34.281  28.707  1.00  0.00     0.001 A 
ATOM     73  C   UNL A   1      34.507  32.975  30.523  1.00  0.00     0.001 A 
ATOM     74  C   UNL A   1      34.338  33.925  29.516  1.00  0.00     0.000 A 
ENDBRANCH  50  69
BRANCH  62  75
ATOM     75  C   UNL A   1      42.548  34.761  33.359  1.00  0.00    -0.014 A 
ATOM     76  C   UNL A   1      43.135  35.861  32.717  1.00  0.00     0.009 A 
ATOM     77  C   UNL A   1      42.217  34.859  34.720  1.00  0.00     0.009 A 
ATOM     78  C   UNL A   1      43.404  37.030  33.430  1.00  0.00     0.001 A 
ATOM     79  C   UNL A   1      42.470  36.036  35.425  1.00  0.00     0.001 A 
ATOM     80  C   UNL A   1      43.067  37.118  34.782  1.00  0.00     0.000 A 
ENDBRANCH  62  75
ENDBRANCH  36  37
ENDBRANCH  28  31
ENDBRANCH  26  27
ENDBRANCH  25  26
ENDBRANCH  24  25
ENDBRANCH   3  24
TORSDOF 15
ENDMDL
MODEL 3
REMARK VINA RESULT:     -10.6      2.261      3.739
REMARK SMILES Cc1ccc(OCCC[N@H+]2CCCC[C@@H]2C(=O)NCCCNC(=O)c2ccc(-c3c4nc(c(-c5ccccc5)c5ccc([nH]5)c(-c5ccccc5)c5nc(c(-c6ccccc6)c6ccc3[nH]6)C=C5)C=C4)cc2)cc1C
REMARK SMILES IDX 16 1 17 2 18 3 15 5 10 6 11 7 12 9 14 10 13 11 9 12 8 13
REMARK SMILES IDX 7 14 6 15 5 16 1 17 2 18 3 19 74 20 4 21 73 22 75 23 19 24
REMARK SMILES IDX 20 25 21 26 22 27 23 28 24 30 25 31 26 32 72 33 27 34 71 35
REMARK SMILES IDX 28 36 29 37 30 38 65 39 31 40 70 41 64 42 66 43 32 44 69 45
REMARK SMILES IDX 63 46 62 47 33 49 55 50 40 51 54 52 41 53 44 54 53 55 67 56
REMARK SMILES IDX 42 57 43 58 52 60 68 61 45 62 34 63 35 64 39 65 36 66 38 67
REMARK SMILES IDX 37 68 56 69 57 70 61 71 58 72 60 73 59 74 46 75 47 76 51 77
REMARK SMILES IDX 48 78 50 79 49 80
REMARK H PARENT 18 4 10 8 22 29 66 48 44 59
REMARK Flexibility Score: inf
ROOT
ATOM      1  C   UNL A   1      33.735  25.148  22.707  1.00  0.00     0.278 C 
ATOM      2  O   UNL A   1      33.593  24.772  21.539  1.00  0.00    -0.268 OA
ATOM      3  N   UNL A   1      34.566  24.424  23.513  1.00  0.00    -0.351 N 
ATOM      4  H   UNL A   1      35.070  23.712  23.057  1.00  0.00     0.163 HD
ENDROOT
BRANCH   1   5
ATOM      5  C   UNL A   1      32.926  26.350  23.232  1.00  0.00     0.274 C 
ATOM      6  N   UNL A   1      31.494  26.313  22.777  1.00  0.00    -0.325 N 
ATOM      7  C   UNL A   1      30.809  27.575  23.139  1.00  0.00     0.262 C 
ATOM      8  H   UNL A   1      31.484  26.193  21.765  1.00  0.00     0.348 HD
ATOM      9  C   UNL A   1      31.555  28.836  22.698  1.00  0.00     0.062 C 
ATOM     10  C   UNL A   1      33.705  27.621  22.859  1.00  0.00     0.076 C 
ATOM     11  C   UNL A   1      32.958  28.870  23.282  1.00  0.00     0.012 C 
BRANCH   6  12
ATOM     12  C   UNL A   1      30.780  25.180  23.431  1.00  0.00     0.266 C 
BRANCH  12  13
ATOM     13  C   UNL A   1      30.011  25.528  24.722  1.00  0.00     0.103 C 
BRANCH  13  14
ATOM     14  C   UNL A   1      30.818  25.400  26.020  1.00  0.00     0.235 C 
BRANCH  14  15
ATOM     15  O   UNL A   1      30.616  26.496  26.936  1.00  0.00    -0.493 OA
BRANCH  15  16
ATOM     16  C   UNL A   1      31.635  27.409  26.869  1.00  0.00     0.119 A 
ATOM     17  C   UNL A   1      34.988  30.102  26.977  1.00  0.00     0.044 C 
ATOM     18  C   UNL A   1      33.778  29.215  26.873  1.00  0.00    -0.048 A 
ATOM     19  C   UNL A   1      33.986  27.847  26.647  1.00  0.00     0.007 A 
ATOM     20  C   UNL A   1      32.457  29.699  26.959  1.00  0.00    -0.045 A 
ATOM     21  C   UNL A   1      32.918  26.961  26.598  1.00  0.00     0.047 A 
ATOM     22  C   UNL A   1      31.388  28.776  26.987  1.00  0.00     0.050 A 
ATOM     23  C   UNL A   1      32.145  31.171  26.902  1.00  0.00     0.045 C 
ENDBRANCH  15  16
ENDBRANCH  14  15
ENDBRANCH  13  14
ENDBRANCH  12  13
ENDBRANCH   6  12
ENDBRANCH   1   5
BRANCH   3  24
ATOM     24  C   UNL A   1      34.822  24.538  24.941  1.00  0.00     0.118 C 
BRANCH  24  25
ATOM     25  C   UNL A   1      35.801  23.482  25.429  1.00  0.00     0.042 C 
BRANCH  25  26
ATOM     26  C   UNL A   1      37.172  23.593  24.770  1.00  0.00     0.118 C 
BRANCH  26  27
ATOM     27  N   UNL A   1      38.129  22.614  25.275  1.00  0.00    -0.352 N 
ATOM     28  C   UNL A   1      39.218  22.795  26.097  1.00  0.00     0.251 C 
ATOM     29  H   UNL A   1      37.972  21.686  24.986  1.00  0.00     0.163 HD
ATOM     30  O   UNL A   1      40.010  21.884  26.297  1.00  0.00    -0.269 OA
BRANCH  28  31
ATOM     31  C   UNL A   1      39.441  24.116  26.720  1.00  0.00     0.039 A 
ATOM     32  C   UNL A   1      38.968  24.349  28.014  1.00  0.00     0.014 A 
ATOM     33  C   UNL A   1      40.147  25.106  26.035  1.00  0.00     0.014 A 
ATOM     34  C   UNL A   1      39.287  25.547  28.659  1.00  0.00     0.010 A 
ATOM     35  C   UNL A   1      40.527  26.264  26.703  1.00  0.00     0.010 A 
ATOM     36  C   UNL A   1      40.110  26.491  28.024  1.00  0.00    -0.014 A 
BRANCH  36  37
ATOM     37  C   UNL A   1      40.566  27.724  28.712  1.00  0.00     0.031 A 
ATOM     38  C   UNL A   1      39.607  28.862  28.917  1.00  0.00     0.074 A 
ATOM     39  C   UNL A   1      41.863  27.864  29.049  1.00  0.00     0.049 A 
ATOM     40  N   UNL A   1      39.845  30.076  29.343  1.00  0.00    -0.248 NA
ATOM     41  C   UNL A   1      38.200  28.610  28.566  1.00  0.00     0.031 C 
ATOM     42  C   UNL A   1      42.904  26.850  28.870  1.00  0.00     0.029 A 
ATOM     43  N   UNL A   1      42.531  28.932  29.594  1.00  0.00    -0.354 N 
ATOM     44  C   UNL A   1      38.627  30.741  29.275  1.00  0.00     0.074 A 
ATOM     45  C   UNL A   1      37.661  29.807  28.739  1.00  0.00     0.031 C 
ATOM     46  C   UNL A   1      44.074  27.339  29.311  1.00  0.00     0.029 A 
ATOM     47  C   UNL A   1      43.876  28.713  29.760  1.00  0.00     0.049 A 
ATOM     48  H   UNL A   1      42.087  29.775  29.843  1.00  0.00     0.167 HD
ATOM     49  C   UNL A   1      38.337  32.013  29.637  1.00  0.00     0.031 A 
ATOM     50  C   UNL A   1      44.846  29.533  30.208  1.00  0.00     0.031 A 
ATOM     51  C   UNL A   1      39.288  32.932  30.198  1.00  0.00     0.049 A 
ATOM     52  C   UNL A   1      44.497  30.937  30.613  1.00  0.00     0.074 A 
ATOM     53  C   UNL A   1      39.075  34.221  30.657  1.00  0.00     0.029 A 
ATOM     54  N   UNL A   1      40.634  32.658  30.383  1.00  0.00    -0.354 N 
ATOM     55  N   UNL A   1      43.332  31.537  30.588  1.00  0.00    -0.248 NA
ATOM     56  C   UNL A   1      45.596  31.775  31.113  1.00  0.00     0.031 C 
ATOM     57  C   UNL A   1      40.300  34.738  31.090  1.00  0.00     0.029 A 
ATOM     58  C   UNL A   1      41.266  33.757  30.936  1.00  0.00     0.049 A 
ATOM     59  H   UNL A   1      41.074  31.807  30.155  1.00  0.00     0.167 HD
ATOM     60  C   UNL A   1      43.552  32.811  31.091  1.00  0.00     0.074 A 
ATOM     61  C   UNL A   1      44.960  32.897  31.421  1.00  0.00     0.031 C 
ATOM     62  C   UNL A   1      42.665  33.820  31.266  1.00  0.00     0.031 A 
BRANCH  49  63
ATOM     63  C   UNL A   1      36.927  32.482  29.427  1.00  0.00    -0.014 A 
ATOM     64  C   UNL A   1      36.552  33.158  28.256  1.00  0.00     0.009 A 
ATOM     65  C   UNL A   1      35.953  32.223  30.405  1.00  0.00     0.009 A 
ATOM     66  C   UNL A   1      35.239  33.597  28.083  1.00  0.00     0.001 A 
ATOM     67  C   UNL A   1      34.635  32.641  30.217  1.00  0.00     0.001 A 
ATOM     68  C   UNL A   1      34.281  33.335  29.063  1.00  0.00     0.000 A 
ENDBRANCH  49  63
BRANCH  50  69
ATOM     69  C   UNL A   1      46.244  29.044  30.307  1.00  0.00    -0.014 A 
ATOM     70  C   UNL A   1      47.135  29.230  29.239  1.00  0.00     0.009 A 
ATOM     71  C   UNL A   1      46.696  28.391  31.464  1.00  0.00     0.009 A 
ATOM     72  C   UNL A   1      48.445  28.754  29.319  1.00  0.00     0.001 A 
ATOM     73  C   UNL A   1      48.014  27.936  31.549  1.00  0.00     0.001 A 
ATOM     74  C   UNL A   1      48.885  28.110  30.475  1.00  0.00     0.000 A 
ENDBRANCH  50  69
BRANCH  62  75
ATOM     75  C   UNL A   1      43.181  35.089  31.878  1.00  0.00    -0.014 A 
ATOM     76  C   UNL A   1      43.190  35.275  33.268  1.00  0.00     0.009 A 
ATOM     77  C   UNL A   1      43.720  36.087  31.050  1.00  0.00     0.009 A 
ATOM     78  C   UNL A   1      43.711  36.447  33.817  1.00  0.00     0.001 A 
ATOM     79  C   UNL A   1      44.259  37.249  31.604  1.00  0.00     0.001 A 
ATOM     80  C   UNL A   1      44.249  37.430  32.985  1.00  0.00     0.000 A 
ENDBRANCH  62  75
ENDBRANCH  36  37
ENDBRANCH  28  31
ENDBRANCH  26  27
ENDBRANCH  25  26
ENDBRANCH  24  25
ENDBRANCH   3  24
TORSDOF 15
ENDMDL
