MODEL 1
REMARK VINA RESULT:     -11.9      0.000      0.000
REMARK SMILES Cc1cc(O[C@@H](C)C(=O)NCCC(=O)NCCCNC(=O)c2ccc(-c3c4nc(c(-c5ccccc5)c5ccc([nH]5)c(-c5ccccc5)c5nc(c(-c6ccccc6)c6ccc3[nH]6)C=C5)C=C4)cc2)c2c3c(c(=O)oc2c1)CCCC3
REMARK SMILES IDX 13 1 14 2 15 3 12 5 11 6 10 7 8 8 9 9 6 11 7 12 5 13 4 14
REMARK SMILES IDX 1 15 2 16 3 17 77 18 76 19 70 20 75 21 71 22 73 23 72 24
REMARK SMILES IDX 81 25 74 26 78 27 80 28 79 29 16 30 17 31 18 32 19 33 20 34
REMARK SMILES IDX 21 36 22 37 23 38 69 39 24 40 68 41 25 42 26 43 27 44 62 45
REMARK SMILES IDX 28 46 67 47 61 48 63 49 29 50 66 51 60 52 59 53 30 55 52 56
REMARK SMILES IDX 37 57 51 58 38 59 41 60 50 61 64 62 39 63 40 64 49 66 65 67
REMARK SMILES IDX 42 68 31 69 32 70 36 71 33 72 35 73 34 74 53 75 54 76 58 77
REMARK SMILES IDX 55 78 57 79 56 80 43 81 44 82 48 83 45 84 47 85 46 86
REMARK H PARENT 15 4 10 10 19 35 63 54 41 65
REMARK Flexibility Score: inf
ROOT
ATOM      1  C   UNL A   1      32.588  23.708  26.331  1.00  0.00     0.221 C 
ATOM      2  O   UNL A   1      31.792  23.747  27.267  1.00  0.00    -0.275 OA
ATOM      3  N   UNL A   1      33.507  22.708  26.287  1.00  0.00    -0.356 N 
ATOM      4  H   UNL A   1      33.351  21.947  26.892  1.00  0.00     0.163 HD
ENDROOT
BRANCH   1   5
ATOM      5  C   UNL A   1      32.565  24.744  25.234  1.00  0.00     0.121 C 
BRANCH   5   6
ATOM      6  C   UNL A   1      31.955  24.228  23.932  1.00  0.00     0.126 C 
BRANCH   6   7
ATOM      7  N   UNL A   1      32.722  24.615  22.760  1.00  0.00    -0.352 N 
ATOM      8  C   UNL A   1      32.765  25.714  21.976  1.00  0.00     0.260 C 
ATOM      9  O   UNL A   1      33.254  25.519  20.853  1.00  0.00    -0.271 OA
ATOM     10  H   UNL A   1      33.355  23.917  22.472  1.00  0.00     0.163 HD
BRANCH   8  11
ATOM     11  C   UNL A   1      32.435  27.162  22.430  1.00  0.00     0.258 C 
ATOM     12  C   UNL A   1      33.588  28.093  22.060  1.00  0.00     0.064 C 
BRANCH  11  13
ATOM     13  O   UNL A   1      31.681  27.580  23.549  1.00  0.00    -0.480 OA
BRANCH  13  14
ATOM     14  C   UNL A   1      30.832  28.634  23.601  1.00  0.00     0.132 A 
ATOM     15  C   UNL A   1      27.868  30.004  21.656  1.00  0.00     0.044 C 
ATOM     16  C   UNL A   1      28.888  29.844  22.746  1.00  0.00    -0.044 A 
ATOM     17  C   UNL A   1      29.666  28.682  22.828  1.00  0.00     0.050 A 
ATOM     18  C   UNL A   1      29.214  30.917  23.568  1.00  0.00     0.051 A 
ATOM     19  C   UNL A   1      30.283  30.801  24.458  1.00  0.00     0.142 A 
ATOM     20  C   UNL A   1      31.118  29.679  24.512  1.00  0.00     0.063 A 
ATOM     21  O   UNL A   1      30.468  31.914  25.294  1.00  0.00    -0.422 OA
ATOM     22  C   UNL A   1      32.202  29.687  25.535  1.00  0.00    -0.023 A 
ATOM     23  C   UNL A   1      31.379  31.893  26.329  1.00  0.00     0.339 A 
ATOM     24  C   UNL A   1      32.284  30.720  26.400  1.00  0.00     0.042 A 
ATOM     25  C   UNL A   1      33.163  28.520  25.649  1.00  0.00     0.037 C 
ATOM     26  O   UNL A   1      31.445  32.816  27.134  1.00  0.00    -0.246 OA
ATOM     27  C   UNL A   1      33.285  30.792  27.528  1.00  0.00     0.043 C 
ATOM     28  C   UNL A   1      33.940  28.445  26.965  1.00  0.00     0.005 C 
ATOM     29  C   UNL A   1      34.444  29.809  27.395  1.00  0.00     0.005 C 
ENDBRANCH  13  14
ENDBRANCH  11  13
ENDBRANCH   8  11
ENDBRANCH   6   7
ENDBRANCH   5   6
ENDBRANCH   1   5
BRANCH   3  30
ATOM     30  C   UNL A   1      34.692  22.629  25.454  1.00  0.00     0.117 C 
BRANCH  30  31
ATOM     31  C   UNL A   1      35.819  23.431  26.082  1.00  0.00     0.042 C 
BRANCH  31  32
ATOM     32  C   UNL A   1      37.012  23.604  25.166  1.00  0.00     0.118 C 
BRANCH  32  33
ATOM     33  N   UNL A   1      38.095  22.699  25.502  1.00  0.00    -0.352 N 
ATOM     34  C   UNL A   1      39.296  22.953  26.121  1.00  0.00     0.251 C 
ATOM     35  H   UNL A   1      37.946  21.759  25.249  1.00  0.00     0.163 HD
ATOM     36  O   UNL A   1      40.189  22.116  26.088  1.00  0.00    -0.269 OA
BRANCH  34  37
ATOM     37  C   UNL A   1      39.515  24.250  26.796  1.00  0.00     0.039 A 
ATOM     38  C   UNL A   1      40.190  25.282  26.146  1.00  0.00     0.014 A 
ATOM     39  C   UNL A   1      39.046  24.438  28.097  1.00  0.00     0.014 A 
ATOM     40  C   UNL A   1      40.601  26.394  26.862  1.00  0.00     0.010 A 
ATOM     41  C   UNL A   1      39.323  25.634  28.766  1.00  0.00     0.010 A 
ATOM     42  C   UNL A   1      40.146  26.602  28.172  1.00  0.00    -0.014 A 
BRANCH  42  43
ATOM     43  C   UNL A   1      40.504  27.863  28.870  1.00  0.00     0.031 A 
ATOM     44  C   UNL A   1      41.880  28.075  29.438  1.00  0.00     0.074 A 
ATOM     45  C   UNL A   1      39.576  28.837  28.964  1.00  0.00     0.049 A 
ATOM     46  N   UNL A   1      42.345  29.111  30.089  1.00  0.00    -0.248 NA
ATOM     47  C   UNL A   1      42.857  26.989  29.267  1.00  0.00     0.031 C 
ATOM     48  C   UNL A   1      38.212  28.752  28.437  1.00  0.00     0.029 A 
ATOM     49  N   UNL A   1      39.641  30.096  29.506  1.00  0.00    -0.354 N 
ATOM     50  C   UNL A   1      43.647  28.783  30.445  1.00  0.00     0.074 A 
ATOM     51  C   UNL A   1      43.896  27.447  29.953  1.00  0.00     0.031 C 
ATOM     52  C   UNL A   1      37.598  29.929  28.610  1.00  0.00     0.029 A 
ATOM     53  C   UNL A   1      38.481  30.815  29.359  1.00  0.00     0.049 A 
ATOM     54  H   UNL A   1      40.442  30.449  29.957  1.00  0.00     0.167 HD
ATOM     55  C   UNL A   1      44.549  29.535  31.119  1.00  0.00     0.031 A 
ATOM     56  C   UNL A   1      38.138  32.041  29.796  1.00  0.00     0.031 A 
ATOM     57  C   UNL A   1      44.294  30.877  31.579  1.00  0.00     0.049 A 
ATOM     58  C   UNL A   1      39.141  32.840  30.569  1.00  0.00     0.074 A 
ATOM     59  C   UNL A   1      45.168  31.740  32.216  1.00  0.00     0.029 A 
ATOM     60  N   UNL A   1      43.084  31.544  31.461  1.00  0.00    -0.354 N 
ATOM     61  N   UNL A   1      40.378  32.528  30.872  1.00  0.00    -0.248 NA
ATOM     62  C   UNL A   1      38.709  34.152  31.065  1.00  0.00     0.031 C 
ATOM     63  C   UNL A   1      44.461  32.891  32.566  1.00  0.00     0.029 A 
ATOM     64  C   UNL A   1      43.174  32.790  32.059  1.00  0.00     0.049 A 
ATOM     65  H   UNL A   1      42.281  31.186  31.018  1.00  0.00     0.167 HD
ATOM     66  C   UNL A   1      40.879  33.608  31.584  1.00  0.00     0.074 A 
ATOM     67  C   UNL A   1      39.818  34.593  31.649  1.00  0.00     0.031 C 
ATOM     68  C   UNL A   1      42.108  33.762  32.132  1.00  0.00     0.031 A 
BRANCH  55  69
ATOM     69  C   UNL A   1      45.891  28.928  31.441  1.00  0.00    -0.014 A 
ATOM     70  C   UNL A   1      46.070  28.271  32.671  1.00  0.00     0.009 A 
ATOM     71  C   UNL A   1      46.997  29.082  30.593  1.00  0.00     0.009 A 
ATOM     72  C   UNL A   1      47.326  27.797  33.051  1.00  0.00     0.001 A 
ATOM     73  C   UNL A   1      48.247  28.573  30.959  1.00  0.00     0.001 A 
ATOM     74  C   UNL A   1      48.413  27.942  32.192  1.00  0.00     0.000 A 
ENDBRANCH  55  69
BRANCH  56  75
ATOM     75  C   UNL A   1      36.777  32.554  29.484  1.00  0.00    -0.014 A 
ATOM     76  C   UNL A   1      36.534  33.243  28.283  1.00  0.00     0.009 A 
ATOM     77  C   UNL A   1      35.753  32.477  30.439  1.00  0.00     0.009 A 
ATOM     78  C   UNL A   1      35.317  33.895  28.070  1.00  0.00     0.001 A 
ATOM     79  C   UNL A   1      34.523  33.098  30.206  1.00  0.00     0.001 A 
ATOM     80  C   UNL A   1      34.313  33.822  29.033  1.00  0.00     0.000 A 
ENDBRANCH  56  75
BRANCH  68  81
ATOM     81  C   UNL A   1      42.402  35.046  32.860  1.00  0.00    -0.014 A 
ATOM     82  C   UNL A   1      43.211  36.021  32.252  1.00  0.00     0.009 A 
ATOM     83  C   UNL A   1      41.990  35.238  34.187  1.00  0.00     0.009 A 
ATOM     84  C   UNL A   1      43.628  37.143  32.966  1.00  0.00     0.001 A 
ATOM     85  C   UNL A   1      42.378  36.383  34.888  1.00  0.00     0.001 A 
ATOM     86  C   UNL A   1      43.208  37.326  34.282  1.00  0.00     0.000 A 
ENDBRANCH  68  81
ENDBRANCH  42  43
ENDBRANCH  34  37
ENDBRANCH  32  33
ENDBRANCH  31  32
ENDBRANCH  30  31
ENDBRANCH   3  30
TORSDOF 15
ENDMDL
MODEL 2
REMARK VINA RESULT:     -11.6      2.562      8.467
REMARK SMILES Cc1cc(O[C@@H](C)C(=O)NCCC(=O)NCCCNC(=O)c2ccc(-c3c4nc(c(-c5ccccc5)c5ccc([nH]5)c(-c5ccccc5)c5nc(c(-c6ccccc6)c6ccc3[nH]6)C=C5)C=C4)cc2)c2c3c(c(=O)oc2c1)CCCC3
REMARK SMILES IDX 13 1 14 2 15 3 12 5 11 6 10 7 8 8 9 9 6 11 7 12 5 13 4 14
REMARK SMILES IDX 1 15 2 16 3 17 77 18 76 19 70 20 75 21 71 22 73 23 72 24
REMARK SMILES IDX 81 25 74 26 78 27 80 28 79 29 16 30 17 31 18 32 19 33 20 34
REMARK SMILES IDX 21 36 22 37 23 38 69 39 24 40 68 41 25 42 26 43 27 44 62 45
REMARK SMILES IDX 28 46 67 47 61 48 63 49 29 50 66 51 60 52 59 53 30 55 52 56
REMARK SMILES IDX 37 57 51 58 38 59 41 60 50 61 64 62 39 63 40 64 49 66 65 67
REMARK SMILES IDX 42 68 31 69 32 70 36 71 33 72 35 73 34 74 53 75 54 76 58 77
REMARK SMILES IDX 55 78 57 79 56 80 43 81 44 82 48 83 45 84 47 85 46 86
REMARK H PARENT 15 4 10 10 19 35 63 54 41 65
REMARK Flexibility Score: inf
ROOT
ATOM      1  C   UNL A   1      33.516  28.250  22.681  1.00  0.00     0.221 C 
ATOM      2  O   UNL A   1      34.213  28.247  21.668  1.00  0.00    -0.275 OA
ATOM      3  N   UNL A   1      33.598  29.304  23.534  1.00  0.00    -0.356 N 
ATOM      4  H   UNL A   1      34.051  30.108  23.190  1.00  0.00     0.163 HD
ENDROOT
BRANCH   1   5
ATOM      5  C   UNL A   1      32.577  27.111  22.995  1.00  0.00     0.121 C 
BRANCH   5   6
ATOM      6  C   UNL A   1      33.301  25.832  23.409  1.00  0.00     0.126 C 
BRANCH   6   7
ATOM      7  N   UNL A   1      32.997  24.707  22.540  1.00  0.00    -0.352 N 
ATOM      8  C   UNL A   1      32.797  23.386  22.735  1.00  0.00     0.260 C 
ATOM      9  O   UNL A   1      32.953  22.693  21.718  1.00  0.00    -0.271 OA
ATOM     10  H   UNL A   1      32.920  24.969  21.594  1.00  0.00     0.163 HD
BRANCH   8  11
ATOM     11  C   UNL A   1      32.232  22.738  24.028  1.00  0.00     0.258 C 
ATOM     12  C   UNL A   1      31.173  23.653  24.643  1.00  0.00     0.064 C 
BRANCH  11  13
ATOM     13  O   UNL A   1      32.899  21.908  24.956  1.00  0.00    -0.480 OA
BRANCH  13  14
ATOM     14  C   UNL A   1      33.417  20.681  24.713  1.00  0.00     0.132 A 
ATOM     15  C   UNL A   1      32.184  17.159  23.990  1.00  0.00     0.044 C 
ATOM     16  C   UNL A   1      33.123  18.320  24.153  1.00  0.00    -0.044 A 
ATOM     17  C   UNL A   1      32.629  19.628  24.232  1.00  0.00     0.050 A 
ATOM     18  C   UNL A   1      34.468  18.103  24.424  1.00  0.00     0.051 A 
ATOM     19  C   UNL A   1      35.288  19.188  24.745  1.00  0.00     0.142 A 
ATOM     20  C   UNL A   1      34.808  20.494  24.897  1.00  0.00     0.063 A 
ATOM     21  O   UNL A   1      36.644  18.862  24.917  1.00  0.00    -0.422 OA
ATOM     22  C   UNL A   1      35.807  21.553  25.211  1.00  0.00    -0.023 A 
ATOM     23  C   UNL A   1      37.602  19.839  25.082  1.00  0.00     0.339 A 
ATOM     24  C   UNL A   1      37.117  21.230  25.258  1.00  0.00     0.042 A 
ATOM     25  C   UNL A   1      35.370  22.991  25.411  1.00  0.00     0.037 C 
ATOM     26  O   UNL A   1      38.796  19.559  25.103  1.00  0.00    -0.246 OA
ATOM     27  C   UNL A   1      38.221  22.235  25.483  1.00  0.00     0.043 C 
ATOM     28  C   UNL A   1      36.489  24.030  25.311  1.00  0.00     0.005 C 
ATOM     29  C   UNL A   1      37.741  23.574  26.034  1.00  0.00     0.005 C 
ENDBRANCH  13  14
ENDBRANCH  11  13
ENDBRANCH   8  11
ENDBRANCH   6   7
ENDBRANCH   5   6
ENDBRANCH   1   5
BRANCH   3  30
ATOM     30  C   UNL A   1      33.096  29.386  24.892  1.00  0.00     0.117 C 
BRANCH  30  31
ATOM     31  C   UNL A   1      33.977  28.562  25.818  1.00  0.00     0.042 C 
BRANCH  31  32
ATOM     32  C   UNL A   1      33.623  28.726  27.281  1.00  0.00     0.118 C 
BRANCH  32  33
ATOM     33  N   UNL A   1      33.643  30.116  27.695  1.00  0.00    -0.352 N 
ATOM     34  C   UNL A   1      34.616  30.824  28.360  1.00  0.00     0.251 C 
ATOM     35  H   UNL A   1      32.837  30.632  27.463  1.00  0.00     0.163 HD
ATOM     36  O   UNL A   1      34.352  31.914  28.849  1.00  0.00    -0.269 OA
BRANCH  34  37
ATOM     37  C   UNL A   1      35.970  30.249  28.509  1.00  0.00     0.039 A 
ATOM     38  C   UNL A   1      36.353  29.637  29.701  1.00  0.00     0.014 A 
ATOM     39  C   UNL A   1      36.873  30.327  27.446  1.00  0.00     0.014 A 
ATOM     40  C   UNL A   1      37.685  29.323  29.917  1.00  0.00     0.010 A 
ATOM     41  C   UNL A   1      38.180  29.857  27.614  1.00  0.00     0.010 A 
ATOM     42  C   UNL A   1      38.611  29.397  28.867  1.00  0.00    -0.014 A 
BRANCH  42  43
ATOM     43  C   UNL A   1      40.004  28.936  29.097  1.00  0.00     0.031 A 
ATOM     44  C   UNL A   1      40.464  27.583  28.630  1.00  0.00     0.074 A 
ATOM     45  C   UNL A   1      40.868  29.768  29.713  1.00  0.00     0.049 A 
ATOM     46  N   UNL A   1      41.641  27.027  28.768  1.00  0.00    -0.248 NA
ATOM     47  C   UNL A   1      39.483  26.740  27.931  1.00  0.00     0.031 C 
ATOM     48  C   UNL A   1      40.540  31.112  30.195  1.00  0.00     0.029 A 
ATOM     49  N   UNL A   1      42.199  29.627  30.013  1.00  0.00    -0.354 N 
ATOM     50  C   UNL A   1      41.528  25.756  28.217  1.00  0.00     0.074 A 
ATOM     51  C   UNL A   1      40.165  25.615  27.757  1.00  0.00     0.031 C 
ATOM     52  C   UNL A   1      41.651  31.698  30.658  1.00  0.00     0.029 A 
ATOM     53  C   UNL A   1      42.745  30.736  30.609  1.00  0.00     0.049 A 
ATOM     54  H   UNL A   1      42.712  28.809  29.820  1.00  0.00     0.167 HD
ATOM     55  C   UNL A   1      42.480  24.800  28.107  1.00  0.00     0.031 A 
ATOM     56  C   UNL A   1      43.981  30.962  31.094  1.00  0.00     0.031 A 
ATOM     57  C   UNL A   1      43.842  24.968  28.547  1.00  0.00     0.049 A 
ATOM     58  C   UNL A   1      45.008  29.876  30.992  1.00  0.00     0.074 A 
ATOM     59  C   UNL A   1      44.895  24.079  28.419  1.00  0.00     0.029 A 
ATOM     60  N   UNL A   1      44.338  26.087  29.200  1.00  0.00    -0.354 N 
ATOM     61  N   UNL A   1      44.894  28.692  30.442  1.00  0.00    -0.248 NA
ATOM     62  C   UNL A   1      46.327  30.149  31.575  1.00  0.00     0.031 C 
ATOM     63  C   UNL A   1      46.000  24.619  29.078  1.00  0.00     0.029 A 
ATOM     64  C   UNL A   1      45.669  25.888  29.528  1.00  0.00     0.049 A 
ATOM     65  H   UNL A   1      43.821  26.900  29.401  1.00  0.00     0.167 HD
ATOM     66  C   UNL A   1      46.128  28.079  30.601  1.00  0.00     0.074 A 
ATOM     67  C   UNL A   1      46.983  29.032  31.279  1.00  0.00     0.031 C 
ATOM     68  C   UNL A   1      46.511  26.837  30.216  1.00  0.00     0.031 A 
BRANCH  55  69
ATOM     69  C   UNL A   1      42.093  23.467  27.521  1.00  0.00    -0.014 A 
ATOM     70  C   UNL A   1      41.568  22.472  28.364  1.00  0.00     0.009 A 
ATOM     71  C   UNL A   1      42.331  23.152  26.174  1.00  0.00     0.009 A 
ATOM     72  C   UNL A   1      41.305  21.191  27.879  1.00  0.00     0.001 A 
ATOM     73  C   UNL A   1      42.030  21.878  25.682  1.00  0.00     0.001 A 
ATOM     74  C   UNL A   1      41.530  20.896  26.536  1.00  0.00     0.000 A 
ENDBRANCH  55  69
BRANCH  56  75
ATOM     75  C   UNL A   1      44.275  32.285  31.706  1.00  0.00    -0.014 A 
ATOM     76  C   UNL A   1      43.999  32.518  33.065  1.00  0.00     0.009 A 
ATOM     77  C   UNL A   1      44.704  33.356  30.910  1.00  0.00     0.009 A 
ATOM     78  C   UNL A   1      44.087  33.805  33.599  1.00  0.00     0.001 A 
ATOM     79  C   UNL A   1      44.829  34.636  31.457  1.00  0.00     0.001 A 
ATOM     80  C   UNL A   1      44.501  34.863  32.793  1.00  0.00     0.000 A 
ENDBRANCH  56  75
BRANCH  68  81
ATOM     81  C   UNL A   1      47.925  26.411  30.509  1.00  0.00    -0.014 A 
ATOM     82  C   UNL A   1      48.913  26.551  29.520  1.00  0.00     0.009 A 
ATOM     83  C   UNL A   1      48.252  25.758  31.707  1.00  0.00     0.009 A 
ATOM     84  C   UNL A   1      50.187  26.018  29.709  1.00  0.00     0.001 A 
ATOM     85  C   UNL A   1      49.541  25.259  31.909  1.00  0.00     0.001 A 
ATOM     86  C   UNL A   1      50.502  25.376  30.905  1.00  0.00     0.000 A 
ENDBRANCH  68  81
ENDBRANCH  42  43
ENDBRANCH  34  37
ENDBRANCH  32  33
ENDBRANCH  31  32
ENDBRANCH  30  31
ENDBRANCH   3  30
TORSDOF 15
ENDMDL
MODEL 3
REMARK VINA RESULT:     -11.5      2.516      8.565
REMARK SMILES Cc1cc(O[C@@H](C)C(=O)NCCC(=O)NCCCNC(=O)c2ccc(-c3c4nc(c(-c5ccccc5)c5ccc([nH]5)c(-c5ccccc5)c5nc(c(-c6ccccc6)c6ccc3[nH]6)C=C5)C=C4)cc2)c2c3c(c(=O)oc2c1)CCCC3
REMARK SMILES IDX 13 1 14 2 15 3 12 5 11 6 10 7 8 8 9 9 6 11 7 12 5 13 4 14
REMARK SMILES IDX 1 15 2 16 3 17 77 18 76 19 70 20 75 21 71 22 73 23 72 24
REMARK SMILES IDX 81 25 74 26 78 27 80 28 79 29 16 30 17 31 18 32 19 33 20 34
REMARK SMILES IDX 21 36 22 37 23 38 69 39 24 40 68 41 25 42 26 43 27 44 62 45
REMARK SMILES IDX 28 46 67 47 61 48 63 49 29 50 66 51 60 52 59 53 30 55 52 56
REMARK SMILES IDX 37 57 51 58 38 59 41 60 50 61 64 62 39 63 40 64 49 66 65 67
REMARK SMILES IDX 42 68 31 69 32 70 36 71 33 72 35 73 34 74 53 75 54 76 58 77
REMARK SMILES IDX 55 78 57 79 56 80 43 81 44 82 48 83 45 84 47 85 46 86
REMARK H PARENT 15 4 10 10 19 35 63 54 41 65
REMARK Flexibility Score: inf
ROOT
ATOM      1  C   UNL A   1      32.993  27.427  22.530  1.00  0.00     0.221 C 
ATOM      2  O   UNL A   1      33.673  26.953  21.622  1.00  0.00    -0.275 OA
ATOM      3  N   UNL A   1      33.600  28.180  23.485  1.00  0.00    -0.356 N 
ATOM      4  H   UNL A   1      34.514  28.484  23.283  1.00  0.00     0.163 HD
ENDROOT
BRANCH   1   5
ATOM      5  C   UNL A   1      31.504  27.190  22.606  1.00  0.00     0.121 C 
BRANCH   5   6
ATOM      6  C   UNL A   1      31.143  25.759  22.999  1.00  0.00     0.126 C 
BRANCH   6   7
ATOM      7  N   UNL A   1      31.973  24.767  22.335  1.00  0.00    -0.352 N 
ATOM      8  C   UNL A   1      32.658  23.677  22.745  1.00  0.00     0.260 C 
ATOM      9  O   UNL A   1      33.556  23.320  21.967  1.00  0.00    -0.271 OA
ATOM     10  H   UNL A   1      32.054  24.926  21.367  1.00  0.00     0.163 HD
BRANCH   8  11
ATOM     11  C   UNL A   1      32.293  22.784  23.960  1.00  0.00     0.258 C 
ATOM     12  C   UNL A   1      31.061  23.351  24.666  1.00  0.00     0.064 C 
BRANCH  11  13
ATOM     13  O   UNL A   1      33.158  22.045  24.798  1.00  0.00    -0.480 OA
BRANCH  13  14
ATOM     14  C   UNL A   1      33.600  20.782  24.587  1.00  0.00     0.132 A 
ATOM     15  C   UNL A   1      32.157  17.343  23.858  1.00  0.00     0.044 C 
ATOM     16  C   UNL A   1      33.166  18.439  24.043  1.00  0.00    -0.044 A 
ATOM     17  C   UNL A   1      32.760  19.779  24.089  1.00  0.00     0.050 A 
ATOM     18  C   UNL A   1      34.483  18.136  24.365  1.00  0.00     0.051 A 
ATOM     19  C   UNL A   1      35.363  19.167  24.703  1.00  0.00     0.142 A 
ATOM     20  C   UNL A   1      34.968  20.504  24.823  1.00  0.00     0.063 A 
ATOM     21  O   UNL A   1      36.686  18.753  24.928  1.00  0.00    -0.422 OA
ATOM     22  C   UNL A   1      36.026  21.498  25.162  1.00  0.00    -0.023 A 
ATOM     23  C   UNL A   1      37.703  19.665  25.117  1.00  0.00     0.339 A 
ATOM     24  C   UNL A   1      37.308  21.087  25.259  1.00  0.00     0.042 A 
ATOM     25  C   UNL A   1      35.680  22.964  25.330  1.00  0.00     0.037 C 
ATOM     26  O   UNL A   1      38.873  19.304  25.184  1.00  0.00    -0.246 OA
ATOM     27  C   UNL A   1      38.469  22.018  25.513  1.00  0.00     0.043 C 
ATOM     28  C   UNL A   1      36.870  23.924  25.258  1.00  0.00     0.005 C 
ATOM     29  C   UNL A   1      38.062  23.393  26.031  1.00  0.00     0.005 C 
ENDBRANCH  13  14
ENDBRANCH  11  13
ENDBRANCH   8  11
ENDBRANCH   6   7
ENDBRANCH   5   6
ENDBRANCH   1   5
BRANCH   3  30
ATOM     30  C   UNL A   1      33.059  28.589  24.767  1.00  0.00     0.117 C 
BRANCH  30  31
ATOM     31  C   UNL A   1      34.084  28.340  25.862  1.00  0.00     0.042 C 
BRANCH  31  32
ATOM     32  C   UNL A   1      33.550  28.611  27.252  1.00  0.00     0.118 C 
BRANCH  32  33
ATOM     33  N   UNL A   1      33.578  30.024  27.582  1.00  0.00    -0.352 N 
ATOM     34  C   UNL A   1      34.543  30.759  28.231  1.00  0.00     0.251 C 
ATOM     35  H   UNL A   1      32.786  30.534  27.298  1.00  0.00     0.163 HD
ATOM     36  O   UNL A   1      34.280  31.879  28.646  1.00  0.00    -0.269 OA
BRANCH  34  37
ATOM     37  C   UNL A   1      35.884  30.177  28.450  1.00  0.00     0.039 A 
ATOM     38  C   UNL A   1      36.206  29.578  29.667  1.00  0.00     0.014 A 
ATOM     39  C   UNL A   1      36.837  30.237  27.432  1.00  0.00     0.014 A 
ATOM     40  C   UNL A   1      37.524  29.258  29.951  1.00  0.00     0.010 A 
ATOM     41  C   UNL A   1      38.131  29.761  27.667  1.00  0.00     0.010 A 
ATOM     42  C   UNL A   1      38.499  29.314  28.945  1.00  0.00    -0.014 A 
BRANCH  42  43
ATOM     43  C   UNL A   1      39.876  28.848  29.247  1.00  0.00     0.031 A 
ATOM     44  C   UNL A   1      40.824  29.692  30.054  1.00  0.00     0.074 A 
ATOM     45  C   UNL A   1      40.261  27.633  28.806  1.00  0.00     0.049 A 
ATOM     46  N   UNL A   1      42.063  29.435  30.390  1.00  0.00    -0.248 NA
ATOM     47  C   UNL A   1      40.330  30.990  30.538  1.00  0.00     0.031 C 
ATOM     48  C   UNL A   1      39.422  26.718  28.027  1.00  0.00     0.029 A 
ATOM     49  N   UNL A   1      41.435  26.944  28.969  1.00  0.00    -0.354 N 
ATOM     50  C   UNL A   1      42.509  30.556  31.080  1.00  0.00     0.074 A 
ATOM     51  C   UNL A   1      41.416  31.500  31.103  1.00  0.00     0.031 C 
ATOM     52  C   UNL A   1      40.077  25.565  27.848  1.00  0.00     0.029 A 
ATOM     53  C   UNL A   1      41.419  25.695  28.400  1.00  0.00     0.049 A 
ATOM     54  H   UNL A   1      42.214  27.310  29.448  1.00  0.00     0.167 HD
ATOM     55  C   UNL A   1      43.721  30.768  31.644  1.00  0.00     0.031 A 
ATOM     56  C   UNL A   1      42.379  24.755  28.299  1.00  0.00     0.031 A 
ATOM     57  C   UNL A   1      44.792  29.804  31.635  1.00  0.00     0.049 A 
ATOM     58  C   UNL A   1      43.723  25.028  28.900  1.00  0.00     0.074 A 
ATOM     59  C   UNL A   1      46.035  29.904  32.235  1.00  0.00     0.029 A 
ATOM     60  N   UNL A   1      44.753  28.574  30.995  1.00  0.00    -0.354 N 
ATOM     61  N   UNL A   1      44.120  26.079  29.576  1.00  0.00    -0.248 NA
ATOM     62  C   UNL A   1      44.752  23.996  28.728  1.00  0.00     0.031 C 
ATOM     63  C   UNL A   1      46.781  28.779  31.879  1.00  0.00     0.029 A 
ATOM     64  C   UNL A   1      45.970  27.929  31.142  1.00  0.00     0.049 A 
ATOM     65  H   UNL A   1      43.977  28.213  30.508  1.00  0.00     0.167 HD
ATOM     66  C   UNL A   1      45.441  25.834  29.920  1.00  0.00     0.074 A 
ATOM     67  C   UNL A   1      45.772  24.524  29.397  1.00  0.00     0.031 C 
ATOM     68  C   UNL A   1      46.297  26.628  30.607  1.00  0.00     0.031 A 
BRANCH  55  69
ATOM     69  C   UNL A   1      43.987  32.103  32.292  1.00  0.00    -0.014 A 
ATOM     70  C   UNL A   1      43.639  32.294  33.640  1.00  0.00     0.009 A 
ATOM     71  C   UNL A   1      44.485  33.194  31.564  1.00  0.00     0.009 A 
ATOM     72  C   UNL A   1      43.766  33.547  34.240  1.00  0.00     0.001 A 
ATOM     73  C   UNL A   1      44.647  34.440  32.178  1.00  0.00     0.001 A 
ATOM     74  C   UNL A   1      44.276  34.618  33.510  1.00  0.00     0.000 A 
ENDBRANCH  55  69
BRANCH  56  75
ATOM     75  C   UNL A   1      42.059  23.483  27.600  1.00  0.00    -0.014 A 
ATOM     76  C   UNL A   1      41.536  22.390  28.314  1.00  0.00     0.009 A 
ATOM     77  C   UNL A   1      42.400  23.308  26.252  1.00  0.00     0.009 A 
ATOM     78  C   UNL A   1      41.418  21.136  27.710  1.00  0.00     0.001 A 
ATOM     79  C   UNL A   1      42.245  22.062  25.640  1.00  0.00     0.001 A 
ATOM     80  C   UNL A   1      41.774  20.973  26.374  1.00  0.00     0.000 A 
ENDBRANCH  56  75
BRANCH  68  81
ATOM     81  C   UNL A   1      47.693  26.119  30.851  1.00  0.00    -0.014 A 
ATOM     82  C   UNL A   1      48.033  25.599  32.111  1.00  0.00     0.009 A 
ATOM     83  C   UNL A   1      48.699  26.270  29.885  1.00  0.00     0.009 A 
ATOM     84  C   UNL A   1      49.355  25.271  32.410  1.00  0.00     0.001 A 
ATOM     85  C   UNL A   1      50.016  25.905  30.176  1.00  0.00     0.001 A 
ATOM     86  C   UNL A   1      50.345  25.421  31.442  1.00  0.00     0.000 A 
ENDBRANCH  68  81
ENDBRANCH  42  43
ENDBRANCH  34  37
ENDBRANCH  32  33
ENDBRANCH  31  32
ENDBRANCH  30  31
ENDBRANCH   3  30
TORSDOF 15
ENDMDL
