MODEL 1
REMARK VINA RESULT:     -12.4      0.000      0.000
REMARK SMILES COc1ccc2c(c1)c(CC(=O)NCCCNC(=O)c1ccc(-c3c4nc(c(-c5ccccc5)c5ccc([nH]5)c(-c5ccccc5)c5nc(c(-c6ccccc6)c6ccc3[nH]6)C=C5)C=C4)cc1)c(C(F)(F)F)n2C(=O)c1ccc(Cl)cc1
REMARK SMILES IDX 14 1 13 2 11 3 12 4 10 6 9 7 3 8 4 9 8 10 5 11 7 12 6 13
REMARK SMILES IDX 73 14 68 15 2 16 1 17 74 18 75 19 76 20 77 21 82 22 78 23
REMARK SMILES IDX 81 24 79 25 80 26 69 27 70 28 71 29 72 30 15 31 16 32 17 33
REMARK SMILES IDX 18 34 19 36 20 37 21 38 67 39 22 40 66 41 23 42 24 43 25 44
REMARK SMILES IDX 60 45 26 46 65 47 59 48 61 49 27 50 64 51 58 52 57 53 28 55
REMARK SMILES IDX 50 56 35 57 49 58 36 59 39 60 48 61 62 62 37 63 38 64 47 66
REMARK SMILES IDX 63 67 40 68 29 69 30 70 34 71 31 72 33 73 32 74 51 75 52 76
REMARK SMILES IDX 56 77 53 78 55 79 54 80 41 81 42 82 46 83 43 84 45 85 44 86
REMARK H PARENT 13 5 17 35 61 54 39 65
REMARK Flexibility Score: inf
ROOT
ATOM      1  C   UNL A   1      34.415  31.490  27.676  1.00  0.00     0.117 C 
ENDROOT
BRANCH   1   2
ATOM      2  N   UNL A   1      33.349  30.533  27.910  1.00  0.00    -0.356 N 
ATOM      3  C   UNL A   1      32.606  29.824  27.013  1.00  0.00     0.224 C 
ATOM      4  O   UNL A   1      31.747  29.055  27.449  1.00  0.00    -0.275 OA
ATOM      5  H   UNL A   1      33.130  30.373  28.857  1.00  0.00     0.163 HD
BRANCH   3   6
ATOM      6  C   UNL A   1      32.877  29.951  25.523  1.00  0.00     0.138 C 
BRANCH   6   7
ATOM      7  C   UNL A   1      32.084  28.986  24.685  1.00  0.00     0.000 A 
ATOM      8  C   UNL A   1      28.745  30.319  23.399  1.00  0.00     0.119 A 
ATOM      9  C   UNL A   1      28.339  29.142  22.793  1.00  0.00     0.048 A 
ATOM     10  C   UNL A   1      29.987  30.378  24.034  1.00  0.00     0.057 A 
ATOM     11  C   UNL A   1      29.151  28.004  22.822  1.00  0.00     0.031 A 
ATOM     12  C   UNL A   1      30.829  29.244  24.069  1.00  0.00     0.008 A 
ATOM     13  C   UNL A   1      30.421  28.069  23.428  1.00  0.00     0.057 A 
ATOM     14  N   UNL A   1      31.492  27.162  23.489  1.00  0.00    -0.271 N 
ATOM     15  C   UNL A   1      32.390  27.649  24.439  1.00  0.00     0.135 A 
BRANCH   8  16
ATOM     16  O   UNL A   1      28.018  31.478  23.403  1.00  0.00    -0.497 OA
ATOM     17  C   UNL A   1      28.282  32.344  22.303  1.00  0.00     0.278 C 
ENDBRANCH   8  16
BRANCH  14  18
ATOM     18  C   UNL A   1      31.662  25.999  22.689  1.00  0.00     0.262 C 
ATOM     19  O   UNL A   1      31.732  26.145  21.467  1.00  0.00    -0.268 OA
BRANCH  18  20
ATOM     20  C   UNL A   1      31.692  24.617  23.195  1.00  0.00     0.040 A 
ATOM     21  C   UNL A   1      30.870  24.244  24.266  1.00  0.00     0.015 A 
ATOM     22  C   UNL A   1      32.596  23.708  22.635  1.00  0.00     0.015 A 
ATOM     23  C   UNL A   1      31.021  22.977  24.836  1.00  0.00     0.021 A 
ATOM     24  C   UNL A   1      32.732  22.438  23.202  1.00  0.00     0.021 A 
ATOM     25  C   UNL A   1      31.961  22.086  24.311  1.00  0.00     0.041 A 
ATOM     26  Cl  UNL A   1      32.190  20.554  25.058  1.00  0.00    -0.084 Cl
ENDBRANCH  18  20
ENDBRANCH  14  18
BRANCH  15  27
ATOM     27  C   UNL A   1      33.496  26.834  25.026  1.00  0.00     0.432 C 
ATOM     28  F   UNL A   1      34.275  26.278  24.065  1.00  0.00    -0.165 F 
ATOM     29  F   UNL A   1      34.321  27.637  25.758  1.00  0.00    -0.165 F 
ATOM     30  F   UNL A   1      33.100  25.867  25.882  1.00  0.00    -0.165 F 
ENDBRANCH  15  27
ENDBRANCH   6   7
ENDBRANCH   3   6
ENDBRANCH   1   2
BRANCH   1  31
ATOM     31  C   UNL A   1      34.005  32.917  28.046  1.00  0.00     0.042 C 
BRANCH  31  32
ATOM     32  C   UNL A   1      34.989  33.599  28.998  1.00  0.00     0.118 C 
BRANCH  32  33
ATOM     33  N   UNL A   1      34.923  33.085  30.351  1.00  0.00    -0.352 N 
ATOM     34  C   UNL A   1      35.619  32.169  31.084  1.00  0.00     0.251 C 
ATOM     35  H   UNL A   1      34.196  33.499  30.871  1.00  0.00     0.163 HD
ATOM     36  O   UNL A   1      35.284  32.065  32.267  1.00  0.00    -0.269 OA
BRANCH  34  37
ATOM     37  C   UNL A   1      36.664  31.254  30.560  1.00  0.00     0.039 A 
ATOM     38  C   UNL A   1      36.506  29.892  30.303  1.00  0.00     0.014 A 
ATOM     39  C   UNL A   1      37.948  31.823  30.437  1.00  0.00     0.014 A 
ATOM     40  C   UNL A   1      37.623  29.090  30.099  1.00  0.00     0.010 A 
ATOM     41  C   UNL A   1      39.060  31.032  30.211  1.00  0.00     0.010 A 
ATOM     42  C   UNL A   1      38.899  29.655  30.137  1.00  0.00    -0.014 A 
BRANCH  42  43
ATOM     43  C   UNL A   1      40.052  28.768  30.111  1.00  0.00     0.031 A 
ATOM     44  C   UNL A   1      40.704  28.521  31.425  1.00  0.00     0.074 A 
ATOM     45  C   UNL A   1      40.452  28.149  28.982  1.00  0.00     0.049 A 
ATOM     46  N   UNL A   1      41.924  28.775  31.767  1.00  0.00    -0.248 NA
ATOM     47  C   UNL A   1      39.866  28.017  32.524  1.00  0.00     0.031 C 
ATOM     48  C   UNL A   1      39.782  28.086  27.679  1.00  0.00     0.029 A 
ATOM     49  N   UNL A   1      41.521  27.329  28.807  1.00  0.00    -0.354 N 
ATOM     50  C   UNL A   1      42.059  28.347  33.085  1.00  0.00     0.074 A 
ATOM     51  C   UNL A   1      40.736  27.988  33.533  1.00  0.00     0.031 C 
ATOM     52  C   UNL A   1      40.308  27.071  26.955  1.00  0.00     0.029 A 
ATOM     53  C   UNL A   1      41.445  26.528  27.677  1.00  0.00     0.049 A 
ATOM     54  H   UNL A   1      42.284  27.306  29.428  1.00  0.00     0.167 HD
ATOM     55  C   UNL A   1      43.273  28.164  33.674  1.00  0.00     0.031 A 
ATOM     56  C   UNL A   1      42.215  25.443  27.410  1.00  0.00     0.031 A 
ATOM     57  C   UNL A   1      44.330  28.815  32.950  1.00  0.00     0.049 A 
ATOM     58  C   UNL A   1      43.447  25.568  28.228  1.00  0.00     0.074 A 
ATOM     59  C   UNL A   1      44.627  30.132  32.661  1.00  0.00     0.029 A 
ATOM     60  N   UNL A   1      45.069  28.061  32.070  1.00  0.00    -0.354 N 
ATOM     61  N   UNL A   1      44.332  26.507  28.042  1.00  0.00    -0.248 NA
ATOM     62  C   UNL A   1      43.452  24.954  29.547  1.00  0.00     0.031 C 
ATOM     63  C   UNL A   1      45.097  30.107  31.317  1.00  0.00     0.029 A 
ATOM     64  C   UNL A   1      45.134  28.775  30.899  1.00  0.00     0.049 A 
ATOM     65  H   UNL A   1      45.473  27.180  32.245  1.00  0.00     0.167 HD
ATOM     66  C   UNL A   1      44.697  26.905  29.319  1.00  0.00     0.074 A 
ATOM     67  C   UNL A   1      44.183  25.859  30.205  1.00  0.00     0.031 C 
ATOM     68  C   UNL A   1      45.120  28.178  29.581  1.00  0.00     0.031 A 
BRANCH  55  69
ATOM     69  C   UNL A   1      43.542  27.143  34.742  1.00  0.00    -0.014 A 
ATOM     70  C   UNL A   1      43.489  27.453  36.115  1.00  0.00     0.009 A 
ATOM     71  C   UNL A   1      43.594  25.781  34.400  1.00  0.00     0.009 A 
ATOM     72  C   UNL A   1      43.485  26.461  37.098  1.00  0.00     0.001 A 
ATOM     73  C   UNL A   1      43.551  24.782  35.381  1.00  0.00     0.001 A 
ATOM     74  C   UNL A   1      43.493  25.124  36.730  1.00  0.00     0.000 A 
ENDBRANCH  55  69
BRANCH  56  75
ATOM     75  C   UNL A   1      41.733  24.136  26.900  1.00  0.00    -0.014 A 
ATOM     76  C   UNL A   1      40.637  23.502  27.516  1.00  0.00     0.009 A 
ATOM     77  C   UNL A   1      42.507  23.376  26.010  1.00  0.00     0.009 A 
ATOM     78  C   UNL A   1      40.346  22.153  27.285  1.00  0.00     0.001 A 
ATOM     79  C   UNL A   1      42.215  22.023  25.776  1.00  0.00     0.001 A 
ATOM     80  C   UNL A   1      41.145  21.410  26.425  1.00  0.00     0.000 A 
ENDBRANCH  56  75
BRANCH  68  81
ATOM     81  C   UNL A   1      45.314  29.133  28.422  1.00  0.00    -0.014 A 
ATOM     82  C   UNL A   1      46.623  29.422  28.009  1.00  0.00     0.009 A 
ATOM     83  C   UNL A   1      44.267  29.911  27.893  1.00  0.00     0.009 A 
ATOM     84  C   UNL A   1      46.883  30.467  27.118  1.00  0.00     0.001 A 
ATOM     85  C   UNL A   1      44.525  30.942  26.982  1.00  0.00     0.001 A 
ATOM     86  C   UNL A   1      45.834  31.228  26.605  1.00  0.00     0.000 A 
ENDBRANCH  68  81
ENDBRANCH  42  43
ENDBRANCH  34  37
ENDBRANCH  32  33
ENDBRANCH  31  32
ENDBRANCH   1  31
TORSDOF 15
ENDMDL
MODEL 2
REMARK VINA RESULT:     -12.4      3.377      8.633
REMARK SMILES COc1ccc2c(c1)c(CC(=O)NCCCNC(=O)c1ccc(-c3c4nc(c(-c5ccccc5)c5ccc([nH]5)c(-c5ccccc5)c5nc(c(-c6ccccc6)c6ccc3[nH]6)C=C5)C=C4)cc1)c(C(F)(F)F)n2C(=O)c1ccc(Cl)cc1
REMARK SMILES IDX 14 1 13 2 11 3 12 4 10 6 9 7 3 8 4 9 8 10 5 11 7 12 6 13
REMARK SMILES IDX 73 14 68 15 2 16 1 17 74 18 75 19 76 20 77 21 82 22 78 23
REMARK SMILES IDX 81 24 79 25 80 26 69 27 70 28 71 29 72 30 15 31 16 32 17 33
REMARK SMILES IDX 18 34 19 36 20 37 21 38 67 39 22 40 66 41 23 42 24 43 25 44
REMARK SMILES IDX 60 45 26 46 65 47 59 48 61 49 27 50 64 51 58 52 57 53 28 55
REMARK SMILES IDX 50 56 35 57 49 58 36 59 39 60 48 61 62 62 37 63 38 64 47 66
REMARK SMILES IDX 63 67 40 68 29 69 30 70 34 71 31 72 33 73 32 74 51 75 52 76
REMARK SMILES IDX 56 77 53 78 55 79 54 80 41 81 42 82 46 83 43 84 45 85 44 86
REMARK H PARENT 13 5 17 35 61 54 39 65
REMARK Flexibility Score: inf
ROOT
ATOM      1  C   UNL A   1      39.495  21.408  26.256  1.00  0.00     0.117 C 
ENDROOT
BRANCH   1   2
ATOM      2  N   UNL A   1      38.779  21.839  25.069  1.00  0.00    -0.356 N 
ATOM      3  C   UNL A   1      37.436  21.887  24.835  1.00  0.00     0.224 C 
ATOM      4  O   UNL A   1      37.051  22.300  23.740  1.00  0.00    -0.275 OA
ATOM      5  H   UNL A   1      39.346  22.141  24.323  1.00  0.00     0.163 HD
BRANCH   3   6
ATOM      6  C   UNL A   1      36.454  21.488  25.924  1.00  0.00     0.138 C 
BRANCH   6   7
ATOM      7  C   UNL A   1      35.023  21.456  25.459  1.00  0.00     0.000 A 
ATOM      8  C   UNL A   1      33.866  18.120  24.007  1.00  0.00     0.119 A 
ATOM      9  C   UNL A   1      32.598  18.547  23.646  1.00  0.00     0.048 A 
ATOM     10  C   UNL A   1      34.740  19.005  24.640  1.00  0.00     0.057 A 
ATOM     11  C   UNL A   1      32.188  19.861  23.893  1.00  0.00     0.031 A 
ATOM     12  C   UNL A   1      34.345  20.335  24.908  1.00  0.00     0.008 A 
ATOM     13  C   UNL A   1      33.053  20.747  24.565  1.00  0.00     0.057 A 
ATOM     14  N   UNL A   1      32.877  22.047  25.069  1.00  0.00    -0.271 N 
ATOM     15  C   UNL A   1      34.142  22.534  25.401  1.00  0.00     0.135 A 
BRANCH   8  16
ATOM     16  O   UNL A   1      34.337  16.851  23.815  1.00  0.00    -0.497 OA
ATOM     17  C   UNL A   1      34.709  16.171  25.010  1.00  0.00     0.278 C 
ENDBRANCH   8  16
BRANCH  14  18
ATOM     18  C   UNL A   1      31.639  22.718  25.264  1.00  0.00     0.262 C 
ATOM     19  O   UNL A   1      30.826  22.214  26.041  1.00  0.00    -0.268 OA
BRANCH  18  20
ATOM     20  C   UNL A   1      31.214  23.938  24.558  1.00  0.00     0.040 A 
ATOM     21  C   UNL A   1      31.481  24.086  23.192  1.00  0.00     0.015 A 
ATOM     22  C   UNL A   1      30.602  24.965  25.285  1.00  0.00     0.015 A 
ATOM     23  C   UNL A   1      31.213  25.309  22.570  1.00  0.00     0.021 A 
ATOM     24  C   UNL A   1      30.324  26.180  24.653  1.00  0.00     0.021 A 
ATOM     25  C   UNL A   1      30.650  26.354  23.307  1.00  0.00     0.041 A 
ATOM     26  Cl  UNL A   1      30.384  27.878  22.555  1.00  0.00    -0.084 Cl
ENDBRANCH  18  20
ENDBRANCH  14  18
BRANCH  15  27
ATOM     27  C   UNL A   1      34.428  23.974  25.674  1.00  0.00     0.432 C 
ATOM     28  F   UNL A   1      33.639  24.464  26.661  1.00  0.00    -0.165 F 
ATOM     29  F   UNL A   1      35.711  24.112  26.117  1.00  0.00    -0.165 F 
ATOM     30  F   UNL A   1      34.340  24.787  24.599  1.00  0.00    -0.165 F 
ENDBRANCH  15  27
ENDBRANCH   6   7
ENDBRANCH   3   6
ENDBRANCH   1   2
BRANCH   1  31
ATOM     31  C   UNL A   1      40.086  20.004  26.098  1.00  0.00     0.042 C 
BRANCH  31  32
ATOM     32  C   UNL A   1      41.486  19.868  26.701  1.00  0.00     0.118 C 
BRANCH  32  33
ATOM     33  N   UNL A   1      42.535  19.824  25.702  1.00  0.00    -0.352 N 
ATOM     34  C   UNL A   1      43.518  20.668  25.279  1.00  0.00     0.251 C 
ATOM     35  H   UNL A   1      42.538  18.973  25.205  1.00  0.00     0.163 HD
ATOM     36  O   UNL A   1      44.280  20.214  24.421  1.00  0.00    -0.269 OA
BRANCH  34  37
ATOM     37  C   UNL A   1      43.688  22.081  25.702  1.00  0.00     0.039 A 
ATOM     38  C   UNL A   1      44.580  22.546  26.667  1.00  0.00     0.014 A 
ATOM     39  C   UNL A   1      42.763  22.986  25.142  1.00  0.00     0.014 A 
ATOM     40  C   UNL A   1      44.442  23.829  27.182  1.00  0.00     0.010 A 
ATOM     41  C   UNL A   1      42.636  24.272  25.634  1.00  0.00     0.010 A 
ATOM     42  C   UNL A   1      43.415  24.655  26.718  1.00  0.00    -0.014 A 
BRANCH  42  43
ATOM     43  C   UNL A   1      43.175  25.915  27.404  1.00  0.00     0.031 A 
ATOM     44  C   UNL A   1      44.143  27.004  27.108  1.00  0.00     0.074 A 
ATOM     45  C   UNL A   1      42.099  26.105  28.194  1.00  0.00     0.049 A 
ATOM     46  N   UNL A   1      44.914  27.630  27.935  1.00  0.00    -0.248 NA
ATOM     47  C   UNL A   1      44.350  27.375  25.699  1.00  0.00     0.031 C 
ATOM     48  C   UNL A   1      40.935  25.235  28.391  1.00  0.00     0.029 A 
ATOM     49  N   UNL A   1      41.772  27.208  28.917  1.00  0.00    -0.354 N 
ATOM     50  C   UNL A   1      45.615  28.570  27.183  1.00  0.00     0.074 A 
ATOM     51  C   UNL A   1      45.307  28.297  25.801  1.00  0.00     0.031 C 
ATOM     52  C   UNL A   1      39.931  25.952  28.948  1.00  0.00     0.029 A 
ATOM     53  C   UNL A   1      40.437  27.271  29.288  1.00  0.00     0.049 A 
ATOM     54  H   UNL A   1      42.426  27.903  29.157  1.00  0.00     0.167 HD
ATOM     55  C   UNL A   1      46.280  29.613  27.753  1.00  0.00     0.031 A 
ATOM     56  C   UNL A   1      39.785  28.364  29.759  1.00  0.00     0.031 A 
ATOM     57  C   UNL A   1      46.499  29.413  29.159  1.00  0.00     0.049 A 
ATOM     58  C   UNL A   1      40.814  29.290  30.294  1.00  0.00     0.074 A 
ATOM     59  C   UNL A   1      47.224  28.499  29.898  1.00  0.00     0.029 A 
ATOM     60  N   UNL A   1      45.615  29.991  30.038  1.00  0.00    -0.354 N 
ATOM     61  N   UNL A   1      41.547  29.015  31.335  1.00  0.00    -0.248 NA
ATOM     62  C   UNL A   1      41.358  30.294  29.392  1.00  0.00     0.031 C 
ATOM     63  C   UNL A   1      46.397  28.207  31.019  1.00  0.00     0.029 A 
ATOM     64  C   UNL A   1      45.261  29.016  30.938  1.00  0.00     0.049 A 
ATOM     65  H   UNL A   1      45.298  30.923  30.026  1.00  0.00     0.167 HD
ATOM     66  C   UNL A   1      42.816  29.465  31.003  1.00  0.00     0.074 A 
ATOM     67  C   UNL A   1      42.622  30.315  29.827  1.00  0.00     0.031 C 
ATOM     68  C   UNL A   1      43.941  28.884  31.516  1.00  0.00     0.031 A 
BRANCH  55  69
ATOM     69  C   UNL A   1      46.465  30.949  27.093  1.00  0.00    -0.014 A 
ATOM     70  C   UNL A   1      45.382  31.783  26.755  1.00  0.00     0.009 A 
ATOM     71  C   UNL A   1      47.749  31.520  27.036  1.00  0.00     0.009 A 
ATOM     72  C   UNL A   1      45.563  33.117  26.382  1.00  0.00     0.001 A 
ATOM     73  C   UNL A   1      47.931  32.868  26.700  1.00  0.00     0.001 A 
ATOM     74  C   UNL A   1      46.837  33.666  26.377  1.00  0.00     0.000 A 
ENDBRANCH  55  69
BRANCH  56  75
ATOM     75  C   UNL A   1      38.445  28.832  29.330  1.00  0.00    -0.014 A 
ATOM     76  C   UNL A   1      38.251  29.303  28.017  1.00  0.00     0.009 A 
ATOM     77  C   UNL A   1      37.433  29.089  30.268  1.00  0.00     0.009 A 
ATOM     78  C   UNL A   1      37.114  30.035  27.662  1.00  0.00     0.001 A 
ATOM     79  C   UNL A   1      36.290  29.822  29.912  1.00  0.00     0.001 A 
ATOM     80  C   UNL A   1      36.139  30.307  28.614  1.00  0.00     0.000 A 
ENDBRANCH  56  75
BRANCH  68  81
ATOM     81  C   UNL A   1      43.788  27.810  32.572  1.00  0.00    -0.014 A 
ATOM     82  C   UNL A   1      43.785  28.196  33.921  1.00  0.00     0.009 A 
ATOM     83  C   UNL A   1      43.875  26.436  32.279  1.00  0.00     0.009 A 
ATOM     84  C   UNL A   1      43.891  27.248  34.942  1.00  0.00     0.001 A 
ATOM     85  C   UNL A   1      43.957  25.484  33.303  1.00  0.00     0.001 A 
ATOM     86  C   UNL A   1      43.978  25.892  34.633  1.00  0.00     0.000 A 
ENDBRANCH  68  81
ENDBRANCH  42  43
ENDBRANCH  34  37
ENDBRANCH  32  33
ENDBRANCH  31  32
ENDBRANCH   1  31
TORSDOF 15
ENDMDL
MODEL 3
REMARK VINA RESULT:     -12.1      2.473      3.879
REMARK SMILES COc1ccc2c(c1)c(CC(=O)NCCCNC(=O)c1ccc(-c3c4nc(c(-c5ccccc5)c5ccc([nH]5)c(-c5ccccc5)c5nc(c(-c6ccccc6)c6ccc3[nH]6)C=C5)C=C4)cc1)c(C(F)(F)F)n2C(=O)c1ccc(Cl)cc1
REMARK SMILES IDX 14 1 13 2 11 3 12 4 10 6 9 7 3 8 4 9 8 10 5 11 7 12 6 13
REMARK SMILES IDX 73 14 68 15 2 16 1 17 74 18 75 19 76 20 77 21 82 22 78 23
REMARK SMILES IDX 81 24 79 25 80 26 69 27 70 28 71 29 72 30 15 31 16 32 17 33
REMARK SMILES IDX 18 34 19 36 20 37 21 38 67 39 22 40 66 41 23 42 24 43 25 44
REMARK SMILES IDX 60 45 26 46 65 47 59 48 61 49 27 50 64 51 58 52 57 53 28 55
REMARK SMILES IDX 50 56 35 57 49 58 36 59 39 60 48 61 62 62 37 63 38 64 47 66
REMARK SMILES IDX 63 67 40 68 29 69 30 70 34 71 31 72 33 73 32 74 51 75 52 76
REMARK SMILES IDX 56 77 53 78 55 79 54 80 41 81 42 82 46 83 43 84 45 85 44 86
REMARK H PARENT 13 5 17 35 61 54 39 65
REMARK Flexibility Score: inf
ROOT
ATOM      1  C   UNL A   1      31.861  28.123  25.814  1.00  0.00     0.117 C 
ENDROOT
BRANCH   1   2
ATOM      2  N   UNL A   1      31.033  26.986  26.173  1.00  0.00    -0.356 N 
ATOM      3  C   UNL A   1      31.399  25.712  26.492  1.00  0.00     0.224 C 
ATOM      4  O   UNL A   1      30.511  24.904  26.773  1.00  0.00    -0.275 OA
ATOM      5  H   UNL A   1      30.064  27.161  26.190  1.00  0.00     0.163 HD
BRANCH   3   6
ATOM      6  C   UNL A   1      32.868  25.326  26.544  1.00  0.00     0.138 C 
BRANCH   6   7
ATOM      7  C   UNL A   1      33.214  24.156  25.665  1.00  0.00     0.000 A 
ATOM      8  C   UNL A   1      32.686  24.728  21.927  1.00  0.00     0.119 A 
ATOM      9  C   UNL A   1      33.020  23.444  21.531  1.00  0.00     0.048 A 
ATOM     10  C   UNL A   1      32.744  25.074  23.278  1.00  0.00     0.057 A 
ATOM     11  C   UNL A   1      33.398  22.481  22.472  1.00  0.00     0.031 A 
ATOM     12  C   UNL A   1      33.132  24.120  24.246  1.00  0.00     0.008 A 
ATOM     13  C   UNL A   1      33.495  22.834  23.832  1.00  0.00     0.057 A 
ATOM     14  N   UNL A   1      33.972  22.147  24.961  1.00  0.00    -0.271 N 
ATOM     15  C   UNL A   1      33.583  22.879  26.083  1.00  0.00     0.135 A 
BRANCH   8  16
ATOM     16  O   UNL A   1      32.321  25.730  21.070  1.00  0.00    -0.497 OA
ATOM     17  C   UNL A   1      31.521  26.750  21.660  1.00  0.00     0.278 C 
ENDBRANCH   8  16
BRANCH  14  18
ATOM     18  C   UNL A   1      34.757  20.962  24.960  1.00  0.00     0.262 C 
ATOM     19  O   UNL A   1      35.983  21.083  25.001  1.00  0.00    -0.268 OA
BRANCH  18  20
ATOM     20  C   UNL A   1      34.229  19.593  24.843  1.00  0.00     0.040 A 
ATOM     21  C   UNL A   1      32.870  19.344  25.068  1.00  0.00     0.015 A 
ATOM     22  C   UNL A   1      35.114  18.544  24.571  1.00  0.00     0.015 A 
ATOM     23  C   UNL A   1      32.412  18.024  25.108  1.00  0.00     0.021 A 
ATOM     24  C   UNL A   1      34.647  17.227  24.599  1.00  0.00     0.021 A 
ATOM     25  C   UNL A   1      33.305  16.972  24.888  1.00  0.00     0.041 A 
ATOM     26  Cl  UNL A   1      32.752  15.348  25.004  1.00  0.00    -0.084 Cl
ENDBRANCH  18  20
ENDBRANCH  14  18
BRANCH  15  27
ATOM     27  C   UNL A   1      33.620  22.341  27.476  1.00  0.00     0.432 C 
ATOM     28  F   UNL A   1      33.902  21.015  27.494  1.00  0.00    -0.165 F 
ATOM     29  F   UNL A   1      34.620  22.947  28.178  1.00  0.00    -0.165 F 
ATOM     30  F   UNL A   1      32.502  22.560  28.201  1.00  0.00    -0.165 F 
ENDBRANCH  15  27
ENDBRANCH   6   7
ENDBRANCH   3   6
ENDBRANCH   1   2
BRANCH   1  31
ATOM     31  C   UNL A   1      32.111  29.055  27.002  1.00  0.00     0.042 C 
BRANCH  31  32
ATOM     32  C   UNL A   1      33.583  29.440  27.167  1.00  0.00     0.118 C 
BRANCH  32  33
ATOM     33  N   UNL A   1      33.779  30.857  27.395  1.00  0.00    -0.352 N 
ATOM     34  C   UNL A   1      34.781  31.638  27.893  1.00  0.00     0.251 C 
ATOM     35  H   UNL A   1      32.996  31.389  27.124  1.00  0.00     0.163 HD
ATOM     36  O   UNL A   1      34.580  32.854  27.854  1.00  0.00    -0.269 OA
BRANCH  34  37
ATOM     37  C   UNL A   1      36.025  31.144  28.536  1.00  0.00     0.039 A 
ATOM     38  C   UNL A   1      37.156  31.907  28.823  1.00  0.00     0.014 A 
ATOM     39  C   UNL A   1      36.074  29.752  28.750  1.00  0.00     0.014 A 
ATOM     40  C   UNL A   1      38.353  31.280  29.151  1.00  0.00     0.010 A 
ATOM     41  C   UNL A   1      37.256  29.124  29.098  1.00  0.00     0.010 A 
ATOM     42  C   UNL A   1      38.413  29.886  29.203  1.00  0.00    -0.014 A 
BRANCH  42  43
ATOM     43  C   UNL A   1      39.713  29.253  29.359  1.00  0.00     0.031 A 
ATOM     44  C   UNL A   1      40.103  28.918  30.755  1.00  0.00     0.074 A 
ATOM     45  C   UNL A   1      40.478  28.920  28.300  1.00  0.00     0.049 A 
ATOM     46  N   UNL A   1      41.130  29.340  31.417  1.00  0.00    -0.248 NA
ATOM     47  C   UNL A   1      39.182  28.086  31.545  1.00  0.00     0.031 C 
ATOM     48  C   UNL A   1      40.140  28.950  26.873  1.00  0.00     0.029 A 
ATOM     49  N   UNL A   1      41.717  28.362  28.300  1.00  0.00    -0.354 N 
ATOM     50  C   UNL A   1      41.068  28.730  32.667  1.00  0.00     0.074 A 
ATOM     51  C   UNL A   1      39.796  28.055  32.728  1.00  0.00     0.031 C 
ATOM     52  C   UNL A   1      41.025  28.190  26.188  1.00  0.00     0.029 A 
ATOM     53  C   UNL A   1      42.071  27.761  27.101  1.00  0.00     0.049 A 
ATOM     54  H   UNL A   1      42.312  28.382  29.084  1.00  0.00     0.167 HD
ATOM     55  C   UNL A   1      42.135  28.688  33.513  1.00  0.00     0.031 A 
ATOM     56  C   UNL A   1      43.106  26.905  26.907  1.00  0.00     0.031 A 
ATOM     57  C   UNL A   1      43.149  29.641  33.156  1.00  0.00     0.049 A 
ATOM     58  C   UNL A   1      44.069  27.125  28.014  1.00  0.00     0.074 A 
ATOM     59  C   UNL A   1      43.196  31.020  33.106  1.00  0.00     0.029 A 
ATOM     60  N   UNL A   1      44.211  29.201  32.404  1.00  0.00    -0.354 N 
ATOM     61  N   UNL A   1      44.738  28.233  28.165  1.00  0.00    -0.248 NA
ATOM     62  C   UNL A   1      43.926  26.311  29.211  1.00  0.00     0.031 C 
ATOM     63  C   UNL A   1      43.940  31.312  31.928  1.00  0.00     0.029 A 
ATOM     64  C   UNL A   1      44.367  30.101  31.379  1.00  0.00     0.049 A 
ATOM     65  H   UNL A   1      44.756  28.397  32.569  1.00  0.00     0.167 HD
ATOM     66  C   UNL A   1      44.718  28.474  29.531  1.00  0.00     0.074 A 
ATOM     67  C   UNL A   1      44.273  27.215  30.132  1.00  0.00     0.031 C 
ATOM     68  C   UNL A   1      44.774  29.742  30.037  1.00  0.00     0.031 A 
BRANCH  55  69
ATOM     69  C   UNL A   1      42.388  27.573  34.487  1.00  0.00    -0.014 A 
ATOM     70  C   UNL A   1      41.785  27.528  35.759  1.00  0.00     0.009 A 
ATOM     71  C   UNL A   1      43.032  26.403  34.047  1.00  0.00     0.009 A 
ATOM     72  C   UNL A   1      41.818  26.379  36.553  1.00  0.00     0.001 A 
ATOM     73  C   UNL A   1      43.033  25.238  34.824  1.00  0.00     0.001 A 
ATOM     74  C   UNL A   1      42.422  25.226  36.075  1.00  0.00     0.000 A 
ENDBRANCH  55  69
BRANCH  56  75
ATOM     75  C   UNL A   1      43.054  25.634  26.143  1.00  0.00    -0.014 A 
ATOM     76  C   UNL A   1      42.128  24.635  26.502  1.00  0.00     0.009 A 
ATOM     77  C   UNL A   1      44.083  25.278  25.259  1.00  0.00     0.009 A 
ATOM     78  C   UNL A   1      42.246  23.324  26.031  1.00  0.00     0.001 A 
ATOM     79  C   UNL A   1      44.202  23.963  24.784  1.00  0.00     0.001 A 
ATOM     80  C   UNL A   1      43.293  22.984  25.183  1.00  0.00     0.000 A 
ENDBRANCH  56  75
BRANCH  68  81
ATOM     81  C   UNL A   1      44.995  30.897  29.083  1.00  0.00    -0.014 A 
ATOM     82  C   UNL A   1      43.996  31.181  28.139  1.00  0.00     0.009 A 
ATOM     83  C   UNL A   1      46.236  31.547  28.948  1.00  0.00     0.009 A 
ATOM     84  C   UNL A   1      44.235  32.064  27.083  1.00  0.00     0.001 A 
ATOM     85  C   UNL A   1      46.467  32.450  27.903  1.00  0.00     0.001 A 
ATOM     86  C   UNL A   1      45.470  32.698  26.964  1.00  0.00     0.000 A 
ENDBRANCH  68  81
ENDBRANCH  42  43
ENDBRANCH  34  37
ENDBRANCH  32  33
ENDBRANCH  31  32
ENDBRANCH   1  31
TORSDOF 15
ENDMDL
