MODEL 1
REMARK VINA RESULT:     -13.4      0.000      0.000
REMARK SMILES Cc1ccc(-c2nc(C)cc(N3CCCC[C@H]3C(=O)NCCCNC(=O)c3ccc(-c4c5nc(c(-c6ccccc6)c6ccc([nH]6)c(-c6ccccc6)c6nc(c(-c7ccccc7)c7ccc4[nH]7)C=C6)C=C5)cc3)n2)cc1
REMARK SMILES IDX 22 1 21 2 20 3 18 4 19 5 17 7 12 8 13 9 14 10 16 11 15 12
REMARK SMILES IDX 11 13 6 14 7 15 75 16 8 17 9 18 10 19 5 20 1 21 2 22 3 23
REMARK SMILES IDX 77 24 4 25 76 26 23 27 24 28 25 29 26 31 27 32 28 33 74 34
REMARK SMILES IDX 29 35 73 36 30 37 31 38 32 39 67 40 33 41 72 42 66 43 68 44
REMARK SMILES IDX 34 45 71 46 65 47 64 48 35 50 57 51 42 52 56 53 43 54 46 55
REMARK SMILES IDX 55 56 69 57 44 58 45 59 54 61 70 62 47 63 36 64 37 65 41 66
REMARK SMILES IDX 38 67 40 68 39 69 58 70 59 71 63 72 60 73 62 74 61 75 48 76
REMARK SMILES IDX 49 77 53 78 50 79 52 80 51 81
REMARK H PARENT 20 6 24 30 68 49 46 60
REMARK Flexibility Score: inf
ROOT
ATOM      1  C   UNL A   1      38.706  22.236  26.160  1.00  0.00     0.042 C 
ENDROOT
BRANCH   1   2
ATOM      2  C   UNL A   1      38.084  23.543  25.682  1.00  0.00     0.117 C 
BRANCH   2   3
ATOM      3  N   UNL A   1      37.360  23.355  24.437  1.00  0.00    -0.354 N 
ATOM      4  C   UNL A   1      36.129  22.887  24.110  1.00  0.00     0.242 C 
ATOM      5  O   UNL A   1      35.914  22.876  22.886  1.00  0.00    -0.273 OA
ATOM      6  H   UNL A   1      37.882  23.632  23.650  1.00  0.00     0.163 HD
BRANCH   4   7
ATOM      7  C   UNL A   1      34.981  22.478  25.095  1.00  0.00     0.173 C 
ATOM      8  N   UNL A   1      33.678  22.808  24.466  1.00  0.00    -0.344 N 
ATOM      9  C   UNL A   1      33.153  21.869  23.480  1.00  0.00     0.119 C 
ATOM     10  C   UNL A   1      32.980  20.483  24.088  1.00  0.00     0.022 C 
ATOM     11  C   UNL A   1      34.853  21.072  25.698  1.00  0.00     0.035 C 
ATOM     12  C   UNL A   1      34.266  20.018  24.757  1.00  0.00     0.004 C 
BRANCH   8  13
ATOM     13  C   UNL A   1      32.754  23.516  25.219  1.00  0.00     0.133 A 
ATOM     14  C   UNL A   1      32.100  25.450  26.263  1.00  0.00     0.161 A 
ATOM     15  N   UNL A   1      31.009  24.892  26.815  1.00  0.00    -0.233 NA
ATOM     16  N   UNL A   1      32.985  24.811  25.478  1.00  0.00    -0.211 NA
ATOM     17  C   UNL A   1      30.789  23.596  26.523  1.00  0.00     0.043 A 
ATOM     18  C   UNL A   1      29.582  22.965  27.145  1.00  0.00     0.067 C 
ATOM     19  C   UNL A   1      31.639  22.868  25.714  1.00  0.00     0.070 A 
BRANCH  14  20
ATOM     20  C   UNL A   1      32.336  26.873  26.514  1.00  0.00     0.019 A 
ATOM     21  C   UNL A   1      33.047  31.076  27.280  1.00  0.00     0.044 C 
ATOM     22  C   UNL A   1      32.794  29.620  27.022  1.00  0.00    -0.051 A 
ATOM     23  C   UNL A   1      33.774  28.839  26.400  1.00  0.00     0.004 A 
ATOM     24  C   UNL A   1      31.578  29.026  27.378  1.00  0.00     0.004 A 
ATOM     25  C   UNL A   1      33.550  27.480  26.159  1.00  0.00     0.012 A 
ATOM     26  C   UNL A   1      31.352  27.671  27.119  1.00  0.00     0.012 A 
ENDBRANCH  14  20
ENDBRANCH   8  13
ENDBRANCH   4   7
ENDBRANCH   2   3
ENDBRANCH   1   2
BRANCH   1  27
ATOM     27  C   UNL A   1      40.203  22.319  26.427  1.00  0.00     0.118 C 
BRANCH  27  28
ATOM     28  N   UNL A   1      40.983  21.285  25.744  1.00  0.00    -0.352 N 
ATOM     29  C   UNL A   1      42.339  21.008  25.871  1.00  0.00     0.251 C 
ATOM     30  H   UNL A   1      40.484  20.715  25.116  1.00  0.00     0.163 HD
ATOM     31  O   UNL A   1      42.846  20.046  25.329  1.00  0.00    -0.269 OA
BRANCH  29  32
ATOM     32  C   UNL A   1      43.121  21.848  26.806  1.00  0.00     0.039 A 
ATOM     33  C   UNL A   1      42.844  21.705  28.167  1.00  0.00     0.014 A 
ATOM     34  C   UNL A   1      43.794  22.967  26.321  1.00  0.00     0.014 A 
ATOM     35  C   UNL A   1      42.968  22.815  28.991  1.00  0.00     0.010 A 
ATOM     36  C   UNL A   1      43.820  24.099  27.114  1.00  0.00     0.010 A 
ATOM     37  C   UNL A   1      43.316  24.041  28.418  1.00  0.00    -0.014 A 
BRANCH  37  38
ATOM     38  C   UNL A   1      43.021  25.307  29.082  1.00  0.00     0.031 A 
ATOM     39  C   UNL A   1      41.830  26.085  28.687  1.00  0.00     0.074 A 
ATOM     40  C   UNL A   1      43.858  25.796  30.029  1.00  0.00     0.049 A 
ATOM     41  N   UNL A   1      41.767  27.374  28.680  1.00  0.00    -0.248 NA
ATOM     42  C   UNL A   1      40.618  25.441  28.194  1.00  0.00     0.031 C 
ATOM     43  C   UNL A   1      43.639  26.976  30.863  1.00  0.00     0.029 A 
ATOM     44  N   UNL A   1      45.195  25.459  30.272  1.00  0.00    -0.354 N 
ATOM     45  C   UNL A   1      40.446  27.716  28.483  1.00  0.00     0.074 A 
ATOM     46  C   UNL A   1      39.798  26.489  28.082  1.00  0.00     0.031 C 
ATOM     47  C   UNL A   1      44.834  27.449  31.254  1.00  0.00     0.029 A 
ATOM     48  C   UNL A   1      45.853  26.660  30.580  1.00  0.00     0.049 A 
ATOM     49  H   UNL A   1      45.594  24.560  30.234  1.00  0.00     0.167 HD
ATOM     50  C   UNL A   1      40.005  28.959  28.831  1.00  0.00     0.031 A 
ATOM     51  C   UNL A   1      46.892  27.168  29.857  1.00  0.00     0.031 A 
ATOM     52  C   UNL A   1      41.094  29.815  29.296  1.00  0.00     0.049 A 
ATOM     53  C   UNL A   1      46.621  28.558  29.312  1.00  0.00     0.074 A 
ATOM     54  C   UNL A   1      41.522  30.183  30.562  1.00  0.00     0.029 A 
ATOM     55  N   UNL A   1      42.103  30.189  28.416  1.00  0.00    -0.354 N 
ATOM     56  N   UNL A   1      45.437  29.104  29.276  1.00  0.00    -0.248 NA
ATOM     57  C   UNL A   1      47.640  29.402  28.689  1.00  0.00     0.031 C 
ATOM     58  C   UNL A   1      42.838  30.700  30.447  1.00  0.00     0.029 A 
ATOM     59  C   UNL A   1      43.193  30.675  29.110  1.00  0.00     0.049 A 
ATOM     60  H   UNL A   1      42.047  30.115  27.436  1.00  0.00     0.167 HD
ATOM     61  C   UNL A   1      45.508  30.309  28.631  1.00  0.00     0.074 A 
ATOM     62  C   UNL A   1      46.911  30.462  28.295  1.00  0.00     0.031 C 
ATOM     63  C   UNL A   1      44.401  31.070  28.400  1.00  0.00     0.031 A 
BRANCH  50  64
ATOM     64  C   UNL A   1      38.542  29.282  29.055  1.00  0.00    -0.014 A 
ATOM     65  C   UNL A   1      37.772  29.798  27.994  1.00  0.00     0.009 A 
ATOM     66  C   UNL A   1      37.879  29.175  30.290  1.00  0.00     0.009 A 
ATOM     67  C   UNL A   1      36.471  30.286  28.183  1.00  0.00     0.001 A 
ATOM     68  C   UNL A   1      36.594  29.700  30.498  1.00  0.00     0.001 A 
ATOM     69  C   UNL A   1      35.896  30.271  29.445  1.00  0.00     0.000 A 
ENDBRANCH  50  64
BRANCH  51  70
ATOM     70  C   UNL A   1      47.731  26.159  29.159  1.00  0.00    -0.014 A 
ATOM     71  C   UNL A   1      47.429  25.838  27.823  1.00  0.00     0.009 A 
ATOM     72  C   UNL A   1      48.975  25.773  29.678  1.00  0.00     0.009 A 
ATOM     73  C   UNL A   1      48.383  25.232  27.000  1.00  0.00     0.001 A 
ATOM     74  C   UNL A   1      49.926  25.166  28.851  1.00  0.00     0.001 A 
ATOM     75  C   UNL A   1      49.643  24.925  27.506  1.00  0.00     0.000 A 
ENDBRANCH  51  70
BRANCH  63  76
ATOM     76  C   UNL A   1      44.355  32.296  27.530  1.00  0.00    -0.014 A 
ATOM     77  C   UNL A   1      44.438  32.262  26.132  1.00  0.00     0.009 A 
ATOM     78  C   UNL A   1      44.066  33.543  28.126  1.00  0.00     0.009 A 
ATOM     79  C   UNL A   1      44.283  33.427  25.368  1.00  0.00     0.001 A 
ATOM     80  C   UNL A   1      43.872  34.698  27.366  1.00  0.00     0.001 A 
ATOM     81  C   UNL A   1      43.990  34.641  25.984  1.00  0.00     0.000 A 
ENDBRANCH  63  76
ENDBRANCH  37  38
ENDBRANCH  29  32
ENDBRANCH  27  28
ENDBRANCH   1  27
TORSDOF 12
ENDMDL
MODEL 2
REMARK VINA RESULT:     -13.4      2.314      4.111
REMARK SMILES Cc1ccc(-c2nc(C)cc(N3CCCC[C@H]3C(=O)NCCCNC(=O)c3ccc(-c4c5nc(c(-c6ccccc6)c6ccc([nH]6)c(-c6ccccc6)c6nc(c(-c7ccccc7)c7ccc4[nH]7)C=C6)C=C5)cc3)n2)cc1
REMARK SMILES IDX 22 1 21 2 20 3 18 4 19 5 17 7 12 8 13 9 14 10 16 11 15 12
REMARK SMILES IDX 11 13 6 14 7 15 75 16 8 17 9 18 10 19 5 20 1 21 2 22 3 23
REMARK SMILES IDX 77 24 4 25 76 26 23 27 24 28 25 29 26 31 27 32 28 33 74 34
REMARK SMILES IDX 29 35 73 36 30 37 31 38 32 39 67 40 33 41 72 42 66 43 68 44
REMARK SMILES IDX 34 45 71 46 65 47 64 48 35 50 57 51 42 52 56 53 43 54 46 55
REMARK SMILES IDX 55 56 69 57 44 58 45 59 54 61 70 62 47 63 36 64 37 65 41 66
REMARK SMILES IDX 38 67 40 68 39 69 58 70 59 71 63 72 60 73 62 74 61 75 48 76
REMARK SMILES IDX 49 77 53 78 50 79 52 80 51 81
REMARK H PARENT 20 6 24 30 68 49 46 60
REMARK Flexibility Score: inf
ROOT
ATOM      1  C   UNL A   1      39.366  21.395  25.783  1.00  0.00     0.042 C 
ENDROOT
BRANCH   1   2
ATOM      2  C   UNL A   1      37.970  20.964  25.350  1.00  0.00     0.117 C 
BRANCH   2   3
ATOM      3  N   UNL A   1      37.352  21.966  24.500  1.00  0.00    -0.354 N 
ATOM      4  C   UNL A   1      36.092  22.450  24.354  1.00  0.00     0.242 C 
ATOM      5  O   UNL A   1      35.994  23.313  23.466  1.00  0.00    -0.273 OA
ATOM      6  H   UNL A   1      37.994  22.392  23.889  1.00  0.00     0.163 HD
BRANCH   4   7
ATOM      7  C   UNL A   1      34.841  22.106  25.234  1.00  0.00     0.173 C 
ATOM      8  N   UNL A   1      33.625  22.591  24.535  1.00  0.00    -0.344 N 
ATOM      9  C   UNL A   1      33.089  21.759  23.463  1.00  0.00     0.119 C 
ATOM     10  C   UNL A   1      32.743  20.367  23.979  1.00  0.00     0.022 C 
ATOM     11  C   UNL A   1      34.538  20.690  25.746  1.00  0.00     0.035 C 
ATOM     12  C   UNL A   1      33.927  19.747  24.709  1.00  0.00     0.004 C 
BRANCH   8  13
ATOM     13  C   UNL A   1      32.718  23.348  25.261  1.00  0.00     0.133 A 
ATOM     14  C   UNL A   1      32.122  25.324  26.259  1.00  0.00     0.161 A 
ATOM     15  N   UNL A   1      31.003  24.818  26.806  1.00  0.00    -0.233 NA
ATOM     16  N   UNL A   1      32.992  24.638  25.500  1.00  0.00    -0.211 NA
ATOM     17  C   UNL A   1      30.738  23.525  26.535  1.00  0.00     0.043 A 
ATOM     18  C   UNL A   1      29.501  22.951  27.151  1.00  0.00     0.067 C 
ATOM     19  C   UNL A   1      31.573  22.751  25.752  1.00  0.00     0.070 A 
BRANCH  14  20
ATOM     20  C   UNL A   1      32.406  26.742  26.488  1.00  0.00     0.019 A 
ATOM     21  C   UNL A   1      33.235  30.942  27.140  1.00  0.00     0.044 C 
ATOM     22  C   UNL A   1      32.955  29.487  26.906  1.00  0.00    -0.051 A 
ATOM     23  C   UNL A   1      31.720  28.944  27.279  1.00  0.00     0.004 A 
ATOM     24  C   UNL A   1      33.920  28.651  26.335  1.00  0.00     0.004 A 
ATOM     25  C   UNL A   1      31.447  27.590  27.062  1.00  0.00     0.012 A 
ATOM     26  C   UNL A   1      33.649  27.294  26.136  1.00  0.00     0.012 A 
ENDBRANCH  14  20
ENDBRANCH   8  13
ENDBRANCH   4   7
ENDBRANCH   2   3
ENDBRANCH   1   2
BRANCH   1  27
ATOM     27  C   UNL A   1      39.415  22.757  26.464  1.00  0.00     0.118 C 
BRANCH  27  28
ATOM     28  N   UNL A   1      40.705  23.060  27.086  1.00  0.00    -0.352 N 
ATOM     29  C   UNL A   1      41.121  24.255  27.661  1.00  0.00     0.251 C 
ATOM     30  H   UNL A   1      41.360  22.326  27.097  1.00  0.00     0.163 HD
ATOM     31  O   UNL A   1      42.183  24.344  28.246  1.00  0.00    -0.269 OA
BRANCH  29  32
ATOM     32  C   UNL A   1      40.161  25.382  27.661  1.00  0.00     0.039 A 
ATOM     33  C   UNL A   1      40.524  26.520  26.938  1.00  0.00     0.014 A 
ATOM     34  C   UNL A   1      39.163  25.431  28.631  1.00  0.00     0.014 A 
ATOM     35  C   UNL A   1      40.106  27.761  27.399  1.00  0.00     0.010 A 
ATOM     36  C   UNL A   1      38.831  26.668  29.152  1.00  0.00     0.010 A 
ATOM     37  C   UNL A   1      39.382  27.825  28.592  1.00  0.00    -0.014 A 
BRANCH  37  38
ATOM     38  C   UNL A   1      39.310  29.054  29.378  1.00  0.00     0.031 A 
ATOM     39  C   UNL A   1      38.318  30.090  29.033  1.00  0.00     0.074 A 
ATOM     40  C   UNL A   1      40.178  29.267  30.396  1.00  0.00     0.049 A 
ATOM     41  N   UNL A   1      38.511  31.360  29.161  1.00  0.00    -0.248 NA
ATOM     42  C   UNL A   1      37.029  29.756  28.438  1.00  0.00     0.031 C 
ATOM     43  C   UNL A   1      40.155  30.380  31.344  1.00  0.00     0.029 A 
ATOM     44  N   UNL A   1      41.408  28.646  30.642  1.00  0.00    -0.354 N 
ATOM     45  C   UNL A   1      37.296  31.979  28.962  1.00  0.00     0.074 A 
ATOM     46  C   UNL A   1      36.439  30.953  28.414  1.00  0.00     0.031 C 
ATOM     47  C   UNL A   1      41.398  30.560  31.818  1.00  0.00     0.029 A 
ATOM     48  C   UNL A   1      42.274  29.653  31.095  1.00  0.00     0.049 A 
ATOM     49  H   UNL A   1      41.623  27.693  30.520  1.00  0.00     0.167 HD
ATOM     50  C   UNL A   1      37.092  33.246  29.427  1.00  0.00     0.031 A 
ATOM     51  C   UNL A   1      43.428  30.009  30.462  1.00  0.00     0.031 A 
ATOM     52  C   UNL A   1      38.304  33.814  30.013  1.00  0.00     0.049 A 
ATOM     53  C   UNL A   1      43.465  31.472  30.060  1.00  0.00     0.074 A 
ATOM     54  C   UNL A   1      38.732  33.961  31.323  1.00  0.00     0.029 A 
ATOM     55  N   UNL A   1      39.409  34.061  29.209  1.00  0.00    -0.354 N 
ATOM     56  N   UNL A   1      42.416  32.246  30.047  1.00  0.00    -0.248 NA
ATOM     57  C   UNL A   1      44.661  32.150  29.562  1.00  0.00     0.031 C 
ATOM     58  C   UNL A   1      40.128  34.211  31.304  1.00  0.00     0.029 A 
ATOM     59  C   UNL A   1      40.538  34.246  29.983  1.00  0.00     0.049 A 
ATOM     60  H   UNL A   1      39.390  34.097  28.225  1.00  0.00     0.167 HD
ATOM     61  C   UNL A   1      42.756  33.469  29.536  1.00  0.00     0.074 A 
ATOM     62  C   UNL A   1      44.177  33.368  29.261  1.00  0.00     0.031 C 
ATOM     63  C   UNL A   1      41.834  34.458  29.355  1.00  0.00     0.031 A 
BRANCH  50  64
ATOM     64  C   UNL A   1      35.712  33.834  29.641  1.00  0.00    -0.014 A 
ATOM     65  C   UNL A   1      34.972  34.293  28.534  1.00  0.00     0.009 A 
ATOM     66  C   UNL A   1      35.113  34.033  30.896  1.00  0.00     0.009 A 
ATOM     67  C   UNL A   1      33.775  35.010  28.680  1.00  0.00     0.001 A 
ATOM     68  C   UNL A   1      33.939  34.785  31.055  1.00  0.00     0.001 A 
ATOM     69  C   UNL A   1      33.278  35.288  29.945  1.00  0.00     0.000 A 
ENDBRANCH  50  64
BRANCH  51  70
ATOM     70  C   UNL A   1      44.085  28.926  29.686  1.00  0.00    -0.014 A 
ATOM     71  C   UNL A   1      44.806  27.938  30.381  1.00  0.00     0.009 A 
ATOM     72  C   UNL A   1      43.741  28.688  28.347  1.00  0.00     0.009 A 
ATOM     73  C   UNL A   1      45.092  26.706  29.785  1.00  0.00     0.001 A 
ATOM     74  C   UNL A   1      44.030  27.454  27.754  1.00  0.00     0.001 A 
ATOM     75  C   UNL A   1      44.675  26.453  28.481  1.00  0.00     0.000 A 
ENDBRANCH  51  70
BRANCH  63  76
ATOM     76  C   UNL A   1      42.076  35.747  28.620  1.00  0.00    -0.014 A 
ATOM     77  C   UNL A   1      42.245  36.985  29.254  1.00  0.00     0.009 A 
ATOM     78  C   UNL A   1      42.295  35.705  27.226  1.00  0.00     0.009 A 
ATOM     79  C   UNL A   1      42.573  38.135  28.523  1.00  0.00     0.001 A 
ATOM     80  C   UNL A   1      42.660  36.841  26.501  1.00  0.00     0.001 A 
ATOM     81  C   UNL A   1      42.790  38.061  27.150  1.00  0.00     0.000 A 
ENDBRANCH  63  76
ENDBRANCH  37  38
ENDBRANCH  29  32
ENDBRANCH  27  28
ENDBRANCH   1  27
TORSDOF 12
ENDMDL
MODEL 3
REMARK VINA RESULT:     -13.3      3.249      8.283
REMARK SMILES Cc1ccc(-c2nc(C)cc(N3CCCC[C@H]3C(=O)NCCCNC(=O)c3ccc(-c4c5nc(c(-c6ccccc6)c6ccc([nH]6)c(-c6ccccc6)c6nc(c(-c7ccccc7)c7ccc4[nH]7)C=C6)C=C5)cc3)n2)cc1
REMARK SMILES IDX 22 1 21 2 20 3 18 4 19 5 17 7 12 8 13 9 14 10 16 11 15 12
REMARK SMILES IDX 11 13 6 14 7 15 75 16 8 17 9 18 10 19 5 20 1 21 2 22 3 23
REMARK SMILES IDX 77 24 4 25 76 26 23 27 24 28 25 29 26 31 27 32 28 33 74 34
REMARK SMILES IDX 29 35 73 36 30 37 31 38 32 39 67 40 33 41 72 42 66 43 68 44
REMARK SMILES IDX 34 45 71 46 65 47 64 48 35 50 57 51 42 52 56 53 43 54 46 55
REMARK SMILES IDX 55 56 69 57 44 58 45 59 54 61 70 62 47 63 36 64 37 65 41 66
REMARK SMILES IDX 38 67 40 68 39 69 58 70 59 71 63 72 60 73 62 74 61 75 48 76
REMARK SMILES IDX 49 77 53 78 50 79 52 80 51 81
REMARK H PARENT 20 6 24 30 68 49 46 60
REMARK Flexibility Score: inf
ROOT
ATOM      1  C   UNL A   1      34.324  31.004  27.403  1.00  0.00     0.042 C 
ENDROOT
BRANCH   1   2
ATOM      2  C   UNL A   1      32.825  30.863  27.164  1.00  0.00     0.117 C 
BRANCH   2   3
ATOM      3  N   UNL A   1      32.377  29.507  27.423  1.00  0.00    -0.354 N 
ATOM      4  C   UNL A   1      32.063  28.439  26.645  1.00  0.00     0.242 C 
ATOM      5  O   UNL A   1      31.692  27.447  27.294  1.00  0.00    -0.273 OA
ATOM      6  H   UNL A   1      32.280  29.317  28.384  1.00  0.00     0.163 HD
BRANCH   4   7
ATOM      7  C   UNL A   1      32.218  28.326  25.090  1.00  0.00     0.173 C 
ATOM      8  N   UNL A   1      31.595  27.055  24.644  1.00  0.00    -0.344 N 
ATOM      9  C   UNL A   1      30.144  27.035  24.492  1.00  0.00     0.119 C 
ATOM     10  C   UNL A   1      29.689  28.092  23.493  1.00  0.00     0.022 C 
ATOM     11  C   UNL A   1      31.758  29.424  24.118  1.00  0.00     0.035 C 
ATOM     12  C   UNL A   1      30.252  29.460  23.852  1.00  0.00     0.004 C 
BRANCH   8  13
ATOM     13  C   UNL A   1      32.330  26.232  23.805  1.00  0.00     0.133 A 
ATOM     14  C   UNL A   1      34.085  24.798  23.459  1.00  0.00     0.161 A 
ATOM     15  N   UNL A   1      33.872  24.709  22.135  1.00  0.00    -0.233 NA
ATOM     16  N   UNL A   1      33.357  25.537  24.313  1.00  0.00    -0.211 NA
ATOM     17  C   UNL A   1      32.823  25.402  21.651  1.00  0.00     0.043 A 
ATOM     18  C   UNL A   1      32.587  25.317  20.175  1.00  0.00     0.067 C 
ATOM     19  C   UNL A   1      32.014  26.174  22.461  1.00  0.00     0.070 A 
BRANCH  14  20
ATOM     20  C   UNL A   1      35.183  24.012  24.024  1.00  0.00     0.019 A 
ATOM     21  C   UNL A   1      38.414  21.663  25.699  1.00  0.00     0.044 C 
ATOM     22  C   UNL A   1      37.291  22.478  25.128  1.00  0.00    -0.051 A 
ATOM     23  C   UNL A   1      36.890  22.284  23.802  1.00  0.00     0.004 A 
ATOM     24  C   UNL A   1      36.644  23.451  25.897  1.00  0.00     0.004 A 
ATOM     25  C   UNL A   1      35.842  23.035  23.261  1.00  0.00     0.012 A 
ATOM     26  C   UNL A   1      35.608  24.212  25.347  1.00  0.00     0.012 A 
ENDBRANCH  14  20
ENDBRANCH   8  13
ENDBRANCH   4   7
ENDBRANCH   2   3
ENDBRANCH   1   2
BRANCH   1  27
ATOM     27  C   UNL A   1      34.713  31.126  28.870  1.00  0.00     0.118 C 
BRANCH  27  28
ATOM     28  N   UNL A   1      35.866  31.996  29.105  1.00  0.00    -0.352 N 
ATOM     29  C   UNL A   1      37.215  31.666  29.052  1.00  0.00     0.251 C 
ATOM     30  H   UNL A   1      35.661  32.932  29.329  1.00  0.00     0.163 HD
ATOM     31  O   UNL A   1      38.082  32.511  29.159  1.00  0.00    -0.269 OA
BRANCH  29  32
ATOM     32  C   UNL A   1      37.562  30.266  28.720  1.00  0.00     0.039 A 
ATOM     33  C   UNL A   1      37.774  29.396  29.791  1.00  0.00     0.014 A 
ATOM     34  C   UNL A   1      38.020  29.960  27.440  1.00  0.00     0.014 A 
ATOM     35  C   UNL A   1      38.704  28.376  29.645  1.00  0.00     0.010 A 
ATOM     36  C   UNL A   1      39.019  29.012  27.322  1.00  0.00     0.010 A 
ATOM     37  C   UNL A   1      39.424  28.291  28.450  1.00  0.00    -0.014 A 
BRANCH  37  38
ATOM     38  C   UNL A   1      40.701  27.586  28.376  1.00  0.00     0.031 A 
ATOM     39  C   UNL A   1      40.724  26.119  28.222  1.00  0.00     0.074 A 
ATOM     40  C   UNL A   1      41.867  28.268  28.491  1.00  0.00     0.049 A 
ATOM     41  N   UNL A   1      41.615  25.342  28.740  1.00  0.00    -0.248 NA
ATOM     42  C   UNL A   1      39.672  25.402  27.510  1.00  0.00     0.031 C 
ATOM     43  C   UNL A   1      43.214  27.728  28.316  1.00  0.00     0.029 A 
ATOM     44  N   UNL A   1      42.086  29.543  29.023  1.00  0.00    -0.354 N 
ATOM     45  C   UNL A   1      41.436  24.091  28.190  1.00  0.00     0.074 A 
ATOM     46  C   UNL A   1      40.157  24.158  27.520  1.00  0.00     0.031 C 
ATOM     47  C   UNL A   1      44.072  28.493  29.010  1.00  0.00     0.029 A 
ATOM     48  C   UNL A   1      43.285  29.467  29.749  1.00  0.00     0.049 A 
ATOM     49  H   UNL A   1      41.512  30.336  28.912  1.00  0.00     0.167 HD
ATOM     50  C   UNL A   1      42.451  23.180  28.220  1.00  0.00     0.031 A 
ATOM     51  C   UNL A   1      43.384  29.708  31.088  1.00  0.00     0.031 A 
ATOM     52  C   UNL A   1      43.607  23.676  28.965  1.00  0.00     0.049 A 
ATOM     53  C   UNL A   1      43.939  28.532  31.869  1.00  0.00     0.074 A 
ATOM     54  C   UNL A   1      44.813  24.230  28.564  1.00  0.00     0.029 A 
ATOM     55  N   UNL A   1      43.498  23.916  30.329  1.00  0.00    -0.354 N 
ATOM     56  N   UNL A   1      44.041  27.324  31.387  1.00  0.00    -0.248 NA
ATOM     57  C   UNL A   1      44.338  28.604  33.274  1.00  0.00     0.031 C 
ATOM     58  C   UNL A   1      45.388  24.884  29.683  1.00  0.00     0.029 A 
ATOM     59  C   UNL A   1      44.548  24.700  30.766  1.00  0.00     0.049 A 
ATOM     60  H   UNL A   1      42.774  23.575  30.902  1.00  0.00     0.167 HD
ATOM     61  C   UNL A   1      44.472  26.474  32.369  1.00  0.00     0.074 A 
ATOM     62  C   UNL A   1      44.661  27.323  33.531  1.00  0.00     0.031 C 
ATOM     63  C   UNL A   1      44.613  25.135  32.154  1.00  0.00     0.031 A 
BRANCH  50  64
ATOM     64  C   UNL A   1      42.510  21.980  27.298  1.00  0.00    -0.014 A 
ATOM     65  C   UNL A   1      41.722  20.847  27.579  1.00  0.00     0.009 A 
ATOM     66  C   UNL A   1      43.364  21.866  26.187  1.00  0.00     0.009 A 
ATOM     67  C   UNL A   1      41.867  19.643  26.874  1.00  0.00     0.001 A 
ATOM     68  C   UNL A   1      43.546  20.654  25.504  1.00  0.00     0.001 A 
ATOM     69  C   UNL A   1      42.807  19.536  25.860  1.00  0.00     0.000 A 
ENDBRANCH  50  64
BRANCH  51  70
ATOM     70  C   UNL A   1      42.385  30.662  31.634  1.00  0.00    -0.014 A 
ATOM     71  C   UNL A   1      41.142  30.165  32.068  1.00  0.00     0.009 A 
ATOM     72  C   UNL A   1      42.761  31.957  32.018  1.00  0.00     0.009 A 
ATOM     73  C   UNL A   1      40.340  30.905  32.942  1.00  0.00     0.001 A 
ATOM     74  C   UNL A   1      41.954  32.696  32.892  1.00  0.00     0.001 A 
ATOM     75  C   UNL A   1      40.762  32.158  33.379  1.00  0.00     0.000 A 
ENDBRANCH  51  70
BRANCH  63  76
ATOM     76  C   UNL A   1      44.882  24.108  33.218  1.00  0.00    -0.014 A 
ATOM     77  C   UNL A   1      43.983  23.091  33.565  1.00  0.00     0.009 A 
ATOM     78  C   UNL A   1      46.164  24.059  33.807  1.00  0.00     0.009 A 
ATOM     79  C   UNL A   1      44.332  22.098  34.490  1.00  0.00     0.001 A 
ATOM     80  C   UNL A   1      46.529  23.049  34.700  1.00  0.00     0.001 A 
ATOM     81  C   UNL A   1      45.607  22.072  35.049  1.00  0.00     0.000 A 
ENDBRANCH  63  76
ENDBRANCH  37  38
ENDBRANCH  29  32
ENDBRANCH  27  28
ENDBRANCH   1  27
TORSDOF 12
ENDMDL
