MODEL 1
REMARK VINA RESULT:     -12.5      0.000      0.000
REMARK SMILES O=C(Cn1nc(-c2ccc(Br)cc2)ccc1=O)N[C@H](C(=O)NCCCNC(=O)c1ccc(-c2c3nc(c(-c4ccccc4)c4ccc([nH]4)c(-c4ccccc4)c4nc(c(-c5ccccc5)c5ccc2[nH]5)C=C4)C=C3)cc1)c1ccccc1
REMARK SMILES IDX 23 1 22 2 20 3 21 4 19 6 18 7 1 8 2 9 3 11 4 12 5 13 16 14
REMARK SMILES IDX 6 15 15 16 17 17 14 18 7 19 8 20 13 21 9 22 12 23 10 24
REMARK SMILES IDX 11 25 77 26 78 27 82 28 79 29 81 30 80 31 24 32 25 33 26 34
REMARK SMILES IDX 27 35 28 37 29 38 30 39 76 40 31 41 75 42 32 43 33 44 34 45
REMARK SMILES IDX 69 46 35 47 74 48 68 49 70 50 36 51 73 52 67 53 66 54 37 56
REMARK SMILES IDX 59 57 44 58 58 59 45 60 48 61 57 62 71 63 46 64 47 65 56 67
REMARK SMILES IDX 72 68 49 69 38 70 39 71 43 72 40 73 42 74 41 75 60 76 61 77
REMARK SMILES IDX 65 78 62 79 64 80 63 81 50 82 51 83 55 84 52 85 54 86 53 87
REMARK H PARENT 22 5 18 10 26 36 70 55 48 66
REMARK Flexibility Score: inf
ROOT
ATOM      1  C   UNL A   1      32.126  30.077  25.396  1.00  0.00     0.117 C 
ENDROOT
BRANCH   1   2
ATOM      2  N   UNL A   1      31.685  28.730  25.693  1.00  0.00    -0.354 N 
ATOM      3  C   UNL A   1      31.143  27.775  24.871  1.00  0.00     0.247 C 
ATOM      4  O   UNL A   1      30.666  26.787  25.434  1.00  0.00    -0.272 OA
ATOM      5  H   UNL A   1      31.791  28.456  26.633  1.00  0.00     0.163 HD
BRANCH   3   6
ATOM      6  C   UNL A   1      31.104  28.017  23.330  1.00  0.00     0.202 C 
BRANCH   6   7
ATOM      7  N   UNL A   1      31.389  26.776  22.595  1.00  0.00    -0.339 N 
ATOM      8  O   UNL A   1      33.653  27.079  22.456  1.00  0.00    -0.273 OA
ATOM      9  C   UNL A   1      32.673  26.347  22.332  1.00  0.00     0.242 C 
ATOM     10  H   UNL A   1      30.634  26.229  22.279  1.00  0.00     0.164 HD
BRANCH   9  11
ATOM     11  C   UNL A   1      32.813  24.950  21.720  1.00  0.00     0.248 C 
BRANCH  11  12
ATOM     12  N   UNL A   1      32.971  23.864  22.688  1.00  0.00    -0.220 N 
ATOM     13  N   UNL A   1      34.261  23.596  23.101  1.00  0.00    -0.169 NA
ATOM     14  C   UNL A   1      31.847  23.362  23.332  1.00  0.00     0.267 A 
ATOM     15  C   UNL A   1      34.412  22.737  24.060  1.00  0.00     0.091 A 
ATOM     16  C   UNL A   1      32.086  22.276  24.304  1.00  0.00     0.075 A 
ATOM     17  O   UNL A   1      30.695  23.728  23.125  1.00  0.00    -0.268 OA
ATOM     18  C   UNL A   1      33.325  21.948  24.669  1.00  0.00     0.036 A 
BRANCH  15  19
ATOM     19  C   UNL A   1      35.742  22.559  24.668  1.00  0.00     0.002 A 
ATOM     20  C   UNL A   1      36.300  21.275  24.652  1.00  0.00     0.011 A 
ATOM     21  C   UNL A   1      36.439  23.635  25.222  1.00  0.00     0.011 A 
ATOM     22  C   UNL A   1      37.571  21.066  25.184  1.00  0.00     0.016 A 
ATOM     23  C   UNL A   1      37.708  23.418  25.765  1.00  0.00     0.016 A 
ATOM     24  C   UNL A   1      38.269  22.138  25.740  1.00  0.00     0.018 A 
ATOM     25  Br  UNL A   1      39.990  21.854  26.468  1.00  0.00    -0.051 Br
ENDBRANCH  15  19
ENDBRANCH  11  12
ENDBRANCH   9  11
ENDBRANCH   6   7
BRANCH   6  26
ATOM     26  C   UNL A   1      29.895  28.799  22.810  1.00  0.00    -0.016 A 
ATOM     27  C   UNL A   1      30.041  29.950  22.017  1.00  0.00     0.006 A 
ATOM     28  C   UNL A   1      28.589  28.446  23.190  1.00  0.00     0.006 A 
ATOM     29  C   UNL A   1      28.936  30.682  21.574  1.00  0.00     0.000 A 
ATOM     30  C   UNL A   1      27.480  29.177  22.751  1.00  0.00     0.000 A 
ATOM     31  C   UNL A   1      27.653  30.293  21.938  1.00  0.00     0.000 A 
ENDBRANCH   6  26
ENDBRANCH   3   6
ENDBRANCH   1   2
BRANCH   1  32
ATOM     32  C   UNL A   1      31.711  31.060  26.490  1.00  0.00     0.042 C 
BRANCH  32  33
ATOM     33  C   UNL A   1      32.860  31.875  27.083  1.00  0.00     0.118 C 
BRANCH  33  34
ATOM     34  N   UNL A   1      32.494  33.250  27.400  1.00  0.00    -0.352 N 
ATOM     35  C   UNL A   1      33.072  34.146  28.270  1.00  0.00     0.251 C 
ATOM     36  H   UNL A   1      31.709  33.592  26.914  1.00  0.00     0.163 HD
ATOM     37  O   UNL A   1      32.529  35.229  28.476  1.00  0.00    -0.269 OA
BRANCH  35  38
ATOM     38  C   UNL A   1      34.315  33.801  28.996  1.00  0.00     0.039 A 
ATOM     39  C   UNL A   1      35.568  34.154  28.494  1.00  0.00     0.014 A 
ATOM     40  C   UNL A   1      34.221  33.105  30.205  1.00  0.00     0.014 A 
ATOM     41  C   UNL A   1      36.718  33.651  29.096  1.00  0.00     0.010 A 
ATOM     42  C   UNL A   1      35.381  32.673  30.856  1.00  0.00     0.010 A 
ATOM     43  C   UNL A   1      36.638  32.889  30.274  1.00  0.00    -0.014 A 
BRANCH  43  44
ATOM     44  C   UNL A   1      37.879  32.314  30.859  1.00  0.00     0.031 A 
ATOM     45  C   UNL A   1      38.426  32.827  32.165  1.00  0.00     0.074 A 
ATOM     46  C   UNL A   1      38.482  31.279  30.246  1.00  0.00     0.049 A 
ATOM     47  N   UNL A   1      39.445  32.386  32.861  1.00  0.00    -0.248 NA
ATOM     48  C   UNL A   1      37.751  33.988  32.768  1.00  0.00     0.031 C 
ATOM     49  C   UNL A   1      38.049  30.685  28.980  1.00  0.00     0.029 A 
ATOM     50  N   UNL A   1      39.564  30.520  30.619  1.00  0.00    -0.354 N 
ATOM     51  C   UNL A   1      39.544  33.222  33.965  1.00  0.00     0.074 A 
ATOM     52  C   UNL A   1      38.503  34.217  33.836  1.00  0.00     0.031 C 
ATOM     53  C   UNL A   1      38.816  29.617  28.715  1.00  0.00     0.029 A 
ATOM     54  C   UNL A   1      39.828  29.483  29.759  1.00  0.00     0.049 A 
ATOM     55  H   UNL A   1      40.098  30.702  31.426  1.00  0.00     0.167 HD
ATOM     56  C   UNL A   1      40.416  33.160  35.000  1.00  0.00     0.031 A 
ATOM     57  C   UNL A   1      40.775  28.526  29.798  1.00  0.00     0.031 A 
ATOM     58  C   UNL A   1      41.441  32.161  35.140  1.00  0.00     0.049 A 
ATOM     59  C   UNL A   1      41.746  28.491  30.942  1.00  0.00     0.074 A 
ATOM     60  C   UNL A   1      42.335  31.992  36.183  1.00  0.00     0.029 A 
ATOM     61  N   UNL A   1      41.714  31.168  34.212  1.00  0.00    -0.354 N 
ATOM     62  N   UNL A   1      41.800  29.267  31.996  1.00  0.00    -0.248 NA
ATOM     63  C   UNL A   1      42.783  27.451  30.903  1.00  0.00     0.031 C 
ATOM     64  C   UNL A   1      43.191  30.936  35.857  1.00  0.00     0.029 A 
ATOM     65  C   UNL A   1      42.787  30.406  34.642  1.00  0.00     0.049 A 
ATOM     66  H   UNL A   1      41.219  31.026  33.373  1.00  0.00     0.167 HD
ATOM     67  C   UNL A   1      42.871  28.807  32.751  1.00  0.00     0.074 A 
ATOM     68  C   UNL A   1      43.426  27.671  32.044  1.00  0.00     0.031 C 
ATOM     69  C   UNL A   1      43.347  29.287  33.925  1.00  0.00     0.031 A 
BRANCH  56  70
ATOM     70  C   UNL A   1      40.318  34.217  36.066  1.00  0.00    -0.014 A 
ATOM     71  C   UNL A   1      39.447  34.028  37.151  1.00  0.00     0.009 A 
ATOM     72  C   UNL A   1      41.020  35.429  35.963  1.00  0.00     0.009 A 
ATOM     73  C   UNL A   1      39.278  35.030  38.110  1.00  0.00     0.001 A 
ATOM     74  C   UNL A   1      40.870  36.417  36.939  1.00  0.00     0.001 A 
ATOM     75  C   UNL A   1      39.995  36.220  38.006  1.00  0.00     0.000 A 
ENDBRANCH  56  70
BRANCH  57  76
ATOM     76  C   UNL A   1      40.815  27.514  28.712  1.00  0.00    -0.014 A 
ATOM     77  C   UNL A   1      41.573  27.744  27.552  1.00  0.00     0.009 A 
ATOM     78  C   UNL A   1      40.024  26.357  28.788  1.00  0.00     0.009 A 
ATOM     79  C   UNL A   1      41.509  26.858  26.476  1.00  0.00     0.001 A 
ATOM     80  C   UNL A   1      39.986  25.458  27.721  1.00  0.00     0.001 A 
ATOM     81  C   UNL A   1      40.717  25.715  26.562  1.00  0.00     0.000 A 
ENDBRANCH  57  76
BRANCH  69  82
ATOM     82  C   UNL A   1      44.534  28.599  34.537  1.00  0.00    -0.014 A 
ATOM     83  C   UNL A   1      45.833  28.998  34.182  1.00  0.00     0.009 A 
ATOM     84  C   UNL A   1      44.371  27.490  35.381  1.00  0.00     0.009 A 
ATOM     85  C   UNL A   1      46.943  28.291  34.645  1.00  0.00     0.001 A 
ATOM     86  C   UNL A   1      45.485  26.801  35.866  1.00  0.00     0.001 A 
ATOM     87  C   UNL A   1      46.769  27.196  35.488  1.00  0.00     0.000 A 
ENDBRANCH  69  82
ENDBRANCH  43  44
ENDBRANCH  35  38
ENDBRANCH  33  34
ENDBRANCH  32  33
ENDBRANCH   1  32
TORSDOF 15
ENDMDL
MODEL 2
REMARK VINA RESULT:     -12.5      1.943      2.704
REMARK SMILES O=C(Cn1nc(-c2ccc(Br)cc2)ccc1=O)N[C@H](C(=O)NCCCNC(=O)c1ccc(-c2c3nc(c(-c4ccccc4)c4ccc([nH]4)c(-c4ccccc4)c4nc(c(-c5ccccc5)c5ccc2[nH]5)C=C4)C=C3)cc1)c1ccccc1
REMARK SMILES IDX 23 1 22 2 20 3 21 4 19 6 18 7 1 8 2 9 3 11 4 12 5 13 16 14
REMARK SMILES IDX 6 15 15 16 17 17 14 18 7 19 8 20 13 21 9 22 12 23 10 24
REMARK SMILES IDX 11 25 77 26 78 27 82 28 79 29 81 30 80 31 24 32 25 33 26 34
REMARK SMILES IDX 27 35 28 37 29 38 30 39 76 40 31 41 75 42 32 43 33 44 34 45
REMARK SMILES IDX 69 46 35 47 74 48 68 49 70 50 36 51 73 52 67 53 66 54 37 56
REMARK SMILES IDX 59 57 44 58 58 59 45 60 48 61 57 62 71 63 46 64 47 65 56 67
REMARK SMILES IDX 72 68 49 69 38 70 39 71 43 72 40 73 42 74 41 75 60 76 61 77
REMARK SMILES IDX 65 78 62 79 64 80 63 81 50 82 51 83 55 84 52 85 54 86 53 87
REMARK H PARENT 22 5 18 10 26 36 70 55 48 66
REMARK Flexibility Score: inf
ROOT
ATOM      1  C   UNL A   1      31.780  29.701  25.756  1.00  0.00     0.117 C 
ENDROOT
BRANCH   1   2
ATOM      2  N   UNL A   1      32.627  29.706  24.581  1.00  0.00    -0.354 N 
ATOM      3  C   UNL A   1      32.537  28.977  23.422  1.00  0.00     0.247 C 
ATOM      4  O   UNL A   1      33.515  29.033  22.674  1.00  0.00    -0.272 OA
ATOM      5  H   UNL A   1      33.386  30.331  24.620  1.00  0.00     0.163 HD
BRANCH   3   6
ATOM      6  C   UNL A   1      31.274  28.098  23.161  1.00  0.00     0.202 C 
BRANCH   6   7
ATOM      7  N   UNL A   1      31.067  27.137  24.255  1.00  0.00    -0.339 N 
ATOM      8  O   UNL A   1      31.059  25.262  22.944  1.00  0.00    -0.273 OA
ATOM      9  C   UNL A   1      31.107  25.772  24.061  1.00  0.00     0.242 C 
ATOM     10  H   UNL A   1      30.893  27.481  25.161  1.00  0.00     0.164 HD
BRANCH   9  11
ATOM     11  C   UNL A   1      31.055  24.903  25.321  1.00  0.00     0.248 C 
BRANCH  11  12
ATOM     12  N   UNL A   1      32.292  24.184  25.627  1.00  0.00    -0.220 N 
ATOM     13  N   UNL A   1      32.294  22.830  25.355  1.00  0.00    -0.169 NA
ATOM     14  C   UNL A   1      33.447  24.907  25.898  1.00  0.00     0.267 A 
ATOM     15  C   UNL A   1      33.419  22.200  25.484  1.00  0.00     0.091 A 
ATOM     16  C   UNL A   1      34.658  24.111  26.186  1.00  0.00     0.075 A 
ATOM     17  O   UNL A   1      33.516  26.130  25.948  1.00  0.00    -0.268 OA
ATOM     18  C   UNL A   1      34.668  22.792  26.000  1.00  0.00     0.036 A 
BRANCH  15  19
ATOM     19  C   UNL A   1      33.523  20.804  25.023  1.00  0.00     0.002 A 
ATOM     20  C   UNL A   1      34.792  20.212  25.016  1.00  0.00     0.011 A 
ATOM     21  C   UNL A   1      32.395  20.082  24.628  1.00  0.00     0.011 A 
ATOM     22  C   UNL A   1      34.934  18.883  24.622  1.00  0.00     0.016 A 
ATOM     23  C   UNL A   1      32.544  18.753  24.222  1.00  0.00     0.016 A 
ATOM     24  C   UNL A   1      33.809  18.160  24.225  1.00  0.00     0.018 A 
ATOM     25  Br  UNL A   1      34.001  16.359  23.683  1.00  0.00    -0.051 Br
ENDBRANCH  15  19
ENDBRANCH  11  12
ENDBRANCH   9  11
ENDBRANCH   6   7
BRANCH   6  26
ATOM     26  C   UNL A   1      30.013  28.856  22.735  1.00  0.00    -0.016 A 
ATOM     27  C   UNL A   1      30.078  30.033  21.970  1.00  0.00     0.006 A 
ATOM     28  C   UNL A   1      28.743  28.450  23.178  1.00  0.00     0.006 A 
ATOM     29  C   UNL A   1      28.928  30.741  21.612  1.00  0.00     0.000 A 
ATOM     30  C   UNL A   1      27.589  29.158  22.825  1.00  0.00     0.000 A 
ATOM     31  C   UNL A   1      27.681  30.301  22.037  1.00  0.00     0.000 A 
ENDBRANCH   6  26
ENDBRANCH   3   6
ENDBRANCH   1   2
BRANCH   1  32
ATOM     32  C   UNL A   1      31.466  31.119  26.230  1.00  0.00     0.042 C 
BRANCH  32  33
ATOM     33  C   UNL A   1      32.609  31.811  26.971  1.00  0.00     0.118 C 
BRANCH  33  34
ATOM     34  N   UNL A   1      32.287  33.165  27.404  1.00  0.00    -0.352 N 
ATOM     35  C   UNL A   1      32.988  34.031  28.212  1.00  0.00     0.251 C 
ATOM     36  H   UNL A   1      31.432  33.516  27.064  1.00  0.00     0.163 HD
ATOM     37  O   UNL A   1      32.475  35.096  28.550  1.00  0.00    -0.269 OA
BRANCH  35  38
ATOM     38  C   UNL A   1      34.333  33.674  28.717  1.00  0.00     0.039 A 
ATOM     39  C   UNL A   1      35.488  34.058  28.033  1.00  0.00     0.014 A 
ATOM     40  C   UNL A   1      34.438  32.934  29.898  1.00  0.00     0.014 A 
ATOM     41  C   UNL A   1      36.722  33.547  28.424  1.00  0.00     0.010 A 
ATOM     42  C   UNL A   1      35.689  32.492  30.339  1.00  0.00     0.010 A 
ATOM     43  C   UNL A   1      36.836  32.742  29.571  1.00  0.00    -0.014 A 
BRANCH  43  44
ATOM     44  C   UNL A   1      38.157  32.161  29.928  1.00  0.00     0.031 A 
ATOM     45  C   UNL A   1      39.054  32.839  30.930  1.00  0.00     0.074 A 
ATOM     46  C   UNL A   1      38.525  30.979  29.398  1.00  0.00     0.049 A 
ATOM     47  N   UNL A   1      40.197  32.429  31.422  1.00  0.00    -0.248 NA
ATOM     48  C   UNL A   1      38.620  34.147  31.444  1.00  0.00     0.031 C 
ATOM     49  C   UNL A   1      37.746  30.218  28.421  1.00  0.00     0.029 A 
ATOM     50  N   UNL A   1      39.629  30.196  29.630  1.00  0.00    -0.354 N 
ATOM     51  C   UNL A   1      40.625  33.432  32.282  1.00  0.00     0.074 A 
ATOM     52  C   UNL A   1      39.636  34.486  32.225  1.00  0.00     0.031 C 
ATOM     53  C   UNL A   1      38.362  29.050  28.186  1.00  0.00     0.029 A 
ATOM     54  C   UNL A   1      39.606  29.003  28.950  1.00  0.00     0.049 A 
ATOM     55  H   UNL A   1      40.365  30.463  30.226  1.00  0.00     0.167 HD
ATOM     56  C   UNL A   1      41.734  33.468  33.058  1.00  0.00     0.031 A 
ATOM     57  C   UNL A   1      40.482  27.980  28.937  1.00  0.00     0.031 A 
ATOM     58  C   UNL A   1      42.710  32.413  33.129  1.00  0.00     0.049 A 
ATOM     59  C   UNL A   1      41.717  28.051  29.786  1.00  0.00     0.074 A 
ATOM     60  C   UNL A   1      43.838  32.343  33.928  1.00  0.00     0.029 A 
ATOM     61  N   UNL A   1      42.680  31.250  32.375  1.00  0.00    -0.354 N 
ATOM     62  N   UNL A   1      42.085  28.992  30.622  1.00  0.00    -0.248 NA
ATOM     63  C   UNL A   1      42.655  26.924  29.693  1.00  0.00     0.031 C 
ATOM     64  C   UNL A   1      44.525  31.168  33.611  1.00  0.00     0.029 A 
ATOM     65  C   UNL A   1      43.789  30.474  32.663  1.00  0.00     0.049 A 
ATOM     66  H   UNL A   1      41.975  31.013  31.730  1.00  0.00     0.167 HD
ATOM     67  C   UNL A   1      43.294  28.568  31.160  1.00  0.00     0.074 A 
ATOM     68  C   UNL A   1      43.586  27.277  30.572  1.00  0.00     0.031 C 
ATOM     69  C   UNL A   1      44.085  29.198  32.061  1.00  0.00     0.031 A 
BRANCH  56  70
ATOM     70  C   UNL A   1      41.973  34.700  33.887  1.00  0.00    -0.014 A 
ATOM     71  C   UNL A   1      42.761  35.741  33.370  1.00  0.00     0.009 A 
ATOM     72  C   UNL A   1      41.491  34.803  35.201  1.00  0.00     0.009 A 
ATOM     73  C   UNL A   1      43.064  36.859  34.151  1.00  0.00     0.001 A 
ATOM     74  C   UNL A   1      41.773  35.934  35.971  1.00  0.00     0.001 A 
ATOM     75  C   UNL A   1      42.564  36.957  35.448  1.00  0.00     0.000 A 
ENDBRANCH  56  70
BRANCH  57  76
ATOM     76  C   UNL A   1      40.184  26.793  28.094  1.00  0.00    -0.014 A 
ATOM     77  C   UNL A   1      39.459  25.712  28.620  1.00  0.00     0.009 A 
ATOM     78  C   UNL A   1      40.701  26.697  26.793  1.00  0.00     0.009 A 
ATOM     79  C   UNL A   1      39.291  24.543  27.876  1.00  0.00     0.001 A 
ATOM     80  C   UNL A   1      40.505  25.537  26.041  1.00  0.00     0.001 A 
ATOM     81  C   UNL A   1      39.813  24.457  26.587  1.00  0.00     0.000 A 
ENDBRANCH  57  76
BRANCH  69  82
ATOM     82  C   UNL A   1      45.357  28.516  32.479  1.00  0.00    -0.014 A 
ATOM     83  C   UNL A   1      45.371  27.706  33.627  1.00  0.00     0.009 A 
ATOM     84  C   UNL A   1      46.562  28.758  31.802  1.00  0.00     0.009 A 
ATOM     85  C   UNL A   1      46.568  27.165  34.097  1.00  0.00     0.001 A 
ATOM     86  C   UNL A   1      47.755  28.192  32.260  1.00  0.00     0.001 A 
ATOM     87  C   UNL A   1      47.758  27.406  33.413  1.00  0.00     0.000 A 
ENDBRANCH  69  82
ENDBRANCH  43  44
ENDBRANCH  35  38
ENDBRANCH  33  34
ENDBRANCH  32  33
ENDBRANCH   1  32
TORSDOF 15
ENDMDL
MODEL 3
REMARK VINA RESULT:     -12.4      4.777     10.148
REMARK SMILES O=C(Cn1nc(-c2ccc(Br)cc2)ccc1=O)N[C@H](C(=O)NCCCNC(=O)c1ccc(-c2c3nc(c(-c4ccccc4)c4ccc([nH]4)c(-c4ccccc4)c4nc(c(-c5ccccc5)c5ccc2[nH]5)C=C4)C=C3)cc1)c1ccccc1
REMARK SMILES IDX 23 1 22 2 20 3 21 4 19 6 18 7 1 8 2 9 3 11 4 12 5 13 16 14
REMARK SMILES IDX 6 15 15 16 17 17 14 18 7 19 8 20 13 21 9 22 12 23 10 24
REMARK SMILES IDX 11 25 77 26 78 27 82 28 79 29 81 30 80 31 24 32 25 33 26 34
REMARK SMILES IDX 27 35 28 37 29 38 30 39 76 40 31 41 75 42 32 43 33 44 34 45
REMARK SMILES IDX 69 46 35 47 74 48 68 49 70 50 36 51 73 52 67 53 66 54 37 56
REMARK SMILES IDX 59 57 44 58 58 59 45 60 48 61 57 62 71 63 46 64 47 65 56 67
REMARK SMILES IDX 72 68 49 69 38 70 39 71 43 72 40 73 42 74 41 75 60 76 61 77
REMARK SMILES IDX 65 78 62 79 64 80 63 81 50 82 51 83 55 84 52 85 54 86 53 87
REMARK H PARENT 22 5 18 10 26 36 70 55 48 66
REMARK Flexibility Score: inf
ROOT
ATOM      1  C   UNL A   1      36.259  21.019  25.546  1.00  0.00     0.117 C 
ENDROOT
BRANCH   1   2
ATOM      2  N   UNL A   1      35.562  21.848  24.584  1.00  0.00    -0.354 N 
ATOM      3  C   UNL A   1      34.225  21.929  24.289  1.00  0.00     0.247 C 
ATOM      4  O   UNL A   1      33.934  22.573  23.278  1.00  0.00    -0.272 OA
ATOM      5  H   UNL A   1      36.139  22.448  24.058  1.00  0.00     0.163 HD
BRANCH   3   6
ATOM      6  C   UNL A   1      33.192  21.174  25.183  1.00  0.00     0.202 C 
BRANCH   6   7
ATOM      7  N   UNL A   1      31.987  21.989  25.397  1.00  0.00    -0.339 N 
ATOM      8  O   UNL A   1      32.702  22.995  27.325  1.00  0.00    -0.273 OA
ATOM      9  C   UNL A   1      31.900  22.938  26.395  1.00  0.00     0.242 C 
ATOM     10  H   UNL A   1      31.212  21.853  24.806  1.00  0.00     0.164 HD
BRANCH   9  11
ATOM     11  C   UNL A   1      30.656  23.831  26.379  1.00  0.00     0.248 C 
BRANCH  11  12
ATOM     12  N   UNL A   1      30.780  25.051  25.582  1.00  0.00    -0.220 N 
ATOM     13  N   UNL A   1      31.307  26.152  26.227  1.00  0.00    -0.169 NA
ATOM     14  C   UNL A   1      30.636  24.975  24.202  1.00  0.00     0.267 A 
ATOM     15  C   UNL A   1      31.557  27.200  25.507  1.00  0.00     0.091 A 
ATOM     16  C   UNL A   1      30.786  26.246  23.463  1.00  0.00     0.075 A 
ATOM     17  O   UNL A   1      30.363  23.956  23.577  1.00  0.00    -0.268 OA
ATOM     18  C   UNL A   1      31.226  27.344  24.076  1.00  0.00     0.036 A 
BRANCH  15  19
ATOM     19  C   UNL A   1      32.295  28.328  26.103  1.00  0.00     0.002 A 
ATOM     20  C   UNL A   1      31.691  29.591  26.073  1.00  0.00     0.011 A 
ATOM     21  C   UNL A   1      33.544  28.146  26.700  1.00  0.00     0.011 A 
ATOM     22  C   UNL A   1      32.336  30.680  26.656  1.00  0.00     0.016 A 
ATOM     23  C   UNL A   1      34.192  29.243  27.273  1.00  0.00     0.016 A 
ATOM     24  C   UNL A   1      33.584  30.502  27.252  1.00  0.00     0.018 A 
ATOM     25  Br  UNL A   1      34.463  31.980  28.037  1.00  0.00    -0.051 Br
ENDBRANCH  15  19
ENDBRANCH  11  12
ENDBRANCH   9  11
ENDBRANCH   6   7
BRANCH   6  26
ATOM     26  C   UNL A   1      32.914  19.720  24.794  1.00  0.00    -0.016 A 
ATOM     27  C   UNL A   1      32.910  18.685  25.744  1.00  0.00     0.006 A 
ATOM     28  C   UNL A   1      32.747  19.352  23.447  1.00  0.00     0.006 A 
ATOM     29  C   UNL A   1      32.691  17.354  25.381  1.00  0.00     0.000 A 
ATOM     30  C   UNL A   1      32.530  18.020  23.079  1.00  0.00     0.000 A 
ATOM     31  C   UNL A   1      32.496  17.021  24.046  1.00  0.00     0.000 A 
ENDBRANCH   6  26
ENDBRANCH   3   6
ENDBRANCH   1   2
BRANCH   1  32
ATOM     32  C   UNL A   1      37.533  20.419  24.955  1.00  0.00     0.042 C 
BRANCH  32  33
ATOM     33  C   UNL A   1      38.805  20.714  25.750  1.00  0.00     0.118 C 
BRANCH  33  34
ATOM     34  N   UNL A   1      39.758  19.611  25.752  1.00  0.00    -0.352 N 
ATOM     35  C   UNL A   1      41.115  19.610  25.980  1.00  0.00     0.251 C 
ATOM     36  H   UNL A   1      39.369  18.727  25.560  1.00  0.00     0.163 HD
ATOM     37  O   UNL A   1      41.757  18.574  25.816  1.00  0.00    -0.269 OA
BRANCH  35  38
ATOM     38  C   UNL A   1      41.818  20.852  26.374  1.00  0.00     0.039 A 
ATOM     39  C   UNL A   1      42.082  21.140  27.714  1.00  0.00     0.014 A 
ATOM     40  C   UNL A   1      42.216  21.749  25.379  1.00  0.00     0.014 A 
ATOM     41  C   UNL A   1      42.567  22.396  28.066  1.00  0.00     0.010 A 
ATOM     42  C   UNL A   1      42.784  22.977  25.730  1.00  0.00     0.010 A 
ATOM     43  C   UNL A   1      42.907  23.337  27.080  1.00  0.00    -0.014 A 
BRANCH  43  44
ATOM     44  C   UNL A   1      43.365  24.692  27.488  1.00  0.00     0.031 A 
ATOM     45  C   UNL A   1      44.808  25.097  27.339  1.00  0.00     0.074 A 
ATOM     46  C   UNL A   1      42.465  25.588  27.935  1.00  0.00     0.049 A 
ATOM     47  N   UNL A   1      45.363  26.262  27.563  1.00  0.00    -0.248 NA
ATOM     48  C   UNL A   1      45.753  24.064  26.885  1.00  0.00     0.031 C 
ATOM     49  C   UNL A   1      41.038  25.323  28.122  1.00  0.00     0.029 A 
ATOM     50  N   UNL A   1      42.609  26.909  28.281  1.00  0.00    -0.354 N 
ATOM     51  C   UNL A   1      46.716  26.098  27.299  1.00  0.00     0.074 A 
ATOM     52  C   UNL A   1      46.908  24.713  26.927  1.00  0.00     0.031 C 
ATOM     53  C   UNL A   1      40.427  26.461  28.485  1.00  0.00     0.029 A 
ATOM     54  C   UNL A   1      41.425  27.519  28.613  1.00  0.00     0.049 A 
ATOM     55  H   UNL A   1      43.477  27.373  28.290  1.00  0.00     0.167 HD
ATOM     56  C   UNL A   1      47.709  27.017  27.351  1.00  0.00     0.031 A 
ATOM     57  C   UNL A   1      41.161  28.788  28.978  1.00  0.00     0.031 A 
ATOM     58  C   UNL A   1      47.518  28.399  27.704  1.00  0.00     0.049 A 
ATOM     59  C   UNL A   1      42.279  29.786  29.052  1.00  0.00     0.074 A 
ATOM     60  C   UNL A   1      48.459  29.414  27.731  1.00  0.00     0.029 A 
ATOM     61  N   UNL A   1      46.312  28.960  28.095  1.00  0.00    -0.354 N 
ATOM     62  N   UNL A   1      43.547  29.621  28.762  1.00  0.00    -0.248 NA
ATOM     63  C   UNL A   1      41.934  31.142  29.501  1.00  0.00     0.031 C 
ATOM     64  C   UNL A   1      47.836  30.574  28.201  1.00  0.00     0.029 A 
ATOM     65  C   UNL A   1      46.493  30.298  28.401  1.00  0.00     0.049 A 
ATOM     66  H   UNL A   1      45.455  28.478  28.147  1.00  0.00     0.167 HD
ATOM     67  C   UNL A   1      44.150  30.852  28.987  1.00  0.00     0.074 A 
ATOM     68  C   UNL A   1      43.107  31.759  29.416  1.00  0.00     0.031 C 
ATOM     69  C   UNL A   1      45.454  31.192  28.846  1.00  0.00     0.031 A 
BRANCH  56  70
ATOM     70  C   UNL A   1      49.108  26.562  27.036  1.00  0.00    -0.014 A 
ATOM     71  C   UNL A   1      49.557  26.575  25.706  1.00  0.00     0.009 A 
ATOM     72  C   UNL A   1      49.953  26.049  28.032  1.00  0.00     0.009 A 
ATOM     73  C   UNL A   1      50.822  26.081  25.378  1.00  0.00     0.001 A 
ATOM     74  C   UNL A   1      51.228  25.581  27.706  1.00  0.00     0.001 A 
ATOM     75  C   UNL A   1      51.658  25.591  26.380  1.00  0.00     0.000 A 
ENDBRANCH  56  70
BRANCH  57  76
ATOM     76  C   UNL A   1      39.756  29.170  29.276  1.00  0.00    -0.014 A 
ATOM     77  C   UNL A   1      39.223  28.974  30.560  1.00  0.00     0.009 A 
ATOM     78  C   UNL A   1      38.917  29.645  28.257  1.00  0.00     0.009 A 
ATOM     79  C   UNL A   1      37.870  29.208  30.809  1.00  0.00     0.001 A 
ATOM     80  C   UNL A   1      37.570  29.906  28.517  1.00  0.00     0.001 A 
ATOM     81  C   UNL A   1      37.045  29.675  29.788  1.00  0.00     0.000 A 
ENDBRANCH  57  76
BRANCH  69  82
ATOM     82  C   UNL A   1      45.849  32.607  29.161  1.00  0.00    -0.014 A 
ATOM     83  C   UNL A   1      46.203  32.959  30.474  1.00  0.00     0.009 A 
ATOM     84  C   UNL A   1      45.769  33.613  28.186  1.00  0.00     0.009 A 
ATOM     85  C   UNL A   1      46.453  34.290  30.808  1.00  0.00     0.001 A 
ATOM     86  C   UNL A   1      46.047  34.942  28.518  1.00  0.00     0.001 A 
ATOM     87  C   UNL A   1      46.378  35.280  29.830  1.00  0.00     0.000 A 
ENDBRANCH  69  82
ENDBRANCH  43  44
ENDBRANCH  35  38
ENDBRANCH  33  34
ENDBRANCH  32  33
ENDBRANCH   1  32
TORSDOF 15
ENDMDL
