MODEL 1
REMARK VINA RESULT:     -10.3      0.000      0.000
REMARK SMILES CC(C)N(CCC#N)C(=O)c1ccncc1/C=C/C(=O)NCCCNC(=O)c1ccc(-c2c3nc(c(-c4ccccc4)c4ccc([nH]4)c(-c4ccccc4)c4nc(c(-c5ccccc5)c5ccc2[nH]5)C=C4)C=C3)cc1
REMARK SMILES IDX 19 1 20 2 21 3 18 5 17 6 16 7 11 8 12 9 13 10 15 11 14 12
REMARK SMILES IDX 9 13 10 14 4 15 2 16 1 17 3 18 5 19 6 20 7 21 8 22 22 23
REMARK SMILES IDX 23 24 24 25 25 26 26 27 27 29 28 30 29 31 75 32 30 33 74 34
REMARK SMILES IDX 31 35 32 36 33 37 68 38 34 39 73 40 67 41 69 42 35 43 72 44
REMARK SMILES IDX 66 45 65 46 36 48 58 49 43 50 57 51 44 52 47 53 56 54 70 55
REMARK SMILES IDX 45 56 46 57 55 59 71 60 48 61 37 62 38 63 42 64 39 65 41 66
REMARK SMILES IDX 40 67 59 68 60 69 64 70 61 71 63 72 62 73 49 74 50 75 54 76
REMARK SMILES IDX 51 77 53 78 52 79
REMARK H PARENT 21 4 25 28 69 47 47 58
REMARK Flexibility Score: inf
ROOT
ATOM      1  C   UNL A   1      37.397  23.260  25.656  1.00  0.00     0.244 C 
ATOM      2  O   UNL A   1      38.120  24.205  25.963  1.00  0.00    -0.270 OA
ATOM      3  N   UNL A   1      37.935  22.173  25.048  1.00  0.00    -0.352 N 
ATOM      4  H   UNL A   1      38.902  22.230  24.870  1.00  0.00     0.163 HD
ENDROOT
BRANCH   1   5
ATOM      5  C   UNL A   1      35.975  23.268  26.071  1.00  0.00     0.072 C 
ATOM      6  C   UNL A   1      35.035  24.168  25.734  1.00  0.00     0.016 C 
BRANCH   6   7
ATOM      7  C   UNL A   1      33.623  23.989  26.113  1.00  0.00     0.006 A 
ATOM      8  C   UNL A   1      32.558  24.709  25.546  1.00  0.00     0.050 A 
ATOM      9  C   UNL A   1      31.248  24.300  25.795  1.00  0.00     0.034 A 
ATOM     10  C   UNL A   1      31.021  23.330  26.749  1.00  0.00     0.112 A 
ATOM     11  C   UNL A   1      33.276  23.027  27.063  1.00  0.00     0.119 A 
ATOM     12  N   UNL A   1      32.009  22.708  27.415  1.00  0.00    -0.264 NA
BRANCH   8  13
ATOM     13  C   UNL A   1      32.750  25.847  24.604  1.00  0.00     0.254 C 
ATOM     14  O   UNL A   1      33.116  25.570  23.464  1.00  0.00    -0.269 OA
BRANCH  13  15
ATOM     15  N   UNL A   1      32.513  27.172  25.036  1.00  0.00    -0.335 N 
BRANCH  15  16
ATOM     16  C   UNL A   1      32.842  27.546  26.437  1.00  0.00     0.079 C 
ATOM     17  C   UNL A   1      33.947  28.597  26.530  1.00  0.00     0.031 C 
ATOM     18  C   UNL A   1      31.621  27.963  27.257  1.00  0.00     0.031 C 
ENDBRANCH  15  16
BRANCH  15  19
ATOM     19  C   UNL A   1      31.769  28.193  24.261  1.00  0.00     0.135 C 
BRANCH  19  20
ATOM     20  C   UNL A   1      30.374  27.754  23.783  1.00  0.00     0.141 C 
BRANCH  20  21
ATOM     21  C   UNL A   1      29.838  28.603  22.713  1.00  0.00     0.064 C 
ATOM     22  N   UNL A   1      29.423  29.271  21.863  1.00  0.00    -0.198 NA
ENDBRANCH  20  21
ENDBRANCH  19  20
ENDBRANCH  15  19
ENDBRANCH  13  15
ENDBRANCH   8  13
ENDBRANCH   6   7
ENDBRANCH   1   5
BRANCH   3  23
ATOM     23  C   UNL A   1      37.305  20.940  24.619  1.00  0.00     0.118 C 
BRANCH  23  24
ATOM     24  C   UNL A   1      38.214  19.755  24.918  1.00  0.00     0.042 C 
BRANCH  24  25
ATOM     25  C   UNL A   1      39.183  20.024  26.059  1.00  0.00     0.118 C 
BRANCH  25  26
ATOM     26  N   UNL A   1      40.388  19.212  25.946  1.00  0.00    -0.352 N 
ATOM     27  C   UNL A   1      41.708  19.574  25.989  1.00  0.00     0.251 C 
ATOM     28  H   UNL A   1      40.227  18.249  25.818  1.00  0.00     0.163 HD
ATOM     29  O   UNL A   1      42.570  18.787  25.609  1.00  0.00    -0.269 OA
BRANCH  27  30
ATOM     30  C   UNL A   1      42.098  20.908  26.486  1.00  0.00     0.039 A 
ATOM     31  C   UNL A   1      42.466  21.892  25.564  1.00  0.00     0.014 A 
ATOM     32  C   UNL A   1      42.132  21.181  27.855  1.00  0.00     0.014 A 
ATOM     33  C   UNL A   1      42.817  23.163  26.017  1.00  0.00     0.010 A 
ATOM     34  C   UNL A   1      42.383  22.473  28.297  1.00  0.00     0.010 A 
ATOM     35  C   UNL A   1      42.741  23.474  27.385  1.00  0.00    -0.014 A 
BRANCH  35  36
ATOM     36  C   UNL A   1      43.038  24.839  27.881  1.00  0.00     0.031 A 
ATOM     37  C   UNL A   1      44.455  25.239  28.189  1.00  0.00     0.074 A 
ATOM     38  C   UNL A   1      42.024  25.694  28.112  1.00  0.00     0.049 A 
ATOM     39  N   UNL A   1      44.904  26.364  28.683  1.00  0.00    -0.248 NA
ATOM     40  C   UNL A   1      45.502  24.235  27.933  1.00  0.00     0.031 C 
ATOM     41  C   UNL A   1      40.605  25.408  27.882  1.00  0.00     0.029 A 
ATOM     42  N   UNL A   1      42.030  26.979  28.590  1.00  0.00    -0.354 N 
ATOM     43  C   UNL A   1      46.278  26.198  28.807  1.00  0.00     0.074 A 
ATOM     44  C   UNL A   1      46.582  24.845  28.398  1.00  0.00     0.031 C 
ATOM     45  C   UNL A   1      39.883  26.501  28.182  1.00  0.00     0.029 A 
ATOM     46  C   UNL A   1      40.779  27.540  28.677  1.00  0.00     0.049 A 
ATOM     47  H   UNL A   1      42.853  27.454  28.847  1.00  0.00     0.167 HD
ATOM     48  C   UNL A   1      47.207  27.099  29.204  1.00  0.00     0.031 A 
ATOM     49  C   UNL A   1      40.396  28.753  29.115  1.00  0.00     0.031 A 
ATOM     50  C   UNL A   1      46.900  28.442  29.616  1.00  0.00     0.049 A 
ATOM     51  C   UNL A   1      41.444  29.717  29.598  1.00  0.00     0.074 A 
ATOM     52  C   UNL A   1      47.771  29.447  29.998  1.00  0.00     0.029 A 
ATOM     53  N   UNL A   1      45.619  28.965  29.707  1.00  0.00    -0.354 N 
ATOM     54  N   UNL A   1      42.744  29.568  29.647  1.00  0.00    -0.248 NA
ATOM     55  C   UNL A   1      40.967  31.023  30.076  1.00  0.00     0.031 C 
ATOM     56  C   UNL A   1      47.013  30.555  30.387  1.00  0.00     0.029 A 
ATOM     57  C   UNL A   1      45.674  30.269  30.170  1.00  0.00     0.049 A 
ATOM     58  H   UNL A   1      44.793  28.482  29.476  1.00  0.00     0.167 HD
ATOM     59  C   UNL A   1      43.245  30.771  30.129  1.00  0.00     0.074 A 
ATOM     60  C   UNL A   1      42.108  31.643  30.337  1.00  0.00     0.031 C 
ATOM     61  C   UNL A   1      44.532  31.124  30.374  1.00  0.00     0.031 A 
BRANCH  48  62
ATOM     62  C   UNL A   1      48.645  26.651  29.224  1.00  0.00    -0.014 A 
ATOM     63  C   UNL A   1      49.213  26.068  30.369  1.00  0.00     0.009 A 
ATOM     64  C   UNL A   1      49.434  26.781  28.071  1.00  0.00     0.009 A 
ATOM     65  C   UNL A   1      50.549  25.663  30.371  1.00  0.00     0.001 A 
ATOM     66  C   UNL A   1      50.759  26.343  28.063  1.00  0.00     0.001 A 
ATOM     67  C   UNL A   1      51.319  25.795  29.216  1.00  0.00     0.000 A 
ENDBRANCH  48  62
BRANCH  49  68
ATOM     68  C   UNL A   1      38.957  29.129  29.112  1.00  0.00    -0.014 A 
ATOM     69  C   UNL A   1      38.380  29.734  27.984  1.00  0.00     0.009 A 
ATOM     70  C   UNL A   1      38.154  28.898  30.240  1.00  0.00     0.009 A 
ATOM     71  C   UNL A   1      37.040  30.130  27.999  1.00  0.00     0.001 A 
ATOM     72  C   UNL A   1      36.805  29.262  30.239  1.00  0.00     0.001 A 
ATOM     73  C   UNL A   1      36.254  29.890  29.124  1.00  0.00     0.000 A 
ENDBRANCH  49  68
BRANCH  61  74
ATOM     74  C   UNL A   1      44.782  32.528  30.853  1.00  0.00    -0.014 A 
ATOM     75  C   UNL A   1      44.977  33.587  29.955  1.00  0.00     0.009 A 
ATOM     76  C   UNL A   1      44.780  32.796  32.231  1.00  0.00     0.009 A 
ATOM     77  C   UNL A   1      45.203  34.881  30.430  1.00  0.00     0.001 A 
ATOM     78  C   UNL A   1      44.968  34.096  32.702  1.00  0.00     0.001 A 
ATOM     79  C   UNL A   1      45.192  35.135  31.801  1.00  0.00     0.000 A 
ENDBRANCH  61  74
ENDBRANCH  35  36
ENDBRANCH  27  30
ENDBRANCH  25  26
ENDBRANCH  24  25
ENDBRANCH  23  24
ENDBRANCH   3  23
TORSDOF 17
ENDMDL
MODEL 2
REMARK VINA RESULT:     -10.2      0.258      5.941
REMARK SMILES CC(C)N(CCC#N)C(=O)c1ccncc1/C=C/C(=O)NCCCNC(=O)c1ccc(-c2c3nc(c(-c4ccccc4)c4ccc([nH]4)c(-c4ccccc4)c4nc(c(-c5ccccc5)c5ccc2[nH]5)C=C4)C=C3)cc1
REMARK SMILES IDX 19 1 20 2 21 3 18 5 17 6 16 7 11 8 12 9 13 10 15 11 14 12
REMARK SMILES IDX 9 13 10 14 4 15 2 16 1 17 3 18 5 19 6 20 7 21 8 22 22 23
REMARK SMILES IDX 23 24 24 25 25 26 26 27 27 29 28 30 29 31 75 32 30 33 74 34
REMARK SMILES IDX 31 35 32 36 33 37 68 38 34 39 73 40 67 41 69 42 35 43 72 44
REMARK SMILES IDX 66 45 65 46 36 48 58 49 43 50 57 51 44 52 47 53 56 54 70 55
REMARK SMILES IDX 45 56 46 57 55 59 71 60 48 61 37 62 38 63 42 64 39 65 41 66
REMARK SMILES IDX 40 67 59 68 60 69 64 70 61 71 63 72 62 73 49 74 50 75 54 76
REMARK SMILES IDX 51 77 53 78 52 79
REMARK H PARENT 21 4 25 28 69 47 47 58
REMARK Flexibility Score: inf
ROOT
ATOM      1  C   UNL A   1      37.282  23.257  25.641  1.00  0.00     0.244 C 
ATOM      2  O   UNL A   1      37.987  24.209  25.968  1.00  0.00    -0.270 OA
ATOM      3  N   UNL A   1      37.846  22.182  25.034  1.00  0.00    -0.352 N 
ATOM      4  H   UNL A   1      38.815  22.253  24.875  1.00  0.00     0.163 HD
ENDROOT
BRANCH   1   5
ATOM      5  C   UNL A   1      35.853  23.242  26.031  1.00  0.00     0.072 C 
ATOM      6  C   UNL A   1      34.962  24.239  25.888  1.00  0.00     0.016 C 
BRANCH   6   7
ATOM      7  C   UNL A   1      33.536  24.050  26.202  1.00  0.00     0.006 A 
ATOM      8  C   UNL A   1      32.491  24.741  25.565  1.00  0.00     0.050 A 
ATOM      9  C   UNL A   1      31.175  24.320  25.760  1.00  0.00     0.034 A 
ATOM     10  C   UNL A   1      30.914  23.370  26.726  1.00  0.00     0.112 A 
ATOM     11  C   UNL A   1      33.154  23.106  27.158  1.00  0.00     0.119 A 
ATOM     12  N   UNL A   1      31.875  22.779  27.455  1.00  0.00    -0.264 NA
BRANCH   8  13
ATOM     13  C   UNL A   1      32.714  25.858  24.606  1.00  0.00     0.254 C 
ATOM     14  O   UNL A   1      33.056  25.552  23.466  1.00  0.00    -0.269 OA
BRANCH  13  15
ATOM     15  N   UNL A   1      32.534  27.196  25.022  1.00  0.00    -0.335 N 
BRANCH  15  16
ATOM     16  C   UNL A   1      32.875  27.572  26.420  1.00  0.00     0.079 C 
ATOM     17  C   UNL A   1      34.088  28.497  26.510  1.00  0.00     0.031 C 
ATOM     18  C   UNL A   1      31.692  28.144  27.201  1.00  0.00     0.031 C 
ENDBRANCH  15  16
BRANCH  15  19
ATOM     19  C   UNL A   1      31.838  28.240  24.233  1.00  0.00     0.135 C 
BRANCH  19  20
ATOM     20  C   UNL A   1      30.412  27.871  23.786  1.00  0.00     0.141 C 
BRANCH  20  21
ATOM     21  C   UNL A   1      29.939  28.669  22.650  1.00  0.00     0.064 C 
ATOM     22  N   UNL A   1      29.573  29.296  21.748  1.00  0.00    -0.198 NA
ENDBRANCH  20  21
ENDBRANCH  19  20
ENDBRANCH  15  19
ENDBRANCH  13  15
ENDBRANCH   8  13
ENDBRANCH   6   7
ENDBRANCH   1   5
BRANCH   3  23
ATOM     23  C   UNL A   1      37.240  20.944  24.586  1.00  0.00     0.118 C 
BRANCH  23  24
ATOM     24  C   UNL A   1      38.186  19.777  24.834  1.00  0.00     0.042 C 
BRANCH  24  25
ATOM     25  C   UNL A   1      39.087  19.990  26.041  1.00  0.00     0.118 C 
BRANCH  25  26
ATOM     26  N   UNL A   1      40.341  19.258  25.915  1.00  0.00    -0.352 N 
ATOM     27  C   UNL A   1      41.635  19.701  25.972  1.00  0.00     0.251 C 
ATOM     28  H   UNL A   1      40.241  18.290  25.764  1.00  0.00     0.163 HD
ATOM     29  O   UNL A   1      42.546  18.979  25.578  1.00  0.00    -0.269 OA
BRANCH  27  30
ATOM     30  C   UNL A   1      41.939  21.045  26.501  1.00  0.00     0.039 A 
ATOM     31  C   UNL A   1      41.981  21.233  27.885  1.00  0.00     0.014 A 
ATOM     32  C   UNL A   1      42.150  22.125  25.640  1.00  0.00     0.014 A 
ATOM     33  C   UNL A   1      42.287  22.491  28.401  1.00  0.00     0.010 A 
ATOM     34  C   UNL A   1      42.553  23.350  26.152  1.00  0.00     0.010 A 
ATOM     35  C   UNL A   1      42.613  23.550  27.538  1.00  0.00    -0.014 A 
BRANCH  35  36
ATOM     36  C   UNL A   1      43.013  24.877  28.064  1.00  0.00     0.031 A 
ATOM     37  C   UNL A   1      41.971  25.930  28.329  1.00  0.00     0.074 A 
ATOM     38  C   UNL A   1      44.319  25.151  28.243  1.00  0.00     0.049 A 
ATOM     39  N   UNL A   1      42.132  27.163  28.735  1.00  0.00    -0.248 NA
ATOM     40  C   UNL A   1      40.569  25.557  28.083  1.00  0.00     0.031 C 
ATOM     41  C   UNL A   1      45.423  24.222  27.990  1.00  0.00     0.029 A 
ATOM     42  N   UNL A   1      44.941  26.292  28.683  1.00  0.00    -0.354 N 
ATOM     43  C   UNL A   1      40.858  27.714  28.780  1.00  0.00     0.074 A 
ATOM     44  C   UNL A   1      39.941  26.703  28.300  1.00  0.00     0.031 C 
ATOM     45  C   UNL A   1      46.582  24.817  28.316  1.00  0.00     0.029 A 
ATOM     46  C   UNL A   1      46.308  26.184  28.747  1.00  0.00     0.049 A 
ATOM     47  H   UNL A   1      44.452  27.111  28.929  1.00  0.00     0.167 HD
ATOM     48  C   UNL A   1      40.480  28.943  29.204  1.00  0.00     0.031 A 
ATOM     49  C   UNL A   1      47.239  27.088  29.102  1.00  0.00     0.031 A 
ATOM     50  C   UNL A   1      41.395  29.946  29.675  1.00  0.00     0.049 A 
ATOM     51  C   UNL A   1      46.796  28.462  29.522  1.00  0.00     0.074 A 
ATOM     52  C   UNL A   1      41.112  31.209  30.165  1.00  0.00     0.029 A 
ATOM     53  N   UNL A   1      42.774  29.804  29.706  1.00  0.00    -0.354 N 
ATOM     54  N   UNL A   1      45.582  28.945  29.620  1.00  0.00    -0.248 NA
ATOM     55  C   UNL A   1      47.855  29.412  29.889  1.00  0.00     0.031 C 
ATOM     56  C   UNL A   1      42.323  31.856  30.427  1.00  0.00     0.029 A 
ATOM     57  C   UNL A   1      43.358  30.967  30.177  1.00  0.00     0.049 A 
ATOM     58  H   UNL A   1      43.265  28.995  29.434  1.00  0.00     0.167 HD
ATOM     59  C   UNL A   1      45.729  30.243  30.093  1.00  0.00     0.074 A 
ATOM     60  C   UNL A   1      47.148  30.462  30.279  1.00  0.00     0.031 C 
ATOM     61  C   UNL A   1      44.774  31.170  30.354  1.00  0.00     0.031 A 
BRANCH  48  62
ATOM     62  C   UNL A   1      39.011  29.270  29.162  1.00  0.00    -0.014 A 
ATOM     63  C   UNL A   1      38.410  29.790  28.004  1.00  0.00     0.009 A 
ATOM     64  C   UNL A   1      38.207  29.022  30.286  1.00  0.00     0.009 A 
ATOM     65  C   UNL A   1      37.047  30.094  27.986  1.00  0.00     0.001 A 
ATOM     66  C   UNL A   1      36.838  29.292  30.255  1.00  0.00     0.001 A 
ATOM     67  C   UNL A   1      36.261  29.838  29.109  1.00  0.00     0.000 A 
ENDBRANCH  48  62
BRANCH  49  68
ATOM     68  C   UNL A   1      48.681  26.723  29.085  1.00  0.00    -0.014 A 
ATOM     69  C   UNL A   1      49.454  26.920  27.930  1.00  0.00     0.009 A 
ATOM     70  C   UNL A   1      49.291  26.163  30.219  1.00  0.00     0.009 A 
ATOM     71  C   UNL A   1      50.796  26.533  27.900  1.00  0.00     0.001 A 
ATOM     72  C   UNL A   1      50.642  25.809  30.197  1.00  0.00     0.001 A 
ATOM     73  C   UNL A   1      51.389  25.982  29.034  1.00  0.00     0.000 A 
ENDBRANCH  49  68
BRANCH  61  74
ATOM     74  C   UNL A   1      45.229  32.492  30.910  1.00  0.00    -0.014 A 
ATOM     75  C   UNL A   1      45.524  33.579  30.074  1.00  0.00     0.009 A 
ATOM     76  C   UNL A   1      45.322  32.659  32.301  1.00  0.00     0.009 A 
ATOM     77  C   UNL A   1      45.940  34.795  30.619  1.00  0.00     0.001 A 
ATOM     78  C   UNL A   1      45.701  33.886  32.845  1.00  0.00     0.001 A 
ATOM     79  C   UNL A   1      46.022  34.950  32.003  1.00  0.00     0.000 A 
ENDBRANCH  61  74
ENDBRANCH  35  36
ENDBRANCH  27  30
ENDBRANCH  25  26
ENDBRANCH  24  25
ENDBRANCH  23  24
ENDBRANCH   3  23
TORSDOF 17
ENDMDL
MODEL 3
REMARK VINA RESULT:     -10.1      2.223      7.688
REMARK SMILES CC(C)N(CCC#N)C(=O)c1ccncc1/C=C/C(=O)NCCCNC(=O)c1ccc(-c2c3nc(c(-c4ccccc4)c4ccc([nH]4)c(-c4ccccc4)c4nc(c(-c5ccccc5)c5ccc2[nH]5)C=C4)C=C3)cc1
REMARK SMILES IDX 19 1 20 2 21 3 18 5 17 6 16 7 11 8 12 9 13 10 15 11 14 12
REMARK SMILES IDX 9 13 10 14 4 15 2 16 1 17 3 18 5 19 6 20 7 21 8 22 22 23
REMARK SMILES IDX 23 24 24 25 25 26 26 27 27 29 28 30 29 31 75 32 30 33 74 34
REMARK SMILES IDX 31 35 32 36 33 37 68 38 34 39 73 40 67 41 69 42 35 43 72 44
REMARK SMILES IDX 66 45 65 46 36 48 58 49 43 50 57 51 44 52 47 53 56 54 70 55
REMARK SMILES IDX 45 56 46 57 55 59 71 60 48 61 37 62 38 63 42 64 39 65 41 66
REMARK SMILES IDX 40 67 59 68 60 69 64 70 61 71 63 72 62 73 49 74 50 75 54 76
REMARK SMILES IDX 51 77 53 78 52 79
REMARK H PARENT 21 4 25 28 69 47 47 58
REMARK Flexibility Score: inf
ROOT
ATOM      1  C   UNL A   1      33.353  27.246  22.868  1.00  0.00     0.244 C 
ATOM      2  O   UNL A   1      33.768  27.040  21.729  1.00  0.00    -0.270 OA
ATOM      3  N   UNL A   1      33.558  28.455  23.448  1.00  0.00    -0.352 N 
ATOM      4  H   UNL A   1      34.062  29.101  22.901  1.00  0.00     0.163 HD
ENDROOT
BRANCH   1   5
ATOM      5  C   UNL A   1      32.526  26.216  23.538  1.00  0.00     0.072 C 
ATOM      6  C   UNL A   1      32.928  25.326  24.462  1.00  0.00     0.016 C 
BRANCH   6   7
ATOM      7  C   UNL A   1      31.972  24.437  25.144  1.00  0.00     0.006 A 
ATOM      8  C   UNL A   1      32.009  23.034  25.066  1.00  0.00     0.050 A 
ATOM      9  C   UNL A   1      31.217  22.281  25.934  1.00  0.00     0.034 A 
ATOM     10  C   UNL A   1      30.269  22.926  26.703  1.00  0.00     0.112 A 
ATOM     11  C   UNL A   1      30.975  24.980  25.957  1.00  0.00     0.119 A 
ATOM     12  N   UNL A   1      30.108  24.260  26.705  1.00  0.00    -0.264 NA
BRANCH   8  13
ATOM     13  C   UNL A   1      32.927  22.288  24.163  1.00  0.00     0.254 C 
ATOM     14  O   UNL A   1      32.593  22.193  22.984  1.00  0.00    -0.269 OA
BRANCH  13  15
ATOM     15  N   UNL A   1      34.121  21.727  24.671  1.00  0.00    -0.335 N 
BRANCH  15  16
ATOM     16  C   UNL A   1      35.353  22.558  24.707  1.00  0.00     0.079 C 
ATOM     17  C   UNL A   1      36.460  21.948  25.567  1.00  0.00     0.031 C 
ATOM     18  C   UNL A   1      35.879  22.925  23.319  1.00  0.00     0.031 C 
ENDBRANCH  15  16
BRANCH  15  19
ATOM     19  C   UNL A   1      34.309  20.293  24.999  1.00  0.00     0.135 C 
BRANCH  19  20
ATOM     20  C   UNL A   1      33.446  19.322  24.173  1.00  0.00     0.141 C 
BRANCH  20  21
ATOM     21  C   UNL A   1      32.748  18.330  24.997  1.00  0.00     0.064 C 
ATOM     22  N   UNL A   1      32.205  17.540  25.648  1.00  0.00    -0.198 NA
ENDBRANCH  20  21
ENDBRANCH  19  20
ENDBRANCH  15  19
ENDBRANCH  13  15
ENDBRANCH   8  13
ENDBRANCH   6   7
ENDBRANCH   1   5
BRANCH   3  23
ATOM     23  C   UNL A   1      33.149  28.943  24.750  1.00  0.00     0.118 C 
BRANCH  23  24
ATOM     24  C   UNL A   1      34.168  28.537  25.806  1.00  0.00     0.042 C 
BRANCH  24  25
ATOM     25  C   UNL A   1      33.656  28.722  27.227  1.00  0.00     0.118 C 
BRANCH  25  26
ATOM     26  N   UNL A   1      33.685  30.122  27.633  1.00  0.00    -0.352 N 
ATOM     27  C   UNL A   1      34.628  30.819  28.339  1.00  0.00     0.251 C 
ATOM     28  H   UNL A   1      32.902  30.649  27.354  1.00  0.00     0.163 HD
ATOM     29  O   UNL A   1      34.349  31.919  28.809  1.00  0.00    -0.269 OA
BRANCH  27  30
ATOM     30  C   UNL A   1      35.976  30.254  28.542  1.00  0.00     0.039 A 
ATOM     31  C   UNL A   1      36.899  30.317  27.495  1.00  0.00     0.014 A 
ATOM     32  C   UNL A   1      36.321  29.636  29.746  1.00  0.00     0.014 A 
ATOM     33  C   UNL A   1      38.184  29.806  27.678  1.00  0.00     0.010 A 
ATOM     34  C   UNL A   1      37.627  29.220  29.961  1.00  0.00     0.010 A 
ATOM     35  C   UNL A   1      38.569  29.289  28.926  1.00  0.00    -0.014 A 
BRANCH  35  36
ATOM     36  C   UNL A   1      39.950  28.807  29.166  1.00  0.00     0.031 A 
ATOM     37  C   UNL A   1      40.967  29.716  29.803  1.00  0.00     0.074 A 
ATOM     38  C   UNL A   1      40.302  27.574  28.755  1.00  0.00     0.049 A 
ATOM     39  N   UNL A   1      42.234  29.494  30.042  1.00  0.00    -0.248 NA
ATOM     40  C   UNL A   1      40.507  31.057  30.200  1.00  0.00     0.031 C 
ATOM     41  C   UNL A   1      39.412  26.615  28.097  1.00  0.00     0.029 A 
ATOM     42  N   UNL A   1      41.502  26.915  28.831  1.00  0.00    -0.354 N 
ATOM     43  C   UNL A   1      42.722  30.667  30.603  1.00  0.00     0.074 A 
ATOM     44  C   UNL A   1      41.633  31.619  30.612  1.00  0.00     0.031 C 
ATOM     45  C   UNL A   1      40.087  25.477  27.865  1.00  0.00     0.029 A 
ATOM     46  C   UNL A   1      41.468  25.647  28.307  1.00  0.00     0.049 A 
ATOM     47  H   UNL A   1      42.312  27.315  29.225  1.00  0.00     0.167 HD
ATOM     48  C   UNL A   1      43.959  30.923  31.090  1.00  0.00     0.031 A 
ATOM     49  C   UNL A   1      42.441  24.726  28.185  1.00  0.00     0.031 A 
ATOM     50  C   UNL A   1      45.040  29.974  31.075  1.00  0.00     0.049 A 
ATOM     51  C   UNL A   1      43.819  25.054  28.689  1.00  0.00     0.074 A 
ATOM     52  C   UNL A   1      46.320  30.119  31.579  1.00  0.00     0.029 A 
ATOM     53  N   UNL A   1      44.969  28.706  30.518  1.00  0.00    -0.354 N 
ATOM     54  N   UNL A   1      44.247  26.144  29.277  1.00  0.00    -0.248 NA
ATOM     55  C   UNL A   1      44.846  24.016  28.521  1.00  0.00     0.031 C 
ATOM     56  C   UNL A   1      47.044  28.966  31.265  1.00  0.00     0.029 A 
ATOM     57  C   UNL A   1      46.193  28.070  30.638  1.00  0.00     0.049 A 
ATOM     58  H   UNL A   1      44.167  28.316  30.101  1.00  0.00     0.167 HD
ATOM     59  C   UNL A   1      45.583  25.911  29.579  1.00  0.00     0.074 A 
ATOM     60  C   UNL A   1      45.886  24.569  29.127  1.00  0.00     0.031 C 
ATOM     61  C   UNL A   1      46.478  26.733  30.180  1.00  0.00     0.031 A 
BRANCH  48  62
ATOM     62  C   UNL A   1      44.209  32.290  31.668  1.00  0.00    -0.014 A 
ATOM     63  C   UNL A   1      43.997  32.559  33.030  1.00  0.00     0.009 A 
ATOM     64  C   UNL A   1      44.698  33.318  30.845  1.00  0.00     0.009 A 
ATOM     65  C   UNL A   1      44.228  33.836  33.547  1.00  0.00     0.001 A 
ATOM     66  C   UNL A   1      44.964  34.583  31.371  1.00  0.00     0.001 A 
ATOM     67  C   UNL A   1      44.719  34.844  32.718  1.00  0.00     0.000 A 
ENDBRANCH  48  62
BRANCH  49  68
ATOM     68  C   UNL A   1      42.148  23.405  27.569  1.00  0.00    -0.014 A 
ATOM     69  C   UNL A   1      41.609  22.362  28.338  1.00  0.00     0.009 A 
ATOM     70  C   UNL A   1      42.418  23.172  26.211  1.00  0.00     0.009 A 
ATOM     71  C   UNL A   1      41.379  21.106  27.770  1.00  0.00     0.001 A 
ATOM     72  C   UNL A   1      42.153  21.927  25.637  1.00  0.00     0.001 A 
ATOM     73  C   UNL A   1      41.647  20.892  26.420  1.00  0.00     0.000 A 
ENDBRANCH  49  68
BRANCH  61  74
ATOM     74  C   UNL A   1      47.859  26.189  30.424  1.00  0.00    -0.014 A 
ATOM     75  C   UNL A   1      48.830  26.165  29.412  1.00  0.00     0.009 A 
ATOM     76  C   UNL A   1      48.204  25.731  31.706  1.00  0.00     0.009 A 
ATOM     77  C   UNL A   1      50.105  25.657  29.669  1.00  0.00     0.001 A 
ATOM     78  C   UNL A   1      49.490  25.260  31.971  1.00  0.00     0.001 A 
ATOM     79  C   UNL A   1      50.436  25.212  30.949  1.00  0.00     0.000 A 
ENDBRANCH  61  74
ENDBRANCH  35  36
ENDBRANCH  27  30
ENDBRANCH  25  26
ENDBRANCH  24  25
ENDBRANCH  23  24
ENDBRANCH   3  23
TORSDOF 17
ENDMDL
