MODEL 1
REMARK VINA RESULT:     -10.4      0.000      0.000
REMARK SMILES CC[C@@](C)(NC(=O)NCCc1cscn1)C(=O)NCCCNC(=O)c1ccc(-c2c3nc(c(-c4ccccc4)c4ccc([nH]4)c(-c4ccccc4)c4nc(c(-c5ccccc5)c5ccc2[nH]5)C=C4)C=C3)cc1
REMARK SMILES IDX 19 1 18 2 16 3 17 4 3 6 4 7 2 8 1 9 5 10 6 11 7 13 8 14 9 16
REMARK SMILES IDX 10 17 11 18 12 19 15 20 13 21 14 22 20 23 21 24 22 25 23 26
REMARK SMILES IDX 24 28 25 29 26 30 72 31 27 32 71 33 28 34 29 35 30 36 65 37
REMARK SMILES IDX 31 38 70 39 64 40 66 41 32 42 69 43 63 44 62 45 33 47 55 48
REMARK SMILES IDX 40 49 54 50 41 51 44 52 53 53 67 54 42 55 43 56 52 58 68 59
REMARK SMILES IDX 45 60 34 61 35 62 39 63 36 64 38 65 37 66 56 67 57 68 61 69
REMARK SMILES IDX 58 70 60 71 59 72 46 73 47 74 51 75 48 76 50 77 49 78
REMARK H PARENT 18 5 5 12 8 15 22 27 66 46 44 57
REMARK Flexibility Score: inf
ROOT
ATOM      1  C   UNL A   1      36.190  21.333  25.096  1.00  0.00     0.117 C 
ENDROOT
BRANCH   1   2
ATOM      2  N   UNL A   1      35.536  21.398  26.397  1.00  0.00    -0.354 N 
ATOM      3  C   UNL A   1      34.259  21.685  26.815  1.00  0.00     0.245 C 
ATOM      4  O   UNL A   1      34.008  21.396  27.992  1.00  0.00    -0.272 OA
ATOM      5  H   UNL A   1      36.145  21.190  27.142  1.00  0.00     0.163 HD
BRANCH   3   6
ATOM      6  C   UNL A   1      33.159  22.230  25.867  1.00  0.00     0.117 C 
ATOM      7  C   UNL A   1      33.702  23.570  25.302  1.00  0.00     0.045 C 
BRANCH   6   8
ATOM      8  C   UNL A   1      32.775  21.359  24.634  1.00  0.00     0.035 C 
ATOM      9  C   UNL A   1      32.652  19.852  24.835  1.00  0.00     0.007 C 
ENDBRANCH   6   8
BRANCH   6  10
ATOM     10  N   UNL A   1      31.928  22.479  26.642  1.00  0.00    -0.324 N 
ATOM     11  C   UNL A   1      30.764  23.102  26.431  1.00  0.00     0.315 C 
ATOM     12  H   UNL A   1      31.977  22.088  27.544  1.00  0.00     0.166 HD
ATOM     13  O   UNL A   1      30.033  23.232  27.418  1.00  0.00    -0.249 OA
ATOM     14  N   UNL A   1      30.273  23.508  25.255  1.00  0.00    -0.338 N 
ATOM     15  H   UNL A   1      29.297  23.632  25.302  1.00  0.00     0.165 HD
BRANCH  14  16
ATOM     16  C   UNL A   1      30.779  23.818  23.918  1.00  0.00     0.124 C 
BRANCH  16  17
ATOM     17  C   UNL A   1      30.318  25.143  23.301  1.00  0.00     0.078 C 
BRANCH  17  18
ATOM     18  C   UNL A   1      30.703  26.431  23.965  1.00  0.00     0.053 A 
ATOM     19  C   UNL A   1      30.420  27.686  23.440  1.00  0.00     0.090 A 
ATOM     20  N   UNL A   1      31.400  26.452  25.159  1.00  0.00    -0.250 NA
ATOM     21  S   UNL A   1      31.106  28.911  24.417  1.00  0.00    -0.130 S 
ATOM     22  C   UNL A   1      31.678  27.698  25.484  1.00  0.00     0.175 A 
ENDBRANCH  17  18
ENDBRANCH  16  17
ENDBRANCH  14  16
ENDBRANCH   6  10
ENDBRANCH   3   6
ENDBRANCH   1   2
BRANCH   1  23
ATOM     23  C   UNL A   1      37.435  20.461  24.919  1.00  0.00     0.042 C 
BRANCH  23  24
ATOM     24  C   UNL A   1      38.703  20.789  25.693  1.00  0.00     0.118 C 
BRANCH  24  25
ATOM     25  N   UNL A   1      39.714  19.748  25.662  1.00  0.00    -0.352 N 
ATOM     26  C   UNL A   1      41.039  19.816  26.030  1.00  0.00     0.251 C 
ATOM     27  H   UNL A   1      39.410  18.871  25.332  1.00  0.00     0.163 HD
ATOM     28  O   UNL A   1      41.772  18.851  25.860  1.00  0.00    -0.269 OA
BRANCH  26  29
ATOM     29  C   UNL A   1      41.588  21.065  26.608  1.00  0.00     0.039 A 
ATOM     30  C   UNL A   1      42.152  22.015  25.751  1.00  0.00     0.014 A 
ATOM     31  C   UNL A   1      41.556  21.297  27.985  1.00  0.00     0.014 A 
ATOM     32  C   UNL A   1      42.619  23.228  26.269  1.00  0.00     0.010 A 
ATOM     33  C   UNL A   1      41.993  22.518  28.496  1.00  0.00     0.010 A 
ATOM     34  C   UNL A   1      42.514  23.502  27.642  1.00  0.00    -0.014 A 
BRANCH  34  35
ATOM     35  C   UNL A   1      42.883  24.827  28.199  1.00  0.00     0.031 A 
ATOM     36  C   UNL A   1      41.842  25.890  28.402  1.00  0.00     0.074 A 
ATOM     37  C   UNL A   1      44.181  25.103  28.433  1.00  0.00     0.049 A 
ATOM     38  N   UNL A   1      41.994  27.130  28.798  1.00  0.00    -0.248 NA
ATOM     39  C   UNL A   1      40.451  25.520  28.103  1.00  0.00     0.031 C 
ATOM     40  C   UNL A   1      45.290  24.166  28.244  1.00  0.00     0.029 A 
ATOM     41  N   UNL A   1      44.790  26.257  28.862  1.00  0.00    -0.354 N 
ATOM     42  C   UNL A   1      40.723  27.689  28.791  1.00  0.00     0.074 A 
ATOM     43  C   UNL A   1      39.817  26.666  28.311  1.00  0.00     0.031 C 
ATOM     44  C   UNL A   1      46.442  24.780  28.561  1.00  0.00     0.029 A 
ATOM     45  C   UNL A   1      46.158  26.162  28.934  1.00  0.00     0.049 A 
ATOM     46  H   UNL A   1      44.292  27.074  29.095  1.00  0.00     0.167 HD
ATOM     47  C   UNL A   1      40.344  28.937  29.159  1.00  0.00     0.031 A 
ATOM     48  C   UNL A   1      47.085  27.088  29.249  1.00  0.00     0.031 A 
ATOM     49  C   UNL A   1      41.252  29.957  29.618  1.00  0.00     0.049 A 
ATOM     50  C   UNL A   1      46.643  28.480  29.608  1.00  0.00     0.074 A 
ATOM     51  C   UNL A   1      40.957  31.236  30.060  1.00  0.00     0.029 A 
ATOM     52  N   UNL A   1      42.629  29.819  29.683  1.00  0.00    -0.354 N 
ATOM     53  N   UNL A   1      45.429  28.971  29.671  1.00  0.00    -0.248 NA
ATOM     54  C   UNL A   1      47.699  29.443  29.952  1.00  0.00     0.031 C 
ATOM     55  C   UNL A   1      42.161  31.894  30.330  1.00  0.00     0.029 A 
ATOM     56  C   UNL A   1      43.201  31.001  30.127  1.00  0.00     0.049 A 
ATOM     57  H   UNL A   1      43.129  29.004  29.448  1.00  0.00     0.167 HD
ATOM     58  C   UNL A   1      45.572  30.284  30.097  1.00  0.00     0.074 A 
ATOM     59  C   UNL A   1      46.989  30.513  30.285  1.00  0.00     0.031 C 
ATOM     60  C   UNL A   1      44.612  31.215  30.319  1.00  0.00     0.031 A 
BRANCH  47  61
ATOM     61  C   UNL A   1      38.882  29.278  29.065  1.00  0.00    -0.014 A 
ATOM     62  C   UNL A   1      38.319  29.748  27.868  1.00  0.00     0.009 A 
ATOM     63  C   UNL A   1      38.044  29.078  30.174  1.00  0.00     0.009 A 
ATOM     64  C   UNL A   1      36.956  30.047  27.795  1.00  0.00     0.001 A 
ATOM     65  C   UNL A   1      36.676  29.346  30.089  1.00  0.00     0.001 A 
ATOM     66  C   UNL A   1      36.135  29.840  28.902  1.00  0.00     0.000 A 
ENDBRANCH  47  61
BRANCH  48  67
ATOM     67  C   UNL A   1      48.528  26.727  29.245  1.00  0.00    -0.014 A 
ATOM     68  C   UNL A   1      49.118  26.140  30.374  1.00  0.00     0.009 A 
ATOM     69  C   UNL A   1      49.323  26.971  28.114  1.00  0.00     0.009 A 
ATOM     70  C   UNL A   1      50.481  25.831  30.381  1.00  0.00     0.001 A 
ATOM     71  C   UNL A   1      50.678  26.632  28.112  1.00  0.00     0.001 A 
ATOM     72  C   UNL A   1      51.258  26.072  29.249  1.00  0.00     0.000 A 
ENDBRANCH  48  67
BRANCH  60  73
ATOM     73  C   UNL A   1      45.050  32.556  30.843  1.00  0.00    -0.014 A 
ATOM     74  C   UNL A   1      45.197  32.796  32.217  1.00  0.00     0.009 A 
ATOM     75  C   UNL A   1      45.385  33.573  29.934  1.00  0.00     0.009 A 
ATOM     76  C   UNL A   1      45.648  34.038  32.671  1.00  0.00     0.001 A 
ATOM     77  C   UNL A   1      45.864  34.802  30.391  1.00  0.00     0.001 A 
ATOM     78  C   UNL A   1      45.989  35.036  31.758  1.00  0.00     0.000 A 
ENDBRANCH  60  73
ENDBRANCH  34  35
ENDBRANCH  26  29
ENDBRANCH  24  25
ENDBRANCH  23  24
ENDBRANCH   1  23
TORSDOF 15
ENDMDL
MODEL 2
REMARK VINA RESULT:     -10.4      2.699      7.589
REMARK SMILES CC[C@@](C)(NC(=O)NCCc1cscn1)C(=O)NCCCNC(=O)c1ccc(-c2c3nc(c(-c4ccccc4)c4ccc([nH]4)c(-c4ccccc4)c4nc(c(-c5ccccc5)c5ccc2[nH]5)C=C4)C=C3)cc1
REMARK SMILES IDX 19 1 18 2 16 3 17 4 3 6 4 7 2 8 1 9 5 10 6 11 7 13 8 14 9 16
REMARK SMILES IDX 10 17 11 18 12 19 15 20 13 21 14 22 20 23 21 24 22 25 23 26
REMARK SMILES IDX 24 28 25 29 26 30 72 31 27 32 71 33 28 34 29 35 30 36 65 37
REMARK SMILES IDX 31 38 70 39 64 40 66 41 32 42 69 43 63 44 62 45 33 47 55 48
REMARK SMILES IDX 40 49 54 50 41 51 44 52 53 53 67 54 42 55 43 56 52 58 68 59
REMARK SMILES IDX 45 60 34 61 35 62 39 63 36 64 38 65 37 66 56 67 57 68 61 69
REMARK SMILES IDX 58 70 60 71 59 72 46 73 47 74 51 75 48 76 50 77 49 78
REMARK H PARENT 18 5 5 12 8 15 22 27 66 46 44 57
REMARK Flexibility Score: inf
ROOT
ATOM      1  C   UNL A   1      31.780  27.055  26.662  1.00  0.00     0.117 C 
ENDROOT
BRANCH   1   2
ATOM      2  N   UNL A   1      31.286  27.068  25.291  1.00  0.00    -0.354 N 
ATOM      3  C   UNL A   1      31.001  26.093  24.366  1.00  0.00     0.245 C 
ATOM      4  O   UNL A   1      30.357  26.470  23.380  1.00  0.00    -0.272 OA
ATOM      5  H   UNL A   1      31.120  27.977  24.953  1.00  0.00     0.163 HD
BRANCH   3   6
ATOM      6  C   UNL A   1      31.354  24.596  24.574  1.00  0.00     0.117 C 
ATOM      7  C   UNL A   1      30.701  23.832  23.390  1.00  0.00     0.045 C 
BRANCH   6   8
ATOM      8  C   UNL A   1      32.862  24.205  24.568  1.00  0.00     0.035 C 
ATOM      9  C   UNL A   1      33.810  25.030  23.704  1.00  0.00     0.007 C 
ENDBRANCH   6   8
BRANCH   6  10
ATOM     10  N   UNL A   1      30.772  24.130  25.847  1.00  0.00    -0.324 N 
ATOM     11  C   UNL A   1      30.638  22.958  26.475  1.00  0.00     0.315 C 
ATOM     12  H   UNL A   1      30.384  24.871  26.366  1.00  0.00     0.166 HD
ATOM     13  O   UNL A   1      29.925  22.964  27.484  1.00  0.00    -0.249 OA
ATOM     14  N   UNL A   1      31.266  21.814  26.182  1.00  0.00    -0.338 N 
ATOM     15  H   UNL A   1      31.264  21.202  26.953  1.00  0.00     0.165 HD
BRANCH  14  16
ATOM     16  C   UNL A   1      31.957  21.219  25.038  1.00  0.00     0.124 C 
BRANCH  16  17
ATOM     17  C   UNL A   1      33.231  20.425  25.345  1.00  0.00     0.078 C 
BRANCH  17  18
ATOM     18  C   UNL A   1      33.239  18.941  25.123  1.00  0.00     0.053 A 
ATOM     19  C   UNL A   1      34.099  18.296  24.245  1.00  0.00     0.090 A 
ATOM     20  N   UNL A   1      32.354  18.105  25.777  1.00  0.00    -0.250 NA
ATOM     21  S   UNL A   1      33.744  16.624  24.179  1.00  0.00    -0.130 S 
ATOM     22  C   UNL A   1      32.517  16.870  25.350  1.00  0.00     0.175 A 
ENDBRANCH  17  18
ENDBRANCH  16  17
ENDBRANCH  14  16
ENDBRANCH   6  10
ENDBRANCH   3   6
ENDBRANCH   1   2
BRANCH   1  23
ATOM     23  C   UNL A   1      32.046  28.378  27.382  1.00  0.00     0.042 C 
BRANCH  23  24
ATOM     24  C   UNL A   1      33.460  28.935  27.440  1.00  0.00     0.118 C 
BRANCH  24  25
ATOM     25  N   UNL A   1      33.537  30.359  27.716  1.00  0.00    -0.352 N 
ATOM     26  C   UNL A   1      34.594  31.089  28.213  1.00  0.00     0.251 C 
ATOM     27  H   UNL A   1      32.721  30.873  27.520  1.00  0.00     0.163 HD
ATOM     28  O   UNL A   1      34.452  32.279  28.460  1.00  0.00    -0.269 OA
BRANCH  26  29
ATOM     29  C   UNL A   1      35.895  30.432  28.476  1.00  0.00     0.039 A 
ATOM     30  C   UNL A   1      36.849  30.390  27.455  1.00  0.00     0.014 A 
ATOM     31  C   UNL A   1      36.172  29.852  29.716  1.00  0.00     0.014 A 
ATOM     32  C   UNL A   1      38.107  29.829  27.701  1.00  0.00     0.010 A 
ATOM     33  C   UNL A   1      37.436  29.322  29.971  1.00  0.00     0.010 A 
ATOM     34  C   UNL A   1      38.421  29.319  28.971  1.00  0.00    -0.014 A 
BRANCH  34  35
ATOM     35  C   UNL A   1      39.786  28.837  29.298  1.00  0.00     0.031 A 
ATOM     36  C   UNL A   1      40.782  29.744  29.961  1.00  0.00     0.074 A 
ATOM     37  C   UNL A   1      40.157  27.602  28.906  1.00  0.00     0.049 A 
ATOM     38  N   UNL A   1      42.042  29.521  30.245  1.00  0.00    -0.248 NA
ATOM     39  C   UNL A   1      40.308  31.084  30.339  1.00  0.00     0.031 C 
ATOM     40  C   UNL A   1      39.293  26.638  28.224  1.00  0.00     0.029 A 
ATOM     41  N   UNL A   1      41.364  26.954  29.008  1.00  0.00    -0.354 N 
ATOM     42  C   UNL A   1      42.513  30.690  30.827  1.00  0.00     0.074 A 
ATOM     43  C   UNL A   1      41.415  31.635  30.818  1.00  0.00     0.031 C 
ATOM     44  C   UNL A   1      39.994  25.520  27.974  1.00  0.00     0.029 A 
ATOM     45  C   UNL A   1      41.365  25.703  28.439  1.00  0.00     0.049 A 
ATOM     46  H   UNL A   1      42.152  27.348  29.446  1.00  0.00     0.167 HD
ATOM     47  C   UNL A   1      43.743  30.950  31.332  1.00  0.00     0.031 A 
ATOM     48  C   UNL A   1      42.362  24.809  28.292  1.00  0.00     0.031 A 
ATOM     49  C   UNL A   1      44.837  30.013  31.321  1.00  0.00     0.049 A 
ATOM     50  C   UNL A   1      43.731  25.139  28.817  1.00  0.00     0.074 A 
ATOM     51  C   UNL A   1      46.107  30.167  31.852  1.00  0.00     0.029 A 
ATOM     52  N   UNL A   1      44.796  28.755  30.741  1.00  0.00    -0.354 N 
ATOM     53  N   UNL A   1      44.140  26.221  29.436  1.00  0.00    -0.248 NA
ATOM     54  C   UNL A   1      44.775  24.120  28.636  1.00  0.00     0.031 C 
ATOM     55  C   UNL A   1      46.854  29.028  31.536  1.00  0.00     0.029 A 
ATOM     56  C   UNL A   1      46.027  28.135  30.874  1.00  0.00     0.049 A 
ATOM     57  H   UNL A   1      44.009  28.360  30.300  1.00  0.00     0.167 HD
ATOM     58  C   UNL A   1      45.474  25.997  29.750  1.00  0.00     0.074 A 
ATOM     59  C   UNL A   1      45.804  24.675  29.262  1.00  0.00     0.031 C 
ATOM     60  C   UNL A   1      46.344  26.814  30.392  1.00  0.00     0.031 A 
BRANCH  47  61
ATOM     61  C   UNL A   1      43.981  32.312  31.925  1.00  0.00    -0.014 A 
ATOM     62  C   UNL A   1      44.427  33.383  31.135  1.00  0.00     0.009 A 
ATOM     63  C   UNL A   1      43.705  32.541  33.282  1.00  0.00     0.009 A 
ATOM     64  C   UNL A   1      44.629  34.645  31.699  1.00  0.00     0.001 A 
ATOM     65  C   UNL A   1      43.876  33.812  33.838  1.00  0.00     0.001 A 
ATOM     66  C   UNL A   1      44.347  34.860  33.048  1.00  0.00     0.000 A 
ENDBRANCH  47  61
BRANCH  48  67
ATOM     67  C   UNL A   1      42.100  23.508  27.620  1.00  0.00    -0.014 A 
ATOM     68  C   UNL A   1      41.550  22.435  28.336  1.00  0.00     0.009 A 
ATOM     69  C   UNL A   1      42.403  23.330  26.261  1.00  0.00     0.009 A 
ATOM     70  C   UNL A   1      41.334  21.203  27.713  1.00  0.00     0.001 A 
ATOM     71  C   UNL A   1      42.156  22.107  25.633  1.00  0.00     0.001 A 
ATOM     72  C   UNL A   1      41.632  21.041  26.362  1.00  0.00     0.000 A 
ENDBRANCH  48  67
BRANCH  60  73
ATOM     73  C   UNL A   1      47.728  26.287  30.657  1.00  0.00    -0.014 A 
ATOM     74  C   UNL A   1      48.082  25.745  31.901  1.00  0.00     0.009 A 
ATOM     75  C   UNL A   1      48.670  26.274  29.616  1.00  0.00     0.009 A 
ATOM     76  C   UNL A   1      49.362  25.223  32.104  1.00  0.00     0.001 A 
ATOM     77  C   UNL A   1      49.937  25.724  29.813  1.00  0.00     0.001 A 
ATOM     78  C   UNL A   1      50.285  25.205  31.058  1.00  0.00     0.000 A 
ENDBRANCH  60  73
ENDBRANCH  34  35
ENDBRANCH  26  29
ENDBRANCH  24  25
ENDBRANCH  23  24
ENDBRANCH   1  23
TORSDOF 15
ENDMDL
MODEL 3
REMARK VINA RESULT:     -10.4      4.451      9.158
REMARK SMILES CC[C@@](C)(NC(=O)NCCc1cscn1)C(=O)NCCCNC(=O)c1ccc(-c2c3nc(c(-c4ccccc4)c4ccc([nH]4)c(-c4ccccc4)c4nc(c(-c5ccccc5)c5ccc2[nH]5)C=C4)C=C3)cc1
REMARK SMILES IDX 19 1 18 2 16 3 17 4 3 6 4 7 2 8 1 9 5 10 6 11 7 13 8 14 9 16
REMARK SMILES IDX 10 17 11 18 12 19 15 20 13 21 14 22 20 23 21 24 22 25 23 26
REMARK SMILES IDX 24 28 25 29 26 30 72 31 27 32 71 33 28 34 29 35 30 36 65 37
REMARK SMILES IDX 31 38 70 39 64 40 66 41 32 42 69 43 63 44 62 45 33 47 55 48
REMARK SMILES IDX 40 49 54 50 41 51 44 52 53 53 67 54 42 55 43 56 52 58 68 59
REMARK SMILES IDX 45 60 34 61 35 62 39 63 36 64 38 65 37 66 56 67 57 68 61 69
REMARK SMILES IDX 58 70 60 71 59 72 46 73 47 74 51 75 48 76 50 77 49 78
REMARK H PARENT 18 5 5 12 8 15 22 27 66 46 44 57
REMARK Flexibility Score: inf
ROOT
ATOM      1  C   UNL A   1      31.446  30.747  26.133  1.00  0.00     0.117 C 
ENDROOT
BRANCH   1   2
ATOM      2  N   UNL A   1      32.343  30.284  25.083  1.00  0.00    -0.354 N 
ATOM      3  C   UNL A   1      33.053  29.128  24.870  1.00  0.00     0.245 C 
ATOM      4  O   UNL A   1      33.517  28.992  23.731  1.00  0.00    -0.272 OA
ATOM      5  H   UNL A   1      32.468  30.947  24.366  1.00  0.00     0.163 HD
BRANCH   3   6
ATOM      6  C   UNL A   1      33.185  28.005  25.932  1.00  0.00     0.117 C 
ATOM      7  C   UNL A   1      34.006  28.614  27.102  1.00  0.00     0.045 C 
BRANCH   6   8
ATOM      8  C   UNL A   1      31.872  27.452  26.562  1.00  0.00     0.035 C 
ATOM      9  C   UNL A   1      31.443  28.002  27.918  1.00  0.00     0.007 C 
ENDBRANCH   6   8
BRANCH   6  10
ATOM     10  N   UNL A   1      33.920  26.866  25.350  1.00  0.00    -0.324 N 
ATOM     11  C   UNL A   1      33.652  25.888  24.479  1.00  0.00     0.315 C 
ATOM     12  H   UNL A   1      34.842  26.813  25.689  1.00  0.00     0.166 HD
ATOM     13  O   UNL A   1      34.512  25.008  24.373  1.00  0.00    -0.249 OA
ATOM     14  N   UNL A   1      32.605  25.817  23.649  1.00  0.00    -0.338 N 
ATOM     15  H   UNL A   1      32.787  25.204  22.901  1.00  0.00     0.165 HD
BRANCH  14  16
ATOM     16  C   UNL A   1      31.266  26.396  23.542  1.00  0.00     0.124 C 
BRANCH  16  17
ATOM     17  C   UNL A   1      30.981  27.236  22.292  1.00  0.00     0.078 C 
BRANCH  17  18
ATOM     18  C   UNL A   1      30.008  28.374  22.383  1.00  0.00     0.053 A 
ATOM     19  C   UNL A   1      28.800  28.307  23.063  1.00  0.00     0.090 A 
ATOM     20  N   UNL A   1      30.250  29.585  21.761  1.00  0.00    -0.250 NA
ATOM     21  S   UNL A   1      27.914  29.756  22.856  1.00  0.00    -0.130 S 
ATOM     22  C   UNL A   1      29.214  30.381  21.929  1.00  0.00     0.175 A 
ENDBRANCH  17  18
ENDBRANCH  16  17
ENDBRANCH  14  16
ENDBRANCH   6  10
ENDBRANCH   3   6
ENDBRANCH   1   2
BRANCH   1  23
ATOM     23  C   UNL A   1      31.409  32.234  26.495  1.00  0.00     0.042 C 
BRANCH  23  24
ATOM     24  C   UNL A   1      32.538  32.840  27.314  1.00  0.00     0.118 C 
BRANCH  24  25
ATOM     25  N   UNL A   1      32.325  34.221  27.706  1.00  0.00    -0.352 N 
ATOM     26  C   UNL A   1      33.031  34.984  28.609  1.00  0.00     0.251 C 
ATOM     27  H   UNL A   1      31.570  34.676  27.266  1.00  0.00     0.163 HD
ATOM     28  O   UNL A   1      32.656  36.118  28.878  1.00  0.00    -0.269 OA
BRANCH  26  29
ATOM     29  C   UNL A   1      34.229  34.427  29.279  1.00  0.00     0.039 A 
ATOM     30  C   UNL A   1      34.096  33.886  30.562  1.00  0.00     0.014 A 
ATOM     31  C   UNL A   1      35.477  34.444  28.654  1.00  0.00     0.014 A 
ATOM     32  C   UNL A   1      35.201  33.299  31.187  1.00  0.00     0.010 A 
ATOM     33  C   UNL A   1      36.571  33.832  29.264  1.00  0.00     0.010 A 
ATOM     34  C   UNL A   1      36.440  33.239  30.529  1.00  0.00    -0.014 A 
BRANCH  34  35
ATOM     35  C   UNL A   1      37.594  32.510  31.113  1.00  0.00     0.031 A 
ATOM     36  C   UNL A   1      38.312  33.049  32.317  1.00  0.00     0.074 A 
ATOM     37  C   UNL A   1      38.055  31.406  30.492  1.00  0.00     0.049 A 
ATOM     38  N   UNL A   1      39.387  32.592  32.910  1.00  0.00    -0.248 NA
ATOM     39  C   UNL A   1      37.761  34.270  32.925  1.00  0.00     0.031 C 
ATOM     40  C   UNL A   1      37.467  30.803  29.296  1.00  0.00     0.029 A 
ATOM     41  N   UNL A   1      39.137  30.607  30.771  1.00  0.00    -0.354 N 
ATOM     42  C   UNL A   1      39.646  33.470  33.955  1.00  0.00     0.074 A 
ATOM     43  C   UNL A   1      38.640  34.509  33.889  1.00  0.00     0.031 C 
ATOM     44  C   UNL A   1      38.189  29.726  28.947  1.00  0.00     0.029 A 
ATOM     45  C   UNL A   1      39.313  29.587  29.867  1.00  0.00     0.049 A 
ATOM     46  H   UNL A   1      39.729  30.751  31.545  1.00  0.00     0.167 HD
ATOM     47  C   UNL A   1      40.626  33.410  34.889  1.00  0.00     0.031 A 
ATOM     48  C   UNL A   1      40.281  28.654  29.778  1.00  0.00     0.031 A 
ATOM     49  C   UNL A   1      41.635  32.384  34.939  1.00  0.00     0.049 A 
ATOM     50  C   UNL A   1      41.385  28.638  30.798  1.00  0.00     0.074 A 
ATOM     51  C   UNL A   1      42.641  32.212  35.875  1.00  0.00     0.029 A 
ATOM     52  N   UNL A   1      41.776  31.366  34.009  1.00  0.00    -0.354 N 
ATOM     53  N   UNL A   1      41.571  29.430  31.827  1.00  0.00    -0.248 NA
ATOM     54  C   UNL A   1      42.406  27.590  30.654  1.00  0.00     0.031 C 
ATOM     55  C   UNL A   1      43.429  31.128  35.476  1.00  0.00     0.029 A 
ATOM     56  C   UNL A   1      42.871  30.581  34.332  1.00  0.00     0.049 A 
ATOM     57  H   UNL A   1      41.187  31.222  33.234  1.00  0.00     0.167 HD
ATOM     58  C   UNL A   1      42.706  28.954  32.471  1.00  0.00     0.074 A 
ATOM     59  C   UNL A   1      43.161  27.801  31.724  1.00  0.00     0.031 C 
ATOM     60  C   UNL A   1      43.310  29.429  33.587  1.00  0.00     0.031 A 
BRANCH  47  61
ATOM     61  C   UNL A   1      40.666  34.498  35.927  1.00  0.00    -0.014 A 
ATOM     62  C   UNL A   1      39.911  34.408  37.107  1.00  0.00     0.009 A 
ATOM     63  C   UNL A   1      41.511  35.605  35.748  1.00  0.00     0.009 A 
ATOM     64  C   UNL A   1      39.971  35.420  38.068  1.00  0.00     0.001 A 
ATOM     65  C   UNL A   1      41.595  36.601  36.724  1.00  0.00     0.001 A 
ATOM     66  C   UNL A   1      40.817  36.512  37.878  1.00  0.00     0.000 A 
ENDBRANCH  47  61
BRANCH  48  67
ATOM     67  C   UNL A   1      40.246  27.650  28.680  1.00  0.00    -0.014 A 
ATOM     68  C   UNL A   1      40.890  27.907  27.461  1.00  0.00     0.009 A 
ATOM     69  C   UNL A   1      39.568  26.432  28.846  1.00  0.00     0.009 A 
ATOM     70  C   UNL A   1      40.830  26.978  26.419  1.00  0.00     0.001 A 
ATOM     71  C   UNL A   1      39.538  25.492  27.813  1.00  0.00     0.001 A 
ATOM     72  C   UNL A   1      40.159  25.770  26.597  1.00  0.00     0.000 A 
ENDBRANCH  48  67
BRANCH  60  73
ATOM     73  C   UNL A   1      44.503  28.674  34.108  1.00  0.00    -0.014 A 
ATOM     74  C   UNL A   1      45.809  28.996  33.710  1.00  0.00     0.009 A 
ATOM     75  C   UNL A   1      44.313  27.665  35.066  1.00  0.00     0.009 A 
ATOM     76  C   UNL A   1      46.899  28.305  34.245  1.00  0.00     0.001 A 
ATOM     77  C   UNL A   1      45.406  26.998  35.620  1.00  0.00     0.001 A 
ATOM     78  C   UNL A   1      46.697  27.314  35.205  1.00  0.00     0.000 A 
ENDBRANCH  60  73
ENDBRANCH  34  35
ENDBRANCH  26  29
ENDBRANCH  24  25
ENDBRANCH  23  24
ENDBRANCH   1  23
TORSDOF 15
ENDMDL
