MODEL 1
REMARK VINA RESULT:     -11.5      0.000      0.000
REMARK SMILES COC(=O)[C@@H]1CN(C(=O)NC(=O)CCCC(=O)NCCCNC(=O)c2ccc(-c3c4nc(c(-c5ccccc5)c5ccc([nH]5)c(-c5ccccc5)c5nc(c(-c6ccccc6)c6ccc3[nH]6)C=C5)C=C4)cc2)C[C@H]1C
REMARK SMILES IDX 16 1 17 2 18 3 15 5 14 6 13 7 11 8 8 9 9 10 10 11 12 13 7 14
REMARK SMILES IDX 5 15 6 16 74 17 73 18 75 19 3 20 4 21 2 22 1 23 19 24 20 25
REMARK SMILES IDX 21 26 22 27 23 28 24 30 25 31 26 32 72 33 27 34 71 35 28 36
REMARK SMILES IDX 29 37 30 38 65 39 31 40 70 41 64 42 66 43 32 44 69 45 63 46
REMARK SMILES IDX 62 47 33 49 55 50 40 51 54 52 41 53 44 54 53 55 67 56 42 57
REMARK SMILES IDX 43 58 52 60 68 61 45 62 34 63 35 64 39 65 36 66 38 67 37 68
REMARK SMILES IDX 56 69 57 70 61 71 58 72 60 73 59 74 46 75 47 76 51 77 48 78
REMARK SMILES IDX 50 79 49 80
REMARK H PARENT 18 4 10 12 22 29 66 48 44 59
REMARK Flexibility Score: inf
ROOT
ATOM      1  C   UNL A   1      33.197  28.192  26.180  1.00  0.00     0.220 C 
ATOM      2  O   UNL A   1      34.294  27.702  26.537  1.00  0.00    -0.275 OA
ATOM      3  N   UNL A   1      32.518  30.038  26.317  1.00  0.00    -0.356 N 
ATOM      4  H   UNL A   1      33.232  30.633  26.638  1.00  0.00     0.163 HD
ENDROOT
BRANCH   1   5
ATOM      5  C   UNL A   1      32.264  26.761  25.543  1.00  0.00     0.100 C 
BRANCH   5   6
ATOM      6  C   UNL A   1      31.273  25.746  26.223  1.00  0.00     0.020 C 
BRANCH   6   7
ATOM      7  C   UNL A   1      31.607  24.381  26.859  1.00  0.00     0.101 C 
BRANCH   7   8
ATOM      8  C   UNL A   1      30.595  23.272  26.970  1.00  0.00     0.227 C 
ATOM      9  C   UNL A   1      31.612  21.563  25.470  1.00  0.00     0.324 C 
ATOM     10  O   UNL A   1      31.762  20.343  25.372  1.00  0.00    -0.248 OA
ATOM     11  N   UNL A   1      30.857  22.034  26.485  1.00  0.00    -0.278 N 
ATOM     12  H   UNL A   1      30.394  21.322  26.982  1.00  0.00     0.174 HD
ATOM     13  O   UNL A   1      29.482  23.493  27.455  1.00  0.00    -0.275 OA
BRANCH   9  14
ATOM     14  N   UNL A   1      32.139  22.411  24.532  1.00  0.00    -0.323 N 
ATOM     15  C   UNL A   1      33.276  24.070  21.985  1.00  0.00     0.123 C 
ATOM     16  C   UNL A   1      31.606  23.194  22.768  1.00  0.00     0.137 C 
ATOM     17  C   UNL A   1      34.761  23.865  23.362  1.00  0.00     0.021 C 
ATOM     18  C   UNL A   1      33.998  22.821  24.901  1.00  0.00     0.125 C 
ATOM     19  C   UNL A   1      36.059  23.197  22.825  1.00  0.00     0.010 C 
BRANCH  15  20
ATOM     20  C   UNL A   1      33.185  25.488  21.431  1.00  0.00     0.310 C 
ATOM     21  O   UNL A   1      33.161  25.696  20.220  1.00  0.00    -0.252 OA
BRANCH  20  22
ATOM     22  O   UNL A   1      32.970  26.511  22.289  1.00  0.00    -0.469 OA
ATOM     23  C   UNL A   1      33.696  27.744  22.296  1.00  0.00     0.282 C 
ENDBRANCH  20  22
ENDBRANCH  15  20
ENDBRANCH   9  14
ENDBRANCH   7   8
ENDBRANCH   6   7
ENDBRANCH   5   6
ENDBRANCH   1   5
BRANCH   3  24
ATOM     24  C   UNL A   1      31.126  30.908  26.066  1.00  0.00     0.117 C 
BRANCH  24  25
ATOM     25  C   UNL A   1      31.361  32.403  26.310  1.00  0.00     0.042 C 
BRANCH  25  26
ATOM     26  C   UNL A   1      32.461  32.666  27.306  1.00  0.00     0.118 C 
BRANCH  26  27
ATOM     27  N   UNL A   1      32.537  34.077  27.624  1.00  0.00    -0.352 N 
ATOM     28  C   UNL A   1      33.299  34.692  28.590  1.00  0.00     0.251 C 
ATOM     29  H   UNL A   1      31.971  34.672  27.078  1.00  0.00     0.163 HD
ATOM     30  O   UNL A   1      33.014  35.822  28.970  1.00  0.00    -0.269 OA
BRANCH  28  31
ATOM     31  C   UNL A   1      34.445  33.967  29.181  1.00  0.00     0.039 A 
ATOM     32  C   UNL A   1      34.213  32.875  30.016  1.00  0.00     0.014 A 
ATOM     33  C   UNL A   1      35.753  34.368  28.902  1.00  0.00     0.014 A 
ATOM     34  C   UNL A   1      35.299  32.164  30.532  1.00  0.00     0.010 A 
ATOM     35  C   UNL A   1      36.819  33.568  29.281  1.00  0.00     0.010 A 
ATOM     36  C   UNL A   1      36.610  32.488  30.145  1.00  0.00    -0.014 A 
BRANCH  36  37
ATOM     37  C   UNL A   1      37.786  31.771  30.695  1.00  0.00     0.031 A 
ATOM     38  C   UNL A   1      38.278  32.107  32.081  1.00  0.00     0.074 A 
ATOM     39  C   UNL A   1      38.431  30.856  29.945  1.00  0.00     0.049 A 
ATOM     40  N   UNL A   1      39.313  31.633  32.726  1.00  0.00    -0.248 NA
ATOM     41  C   UNL A   1      37.532  33.136  32.829  1.00  0.00     0.031 C 
ATOM     42  C   UNL A   1      38.076  30.475  28.575  1.00  0.00     0.029 A 
ATOM     43  N   UNL A   1      39.520  30.075  30.234  1.00  0.00    -0.354 N 
ATOM     44  C   UNL A   1      39.347  32.319  33.936  1.00  0.00     0.074 A 
ATOM     45  C   UNL A   1      38.284  33.294  33.906  1.00  0.00     0.031 C 
ATOM     46  C   UNL A   1      38.903  29.500  28.163  1.00  0.00     0.029 A 
ATOM     47  C   UNL A   1      39.875  29.225  29.215  1.00  0.00     0.049 A 
ATOM     48  H   UNL A   1      40.002  30.120  31.091  1.00  0.00     0.167 HD
ATOM     49  C   UNL A   1      40.165  32.129  34.997  1.00  0.00     0.031 A 
ATOM     50  C   UNL A   1      40.875  28.327  29.139  1.00  0.00     0.031 A 
ATOM     51  C   UNL A   1      41.207  31.142  35.034  1.00  0.00     0.049 A 
ATOM     52  C   UNL A   1      41.788  28.155  30.323  1.00  0.00     0.074 A 
ATOM     53  C   UNL A   1      42.061  30.832  36.077  1.00  0.00     0.029 A 
ATOM     54  N   UNL A   1      41.535  30.305  33.980  1.00  0.00    -0.354 N 
ATOM     55  N   UNL A   1      41.760  28.761  31.485  1.00  0.00    -0.248 NA
ATOM     56  C   UNL A   1      42.863  27.163  30.187  1.00  0.00     0.031 C 
ATOM     57  C   UNL A   1      42.949  29.850  35.630  1.00  0.00     0.029 A 
ATOM     58  C   UNL A   1      42.598  29.496  34.337  1.00  0.00     0.049 A 
ATOM     59  H   UNL A   1      41.078  30.287  33.107  1.00  0.00     0.167 HD
ATOM     60  C   UNL A   1      42.790  28.202  32.230  1.00  0.00     0.074 A 
ATOM     61  C   UNL A   1      43.408  27.193  31.395  1.00  0.00     0.031 C 
ATOM     62  C   UNL A   1      43.194  28.495  33.490  1.00  0.00     0.031 A 
BRANCH  49  63
ATOM     63  C   UNL A   1      39.960  33.009  36.201  1.00  0.00    -0.014 A 
ATOM     64  C   UNL A   1      40.676  34.206  36.362  1.00  0.00     0.009 A 
ATOM     65  C   UNL A   1      39.009  32.653  37.170  1.00  0.00     0.009 A 
ATOM     66  C   UNL A   1      40.469  35.011  37.484  1.00  0.00     0.001 A 
ATOM     67  C   UNL A   1      38.778  33.477  38.273  1.00  0.00     0.001 A 
ATOM     68  C   UNL A   1      39.515  34.649  38.434  1.00  0.00     0.000 A 
ENDBRANCH  49  63
BRANCH  50  69
ATOM     69  C   UNL A   1      41.069  27.517  27.906  1.00  0.00    -0.014 A 
ATOM     70  C   UNL A   1      41.881  27.983  26.860  1.00  0.00     0.009 A 
ATOM     71  C   UNL A   1      40.415  26.283  27.752  1.00  0.00     0.009 A 
ATOM     72  C   UNL A   1      42.002  27.255  25.675  1.00  0.00     0.001 A 
ATOM     73  C   UNL A   1      40.567  25.538  26.581  1.00  0.00     0.001 A 
ATOM     74  C   UNL A   1      41.348  26.032  25.537  1.00  0.00     0.000 A 
ENDBRANCH  50  69
BRANCH  62  75
ATOM     75  C   UNL A   1      44.324  27.685  34.059  1.00  0.00    -0.014 A 
ATOM     76  C   UNL A   1      44.094  26.470  34.721  1.00  0.00     0.009 A 
ATOM     77  C   UNL A   1      45.645  28.126  33.886  1.00  0.00     0.009 A 
ATOM     78  C   UNL A   1      45.164  25.732  35.234  1.00  0.00     0.001 A 
ATOM     79  C   UNL A   1      46.715  27.370  34.365  1.00  0.00     0.001 A 
ATOM     80  C   UNL A   1      46.473  26.180  35.050  1.00  0.00     0.000 A 
ENDBRANCH  62  75
ENDBRANCH  36  37
ENDBRANCH  28  31
ENDBRANCH  26  27
ENDBRANCH  25  26
ENDBRANCH  24  25
ENDBRANCH   3  24
TORSDOF 16
ENDMDL
MODEL 2
REMARK VINA RESULT:     -11.3      1.871      2.472
REMARK SMILES COC(=O)[C@@H]1CN(C(=O)NC(=O)CCCC(=O)NCCCNC(=O)c2ccc(-c3c4nc(c(-c5ccccc5)c5ccc([nH]5)c(-c5ccccc5)c5nc(c(-c6ccccc6)c6ccc3[nH]6)C=C5)C=C4)cc2)C[C@H]1C
REMARK SMILES IDX 16 1 17 2 18 3 15 5 14 6 13 7 11 8 8 9 9 10 10 11 12 13 7 14
REMARK SMILES IDX 5 15 6 16 74 17 73 18 75 19 3 20 4 21 2 22 1 23 19 24 20 25
REMARK SMILES IDX 21 26 22 27 23 28 24 30 25 31 26 32 72 33 27 34 71 35 28 36
REMARK SMILES IDX 29 37 30 38 65 39 31 40 70 41 64 42 66 43 32 44 69 45 63 46
REMARK SMILES IDX 62 47 33 49 55 50 40 51 54 52 41 53 44 54 53 55 67 56 42 57
REMARK SMILES IDX 43 58 52 60 68 61 45 62 34 63 35 64 39 65 36 66 38 67 37 68
REMARK SMILES IDX 56 69 57 70 61 71 58 72 60 73 59 74 46 75 47 76 51 77 48 78
REMARK SMILES IDX 50 79 49 80
REMARK H PARENT 18 4 10 12 22 29 66 48 44 59
REMARK Flexibility Score: inf
ROOT
ATOM      1  C   UNL A   1      34.171  28.704  26.643  1.00  0.00     0.220 C 
ATOM      2  O   UNL A   1      35.260  28.399  27.182  1.00  0.00    -0.275 OA
ATOM      3  N   UNL A   1      33.039  30.303  26.869  1.00  0.00    -0.356 N 
ATOM      4  H   UNL A   1      33.502  30.963  27.433  1.00  0.00     0.163 HD
ENDROOT
BRANCH   1   5
ATOM      5  C   UNL A   1      33.773  27.258  25.606  1.00  0.00     0.100 C 
BRANCH   5   6
ATOM      6  C   UNL A   1      33.425  25.763  25.950  1.00  0.00     0.020 C 
BRANCH   6   7
ATOM      7  C   UNL A   1      34.372  24.545  25.934  1.00  0.00     0.101 C 
BRANCH   7   8
ATOM      8  C   UNL A   1      33.942  23.182  26.406  1.00  0.00     0.227 C 
ATOM      9  C   UNL A   1      32.952  22.257  24.315  1.00  0.00     0.324 C 
ATOM     10  O   UNL A   1      32.854  21.199  23.690  1.00  0.00    -0.248 OA
ATOM     11  N   UNL A   1      33.547  22.230  25.527  1.00  0.00    -0.278 N 
ATOM     12  H   UNL A   1      33.734  21.316  25.842  1.00  0.00     0.174 HD
ATOM     13  O   UNL A   1      33.888  22.931  27.613  1.00  0.00    -0.275 OA
BRANCH   9  14
ATOM     14  N   UNL A   1      32.411  23.415  23.823  1.00  0.00    -0.323 N 
ATOM     15  C   UNL A   1      30.741  25.882  22.534  1.00  0.00     0.123 C 
ATOM     16  C   UNL A   1      30.695  24.436  23.975  1.00  0.00     0.137 C 
ATOM     17  C   UNL A   1      32.548  25.744  21.606  1.00  0.00     0.021 C 
ATOM     18  C   UNL A   1      33.522  24.195  22.439  1.00  0.00     0.125 C 
ATOM     19  C   UNL A   1      32.476  25.590  20.060  1.00  0.00     0.010 C 
BRANCH  15  20
ATOM     20  C   UNL A   1      30.383  27.318  22.905  1.00  0.00     0.310 C 
ATOM     21  O   UNL A   1      30.274  27.661  24.079  1.00  0.00    -0.252 OA
BRANCH  20  22
ATOM     22  O   UNL A   1      30.342  28.252  21.929  1.00  0.00    -0.469 OA
ATOM     23  C   UNL A   1      29.799  29.568  22.073  1.00  0.00     0.282 C 
ENDBRANCH  20  22
ENDBRANCH  15  20
ENDBRANCH   9  14
ENDBRANCH   7   8
ENDBRANCH   6   7
ENDBRANCH   5   6
ENDBRANCH   1   5
BRANCH   3  24
ATOM     24  C   UNL A   1      31.554  30.890  26.413  1.00  0.00     0.117 C 
BRANCH  24  25
ATOM     25  C   UNL A   1      31.438  32.388  26.721  1.00  0.00     0.042 C 
BRANCH  25  26
ATOM     26  C   UNL A   1      32.758  33.012  27.092  1.00  0.00     0.118 C 
BRANCH  26  27
ATOM     27  N   UNL A   1      32.553  34.242  27.830  1.00  0.00    -0.352 N 
ATOM     28  C   UNL A   1      33.189  34.665  28.973  1.00  0.00     0.251 C 
ATOM     29  H   UNL A   1      31.871  34.853  27.465  1.00  0.00     0.163 HD
ATOM     30  O   UNL A   1      32.688  35.543  29.666  1.00  0.00    -0.269 OA
BRANCH  28  31
ATOM     31  C   UNL A   1      34.467  34.032  29.369  1.00  0.00     0.039 A 
ATOM     32  C   UNL A   1      34.490  33.135  30.437  1.00  0.00     0.014 A 
ATOM     33  C   UNL A   1      35.643  34.322  28.676  1.00  0.00     0.014 A 
ATOM     34  C   UNL A   1      35.688  32.504  30.777  1.00  0.00     0.010 A 
ATOM     35  C   UNL A   1      36.788  33.577  28.909  1.00  0.00     0.010 A 
ATOM     36  C   UNL A   1      36.840  32.698  29.996  1.00  0.00    -0.014 A 
BRANCH  36  37
ATOM     37  C   UNL A   1      38.134  32.064  30.343  1.00  0.00     0.031 A 
ATOM     38  C   UNL A   1      39.064  32.756  31.310  1.00  0.00     0.074 A 
ATOM     39  C   UNL A   1      38.492  30.898  29.769  1.00  0.00     0.049 A 
ATOM     40  N   UNL A   1      40.258  32.396  31.708  1.00  0.00    -0.248 NA
ATOM     41  C   UNL A   1      38.611  34.039  31.877  1.00  0.00     0.031 C 
ATOM     42  C   UNL A   1      37.698  30.154  28.789  1.00  0.00     0.029 A 
ATOM     43  N   UNL A   1      39.617  30.133  29.934  1.00  0.00    -0.354 N 
ATOM     44  C   UNL A   1      40.695  33.413  32.550  1.00  0.00     0.074 A 
ATOM     45  C   UNL A   1      39.682  34.440  32.544  1.00  0.00     0.031 C 
ATOM     46  C   UNL A   1      38.340  29.017  28.477  1.00  0.00     0.029 A 
ATOM     47  C   UNL A   1      39.611  28.977  29.191  1.00  0.00     0.049 A 
ATOM     48  H   UNL A   1      40.360  30.387  30.527  1.00  0.00     0.167 HD
ATOM     49  C   UNL A   1      41.823  33.473  33.294  1.00  0.00     0.031 A 
ATOM     50  C   UNL A   1      40.529  27.997  29.098  1.00  0.00     0.031 A 
ATOM     51  C   UNL A   1      42.820  32.441  33.317  1.00  0.00     0.049 A 
ATOM     52  C   UNL A   1      41.788  28.101  29.916  1.00  0.00     0.074 A 
ATOM     53  C   UNL A   1      43.976  32.377  34.073  1.00  0.00     0.029 A 
ATOM     54  N   UNL A   1      42.776  31.289  32.548  1.00  0.00    -0.354 N 
ATOM     55  N   UNL A   1      42.152  29.036  30.760  1.00  0.00    -0.248 NA
ATOM     56  C   UNL A   1      42.758  27.007  29.775  1.00  0.00     0.031 C 
ATOM     57  C   UNL A   1      44.665  31.215  33.712  1.00  0.00     0.029 A 
ATOM     58  C   UNL A   1      43.899  30.520  32.790  1.00  0.00     0.049 A 
ATOM     59  H   UNL A   1      42.051  31.052  31.923  1.00  0.00     0.167 HD
ATOM     60  C   UNL A   1      43.375  28.627  31.276  1.00  0.00     0.074 A 
ATOM     61  C   UNL A   1      43.678  27.349  30.666  1.00  0.00     0.031 C 
ATOM     62  C   UNL A   1      44.178  29.249  32.173  1.00  0.00     0.031 A 
BRANCH  49  63
ATOM     63  C   UNL A   1      42.034  34.698  34.143  1.00  0.00    -0.014 A 
ATOM     64  C   UNL A   1      41.639  34.729  35.491  1.00  0.00     0.009 A 
ATOM     65  C   UNL A   1      42.671  35.824  33.598  1.00  0.00     0.009 A 
ATOM     66  C   UNL A   1      41.846  35.873  36.264  1.00  0.00     0.001 A 
ATOM     67  C   UNL A   1      42.909  36.953  34.384  1.00  0.00     0.001 A 
ATOM     68  C   UNL A   1      42.488  36.981  35.712  1.00  0.00     0.000 A 
ENDBRANCH  49  63
BRANCH  50  69
ATOM     69  C   UNL A   1      40.299  26.830  28.203  1.00  0.00    -0.014 A 
ATOM     70  C   UNL A   1      40.804  26.818  26.894  1.00  0.00     0.009 A 
ATOM     71  C   UNL A   1      39.543  25.732  28.644  1.00  0.00     0.009 A 
ATOM     72  C   UNL A   1      40.523  25.755  26.034  1.00  0.00     0.001 A 
ATOM     73  C   UNL A   1      39.295  24.652  27.794  1.00  0.00     0.001 A 
ATOM     74  C   UNL A   1      39.772  24.671  26.485  1.00  0.00     0.000 A 
ENDBRANCH  50  69
BRANCH  62  75
ATOM     75  C   UNL A   1      45.437  28.537  32.583  1.00  0.00    -0.014 A 
ATOM     76  C   UNL A   1      46.652  28.756  31.918  1.00  0.00     0.009 A 
ATOM     77  C   UNL A   1      45.411  27.668  33.685  1.00  0.00     0.009 A 
ATOM     78  C   UNL A   1      47.809  28.087  32.325  1.00  0.00     0.001 A 
ATOM     79  C   UNL A   1      46.574  27.030  34.113  1.00  0.00     0.001 A 
ATOM     80  C   UNL A   1      47.770  27.230  33.425  1.00  0.00     0.000 A 
ENDBRANCH  62  75
ENDBRANCH  36  37
ENDBRANCH  28  31
ENDBRANCH  26  27
ENDBRANCH  25  26
ENDBRANCH  24  25
ENDBRANCH   3  24
TORSDOF 16
ENDMDL
MODEL 3
REMARK VINA RESULT:     -11.3      1.803      3.017
REMARK SMILES COC(=O)[C@@H]1CN(C(=O)NC(=O)CCCC(=O)NCCCNC(=O)c2ccc(-c3c4nc(c(-c5ccccc5)c5ccc([nH]5)c(-c5ccccc5)c5nc(c(-c6ccccc6)c6ccc3[nH]6)C=C5)C=C4)cc2)C[C@H]1C
REMARK SMILES IDX 16 1 17 2 18 3 15 5 14 6 13 7 11 8 8 9 9 10 10 11 12 13 7 14
REMARK SMILES IDX 5 15 6 16 74 17 73 18 75 19 3 20 4 21 2 22 1 23 19 24 20 25
REMARK SMILES IDX 21 26 22 27 23 28 24 30 25 31 26 32 72 33 27 34 71 35 28 36
REMARK SMILES IDX 29 37 30 38 65 39 31 40 70 41 64 42 66 43 32 44 69 45 63 46
REMARK SMILES IDX 62 47 33 49 55 50 40 51 54 52 41 53 44 54 53 55 67 56 42 57
REMARK SMILES IDX 43 58 52 60 68 61 45 62 34 63 35 64 39 65 36 66 38 67 37 68
REMARK SMILES IDX 56 69 57 70 61 71 58 72 60 73 59 74 46 75 47 76 51 77 48 78
REMARK SMILES IDX 50 79 49 80
REMARK H PARENT 18 4 10 12 22 29 66 48 44 59
REMARK Flexibility Score: inf
ROOT
ATOM      1  C   UNL A   1      33.259  28.823  24.014  1.00  0.00     0.220 C 
ATOM      2  O   UNL A   1      34.377  28.257  24.027  1.00  0.00    -0.275 OA
ATOM      3  N   UNL A   1      32.457  30.095  25.290  1.00  0.00    -0.356 N 
ATOM      4  H   UNL A   1      33.123  30.354  25.967  1.00  0.00     0.163 HD
ENDROOT
BRANCH   1   5
ATOM      5  C   UNL A   1      32.437  28.139  22.537  1.00  0.00     0.100 C 
BRANCH   5   6
ATOM      6  C   UNL A   1      31.825  26.726  22.216  1.00  0.00     0.020 C 
BRANCH   6   7
ATOM      7  C   UNL A   1      31.065  25.786  23.174  1.00  0.00     0.101 C 
BRANCH   7   8
ATOM      8  C   UNL A   1      30.056  26.292  24.170  1.00  0.00     0.227 C 
ATOM      9  C   UNL A   1      31.503  26.619  26.172  1.00  0.00     0.324 C 
ATOM     10  O   UNL A   1      31.652  27.380  27.131  1.00  0.00    -0.248 OA
ATOM     11  N   UNL A   1      30.447  26.820  25.355  1.00  0.00    -0.278 N 
ATOM     12  H   UNL A   1      29.822  27.501  25.696  1.00  0.00     0.174 HD
ATOM     13  O   UNL A   1      28.848  26.177  23.944  1.00  0.00    -0.275 OA
BRANCH   9  14
ATOM     14  N   UNL A   1      32.347  25.557  25.982  1.00  0.00    -0.323 N 
ATOM     15  C   UNL A   1      34.324  23.156  25.053  1.00  0.00     0.123 C 
ATOM     16  C   UNL A   1      34.080  25.183  25.048  1.00  0.00     0.137 C 
ATOM     17  C   UNL A   1      32.756  22.367  26.084  1.00  0.00     0.021 C 
ATOM     18  C   UNL A   1      31.568  23.899  26.616  1.00  0.00     0.125 C 
ATOM     19  C   UNL A   1      31.951  21.281  25.314  1.00  0.00     0.010 C 
BRANCH  15  20
ATOM     20  C   UNL A   1      35.663  22.566  25.485  1.00  0.00     0.310 C 
ATOM     21  O   UNL A   1      36.417  23.185  26.233  1.00  0.00    -0.252 OA
BRANCH  20  22
ATOM     22  O   UNL A   1      35.944  21.284  25.164  1.00  0.00    -0.469 OA
ATOM     23  C   UNL A   1      37.251  20.777  24.874  1.00  0.00     0.282 C 
ENDBRANCH  20  22
ENDBRANCH  15  20
ENDBRANCH   9  14
ENDBRANCH   7   8
ENDBRANCH   6   7
ENDBRANCH   5   6
ENDBRANCH   1   5
BRANCH   3  24
ATOM     24  C   UNL A   1      31.018  30.867  25.589  1.00  0.00     0.117 C 
BRANCH  24  25
ATOM     25  C   UNL A   1      31.137  31.803  26.797  1.00  0.00     0.042 C 
BRANCH  25  26
ATOM     26  C   UNL A   1      32.508  32.416  26.928  1.00  0.00     0.118 C 
BRANCH  26  27
ATOM     27  N   UNL A   1      32.412  33.798  27.353  1.00  0.00    -0.352 N 
ATOM     28  C   UNL A   1      33.113  34.431  28.352  1.00  0.00     0.251 C 
ATOM     29  H   UNL A   1      31.761  34.354  26.864  1.00  0.00     0.163 HD
ATOM     30  O   UNL A   1      32.696  35.482  28.824  1.00  0.00    -0.269 OA
BRANCH  28  31
ATOM     31  C   UNL A   1      34.356  33.816  28.868  1.00  0.00     0.039 A 
ATOM     32  C   UNL A   1      34.297  32.954  29.962  1.00  0.00     0.014 A 
ATOM     33  C   UNL A   1      35.583  34.091  28.261  1.00  0.00     0.014 A 
ATOM     34  C   UNL A   1      35.466  32.339  30.414  1.00  0.00     0.010 A 
ATOM     35  C   UNL A   1      36.708  33.358  28.607  1.00  0.00     0.010 A 
ATOM     36  C   UNL A   1      36.676  32.515  29.722  1.00  0.00    -0.014 A 
BRANCH  36  37
ATOM     37  C   UNL A   1      37.940  31.898  30.190  1.00  0.00     0.031 A 
ATOM     38  C   UNL A   1      38.742  32.578  31.272  1.00  0.00     0.074 A 
ATOM     39  C   UNL A   1      38.387  30.759  29.624  1.00  0.00     0.049 A 
ATOM     40  N   UNL A   1      39.893  32.232  31.788  1.00  0.00    -0.248 NA
ATOM     41  C   UNL A   1      38.197  33.833  31.824  1.00  0.00     0.031 C 
ATOM     42  C   UNL A   1      37.723  30.029  28.541  1.00  0.00     0.029 A 
ATOM     43  N   UNL A   1      39.507  30.013  29.889  1.00  0.00    -0.354 N 
ATOM     44  C   UNL A   1      40.211  33.231  32.702  1.00  0.00     0.074 A 
ATOM     45  C   UNL A   1      39.179  34.235  32.615  1.00  0.00     0.031 C 
ATOM     46  C   UNL A   1      38.424  28.917  28.268  1.00  0.00     0.029 A 
ATOM     47  C   UNL A   1      39.610  28.882  29.116  1.00  0.00     0.049 A 
ATOM     48  H   UNL A   1      40.174  30.265  30.567  1.00  0.00     0.167 HD
ATOM     49  C   UNL A   1      41.250  33.292  33.566  1.00  0.00     0.031 A 
ATOM     50  C   UNL A   1      40.557  27.925  29.095  1.00  0.00     0.031 A 
ATOM     51  C   UNL A   1      42.263  32.280  33.668  1.00  0.00     0.049 A 
ATOM     52  C   UNL A   1      41.717  28.031  30.048  1.00  0.00     0.074 A 
ATOM     53  C   UNL A   1      43.332  32.218  34.544  1.00  0.00     0.029 A 
ATOM     54  N   UNL A   1      42.332  31.153  32.865  1.00  0.00    -0.354 N 
ATOM     55  N   UNL A   1      41.963  28.946  30.955  1.00  0.00    -0.248 NA
ATOM     56  C   UNL A   1      42.723  26.962  29.983  1.00  0.00     0.031 C 
ATOM     57  C   UNL A   1      44.085  31.083  34.227  1.00  0.00     0.029 A 
ATOM     58  C   UNL A   1      43.442  30.401  33.206  1.00  0.00     0.049 A 
ATOM     59  H   UNL A   1      41.686  30.921  32.158  1.00  0.00     0.167 HD
ATOM     60  C   UNL A   1      43.132  28.546  31.589  1.00  0.00     0.074 A 
ATOM     61  C   UNL A   1      43.532  27.296  30.978  1.00  0.00     0.031 C 
ATOM     62  C   UNL A   1      43.818  29.157  32.586  1.00  0.00     0.031 A 
BRANCH  49  63
ATOM     63  C   UNL A   1      41.336  34.493  34.470  1.00  0.00    -0.014 A 
ATOM     64  C   UNL A   1      40.711  34.508  35.727  1.00  0.00     0.009 A 
ATOM     65  C   UNL A   1      42.086  35.611  34.073  1.00  0.00     0.009 A 
ATOM     66  C   UNL A   1      40.805  35.630  36.552  1.00  0.00     0.001 A 
ATOM     67  C   UNL A   1      42.208  36.717  34.915  1.00  0.00     0.001 A 
ATOM     68  C   UNL A   1      41.560  36.730  36.149  1.00  0.00     0.000 A 
ENDBRANCH  49  63
BRANCH  50  69
ATOM     69  C   UNL A   1      40.454  26.783  28.146  1.00  0.00    -0.014 A 
ATOM     70  C   UNL A   1      39.821  25.589  28.525  1.00  0.00     0.009 A 
ATOM     71  C   UNL A   1      41.019  26.869  26.863  1.00  0.00     0.009 A 
ATOM     72  C   UNL A   1      39.791  24.495  27.658  1.00  0.00     0.001 A 
ATOM     73  C   UNL A   1      40.955  25.786  25.983  1.00  0.00     0.001 A 
ATOM     74  C   UNL A   1      40.355  24.595  26.388  1.00  0.00     0.000 A 
ENDBRANCH  50  69
BRANCH  62  75
ATOM     75  C   UNL A   1      45.041  28.460  33.110  1.00  0.00    -0.014 A 
ATOM     76  C   UNL A   1      46.326  28.796  32.659  1.00  0.00     0.009 A 
ATOM     77  C   UNL A   1      44.905  27.482  34.109  1.00  0.00     0.009 A 
ATOM     78  C   UNL A   1      47.447  28.137  33.169  1.00  0.00     0.001 A 
ATOM     79  C   UNL A   1      46.028  26.852  34.644  1.00  0.00     0.001 A 
ATOM     80  C   UNL A   1      47.297  27.171  34.164  1.00  0.00     0.000 A 
ENDBRANCH  62  75
ENDBRANCH  36  37
ENDBRANCH  28  31
ENDBRANCH  26  27
ENDBRANCH  25  26
ENDBRANCH  24  25
ENDBRANCH   3  24
TORSDOF 16
ENDMDL
