MODEL 1
REMARK VINA RESULT:     -11.6      0.000      0.000
REMARK SMILES CC[C@@H](C)c1ccccc1NC(=O)[C@@H]1[C@@H](C(=O)NCCCNC(=O)c2ccc(-c3c4nc(c(-c5ccccc5)c5ccc([nH]5)c(-c5ccccc5)c5nc(c(-c6ccccc6)c6ccc3[nH]6)C=C5)C=C4)cc2)[C@@H]2C=C[C@H]1C2
REMARK SMILES IDX 19 1 18 2 16 3 17 4 15 6 14 7 76 8 73 9 75 10 77 11 74 12
REMARK SMILES IDX 12 13 11 14 13 16 10 17 5 18 6 19 7 20 9 21 8 22 3 23 4 24
REMARK SMILES IDX 2 25 1 26 20 27 21 28 22 29 23 30 24 32 25 33 26 34 72 35
REMARK SMILES IDX 27 36 71 37 28 38 29 39 30 40 65 41 31 42 70 43 64 44 66 45
REMARK SMILES IDX 32 46 69 47 63 48 62 49 33 51 55 52 40 53 54 54 41 55 44 56
REMARK SMILES IDX 53 57 67 58 42 59 43 60 52 62 68 63 45 64 34 65 35 66 39 67
REMARK SMILES IDX 36 68 38 69 37 70 56 71 57 72 61 73 58 74 60 75 59 76 46 77
REMARK SMILES IDX 47 78 51 79 48 80 50 81 49 82
REMARK H PARENT 18 5 11 15 22 31 66 50 44 61
REMARK Flexibility Score: inf
ROOT
ATOM      1  C   UNL A   1      37.417  20.832  24.362  1.00  0.00     0.117 C 
ENDROOT
BRANCH   1   2
ATOM      2  N   UNL A   1      37.734  22.046  25.090  1.00  0.00    -0.356 N 
ATOM      3  C   UNL A   1      36.904  23.046  25.505  1.00  0.00     0.224 C 
ATOM      4  O   UNL A   1      37.403  23.962  26.159  1.00  0.00    -0.275 OA
ATOM      5  H   UNL A   1      38.684  22.165  25.318  1.00  0.00     0.163 HD
BRANCH   3   6
ATOM      6  C   UNL A   1      35.425  23.005  25.140  1.00  0.00     0.098 C 
ATOM      7  C   UNL A   1      34.696  24.377  25.447  1.00  0.00     0.099 C 
ATOM      8  C   UNL A   1      33.565  23.917  26.406  1.00  0.00     0.025 C 
ATOM      9  C   UNL A   1      34.661  22.007  26.055  1.00  0.00     0.025 C 
ATOM     10  C   UNL A   1      32.616  22.994  25.687  1.00  0.00    -0.027 C 
ATOM     11  C   UNL A   1      34.308  22.882  27.257  1.00  0.00     0.017 C 
ATOM     12  C   UNL A   1      33.269  21.841  25.482  1.00  0.00    -0.027 C 
BRANCH   7  13
ATOM     13  C   UNL A   1      34.272  25.118  24.174  1.00  0.00     0.228 C 
ATOM     14  N   UNL A   1      33.805  26.406  24.150  1.00  0.00    -0.326 N 
ATOM     15  H   UNL A   1      33.931  26.880  23.297  1.00  0.00     0.169 HD
ATOM     16  O   UNL A   1      34.404  24.595  23.061  1.00  0.00    -0.274 OA
BRANCH  14  17
ATOM     17  C   UNL A   1      33.173  27.149  25.154  1.00  0.00     0.044 A 
ATOM     18  C   UNL A   1      31.759  27.138  25.254  1.00  0.00    -0.022 A 
ATOM     19  C   UNL A   1      31.214  27.606  26.469  1.00  0.00     0.006 A 
ATOM     20  C   UNL A   1      32.004  28.203  27.455  1.00  0.00     0.000 A 
ATOM     21  C   UNL A   1      33.937  27.866  26.083  1.00  0.00     0.026 A 
ATOM     22  C   UNL A   1      33.357  28.390  27.233  1.00  0.00     0.002 A 
BRANCH  18  23
ATOM     23  C   UNL A   1      30.824  26.789  24.074  1.00  0.00     0.018 C 
ATOM     24  C   UNL A   1      29.815  27.913  23.738  1.00  0.00     0.013 C 
BRANCH  23  25
ATOM     25  C   UNL A   1      30.047  25.449  24.142  1.00  0.00     0.005 C 
ATOM     26  C   UNL A   1      30.640  24.395  23.199  1.00  0.00     0.004 C 
ENDBRANCH  23  25
ENDBRANCH  18  23
ENDBRANCH  14  17
ENDBRANCH   7  13
ENDBRANCH   3   6
ENDBRANCH   1   2
BRANCH   1  27
ATOM     27  C   UNL A   1      38.137  19.622  24.944  1.00  0.00     0.042 C 
BRANCH  27  28
ATOM     28  C   UNL A   1      39.169  19.983  25.999  1.00  0.00     0.118 C 
BRANCH  28  29
ATOM     29  N   UNL A   1      40.395  19.211  25.853  1.00  0.00    -0.352 N 
ATOM     30  C   UNL A   1      41.697  19.619  25.962  1.00  0.00     0.251 C 
ATOM     31  H   UNL A   1      40.268  18.258  25.644  1.00  0.00     0.163 HD
ATOM     32  O   UNL A   1      42.607  18.876  25.585  1.00  0.00    -0.269 OA
BRANCH  30  33
ATOM     33  C   UNL A   1      42.022  20.946  26.523  1.00  0.00     0.039 A 
ATOM     34  C   UNL A   1      42.046  21.110  27.912  1.00  0.00     0.014 A 
ATOM     35  C   UNL A   1      42.272  22.034  25.685  1.00  0.00     0.014 A 
ATOM     36  C   UNL A   1      42.373  22.355  28.457  1.00  0.00     0.010 A 
ATOM     37  C   UNL A   1      42.679  23.248  26.228  1.00  0.00     0.010 A 
ATOM     38  C   UNL A   1      42.718  23.426  27.619  1.00  0.00    -0.014 A 
BRANCH  38  39
ATOM     39  C   UNL A   1      43.090  24.757  28.161  1.00  0.00     0.031 A 
ATOM     40  C   UNL A   1      42.013  25.780  28.414  1.00  0.00     0.074 A 
ATOM     41  C   UNL A   1      44.386  25.077  28.340  1.00  0.00     0.049 A 
ATOM     42  N   UNL A   1      42.134  27.039  28.749  1.00  0.00    -0.248 NA
ATOM     43  C   UNL A   1      40.620  25.336  28.240  1.00  0.00     0.031 C 
ATOM     44  C   UNL A   1      45.523  24.184  28.107  1.00  0.00     0.029 A 
ATOM     45  N   UNL A   1      44.966  26.252  28.746  1.00  0.00    -0.354 N 
ATOM     46  C   UNL A   1      40.839  27.543  28.788  1.00  0.00     0.074 A 
ATOM     47  C   UNL A   1      39.951  26.468  28.410  1.00  0.00     0.031 C 
ATOM     48  C   UNL A   1      46.662  24.840  28.387  1.00  0.00     0.029 A 
ATOM     49  C   UNL A   1      46.340  26.210  28.769  1.00  0.00     0.049 A 
ATOM     50  H   UNL A   1      44.448  27.051  28.996  1.00  0.00     0.167 HD
ATOM     51  C   UNL A   1      40.425  28.787  29.124  1.00  0.00     0.031 A 
ATOM     52  C   UNL A   1      47.238  27.174  29.049  1.00  0.00     0.031 A 
ATOM     53  C   UNL A   1      41.307  29.845  29.535  1.00  0.00     0.049 A 
ATOM     54  C   UNL A   1      46.748  28.551  29.411  1.00  0.00     0.074 A 
ATOM     55  C   UNL A   1      40.978  31.120  29.963  1.00  0.00     0.029 A 
ATOM     56  N   UNL A   1      42.688  29.749  29.575  1.00  0.00    -0.354 N 
ATOM     57  N   UNL A   1      45.518  28.991  29.508  1.00  0.00    -0.248 NA
ATOM     58  C   UNL A   1      47.773  29.562  29.712  1.00  0.00     0.031 C 
ATOM     59  C   UNL A   1      42.165  31.814  30.212  1.00  0.00     0.029 A 
ATOM     60  C   UNL A   1      43.228  30.951  29.998  1.00  0.00     0.049 A 
ATOM     61  H   UNL A   1      43.208  28.948  29.337  1.00  0.00     0.167 HD
ATOM     62  C   UNL A   1      45.620  30.314  29.921  1.00  0.00     0.074 A 
ATOM     63  C   UNL A   1      47.031  30.602  30.065  1.00  0.00     0.031 C 
ATOM     64  C   UNL A   1      44.634  31.210  30.162  1.00  0.00     0.031 A 
BRANCH  51  65
ATOM     65  C   UNL A   1      38.954  29.083  29.058  1.00  0.00    -0.014 A 
ATOM     66  C   UNL A   1      38.139  28.984  30.196  1.00  0.00     0.009 A 
ATOM     67  C   UNL A   1      38.389  29.538  27.856  1.00  0.00     0.009 A 
ATOM     68  C   UNL A   1      36.782  29.313  30.126  1.00  0.00     0.001 A 
ATOM     69  C   UNL A   1      37.041  29.893  27.795  1.00  0.00     0.001 A 
ATOM     70  C   UNL A   1      36.238  29.775  28.928  1.00  0.00     0.000 A 
ENDBRANCH  51  65
BRANCH  52  71
ATOM     71  C   UNL A   1      48.698  26.888  28.995  1.00  0.00    -0.014 A 
ATOM     72  C   UNL A   1      49.414  27.061  27.799  1.00  0.00     0.009 A 
ATOM     73  C   UNL A   1      49.374  26.399  30.122  1.00  0.00     0.009 A 
ATOM     74  C   UNL A   1      50.762  26.707  27.723  1.00  0.00     0.001 A 
ATOM     75  C   UNL A   1      50.732  26.077  30.053  1.00  0.00     0.001 A 
ATOM     76  C   UNL A   1      51.421  26.217  28.849  1.00  0.00     0.000 A 
ENDBRANCH  52  71
BRANCH  64  77
ATOM     77  C   UNL A   1      45.034  32.565  30.671  1.00  0.00    -0.014 A 
ATOM     78  C   UNL A   1      45.259  33.640  29.800  1.00  0.00     0.009 A 
ATOM     79  C   UNL A   1      45.119  32.780  32.057  1.00  0.00     0.009 A 
ATOM     80  C   UNL A   1      45.588  34.899  30.306  1.00  0.00     0.001 A 
ATOM     81  C   UNL A   1      45.417  34.047  32.560  1.00  0.00     0.001 A 
ATOM     82  C   UNL A   1      45.660  35.102  31.684  1.00  0.00     0.000 A 
ENDBRANCH  64  77
ENDBRANCH  38  39
ENDBRANCH  30  33
ENDBRANCH  28  29
ENDBRANCH  27  28
ENDBRANCH   1  27
TORSDOF 14
ENDMDL
MODEL 2
REMARK VINA RESULT:     -11.4      3.444      8.786
REMARK SMILES CC[C@@H](C)c1ccccc1NC(=O)[C@@H]1[C@@H](C(=O)NCCCNC(=O)c2ccc(-c3c4nc(c(-c5ccccc5)c5ccc([nH]5)c(-c5ccccc5)c5nc(c(-c6ccccc6)c6ccc3[nH]6)C=C5)C=C4)cc2)[C@@H]2C=C[C@H]1C2
REMARK SMILES IDX 19 1 18 2 16 3 17 4 15 6 14 7 76 8 73 9 75 10 77 11 74 12
REMARK SMILES IDX 12 13 11 14 13 16 10 17 5 18 6 19 7 20 9 21 8 22 3 23 4 24
REMARK SMILES IDX 2 25 1 26 20 27 21 28 22 29 23 30 24 32 25 33 26 34 72 35
REMARK SMILES IDX 27 36 71 37 28 38 29 39 30 40 65 41 31 42 70 43 64 44 66 45
REMARK SMILES IDX 32 46 69 47 63 48 62 49 33 51 55 52 40 53 54 54 41 55 44 56
REMARK SMILES IDX 53 57 67 58 42 59 43 60 52 62 68 63 45 64 34 65 35 66 39 67
REMARK SMILES IDX 36 68 38 69 37 70 56 71 57 72 61 73 58 74 60 75 59 76 46 77
REMARK SMILES IDX 47 78 51 79 48 80 50 81 49 82
REMARK H PARENT 18 5 11 15 22 31 66 50 44 61
REMARK Flexibility Score: inf
ROOT
ATOM      1  C   UNL A   1      31.558  30.806  26.511  1.00  0.00     0.117 C 
ENDROOT
BRANCH   1   2
ATOM      2  N   UNL A   1      32.897  30.344  26.823  1.00  0.00    -0.356 N 
ATOM      3  C   UNL A   1      33.552  29.233  26.380  1.00  0.00     0.224 C 
ATOM      4  O   UNL A   1      34.716  29.076  26.748  1.00  0.00    -0.275 OA
ATOM      5  H   UNL A   1      33.406  30.914  27.443  1.00  0.00     0.163 HD
BRANCH   3   6
ATOM      6  C   UNL A   1      32.833  28.236  25.478  1.00  0.00     0.098 C 
ATOM      7  C   UNL A   1      33.647  26.889  25.307  1.00  0.00     0.099 C 
ATOM      8  C   UNL A   1      33.810  26.820  23.765  1.00  0.00     0.025 C 
ATOM      9  C   UNL A   1      32.759  28.770  24.020  1.00  0.00     0.025 C 
ATOM     10  C   UNL A   1      32.464  26.682  23.104  1.00  0.00    -0.027 C 
ATOM     11  C   UNL A   1      34.088  28.291  23.436  1.00  0.00     0.017 C 
ATOM     12  C   UNL A   1      31.832  27.855  23.248  1.00  0.00    -0.027 C 
BRANCH   7  13
ATOM     13  C   UNL A   1      32.965  25.697  25.990  1.00  0.00     0.228 C 
ATOM     14  N   UNL A   1      33.535  24.461  26.135  1.00  0.00    -0.326 N 
ATOM     15  H   UNL A   1      33.190  23.927  26.886  1.00  0.00     0.169 HD
ATOM     16  O   UNL A   1      31.855  25.821  26.523  1.00  0.00    -0.274 OA
BRANCH  14  17
ATOM     17  C   UNL A   1      34.536  23.840  25.375  1.00  0.00     0.044 A 
ATOM     18  C   UNL A   1      34.179  23.053  24.251  1.00  0.00    -0.022 A 
ATOM     19  C   UNL A   1      35.216  22.755  23.342  1.00  0.00     0.006 A 
ATOM     20  C   UNL A   1      36.551  23.069  23.611  1.00  0.00     0.000 A 
ATOM     21  C   UNL A   1      35.884  24.031  25.700  1.00  0.00     0.026 A 
ATOM     22  C   UNL A   1      36.891  23.650  24.820  1.00  0.00     0.002 A 
BRANCH  18  23
ATOM     23  C   UNL A   1      32.786  22.409  24.069  1.00  0.00     0.018 C 
ATOM     24  C   UNL A   1      32.841  20.878  23.857  1.00  0.00     0.013 C 
BRANCH  23  25
ATOM     25  C   UNL A   1      31.849  23.011  22.989  1.00  0.00     0.005 C 
ATOM     26  C   UNL A   1      30.670  23.767  23.611  1.00  0.00     0.004 C 
ENDBRANCH  23  25
ENDBRANCH  18  23
ENDBRANCH  14  17
ENDBRANCH   7  13
ENDBRANCH   3   6
ENDBRANCH   1   2
BRANCH   1  27
ATOM     27  C   UNL A   1      31.393  32.293  26.803  1.00  0.00     0.042 C 
BRANCH  27  28
ATOM     28  C   UNL A   1      32.707  33.001  27.090  1.00  0.00     0.118 C 
BRANCH  28  29
ATOM     29  N   UNL A   1      32.515  34.217  27.865  1.00  0.00    -0.352 N 
ATOM     30  C   UNL A   1      33.199  34.665  28.964  1.00  0.00     0.251 C 
ATOM     31  H   UNL A   1      31.788  34.803  27.555  1.00  0.00     0.163 HD
ATOM     32  O   UNL A   1      32.752  35.607  29.623  1.00  0.00    -0.269 OA
BRANCH  30  33
ATOM     33  C   UNL A   1      34.465  34.024  29.370  1.00  0.00     0.039 A 
ATOM     34  C   UNL A   1      34.471  33.167  30.475  1.00  0.00     0.014 A 
ATOM     35  C   UNL A   1      35.652  34.286  28.681  1.00  0.00     0.014 A 
ATOM     36  C   UNL A   1      35.658  32.536  30.857  1.00  0.00     0.010 A 
ATOM     37  C   UNL A   1      36.812  33.594  29.010  1.00  0.00     0.010 A 
ATOM     38  C   UNL A   1      36.831  32.724  30.110  1.00  0.00    -0.014 A 
BRANCH  38  39
ATOM     39  C   UNL A   1      38.107  32.056  30.473  1.00  0.00     0.031 A 
ATOM     40  C   UNL A   1      39.074  32.756  31.392  1.00  0.00     0.074 A 
ATOM     41  C   UNL A   1      38.434  30.874  29.915  1.00  0.00     0.049 A 
ATOM     42  N   UNL A   1      40.294  32.415  31.721  1.00  0.00    -0.248 NA
ATOM     43  C   UNL A   1      38.621  34.019  31.997  1.00  0.00     0.031 C 
ATOM     44  C   UNL A   1      37.596  30.108  28.991  1.00  0.00     0.029 A 
ATOM     45  N   UNL A   1      39.573  30.118  30.032  1.00  0.00    -0.354 N 
ATOM     46  C   UNL A   1      40.762  33.437  32.538  1.00  0.00     0.074 A 
ATOM     47  C   UNL A   1      39.713  34.426  32.628  1.00  0.00     0.031 C 
ATOM     48  C   UNL A   1      38.243  28.985  28.637  1.00  0.00     0.029 A 
ATOM     49  C   UNL A   1      39.559  28.976  29.267  1.00  0.00     0.049 A 
ATOM     50  H   UNL A   1      40.330  30.370  30.609  1.00  0.00     0.167 HD
ATOM     51  C   UNL A   1      41.955  33.535  33.169  1.00  0.00     0.031 A 
ATOM     52  C   UNL A   1      40.508  28.039  29.081  1.00  0.00     0.031 A 
ATOM     53  C   UNL A   1      42.983  32.533  33.109  1.00  0.00     0.049 A 
ATOM     54  C   UNL A   1      41.828  28.180  29.790  1.00  0.00     0.074 A 
ATOM     55  C   UNL A   1      44.199  32.508  33.770  1.00  0.00     0.029 A 
ATOM     56  N   UNL A   1      42.914  31.378  32.347  1.00  0.00    -0.354 N 
ATOM     57  N   UNL A   1      42.229  29.119  30.611  1.00  0.00    -0.248 NA
ATOM     58  C   UNL A   1      42.824  27.124  29.553  1.00  0.00     0.031 C 
ATOM     59  C   UNL A   1      44.889  31.362  33.368  1.00  0.00     0.029 A 
ATOM     60  C   UNL A   1      44.077  30.644  32.505  1.00  0.00     0.049 A 
ATOM     61  H   UNL A   1      42.154  31.118  31.779  1.00  0.00     0.167 HD
ATOM     62  C   UNL A   1      43.503  28.746  31.021  1.00  0.00     0.074 A 
ATOM     63  C   UNL A   1      43.805  27.492  30.365  1.00  0.00     0.031 C 
ATOM     64  C   UNL A   1      44.348  29.383  31.866  1.00  0.00     0.031 A 
BRANCH  51  65
ATOM     65  C   UNL A   1      42.224  34.771  33.981  1.00  0.00    -0.014 A 
ATOM     66  C   UNL A   1      42.763  35.926  33.393  1.00  0.00     0.009 A 
ATOM     67  C   UNL A   1      41.864  34.804  35.337  1.00  0.00     0.009 A 
ATOM     68  C   UNL A   1      42.958  37.081  34.154  1.00  0.00     0.001 A 
ATOM     69  C   UNL A   1      42.032  35.968  36.088  1.00  0.00     0.001 A 
ATOM     70  C   UNL A   1      42.584  37.103  35.497  1.00  0.00     0.000 A 
ENDBRANCH  51  65
BRANCH  52  71
ATOM     71  C   UNL A   1      40.261  26.880  28.179  1.00  0.00    -0.014 A 
ATOM     72  C   UNL A   1      39.585  25.743  28.650  1.00  0.00     0.009 A 
ATOM     73  C   UNL A   1      40.738  26.885  26.860  1.00  0.00     0.009 A 
ATOM     74  C   UNL A   1      39.432  24.621  27.834  1.00  0.00     0.001 A 
ATOM     75  C   UNL A   1      40.554  25.773  26.034  1.00  0.00     0.001 A 
ATOM     76  C   UNL A   1      39.915  24.636  26.527  1.00  0.00     0.000 A 
ENDBRANCH  52  71
BRANCH  64  77
ATOM     77  C   UNL A   1      45.650  28.709  32.188  1.00  0.00    -0.014 A 
ATOM     78  C   UNL A   1      45.759  27.787  33.238  1.00  0.00     0.009 A 
ATOM     79  C   UNL A   1      46.770  28.957  31.376  1.00  0.00     0.009 A 
ATOM     80  C   UNL A   1      46.974  27.144  33.486  1.00  0.00     0.001 A 
ATOM     81  C   UNL A   1      47.973  28.289  31.608  1.00  0.00     0.001 A 
ATOM     82  C   UNL A   1      48.076  27.390  32.667  1.00  0.00     0.000 A 
ENDBRANCH  64  77
ENDBRANCH  38  39
ENDBRANCH  30  33
ENDBRANCH  28  29
ENDBRANCH  27  28
ENDBRANCH   1  27
TORSDOF 14
ENDMDL
MODEL 3
REMARK VINA RESULT:     -11.4      0.387      5.885
REMARK SMILES CC[C@@H](C)c1ccccc1NC(=O)[C@@H]1[C@@H](C(=O)NCCCNC(=O)c2ccc(-c3c4nc(c(-c5ccccc5)c5ccc([nH]5)c(-c5ccccc5)c5nc(c(-c6ccccc6)c6ccc3[nH]6)C=C5)C=C4)cc2)[C@@H]2C=C[C@H]1C2
REMARK SMILES IDX 19 1 18 2 16 3 17 4 15 6 14 7 76 8 73 9 75 10 77 11 74 12
REMARK SMILES IDX 12 13 11 14 13 16 10 17 5 18 6 19 7 20 9 21 8 22 3 23 4 24
REMARK SMILES IDX 2 25 1 26 20 27 21 28 22 29 23 30 24 32 25 33 26 34 72 35
REMARK SMILES IDX 27 36 71 37 28 38 29 39 30 40 65 41 31 42 70 43 64 44 66 45
REMARK SMILES IDX 32 46 69 47 63 48 62 49 33 51 55 52 40 53 54 54 41 55 44 56
REMARK SMILES IDX 53 57 67 58 42 59 43 60 52 62 68 63 45 64 34 65 35 66 39 67
REMARK SMILES IDX 36 68 38 69 37 70 56 71 57 72 61 73 58 74 60 75 59 76 46 77
REMARK SMILES IDX 47 78 51 79 48 80 50 81 49 82
REMARK H PARENT 18 5 11 15 22 31 66 50 44 61
REMARK Flexibility Score: inf
ROOT
ATOM      1  C   UNL A   1      37.417  20.681  24.626  1.00  0.00     0.117 C 
ENDROOT
BRANCH   1   2
ATOM      2  N   UNL A   1      37.743  21.931  25.286  1.00  0.00    -0.356 N 
ATOM      3  C   UNL A   1      36.923  22.967  25.627  1.00  0.00     0.224 C 
ATOM      4  O   UNL A   1      37.427  23.913  26.233  1.00  0.00    -0.275 OA
ATOM      5  H   UNL A   1      38.691  22.049  25.521  1.00  0.00     0.163 HD
BRANCH   3   6
ATOM      6  C   UNL A   1      35.449  22.927  25.241  1.00  0.00     0.098 C 
ATOM      7  C   UNL A   1      34.722  24.306  25.517  1.00  0.00     0.099 C 
ATOM      8  C   UNL A   1      33.575  23.866  26.466  1.00  0.00     0.025 C 
ATOM      9  C   UNL A   1      34.668  21.947  26.160  1.00  0.00     0.025 C 
ATOM     10  C   UNL A   1      32.633  22.936  25.748  1.00  0.00    -0.027 C 
ATOM     11  C   UNL A   1      34.301  22.841  27.344  1.00  0.00     0.017 C 
ATOM     12  C   UNL A   1      33.284  21.777  25.570  1.00  0.00    -0.027 C 
BRANCH   7  13
ATOM     13  C   UNL A   1      34.320  25.030  24.227  1.00  0.00     0.228 C 
ATOM     14  N   UNL A   1      33.846  26.314  24.177  1.00  0.00    -0.326 N 
ATOM     15  H   UNL A   1      33.987  26.779  23.321  1.00  0.00     0.169 HD
ATOM     16  O   UNL A   1      34.477  24.494  23.123  1.00  0.00    -0.274 OA
BRANCH  14  17
ATOM     17  C   UNL A   1      33.191  27.067  25.160  1.00  0.00     0.044 A 
ATOM     18  C   UNL A   1      31.779  27.000  25.272  1.00  0.00    -0.022 A 
ATOM     19  C   UNL A   1      31.223  27.488  26.474  1.00  0.00     0.006 A 
ATOM     20  C   UNL A   1      31.993  28.152  27.432  1.00  0.00     0.000 A 
ATOM     21  C   UNL A   1      33.930  27.847  26.057  1.00  0.00     0.026 A 
ATOM     22  C   UNL A   1      33.336  28.387  27.192  1.00  0.00     0.002 A 
BRANCH  18  23
ATOM     23  C   UNL A   1      30.851  26.571  24.112  1.00  0.00     0.018 C 
ATOM     24  C   UNL A   1      29.771  27.623  23.769  1.00  0.00     0.013 C 
BRANCH  23  25
ATOM     25  C   UNL A   1      30.159  25.187  24.218  1.00  0.00     0.005 C 
ATOM     26  C   UNL A   1      30.662  24.212  23.147  1.00  0.00     0.004 C 
ENDBRANCH  23  25
ENDBRANCH  18  23
ENDBRANCH  14  17
ENDBRANCH   7  13
ENDBRANCH   3   6
ENDBRANCH   1   2
BRANCH   1  27
ATOM     27  C   UNL A   1      38.418  19.585  24.971  1.00  0.00     0.042 C 
BRANCH  27  28
ATOM     28  C   UNL A   1      39.355  19.959  26.108  1.00  0.00     0.118 C 
BRANCH  28  29
ATOM     29  N   UNL A   1      40.584  19.179  26.084  1.00  0.00    -0.352 N 
ATOM     30  C   UNL A   1      41.883  19.598  26.196  1.00  0.00     0.251 C 
ATOM     31  H   UNL A   1      40.463  18.210  25.969  1.00  0.00     0.163 HD
ATOM     32  O   UNL A   1      42.803  18.823  25.928  1.00  0.00    -0.269 OA
BRANCH  30  33
ATOM     33  C   UNL A   1      42.189  20.976  26.629  1.00  0.00     0.039 A 
ATOM     34  C   UNL A   1      42.507  21.939  25.666  1.00  0.00     0.014 A 
ATOM     35  C   UNL A   1      42.192  21.315  27.984  1.00  0.00     0.014 A 
ATOM     36  C   UNL A   1      42.778  23.252  26.060  1.00  0.00     0.010 A 
ATOM     37  C   UNL A   1      42.379  22.638  28.368  1.00  0.00     0.010 A 
ATOM     38  C   UNL A   1      42.689  23.617  27.412  1.00  0.00    -0.014 A 
BRANCH  38  39
ATOM     39  C   UNL A   1      42.950  25.005  27.868  1.00  0.00     0.031 A 
ATOM     40  C   UNL A   1      44.354  25.413  28.236  1.00  0.00     0.074 A 
ATOM     41  C   UNL A   1      41.928  25.867  28.034  1.00  0.00     0.049 A 
ATOM     42  N   UNL A   1      44.773  26.523  28.786  1.00  0.00    -0.248 NA
ATOM     43  C   UNL A   1      45.420  24.430  27.980  1.00  0.00     0.031 C 
ATOM     44  C   UNL A   1      40.522  25.586  27.737  1.00  0.00     0.029 A 
ATOM     45  N   UNL A   1      41.915  27.153  28.512  1.00  0.00    -0.354 N 
ATOM     46  C   UNL A   1      46.140  26.356  28.972  1.00  0.00     0.074 A 
ATOM     47  C   UNL A   1      46.475  25.029  28.512  1.00  0.00     0.031 C 
ATOM     48  C   UNL A   1      39.785  26.672  28.027  1.00  0.00     0.029 A 
ATOM     49  C   UNL A   1      40.657  27.705  28.575  1.00  0.00     0.049 A 
ATOM     50  H   UNL A   1      42.729  27.635  28.785  1.00  0.00     0.167 HD
ATOM     51  C   UNL A   1      47.039  27.238  29.470  1.00  0.00     0.031 A 
ATOM     52  C   UNL A   1      40.253  28.903  29.041  1.00  0.00     0.031 A 
ATOM     53  C   UNL A   1      46.711  28.571  29.893  1.00  0.00     0.049 A 
ATOM     54  C   UNL A   1      41.275  29.858  29.596  1.00  0.00     0.074 A 
ATOM     55  C   UNL A   1      47.564  29.564  30.345  1.00  0.00     0.029 A 
ATOM     56  N   UNL A   1      45.431  29.100  29.910  1.00  0.00    -0.354 N 
ATOM     57  N   UNL A   1      42.572  29.709  29.704  1.00  0.00    -0.248 NA
ATOM     58  C   UNL A   1      40.776  31.152  30.085  1.00  0.00     0.031 C 
ATOM     59  C   UNL A   1      46.792  30.677  30.686  1.00  0.00     0.029 A 
ATOM     60  C   UNL A   1      45.468  30.398  30.387  1.00  0.00     0.049 A 
ATOM     61  H   UNL A   1      44.618  28.624  29.626  1.00  0.00     0.167 HD
ATOM     62  C   UNL A   1      43.048  30.903  30.232  1.00  0.00     0.074 A 
ATOM     63  C   UNL A   1      41.903  31.768  30.414  1.00  0.00     0.031 C 
ATOM     64  C   UNL A   1      44.320  31.253  30.536  1.00  0.00     0.031 A 
BRANCH  51  65
ATOM     65  C   UNL A   1      48.469  26.793  29.592  1.00  0.00    -0.014 A 
ATOM     66  C   UNL A   1      48.926  26.110  30.730  1.00  0.00     0.009 A 
ATOM     67  C   UNL A   1      49.354  26.995  28.521  1.00  0.00     0.009 A 
ATOM     68  C   UNL A   1      50.247  25.660  30.802  1.00  0.00     0.001 A 
ATOM     69  C   UNL A   1      50.665  26.518  28.583  1.00  0.00     0.001 A 
ATOM     70  C   UNL A   1      51.111  25.857  29.726  1.00  0.00     0.000 A 
ENDBRANCH  51  65
BRANCH  52  71
ATOM     71  C   UNL A   1      38.812  29.277  29.016  1.00  0.00    -0.014 A 
ATOM     72  C   UNL A   1      38.001  29.063  30.142  1.00  0.00     0.009 A 
ATOM     73  C   UNL A   1      38.230  29.807  27.855  1.00  0.00     0.009 A 
ATOM     74  C   UNL A   1      36.631  29.329  30.090  1.00  0.00     0.001 A 
ATOM     75  C   UNL A   1      36.865  30.105  27.817  1.00  0.00     0.001 A 
ATOM     76  C   UNL A   1      36.064  29.850  28.929  1.00  0.00     0.000 A 
ENDBRANCH  52  71
BRANCH  64  77
ATOM     77  C   UNL A   1      44.557  32.650  31.034  1.00  0.00    -0.014 A 
ATOM     78  C   UNL A   1      44.565  32.950  32.403  1.00  0.00     0.009 A 
ATOM     79  C   UNL A   1      44.846  33.669  30.109  1.00  0.00     0.009 A 
ATOM     80  C   UNL A   1      44.831  34.251  32.837  1.00  0.00     0.001 A 
ATOM     81  C   UNL A   1      45.141  34.959  30.549  1.00  0.00     0.001 A 
ATOM     82  C   UNL A   1      45.126  35.251  31.910  1.00  0.00     0.000 A 
ENDBRANCH  64  77
ENDBRANCH  38  39
ENDBRANCH  30  33
ENDBRANCH  28  29
ENDBRANCH  27  28
ENDBRANCH   1  27
TORSDOF 14
ENDMDL
