MODEL 1
REMARK VINA RESULT:     -12.1      0.000      0.000
REMARK SMILES Cc1cccc(O[C@H]2CC[C@@]([NH2+]C(C)C)(C(=O)NCCCNC(=O)c3ccc(-c4c5nc(c(-c6ccccc6)c6ccc([nH]6)c(-c6ccccc6)c6nc(c(-c7ccccc7)c7ccc4[nH]7)C=C6)C=C5)cc3)C2)c1
REMARK SMILES IDX 20 1 19 2 18 3 16 4 17 5 11 7 8 8 9 9 73 10 10 11 7 12 6 13
REMARK SMILES IDX 1 14 2 15 3 16 74 17 4 18 5 19 12 20 13 23 14 24 15 25 21 26
REMARK SMILES IDX 22 27 23 28 24 30 25 31 26 32 72 33 27 34 71 35 28 36 29 37
REMARK SMILES IDX 30 38 65 39 31 40 70 41 64 42 66 43 32 44 69 45 63 46 62 47
REMARK SMILES IDX 33 49 55 50 40 51 54 52 41 53 44 54 53 55 67 56 42 57 43 58
REMARK SMILES IDX 52 60 68 61 45 62 34 63 35 64 39 65 36 66 38 67 37 68 56 69
REMARK SMILES IDX 57 70 61 71 58 72 60 73 59 74 46 75 47 76 51 77 48 78 50 79
REMARK SMILES IDX 49 80
REMARK H PARENT 18 6 12 21 12 22 22 29 66 48 44 59
REMARK Flexibility Score: inf
ROOT
ATOM      1  C   UNL A   1      32.396  30.551  26.903  1.00  0.00     0.042 C 
ENDROOT
BRANCH   1   2
ATOM      2  C   UNL A   1      32.028  29.615  25.758  1.00  0.00     0.118 C 
BRANCH   2   3
ATOM      3  N   UNL A   1      32.918  29.734  24.611  1.00  0.00    -0.351 N 
ATOM      4  C   UNL A   1      33.284  28.805  23.666  1.00  0.00     0.281 C 
ATOM      5  O   UNL A   1      33.939  29.224  22.708  1.00  0.00    -0.268 OA
ATOM      6  H   UNL A   1      33.322  30.624  24.492  1.00  0.00     0.163 HD
BRANCH   4   7
ATOM      7  C   UNL A   1      32.867  27.301  23.796  1.00  0.00     0.179 C 
ATOM      8  C   UNL A   1      30.652  26.779  22.832  1.00  0.00     0.180 C 
ATOM      9  C   UNL A   1      31.689  25.900  22.144  1.00  0.00     0.052 C 
ATOM     10  C   UNL A   1      31.362  27.114  24.148  1.00  0.00     0.124 C 
ATOM     11  C   UNL A   1      32.996  26.635  22.403  1.00  0.00     0.083 C 
BRANCH   8  12
ATOM     12  O   UNL A   1      30.430  27.999  22.128  1.00  0.00    -0.490 OA
BRANCH  12  13
ATOM     13  C   UNL A   1      29.406  28.813  22.523  1.00  0.00     0.119 A 
ATOM     14  C   UNL A   1      29.009  32.605  22.633  1.00  0.00     0.044 C 
ATOM     15  C   UNL A   1      28.713  31.139  22.747  1.00  0.00    -0.047 A 
ATOM     16  C   UNL A   1      27.450  30.711  23.167  1.00  0.00     0.003 A 
ATOM     17  C   UNL A   1      29.680  30.180  22.416  1.00  0.00     0.049 A 
ATOM     18  C   UNL A   1      27.173  29.348  23.281  1.00  0.00     0.004 A 
ATOM     19  C   UNL A   1      28.152  28.401  22.969  1.00  0.00     0.046 A 
ENDBRANCH  12  13
ENDBRANCH   8  12
BRANCH   7  20
ATOM     20  N   UNL A   1      33.730  26.585  24.773  1.00  0.00    -0.332 N 
ATOM     21  H   UNL A   1      33.498  26.935  25.703  1.00  0.00     0.347 HD
ATOM     22  H   UNL A   1      34.685  26.771  24.469  1.00  0.00     0.347 HD
BRANCH  20  23
ATOM     23  C   UNL A   1      33.622  25.120  24.813  1.00  0.00     0.176 C 
ATOM     24  C   UNL A   1      34.965  24.410  24.650  1.00  0.00     0.075 C 
ATOM     25  C   UNL A   1      33.017  24.757  26.174  1.00  0.00     0.075 C 
ENDBRANCH  20  23
ENDBRANCH   7  20
ENDBRANCH   4   7
ENDBRANCH   2   3
ENDBRANCH   1   2
BRANCH   1  26
ATOM     26  C   UNL A   1      33.674  30.153  27.624  1.00  0.00     0.118 C 
BRANCH  26  27
ATOM     27  N   UNL A   1      34.354  31.266  28.284  1.00  0.00    -0.352 N 
ATOM     28  C   UNL A   1      35.632  31.312  28.815  1.00  0.00     0.251 C 
ATOM     29  H   UNL A   1      33.832  32.097  28.360  1.00  0.00     0.163 HD
ATOM     30  O   UNL A   1      36.059  32.337  29.321  1.00  0.00    -0.269 OA
BRANCH  28  31
ATOM     31  C   UNL A   1      36.522  30.140  28.636  1.00  0.00     0.039 A 
ATOM     32  C   UNL A   1      36.732  29.312  29.743  1.00  0.00     0.014 A 
ATOM     33  C   UNL A   1      37.315  30.017  27.499  1.00  0.00     0.014 A 
ATOM     34  C   UNL A   1      37.898  28.558  29.810  1.00  0.00     0.010 A 
ATOM     35  C   UNL A   1      38.522  29.357  27.607  1.00  0.00     0.010 A 
ATOM     36  C   UNL A   1      38.844  28.692  28.794  1.00  0.00    -0.014 A 
BRANCH  36  37
ATOM     37  C   UNL A   1      40.237  28.299  28.962  1.00  0.00     0.031 A 
ATOM     38  C   UNL A   1      40.725  27.013  28.436  1.00  0.00     0.074 A 
ATOM     39  C   UNL A   1      41.092  29.147  29.574  1.00  0.00     0.049 A 
ATOM     40  N   UNL A   1      41.750  26.380  28.898  1.00  0.00    -0.248 NA
ATOM     41  C   UNL A   1      40.037  26.298  27.368  1.00  0.00     0.031 C 
ATOM     42  C   UNL A   1      42.548  29.071  29.620  1.00  0.00     0.029 A 
ATOM     43  N   UNL A   1      40.768  30.153  30.485  1.00  0.00    -0.354 N 
ATOM     44  C   UNL A   1      42.028  25.354  28.026  1.00  0.00     0.074 A 
ATOM     45  C   UNL A   1      40.884  25.289  27.146  1.00  0.00     0.031 C 
ATOM     46  C   UNL A   1      42.987  29.793  30.664  1.00  0.00     0.029 A 
ATOM     47  C   UNL A   1      41.820  30.231  31.413  1.00  0.00     0.049 A 
ATOM     48  H   UNL A   1      39.953  30.705  30.480  1.00  0.00     0.167 HD
ATOM     49  C   UNL A   1      43.259  24.770  28.045  1.00  0.00     0.031 A 
ATOM     50  C   UNL A   1      41.606  29.975  32.736  1.00  0.00     0.031 A 
ATOM     51  C   UNL A   1      44.088  25.281  29.136  1.00  0.00     0.049 A 
ATOM     52  C   UNL A   1      42.386  28.787  33.260  1.00  0.00     0.074 A 
ATOM     53  C   UNL A   1      45.102  26.225  29.185  1.00  0.00     0.029 A 
ATOM     54  N   UNL A   1      43.712  25.037  30.452  1.00  0.00    -0.354 N 
ATOM     55  N   UNL A   1      42.926  27.876  32.499  1.00  0.00    -0.248 NA
ATOM     56  C   UNL A   1      42.577  28.511  34.682  1.00  0.00     0.031 C 
ATOM     57  C   UNL A   1      45.274  26.611  30.540  1.00  0.00     0.029 A 
ATOM     58  C   UNL A   1      44.391  25.878  31.313  1.00  0.00     0.049 A 
ATOM     59  H   UNL A   1      43.053  24.361  30.731  1.00  0.00     0.167 HD
ATOM     60  C   UNL A   1      43.513  26.918  33.281  1.00  0.00     0.074 A 
ATOM     61  C   UNL A   1      43.280  27.365  34.642  1.00  0.00     0.031 C 
ATOM     62  C   UNL A   1      44.135  25.828  32.746  1.00  0.00     0.031 A 
BRANCH  49  63
ATOM     63  C   UNL A   1      43.805  23.969  26.885  1.00  0.00    -0.014 A 
ATOM     64  C   UNL A   1      44.280  24.638  25.741  1.00  0.00     0.009 A 
ATOM     65  C   UNL A   1      43.815  22.566  26.820  1.00  0.00     0.009 A 
ATOM     66  C   UNL A   1      44.635  23.953  24.571  1.00  0.00     0.001 A 
ATOM     67  C   UNL A   1      44.128  21.874  25.641  1.00  0.00     0.001 A 
ATOM     68  C   UNL A   1      44.526  22.571  24.510  1.00  0.00     0.000 A 
ENDBRANCH  49  63
BRANCH  50  69
ATOM     69  C   UNL A   1      40.255  30.374  33.216  1.00  0.00    -0.014 A 
ATOM     70  C   UNL A   1      39.946  31.747  33.281  1.00  0.00     0.009 A 
ATOM     71  C   UNL A   1      39.201  29.449  33.258  1.00  0.00     0.009 A 
ATOM     72  C   UNL A   1      38.618  32.186  33.275  1.00  0.00     0.001 A 
ATOM     73  C   UNL A   1      37.872  29.893  33.261  1.00  0.00     0.001 A 
ATOM     74  C   UNL A   1      37.582  31.257  33.235  1.00  0.00     0.000 A 
ENDBRANCH  50  69
BRANCH  62  75
ATOM     75  C   UNL A   1      44.628  24.632  33.517  1.00  0.00    -0.014 A 
ATOM     76  C   UNL A   1      43.829  23.531  33.853  1.00  0.00     0.009 A 
ATOM     77  C   UNL A   1      46.007  24.531  33.808  1.00  0.00     0.009 A 
ATOM     78  C   UNL A   1      44.372  22.406  34.489  1.00  0.00     0.001 A 
ATOM     79  C   UNL A   1      46.559  23.395  34.402  1.00  0.00     0.001 A 
ATOM     80  C   UNL A   1      45.737  22.334  34.754  1.00  0.00     0.000 A 
ENDBRANCH  62  75
ENDBRANCH  36  37
ENDBRANCH  28  31
ENDBRANCH  26  27
ENDBRANCH   1  26
TORSDOF 14
ENDMDL
MODEL 2
REMARK VINA RESULT:     -12.0      4.216      9.422
REMARK SMILES Cc1cccc(O[C@H]2CC[C@@]([NH2+]C(C)C)(C(=O)NCCCNC(=O)c3ccc(-c4c5nc(c(-c6ccccc6)c6ccc([nH]6)c(-c6ccccc6)c6nc(c(-c7ccccc7)c7ccc4[nH]7)C=C6)C=C5)cc3)C2)c1
REMARK SMILES IDX 20 1 19 2 18 3 16 4 17 5 11 7 8 8 9 9 73 10 10 11 7 12 6 13
REMARK SMILES IDX 1 14 2 15 3 16 74 17 4 18 5 19 12 20 13 23 14 24 15 25 21 26
REMARK SMILES IDX 22 27 23 28 24 30 25 31 26 32 72 33 27 34 71 35 28 36 29 37
REMARK SMILES IDX 30 38 65 39 31 40 70 41 64 42 66 43 32 44 69 45 63 46 62 47
REMARK SMILES IDX 33 49 55 50 40 51 54 52 41 53 44 54 53 55 67 56 42 57 43 58
REMARK SMILES IDX 52 60 68 61 45 62 34 63 35 64 39 65 36 66 38 67 37 68 56 69
REMARK SMILES IDX 57 70 61 71 58 72 60 73 59 74 46 75 47 76 51 77 48 78 50 79
REMARK SMILES IDX 49 80
REMARK H PARENT 18 6 12 21 12 22 22 29 66 48 44 59
REMARK Flexibility Score: inf
ROOT
ATOM      1  C   UNL A   1      37.835  21.282  25.292  1.00  0.00     0.042 C 
ENDROOT
BRANCH   1   2
ATOM      2  C   UNL A   1      36.319  21.299  25.144  1.00  0.00     0.118 C 
BRANCH   2   3
ATOM      3  N   UNL A   1      35.621  21.465  26.412  1.00  0.00    -0.351 N 
ATOM      4  C   UNL A   1      34.459  22.136  26.710  1.00  0.00     0.281 C 
ATOM      5  O   UNL A   1      34.011  21.983  27.850  1.00  0.00    -0.268 OA
ATOM      6  H   UNL A   1      36.050  21.024  27.182  1.00  0.00     0.163 HD
BRANCH   4   7
ATOM      7  C   UNL A   1      33.736  23.027  25.643  1.00  0.00     0.179 C 
ATOM      8  C   UNL A   1      32.263  21.770  24.107  1.00  0.00     0.180 C 
ATOM      9  C   UNL A   1      31.424  22.829  24.811  1.00  0.00     0.052 C 
ATOM     10  C   UNL A   1      33.671  22.362  24.238  1.00  0.00     0.124 C 
ATOM     11  C   UNL A   1      32.246  23.162  26.047  1.00  0.00     0.083 C 
BRANCH   8  12
ATOM     12  O   UNL A   1      32.244  20.523  24.798  1.00  0.00    -0.490 OA
BRANCH  12  13
ATOM     13  C   UNL A   1      32.676  19.401  24.149  1.00  0.00     0.119 A 
ATOM     14  C   UNL A   1      35.132  16.643  25.104  1.00  0.00     0.044 C 
ATOM     15  C   UNL A   1      34.123  17.448  24.341  1.00  0.00    -0.047 A 
ATOM     16  C   UNL A   1      33.659  16.997  23.101  1.00  0.00     0.003 A 
ATOM     17  C   UNL A   1      33.616  18.648  24.860  1.00  0.00     0.049 A 
ATOM     18  C   UNL A   1      32.725  17.747  22.386  1.00  0.00     0.004 A 
ATOM     19  C   UNL A   1      32.243  18.952  22.903  1.00  0.00     0.046 A 
ENDBRANCH  12  13
ENDBRANCH   8  12
BRANCH   7  20
ATOM     20  N   UNL A   1      34.354  24.377  25.560  1.00  0.00    -0.332 N 
ATOM     21  H   UNL A   1      35.086  24.337  24.852  1.00  0.00     0.347 HD
ATOM     22  H   UNL A   1      34.680  24.578  26.506  1.00  0.00     0.347 HD
BRANCH  20  23
ATOM     23  C   UNL A   1      33.468  25.498  25.217  1.00  0.00     0.176 C 
ATOM     24  C   UNL A   1      33.682  26.729  26.097  1.00  0.00     0.075 C 
ATOM     25  C   UNL A   1      33.758  25.861  23.756  1.00  0.00     0.075 C 
ENDBRANCH  20  23
ENDBRANCH   7  20
ENDBRANCH   4   7
ENDBRANCH   2   3
ENDBRANCH   1   2
BRANCH   1  26
ATOM     26  C   UNL A   1      38.411  22.600  25.785  1.00  0.00     0.118 C 
BRANCH  26  27
ATOM     27  N   UNL A   1      39.831  22.537  26.126  1.00  0.00    -0.352 N 
ATOM     28  C   UNL A   1      40.641  23.524  26.663  1.00  0.00     0.251 C 
ATOM     29  H   UNL A   1      40.271  21.674  25.950  1.00  0.00     0.163 HD
ATOM     30  O   UNL A   1      41.815  23.300  26.908  1.00  0.00    -0.269 OA
BRANCH  28  31
ATOM     31  C   UNL A   1      40.026  24.811  27.064  1.00  0.00     0.039 A 
ATOM     32  C   UNL A   1      40.433  25.963  26.383  1.00  0.00     0.014 A 
ATOM     33  C   UNL A   1      39.278  24.907  28.234  1.00  0.00     0.014 A 
ATOM     34  C   UNL A   1      40.323  27.195  27.016  1.00  0.00     0.010 A 
ATOM     35  C   UNL A   1      39.266  26.111  28.910  1.00  0.00     0.010 A 
ATOM     36  C   UNL A   1      39.858  27.237  28.330  1.00  0.00    -0.014 A 
BRANCH  36  37
ATOM     37  C   UNL A   1      40.096  28.372  29.211  1.00  0.00     0.031 A 
ATOM     38  C   UNL A   1      39.056  29.393  29.422  1.00  0.00     0.074 A 
ATOM     39  C   UNL A   1      41.273  28.462  29.869  1.00  0.00     0.049 A 
ATOM     40  N   UNL A   1      39.292  30.609  29.782  1.00  0.00    -0.248 NA
ATOM     41  C   UNL A   1      37.644  29.127  29.174  1.00  0.00     0.031 C 
ATOM     42  C   UNL A   1      41.617  29.354  30.971  1.00  0.00     0.029 A 
ATOM     43  N   UNL A   1      42.488  27.886  29.496  1.00  0.00    -0.354 N 
ATOM     44  C   UNL A   1      38.084  31.189  30.091  1.00  0.00     0.074 A 
ATOM     45  C   UNL A   1      37.088  30.261  29.609  1.00  0.00     0.031 C 
ATOM     46  C   UNL A   1      42.954  29.465  31.036  1.00  0.00     0.029 A 
ATOM     47  C   UNL A   1      43.507  28.771  29.885  1.00  0.00     0.049 A 
ATOM     48  H   UNL A   1      42.609  27.020  29.044  1.00  0.00     0.167 HD
ATOM     49  C   UNL A   1      38.056  32.318  30.853  1.00  0.00     0.031 A 
ATOM     50  C   UNL A   1      44.330  29.340  28.957  1.00  0.00     0.031 A 
ATOM     51  C   UNL A   1      39.400  32.822  31.132  1.00  0.00     0.049 A 
ATOM     52  C   UNL A   1      44.230  30.850  28.900  1.00  0.00     0.074 A 
ATOM     53  C   UNL A   1      40.236  32.716  32.233  1.00  0.00     0.029 A 
ATOM     54  N   UNL A   1      40.185  33.288  30.084  1.00  0.00    -0.354 N 
ATOM     55  N   UNL A   1      43.240  31.535  29.400  1.00  0.00    -0.248 NA
ATOM     56  C   UNL A   1      45.217  31.699  28.236  1.00  0.00     0.031 C 
ATOM     57  C   UNL A   1      41.553  33.043  31.815  1.00  0.00     0.029 A 
ATOM     58  C   UNL A   1      41.508  33.378  30.473  1.00  0.00     0.049 A 
ATOM     59  H   UNL A   1      39.847  33.520  29.190  1.00  0.00     0.167 HD
ATOM     60  C   UNL A   1      43.427  32.866  29.139  1.00  0.00     0.074 A 
ATOM     61  C   UNL A   1      44.686  32.922  28.418  1.00  0.00     0.031 C 
ATOM     62  C   UNL A   1      42.526  33.814  29.527  1.00  0.00     0.031 A 
BRANCH  49  63
ATOM     63  C   UNL A   1      36.822  32.774  31.599  1.00  0.00    -0.014 A 
ATOM     64  C   UNL A   1      35.926  33.666  30.981  1.00  0.00     0.009 A 
ATOM     65  C   UNL A   1      36.520  32.427  32.926  1.00  0.00     0.009 A 
ATOM     66  C   UNL A   1      34.863  34.258  31.678  1.00  0.00     0.001 A 
ATOM     67  C   UNL A   1      35.486  33.045  33.644  1.00  0.00     0.001 A 
ATOM     68  C   UNL A   1      34.664  33.973  33.021  1.00  0.00     0.000 A 
ENDBRANCH  49  63
BRANCH  50  69
ATOM     69  C   UNL A   1      44.607  28.469  27.782  1.00  0.00    -0.014 A 
ATOM     70  C   UNL A   1      45.378  27.306  27.978  1.00  0.00     0.009 A 
ATOM     71  C   UNL A   1      43.850  28.579  26.607  1.00  0.00     0.009 A 
ATOM     72  C   UNL A   1      45.305  26.236  27.081  1.00  0.00     0.001 A 
ATOM     73  C   UNL A   1      43.787  27.508  25.705  1.00  0.00     0.001 A 
ATOM     74  C   UNL A   1      44.486  26.328  25.959  1.00  0.00     0.000 A 
ENDBRANCH  50  69
BRANCH  62  75
ATOM     75  C   UNL A   1      42.544  35.263  29.115  1.00  0.00    -0.014 A 
ATOM     76  C   UNL A   1      43.308  36.250  29.752  1.00  0.00     0.009 A 
ATOM     77  C   UNL A   1      41.867  35.643  27.935  1.00  0.00     0.009 A 
ATOM     78  C   UNL A   1      43.356  37.562  29.260  1.00  0.00     0.001 A 
ATOM     79  C   UNL A   1      41.947  36.938  27.418  1.00  0.00     0.001 A 
ATOM     80  C   UNL A   1      42.684  37.903  28.089  1.00  0.00     0.000 A 
ENDBRANCH  62  75
ENDBRANCH  36  37
ENDBRANCH  28  31
ENDBRANCH  26  27
ENDBRANCH   1  26
TORSDOF 14
ENDMDL
MODEL 3
REMARK VINA RESULT:     -12.0      1.131      3.775
REMARK SMILES Cc1cccc(O[C@H]2CC[C@@]([NH2+]C(C)C)(C(=O)NCCCNC(=O)c3ccc(-c4c5nc(c(-c6ccccc6)c6ccc([nH]6)c(-c6ccccc6)c6nc(c(-c7ccccc7)c7ccc4[nH]7)C=C6)C=C5)cc3)C2)c1
REMARK SMILES IDX 20 1 19 2 18 3 16 4 17 5 11 7 8 8 9 9 73 10 10 11 7 12 6 13
REMARK SMILES IDX 1 14 2 15 3 16 74 17 4 18 5 19 12 20 13 23 14 24 15 25 21 26
REMARK SMILES IDX 22 27 23 28 24 30 25 31 26 32 72 33 27 34 71 35 28 36 29 37
REMARK SMILES IDX 30 38 65 39 31 40 70 41 64 42 66 43 32 44 69 45 63 46 62 47
REMARK SMILES IDX 33 49 55 50 40 51 54 52 41 53 44 54 53 55 67 56 42 57 43 58
REMARK SMILES IDX 52 60 68 61 45 62 34 63 35 64 39 65 36 66 38 67 37 68 56 69
REMARK SMILES IDX 57 70 61 71 58 72 60 73 59 74 46 75 47 76 51 77 48 78 50 79
REMARK SMILES IDX 49 80
REMARK H PARENT 18 6 12 21 12 22 22 29 66 48 44 59
REMARK Flexibility Score: inf
ROOT
ATOM      1  C   UNL A   1      32.267  30.827  27.159  1.00  0.00     0.042 C 
ENDROOT
BRANCH   1   2
ATOM      2  C   UNL A   1      31.915  30.411  25.736  1.00  0.00     0.118 C 
BRANCH   2   3
ATOM      3  N   UNL A   1      33.001  29.715  25.058  1.00  0.00    -0.351 N 
ATOM      4  C   UNL A   1      33.082  28.422  24.599  1.00  0.00     0.281 C 
ATOM      5  O   UNL A   1      34.073  28.140  23.919  1.00  0.00    -0.268 OA
ATOM      6  H   UNL A   1      33.807  30.259  24.902  1.00  0.00     0.163 HD
BRANCH   4   7
ATOM      7  C   UNL A   1      31.959  27.375  24.908  1.00  0.00     0.179 C 
ATOM      8  C   UNL A   1      32.783  25.061  25.185  1.00  0.00     0.180 C 
ATOM      9  C   UNL A   1      32.049  25.461  26.459  1.00  0.00     0.052 C 
ATOM     10  C   UNL A   1      32.165  26.023  24.165  1.00  0.00     0.124 C 
ATOM     11  C   UNL A   1      32.055  26.980  26.404  1.00  0.00     0.083 C 
BRANCH   8  12
ATOM     12  O   UNL A   1      34.180  25.337  25.262  1.00  0.00    -0.490 OA
BRANCH  12  13
ATOM     13  C   UNL A   1      35.061  24.433  24.739  1.00  0.00     0.119 A 
ATOM     14  C   UNL A   1      38.218  22.799  26.122  1.00  0.00     0.044 C 
ATOM     15  C   UNL A   1      37.083  23.154  25.209  1.00  0.00    -0.047 A 
ATOM     16  C   UNL A   1      36.961  22.526  23.965  1.00  0.00     0.003 A 
ATOM     17  C   UNL A   1      36.120  24.099  25.590  1.00  0.00     0.049 A 
ATOM     18  C   UNL A   1      35.910  22.860  23.111  1.00  0.00     0.004 A 
ATOM     19  C   UNL A   1      34.967  23.819  23.492  1.00  0.00     0.046 A 
ENDBRANCH  12  13
ENDBRANCH   8  12
BRANCH   7  20
ATOM     20  N   UNL A   1      30.609  27.932  24.625  1.00  0.00    -0.332 N 
ATOM     21  H   UNL A   1      30.715  28.938  24.489  1.00  0.00     0.347 HD
ATOM     22  H   UNL A   1      30.039  27.664  25.427  1.00  0.00     0.347 HD
BRANCH  20  23
ATOM     23  C   UNL A   1      29.897  27.400  23.456  1.00  0.00     0.176 C 
ATOM     24  C   UNL A   1      28.589  26.696  23.814  1.00  0.00     0.075 C 
ATOM     25  C   UNL A   1      29.599  28.591  22.538  1.00  0.00     0.075 C 
ENDBRANCH  20  23
ENDBRANCH   7  20
ENDBRANCH   4   7
ENDBRANCH   2   3
ENDBRANCH   1   2
BRANCH   1  26
ATOM     26  C   UNL A   1      33.690  30.475  27.561  1.00  0.00     0.118 C 
BRANCH  26  27
ATOM     27  N   UNL A   1      34.330  31.473  28.414  1.00  0.00    -0.352 N 
ATOM     28  C   UNL A   1      35.556  31.410  29.058  1.00  0.00     0.251 C 
ATOM     29  H   UNL A   1      33.821  32.304  28.550  1.00  0.00     0.163 HD
ATOM     30  O   UNL A   1      35.956  32.349  29.726  1.00  0.00    -0.269 OA
BRANCH  28  31
ATOM     31  C   UNL A   1      36.432  30.242  28.809  1.00  0.00     0.039 A 
ATOM     32  C   UNL A   1      36.680  29.378  29.880  1.00  0.00     0.014 A 
ATOM     33  C   UNL A   1      37.182  30.151  27.639  1.00  0.00     0.014 A 
ATOM     34  C   UNL A   1      37.845  28.619  29.880  1.00  0.00     0.010 A 
ATOM     35  C   UNL A   1      38.390  29.484  27.682  1.00  0.00     0.010 A 
ATOM     36  C   UNL A   1      38.752  28.781  28.835  1.00  0.00    -0.014 A 
BRANCH  36  37
ATOM     37  C   UNL A   1      40.149  28.379  28.938  1.00  0.00     0.031 A 
ATOM     38  C   UNL A   1      40.602  27.085  28.399  1.00  0.00     0.074 A 
ATOM     39  C   UNL A   1      41.039  29.224  29.502  1.00  0.00     0.049 A 
ATOM     40  N   UNL A   1      41.644  26.448  28.815  1.00  0.00    -0.248 NA
ATOM     41  C   UNL A   1      39.858  26.368  27.370  1.00  0.00     0.031 C 
ATOM     42  C   UNL A   1      42.495  29.137  29.478  1.00  0.00     0.029 A 
ATOM     43  N   UNL A   1      40.767  30.239  30.420  1.00  0.00    -0.354 N 
ATOM     44  C   UNL A   1      41.871  25.414  27.937  1.00  0.00     0.074 A 
ATOM     45  C   UNL A   1      40.685  25.351  27.115  1.00  0.00     0.031 C 
ATOM     46  C   UNL A   1      42.989  29.863  30.494  1.00  0.00     0.029 A 
ATOM     47  C   UNL A   1      41.863  30.316  31.295  1.00  0.00     0.049 A 
ATOM     48  H   UNL A   1      39.957  30.797  30.450  1.00  0.00     0.167 HD
ATOM     49  C   UNL A   1      43.097  24.820  27.902  1.00  0.00     0.031 A 
ATOM     50  C   UNL A   1      41.712  30.070  32.629  1.00  0.00     0.031 A 
ATOM     51  C   UNL A   1      43.982  25.332  28.948  1.00  0.00     0.049 A 
ATOM     52  C   UNL A   1      42.507  28.880  33.123  1.00  0.00     0.074 A 
ATOM     53  C   UNL A   1      45.004  26.269  28.941  1.00  0.00     0.029 A 
ATOM     54  N   UNL A   1      43.667  25.101  30.282  1.00  0.00    -0.354 N 
ATOM     55  N   UNL A   1      43.003  27.960  32.344  1.00  0.00    -0.248 NA
ATOM     56  C   UNL A   1      42.765  28.613  34.536  1.00  0.00     0.031 C 
ATOM     57  C   UNL A   1      45.244  26.663  30.283  1.00  0.00     0.029 A 
ATOM     58  C   UNL A   1      44.394  25.942  31.103  1.00  0.00     0.049 A 
ATOM     59  H   UNL A   1      43.018  24.432  30.597  1.00  0.00     0.167 HD
ATOM     60  C   UNL A   1      43.620  27.002  33.104  1.00  0.00     0.074 A 
ATOM     61  C   UNL A   1      43.456  27.460  34.471  1.00  0.00     0.031 C 
ATOM     62  C   UNL A   1      44.207  25.904  32.547  1.00  0.00     0.031 A 
BRANCH  49  63
ATOM     63  C   UNL A   1      43.581  24.008  26.722  1.00  0.00    -0.014 A 
ATOM     64  C   UNL A   1      43.384  22.614  26.710  1.00  0.00     0.009 A 
ATOM     65  C   UNL A   1      44.297  24.533  25.634  1.00  0.00     0.009 A 
ATOM     66  C   UNL A   1      43.960  21.788  25.735  1.00  0.00     0.001 A 
ATOM     67  C   UNL A   1      44.912  23.712  24.677  1.00  0.00     0.001 A 
ATOM     68  C   UNL A   1      44.753  22.336  24.736  1.00  0.00     0.000 A 
ENDBRANCH  49  63
BRANCH  50  69
ATOM     69  C   UNL A   1      40.388  30.483  33.171  1.00  0.00    -0.014 A 
ATOM     70  C   UNL A   1      40.092  31.859  33.241  1.00  0.00     0.009 A 
ATOM     71  C   UNL A   1      39.331  29.567  33.271  1.00  0.00     0.009 A 
ATOM     72  C   UNL A   1      38.770  32.308  33.296  1.00  0.00     0.001 A 
ATOM     73  C   UNL A   1      38.007  30.021  33.335  1.00  0.00     0.001 A 
ATOM     74  C   UNL A   1      37.725  31.387  33.313  1.00  0.00     0.000 A 
ENDBRANCH  50  69
BRANCH  62  75
ATOM     75  C   UNL A   1      44.728  24.709  33.302  1.00  0.00    -0.014 A 
ATOM     76  C   UNL A   1      44.001  23.528  33.502  1.00  0.00     0.009 A 
ATOM     77  C   UNL A   1      46.077  24.706  33.723  1.00  0.00     0.009 A 
ATOM     78  C   UNL A   1      44.578  22.417  34.131  1.00  0.00     0.001 A 
ATOM     79  C   UNL A   1      46.668  23.586  34.310  1.00  0.00     0.001 A 
ATOM     80  C   UNL A   1      45.913  22.442  34.526  1.00  0.00     0.000 A 
ENDBRANCH  62  75
ENDBRANCH  36  37
ENDBRANCH  28  31
ENDBRANCH  26  27
ENDBRANCH   1  26
TORSDOF 14
ENDMDL
