MODEL 1
REMARK VINA RESULT:     -12.1      0.000      0.000
REMARK SMILES CC1(C)[C@@H](C(=O)NCCc2ccccc2)CC[C@@]1(C)C(=O)NCCCNC(=O)c1ccc(-c2c3nc(c(-c4ccccc4)c4ccc([nH]4)c(-c4ccccc4)c4nc(c(-c5ccccc5)c5ccc2[nH]5)C=C4)C=C3)cc1
REMARK SMILES IDX 23 1 22 2 20 3 21 4 18 6 1 7 2 8 3 9 4 10 16 11 17 12 19 13
REMARK SMILES IDX 5 14 6 15 7 16 8 18 9 19 10 20 11 21 15 22 12 23 14 24 13 25
REMARK SMILES IDX 24 26 25 27 26 28 27 29 28 31 29 32 30 33 76 34 31 35 75 36
REMARK SMILES IDX 32 37 33 38 34 39 69 40 35 41 74 42 68 43 70 44 36 45 73 46
REMARK SMILES IDX 67 47 66 48 37 50 59 51 44 52 58 53 45 54 48 55 57 56 71 57
REMARK SMILES IDX 46 58 47 59 56 61 72 62 49 63 38 64 39 65 43 66 40 67 42 68
REMARK SMILES IDX 41 69 60 70 61 71 65 72 62 73 64 74 63 75 50 76 51 77 55 78
REMARK SMILES IDX 52 79 54 80 53 81
REMARK H PARENT 22 5 7 17 26 30 70 49 48 60
REMARK Flexibility Score: inf
ROOT
ATOM      1  C   UNL A   1      35.896  22.782  25.347  1.00  0.00     0.117 C 
ENDROOT
BRANCH   1   2
ATOM      2  N   UNL A   1      35.073  24.003  25.178  1.00  0.00    -0.356 N 
ATOM      3  C   UNL A   1      33.888  24.310  25.838  1.00  0.00     0.226 C 
ATOM      4  O   UNL A   1      33.658  23.767  26.922  1.00  0.00    -0.274 OA
ATOM      5  H   UNL A   1      35.401  24.667  24.530  1.00  0.00     0.163 HD
BRANCH   3   6
ATOM      6  C   UNL A   1      32.787  25.364  25.241  1.00  0.00     0.052 C 
ATOM      7  C   UNL A   1      32.398  23.760  23.210  1.00  0.00     0.013 C 
ATOM      8  C   UNL A   1      31.789  24.756  24.216  1.00  0.00    -0.010 C 
ATOM      9  C   UNL A   1      31.200  25.864  23.268  1.00  0.00     0.013 C 
ATOM     10  C   UNL A   1      30.665  24.242  25.215  1.00  0.00     0.085 C 
ATOM     11  C   UNL A   1      30.359  25.458  26.042  1.00  0.00     0.015 C 
ATOM     12  C   UNL A   1      31.751  26.075  26.227  1.00  0.00     0.018 C 
ATOM     13  C   UNL A   1      33.647  26.554  24.738  1.00  0.00     0.022 C 
BRANCH  10  14
ATOM     14  C   UNL A   1      31.009  23.081  26.171  1.00  0.00     0.223 C 
ATOM     15  O   UNL A   1      30.710  23.279  27.361  1.00  0.00    -0.275 OA
ATOM     16  N   UNL A   1      31.438  21.808  25.865  1.00  0.00    -0.356 N 
ATOM     17  H   UNL A   1      31.168  21.208  26.598  1.00  0.00     0.163 HD
BRANCH  16  18
ATOM     18  C   UNL A   1      32.158  20.995  24.839  1.00  0.00     0.120 C 
BRANCH  18  19
ATOM     19  C   UNL A   1      33.360  20.037  25.215  1.00  0.00     0.056 C 
BRANCH  19  20
ATOM     20  C   UNL A   1      33.356  18.538  24.959  1.00  0.00    -0.046 A 
ATOM     21  C   UNL A   1      34.006  17.961  23.871  1.00  0.00     0.004 A 
ATOM     22  C   UNL A   1      32.606  17.668  25.775  1.00  0.00     0.004 A 
ATOM     23  C   UNL A   1      34.041  16.563  23.715  1.00  0.00     0.000 A 
ATOM     24  C   UNL A   1      32.688  16.276  25.665  1.00  0.00     0.000 A 
ATOM     25  C   UNL A   1      33.431  15.720  24.640  1.00  0.00     0.000 A 
ENDBRANCH  19  20
ENDBRANCH  18  19
ENDBRANCH  16  18
ENDBRANCH  10  14
ENDBRANCH   3   6
ENDBRANCH   1   2
BRANCH   1  26
ATOM     26  C   UNL A   1      37.400  22.962  25.010  1.00  0.00     0.042 C 
BRANCH  26  27
ATOM     27  C   UNL A   1      38.402  22.327  25.989  1.00  0.00     0.118 C 
BRANCH  27  28
ATOM     28  N   UNL A   1      38.856  20.957  25.726  1.00  0.00    -0.352 N 
ATOM     29  C   UNL A   1      40.090  20.355  25.999  1.00  0.00     0.251 C 
ATOM     30  H   UNL A   1      38.192  20.373  25.292  1.00  0.00     0.163 HD
ATOM     31  O   UNL A   1      40.329  19.209  25.689  1.00  0.00    -0.269 OA
BRANCH  29  32
ATOM     32  C   UNL A   1      41.178  21.181  26.574  1.00  0.00     0.039 A 
ATOM     33  C   UNL A   1      41.902  22.013  25.717  1.00  0.00     0.014 A 
ATOM     34  C   UNL A   1      41.299  21.309  27.949  1.00  0.00     0.014 A 
ATOM     35  C   UNL A   1      42.524  23.141  26.244  1.00  0.00     0.010 A 
ATOM     36  C   UNL A   1      41.749  22.515  28.448  1.00  0.00     0.010 A 
ATOM     37  C   UNL A   1      42.321  23.467  27.593  1.00  0.00    -0.014 A 
BRANCH  37  38
ATOM     38  C   UNL A   1      42.611  24.824  28.116  1.00  0.00     0.031 A 
ATOM     39  C   UNL A   1      44.004  25.175  28.548  1.00  0.00     0.074 A 
ATOM     40  C   UNL A   1      41.592  25.686  28.321  1.00  0.00     0.049 A 
ATOM     41  N   UNL A   1      44.438  26.268  29.122  1.00  0.00    -0.248 NA
ATOM     42  C   UNL A   1      45.040  24.143  28.366  1.00  0.00     0.031 C 
ATOM     43  C   UNL A   1      40.175  25.420  28.042  1.00  0.00     0.029 A 
ATOM     44  N   UNL A   1      41.589  26.968  28.810  1.00  0.00    -0.354 N 
ATOM     45  C   UNL A   1      45.778  26.035  29.396  1.00  0.00     0.074 A 
ATOM     46  C   UNL A   1      46.067  24.675  29.006  1.00  0.00     0.031 C 
ATOM     47  C   UNL A   1      39.455  26.523  28.301  1.00  0.00     0.029 A 
ATOM     48  C   UNL A   1      40.346  27.558  28.808  1.00  0.00     0.049 A 
ATOM     49  H   UNL A   1      42.400  27.422  29.134  1.00  0.00     0.167 HD
ATOM     50  C   UNL A   1      46.700  26.891  29.891  1.00  0.00     0.031 A 
ATOM     51  C   UNL A   1      39.971  28.800  29.166  1.00  0.00     0.031 A 
ATOM     52  C   UNL A   1      46.416  28.255  30.231  1.00  0.00     0.049 A 
ATOM     53  C   UNL A   1      41.021  29.750  29.667  1.00  0.00     0.074 A 
ATOM     54  C   UNL A   1      47.288  29.239  30.658  1.00  0.00     0.029 A 
ATOM     55  N   UNL A   1      45.154  28.830  30.173  1.00  0.00    -0.354 N 
ATOM     56  N   UNL A   1      42.307  29.547  29.829  1.00  0.00    -0.248 NA
ATOM     57  C   UNL A   1      40.573  31.101  30.029  1.00  0.00     0.031 C 
ATOM     58  C   UNL A   1      46.547  30.401  30.894  1.00  0.00     0.029 A 
ATOM     59  C   UNL A   1      45.221  30.151  30.573  1.00  0.00     0.049 A 
ATOM     60  H   UNL A   1      44.334  28.364  29.889  1.00  0.00     0.167 HD
ATOM     61  C   UNL A   1      42.824  30.748  30.293  1.00  0.00     0.074 A 
ATOM     62  C   UNL A   1      41.718  31.681  30.366  1.00  0.00     0.031 C 
ATOM     63  C   UNL A   1      44.101  31.053  30.633  1.00  0.00     0.031 A 
BRANCH  50  64
ATOM     64  C   UNL A   1      48.095  26.364  30.063  1.00  0.00    -0.014 A 
ATOM     65  C   UNL A   1      48.516  25.811  31.284  1.00  0.00     0.009 A 
ATOM     66  C   UNL A   1      49.009  26.439  29.001  1.00  0.00     0.009 A 
ATOM     67  C   UNL A   1      49.837  25.395  31.457  1.00  0.00     0.001 A 
ATOM     68  C   UNL A   1      50.321  25.990  29.167  1.00  0.00     0.001 A 
ATOM     69  C   UNL A   1      50.738  25.482  30.397  1.00  0.00     0.000 A 
ENDBRANCH  50  64
BRANCH  51  70
ATOM     70  C   UNL A   1      38.556  29.233  29.021  1.00  0.00    -0.014 A 
ATOM     71  C   UNL A   1      38.085  29.710  27.787  1.00  0.00     0.009 A 
ATOM     72  C   UNL A   1      37.666  29.174  30.105  1.00  0.00     0.009 A 
ATOM     73  C   UNL A   1      36.764  30.147  27.650  1.00  0.00     0.001 A 
ATOM     74  C   UNL A   1      36.339  29.585  29.957  1.00  0.00     0.001 A 
ATOM     75  C   UNL A   1      35.891  30.080  28.734  1.00  0.00     0.000 A 
ENDBRANCH  51  70
BRANCH  63  76
ATOM     76  C   UNL A   1      44.367  32.455  31.095  1.00  0.00    -0.014 A 
ATOM     77  C   UNL A   1      44.669  33.471  30.178  1.00  0.00     0.009 A 
ATOM     78  C   UNL A   1      44.248  32.771  32.456  1.00  0.00     0.009 A 
ATOM     79  C   UNL A   1      44.870  34.779  30.620  1.00  0.00     0.001 A 
ATOM     80  C   UNL A   1      44.423  34.085  32.892  1.00  0.00     0.001 A 
ATOM     81  C   UNL A   1      44.740  35.085  31.974  1.00  0.00     0.000 A 
ENDBRANCH  63  76
ENDBRANCH  37  38
ENDBRANCH  29  32
ENDBRANCH  27  28
ENDBRANCH  26  27
ENDBRANCH   1  26
TORSDOF 14
ENDMDL
MODEL 2
REMARK VINA RESULT:     -12.0      3.522      8.932
REMARK SMILES CC1(C)[C@@H](C(=O)NCCc2ccccc2)CC[C@@]1(C)C(=O)NCCCNC(=O)c1ccc(-c2c3nc(c(-c4ccccc4)c4ccc([nH]4)c(-c4ccccc4)c4nc(c(-c5ccccc5)c5ccc2[nH]5)C=C4)C=C3)cc1
REMARK SMILES IDX 23 1 22 2 20 3 21 4 18 6 1 7 2 8 3 9 4 10 16 11 17 12 19 13
REMARK SMILES IDX 5 14 6 15 7 16 8 18 9 19 10 20 11 21 15 22 12 23 14 24 13 25
REMARK SMILES IDX 24 26 25 27 26 28 27 29 28 31 29 32 30 33 76 34 31 35 75 36
REMARK SMILES IDX 32 37 33 38 34 39 69 40 35 41 74 42 68 43 70 44 36 45 73 46
REMARK SMILES IDX 67 47 66 48 37 50 59 51 44 52 58 53 45 54 48 55 57 56 71 57
REMARK SMILES IDX 46 58 47 59 56 61 72 62 49 63 38 64 39 65 43 66 40 67 42 68
REMARK SMILES IDX 41 69 60 70 61 71 65 72 62 73 64 74 63 75 50 76 51 77 55 78
REMARK SMILES IDX 52 79 54 80 53 81
REMARK H PARENT 22 5 7 17 26 30 70 49 48 60
REMARK Flexibility Score: inf
ROOT
ATOM      1  C   UNL A   1      33.023  28.790  25.906  1.00  0.00     0.117 C 
ENDROOT
BRANCH   1   2
ATOM      2  N   UNL A   1      33.216  27.322  25.842  1.00  0.00    -0.356 N 
ATOM      3  C   UNL A   1      33.589  26.576  24.730  1.00  0.00     0.226 C 
ATOM      4  O   UNL A   1      34.190  27.142  23.812  1.00  0.00    -0.274 OA
ATOM      5  H   UNL A   1      33.066  26.823  26.677  1.00  0.00     0.163 HD
BRANCH   3   6
ATOM      6  C   UNL A   1      33.268  24.977  24.584  1.00  0.00     0.052 C 
ATOM      7  C   UNL A   1      30.709  25.508  24.738  1.00  0.00     0.013 C 
ATOM      8  C   UNL A   1      31.823  24.640  24.120  1.00  0.00    -0.010 C 
ATOM      9  C   UNL A   1      31.402  23.194  24.571  1.00  0.00     0.013 C 
ATOM     10  C   UNL A   1      32.036  24.677  22.546  1.00  0.00     0.085 C 
ATOM     11  C   UNL A   1      33.204  23.758  22.336  1.00  0.00     0.015 C 
ATOM     12  C   UNL A   1      34.092  24.091  23.542  1.00  0.00     0.018 C 
ATOM     13  C   UNL A   1      33.704  24.385  25.951  1.00  0.00     0.022 C 
BRANCH  10  14
ATOM     14  C   UNL A   1      32.361  26.032  21.882  1.00  0.00     0.223 C 
ATOM     15  O   UNL A   1      33.231  25.983  20.996  1.00  0.00    -0.275 OA
ATOM     16  N   UNL A   1      31.708  27.238  22.015  1.00  0.00    -0.356 N 
ATOM     17  H   UNL A   1      31.861  27.763  21.196  1.00  0.00     0.163 HD
BRANCH  16  18
ATOM     18  C   UNL A   1      30.854  28.049  22.935  1.00  0.00     0.120 C 
BRANCH  18  19
ATOM     19  C   UNL A   1      29.401  28.527  22.531  1.00  0.00     0.056 C 
BRANCH  19  20
ATOM     20  C   UNL A   1      28.986  29.988  22.448  1.00  0.00    -0.046 A 
ATOM     21  C   UNL A   1      29.089  30.860  23.529  1.00  0.00     0.004 A 
ATOM     22  C   UNL A   1      28.388  30.504  21.281  1.00  0.00     0.004 A 
ATOM     23  C   UNL A   1      28.767  32.221  23.386  1.00  0.00     0.000 A 
ATOM     24  C   UNL A   1      28.127  31.867  21.110  1.00  0.00     0.000 A 
ATOM     25  C   UNL A   1      28.340  32.736  22.164  1.00  0.00     0.000 A 
ENDBRANCH  19  20
ENDBRANCH  18  19
ENDBRANCH  16  18
ENDBRANCH  10  14
ENDBRANCH   3   6
ENDBRANCH   1   2
BRANCH   1  26
ATOM     26  C   UNL A   1      33.350  29.428  27.283  1.00  0.00     0.042 C 
BRANCH  26  27
ATOM     27  C   UNL A   1      33.994  30.824  27.254  1.00  0.00     0.118 C 
BRANCH  27  28
ATOM     28  N   UNL A   1      33.115  31.995  27.332  1.00  0.00    -0.352 N 
ATOM     29  C   UNL A   1      33.299  33.210  28.005  1.00  0.00     0.251 C 
ATOM     30  H   UNL A   1      32.267  31.916  26.837  1.00  0.00     0.163 HD
ATOM     31  O   UNL A   1      32.457  34.081  28.002  1.00  0.00    -0.269 OA
BRANCH  29  32
ATOM     32  C   UNL A   1      34.507  33.388  28.845  1.00  0.00     0.039 A 
ATOM     33  C   UNL A   1      34.540  32.771  30.098  1.00  0.00     0.014 A 
ATOM     34  C   UNL A   1      35.658  33.932  28.298  1.00  0.00     0.014 A 
ATOM     35  C   UNL A   1      35.774  32.464  30.664  1.00  0.00     0.010 A 
ATOM     36  C   UNL A   1      36.874  33.467  28.757  1.00  0.00     0.010 A 
ATOM     37  C   UNL A   1      36.941  32.684  29.918  1.00  0.00    -0.014 A 
BRANCH  37  38
ATOM     38  C   UNL A   1      38.225  32.035  30.277  1.00  0.00     0.031 A 
ATOM     39  C   UNL A   1      39.184  32.733  31.194  1.00  0.00     0.074 A 
ATOM     40  C   UNL A   1      38.574  30.880  29.670  1.00  0.00     0.049 A 
ATOM     41  N   UNL A   1      40.393  32.379  31.546  1.00  0.00    -0.248 NA
ATOM     42  C   UNL A   1      38.756  34.031  31.745  1.00  0.00     0.031 C 
ATOM     43  C   UNL A   1      37.772  30.158  28.674  1.00  0.00     0.029 A 
ATOM     44  N   UNL A   1      39.698  30.104  29.802  1.00  0.00    -0.354 N 
ATOM     45  C   UNL A   1      40.872  33.423  32.325  1.00  0.00     0.074 A 
ATOM     46  C   UNL A   1      39.864  34.457  32.326  1.00  0.00     0.031 C 
ATOM     47  C   UNL A   1      38.397  29.017  28.340  1.00  0.00     0.029 A 
ATOM     48  C   UNL A   1      39.663  28.947  29.058  1.00  0.00     0.049 A 
ATOM     49  H   UNL A   1      40.458  30.352  30.376  1.00  0.00     0.167 HD
ATOM     50  C   UNL A   1      42.033  33.498  33.015  1.00  0.00     0.031 A 
ATOM     51  C   UNL A   1      40.551  27.940  28.972  1.00  0.00     0.031 A 
ATOM     52  C   UNL A   1      43.008  32.447  33.048  1.00  0.00     0.049 A 
ATOM     53  C   UNL A   1      41.811  28.023  29.784  1.00  0.00     0.074 A 
ATOM     54  C   UNL A   1      44.178  32.376  33.779  1.00  0.00     0.029 A 
ATOM     55  N   UNL A   1      42.916  31.272  32.315  1.00  0.00    -0.354 N 
ATOM     56  N   UNL A   1      42.208  28.974  30.596  1.00  0.00    -0.248 NA
ATOM     57  C   UNL A   1      42.744  26.893  29.676  1.00  0.00     0.031 C 
ATOM     58  C   UNL A   1      44.815  31.173  33.462  1.00  0.00     0.029 A 
ATOM     59  C   UNL A   1      44.018  30.477  32.564  1.00  0.00     0.049 A 
ATOM     60  H   UNL A   1      42.176  31.041  31.708  1.00  0.00     0.167 HD
ATOM     61  C   UNL A   1      43.425  28.550  31.110  1.00  0.00     0.074 A 
ATOM     62  C   UNL A   1      43.692  27.247  30.534  1.00  0.00     0.031 C 
ATOM     63  C   UNL A   1      44.252  29.184  31.977  1.00  0.00     0.031 A 
BRANCH  50  64
ATOM     64  C   UNL A   1      42.278  34.756  33.799  1.00  0.00    -0.014 A 
ATOM     65  C   UNL A   1      41.902  34.853  35.149  1.00  0.00     0.009 A 
ATOM     66  C   UNL A   1      42.872  35.864  33.177  1.00  0.00     0.009 A 
ATOM     67  C   UNL A   1      42.065  36.052  35.846  1.00  0.00     0.001 A 
ATOM     68  C   UNL A   1      43.065  37.051  33.887  1.00  0.00     0.001 A 
ATOM     69  C   UNL A   1      42.648  37.149  35.215  1.00  0.00     0.000 A 
ENDBRANCH  50  64
BRANCH  51  70
ATOM     70  C   UNL A   1      40.263  26.750  28.127  1.00  0.00    -0.014 A 
ATOM     71  C   UNL A   1      40.760  26.678  26.814  1.00  0.00     0.009 A 
ATOM     72  C   UNL A   1      39.497  25.682  28.617  1.00  0.00     0.009 A 
ATOM     73  C   UNL A   1      40.470  25.577  26.004  1.00  0.00     0.001 A 
ATOM     74  C   UNL A   1      39.231  24.570  27.813  1.00  0.00     0.001 A 
ATOM     75  C   UNL A   1      39.709  24.522  26.505  1.00  0.00     0.000 A 
ENDBRANCH  51  70
BRANCH  63  76
ATOM     76  C   UNL A   1      45.511  28.466  32.366  1.00  0.00    -0.014 A 
ATOM     77  C   UNL A   1      46.700  28.655  31.649  1.00  0.00     0.009 A 
ATOM     78  C   UNL A   1      45.517  27.643  33.502  1.00  0.00     0.009 A 
ATOM     79  C   UNL A   1      47.873  28.014  32.051  1.00  0.00     0.001 A 
ATOM     80  C   UNL A   1      46.696  27.025  33.918  1.00  0.00     0.001 A 
ATOM     81  C   UNL A   1      47.871  27.207  33.189  1.00  0.00     0.000 A 
ENDBRANCH  63  76
ENDBRANCH  37  38
ENDBRANCH  29  32
ENDBRANCH  27  28
ENDBRANCH  26  27
ENDBRANCH   1  26
TORSDOF 14
ENDMDL
MODEL 3
REMARK VINA RESULT:     -12.0      2.652      8.241
REMARK SMILES CC1(C)[C@@H](C(=O)NCCc2ccccc2)CC[C@@]1(C)C(=O)NCCCNC(=O)c1ccc(-c2c3nc(c(-c4ccccc4)c4ccc([nH]4)c(-c4ccccc4)c4nc(c(-c5ccccc5)c5ccc2[nH]5)C=C4)C=C3)cc1
REMARK SMILES IDX 23 1 22 2 20 3 21 4 18 6 1 7 2 8 3 9 4 10 16 11 17 12 19 13
REMARK SMILES IDX 5 14 6 15 7 16 8 18 9 19 10 20 11 21 15 22 12 23 14 24 13 25
REMARK SMILES IDX 24 26 25 27 26 28 27 29 28 31 29 32 30 33 76 34 31 35 75 36
REMARK SMILES IDX 32 37 33 38 34 39 69 40 35 41 74 42 68 43 70 44 36 45 73 46
REMARK SMILES IDX 67 47 66 48 37 50 59 51 44 52 58 53 45 54 48 55 57 56 71 57
REMARK SMILES IDX 46 58 47 59 56 61 72 62 49 63 38 64 39 65 43 66 40 67 42 68
REMARK SMILES IDX 41 69 60 70 61 71 65 72 62 73 64 74 63 75 50 76 51 77 55 78
REMARK SMILES IDX 52 79 54 80 53 81
REMARK H PARENT 22 5 7 17 26 30 70 49 48 60
REMARK Flexibility Score: inf
ROOT
ATOM      1  C   UNL A   1      31.750  28.279  27.625  1.00  0.00     0.117 C 
ENDROOT
BRANCH   1   2
ATOM      2  N   UNL A   1      32.221  27.229  26.691  1.00  0.00    -0.356 N 
ATOM      3  C   UNL A   1      31.561  26.052  26.355  1.00  0.00     0.226 C 
ATOM      4  O   UNL A   1      30.337  25.999  26.501  1.00  0.00    -0.274 OA
ATOM      5  H   UNL A   1      33.094  27.382  26.262  1.00  0.00     0.163 HD
BRANCH   3   6
ATOM      6  C   UNL A   1      32.338  24.734  25.772  1.00  0.00     0.052 C 
ATOM      7  C   UNL A   1      30.577  24.591  23.840  1.00  0.00     0.013 C 
ATOM      8  C   UNL A   1      32.043  24.409  24.281  1.00  0.00    -0.010 C 
ATOM      9  C   UNL A   1      32.295  22.888  23.968  1.00  0.00     0.013 C 
ATOM     10  C   UNL A   1      33.165  25.298  23.590  1.00  0.00     0.085 C 
ATOM     11  C   UNL A   1      34.421  24.873  24.294  1.00  0.00     0.015 C 
ATOM     12  C   UNL A   1      33.934  24.700  25.738  1.00  0.00     0.018 C 
ATOM     13  C   UNL A   1      31.997  23.619  26.797  1.00  0.00     0.022 C 
BRANCH  10  14
ATOM     14  C   UNL A   1      33.049  26.833  23.693  1.00  0.00     0.223 C 
ATOM     15  O   UNL A   1      34.027  27.396  24.213  1.00  0.00    -0.275 OA
ATOM     16  N   UNL A   1      32.101  27.667  23.140  1.00  0.00    -0.356 N 
ATOM     17  H   UNL A   1      32.507  28.555  23.017  1.00  0.00     0.163 HD
BRANCH  16  18
ATOM     18  C   UNL A   1      30.688  27.730  22.658  1.00  0.00     0.120 C 
BRANCH  18  19
ATOM     19  C   UNL A   1      29.585  28.593  23.394  1.00  0.00     0.056 C 
BRANCH  19  20
ATOM     20  C   UNL A   1      29.107  29.950  22.899  1.00  0.00    -0.046 A 
ATOM     21  C   UNL A   1      29.152  31.096  23.688  1.00  0.00     0.004 A 
ATOM     22  C   UNL A   1      28.507  30.085  21.631  1.00  0.00     0.004 A 
ATOM     23  C   UNL A   1      28.771  32.344  23.164  1.00  0.00     0.000 A 
ATOM     24  C   UNL A   1      28.187  31.329  21.080  1.00  0.00     0.000 A 
ATOM     25  C   UNL A   1      28.343  32.470  21.845  1.00  0.00     0.000 A 
ENDBRANCH  19  20
ENDBRANCH  18  19
ENDBRANCH  16  18
ENDBRANCH  10  14
ENDBRANCH   3   6
ENDBRANCH   1   2
BRANCH   1  26
ATOM     26  C   UNL A   1      32.002  29.734  27.146  1.00  0.00     0.042 C 
BRANCH  26  27
ATOM     27  C   UNL A   1      33.471  30.183  27.069  1.00  0.00     0.118 C 
BRANCH  27  28
ATOM     28  N   UNL A   1      33.942  31.182  28.034  1.00  0.00    -0.352 N 
ATOM     29  C   UNL A   1      35.141  31.235  28.755  1.00  0.00     0.251 C 
ATOM     30  H   UNL A   1      33.321  31.928  28.200  1.00  0.00     0.163 HD
ATOM     31  O   UNL A   1      35.376  32.119  29.548  1.00  0.00    -0.269 OA
BRANCH  29  32
ATOM     32  C   UNL A   1      36.101  30.111  28.633  1.00  0.00     0.039 A 
ATOM     33  C   UNL A   1      36.874  30.024  27.473  1.00  0.00     0.014 A 
ATOM     34  C   UNL A   1      36.396  29.328  29.738  1.00  0.00     0.014 A 
ATOM     35  C   UNL A   1      38.096  29.359  27.529  1.00  0.00     0.010 A 
ATOM     36  C   UNL A   1      37.680  28.834  29.854  1.00  0.00     0.010 A 
ATOM     37  C   UNL A   1      38.562  28.889  28.766  1.00  0.00    -0.014 A 
BRANCH  37  38
ATOM     38  C   UNL A   1      39.987  28.537  28.975  1.00  0.00     0.031 A 
ATOM     39  C   UNL A   1      40.927  29.546  29.565  1.00  0.00     0.074 A 
ATOM     40  C   UNL A   1      40.451  27.357  28.510  1.00  0.00     0.049 A 
ATOM     41  N   UNL A   1      42.222  29.466  29.733  1.00  0.00    -0.248 NA
ATOM     42  C   UNL A   1      40.350  30.840  29.967  1.00  0.00     0.031 C 
ATOM     43  C   UNL A   1      39.656  26.335  27.818  1.00  0.00     0.029 A 
ATOM     44  N   UNL A   1      41.710  26.812  28.551  1.00  0.00    -0.354 N 
ATOM     45  C   UNL A   1      42.609  30.704  30.224  1.00  0.00     0.074 A 
ATOM     46  C   UNL A   1      41.434  31.543  30.248  1.00  0.00     0.031 C 
ATOM     47  C   UNL A   1      40.427  25.266  27.562  1.00  0.00     0.029 A 
ATOM     48  C   UNL A   1      41.781  25.542  28.026  1.00  0.00     0.049 A 
ATOM     49  H   UNL A   1      42.489  27.285  28.920  1.00  0.00     0.167 HD
ATOM     50  C   UNL A   1      43.827  31.098  30.658  1.00  0.00     0.031 A 
ATOM     51  C   UNL A   1      42.820  24.692  27.939  1.00  0.00     0.031 A 
ATOM     52  C   UNL A   1      44.980  30.243  30.676  1.00  0.00     0.049 A 
ATOM     53  C   UNL A   1      44.154  25.133  28.471  1.00  0.00     0.074 A 
ATOM     54  C   UNL A   1      46.242  30.505  31.172  1.00  0.00     0.029 A 
ATOM     55  N   UNL A   1      45.000  28.949  30.177  1.00  0.00    -0.354 N 
ATOM     56  N   UNL A   1      44.484  26.276  29.025  1.00  0.00    -0.248 NA
ATOM     57  C   UNL A   1      45.257  24.168  28.373  1.00  0.00     0.031 C 
ATOM     58  C   UNL A   1      47.040  29.380  30.940  1.00  0.00     0.029 A 
ATOM     59  C   UNL A   1      46.260  28.404  30.338  1.00  0.00     0.049 A 
ATOM     60  H   UNL A   1      44.232  28.488  29.769  1.00  0.00     0.167 HD
ATOM     61  C   UNL A   1      45.825  26.161  29.359  1.00  0.00     0.074 A 
ATOM     62  C   UNL A   1      46.243  24.830  28.965  1.00  0.00     0.031 C 
ATOM     63  C   UNL A   1      46.642  27.075  29.937  1.00  0.00     0.031 A 
BRANCH  50  64
ATOM     64  C   UNL A   1      43.948  32.507  31.163  1.00  0.00    -0.014 A 
ATOM     65  C   UNL A   1      44.297  33.559  30.300  1.00  0.00     0.009 A 
ATOM     66  C   UNL A   1      43.731  32.785  32.521  1.00  0.00     0.009 A 
ATOM     67  C   UNL A   1      44.481  34.851  30.796  1.00  0.00     0.001 A 
ATOM     68  C   UNL A   1      43.883  34.085  33.007  1.00  0.00     0.001 A 
ATOM     69  C   UNL A   1      44.271  35.114  32.148  1.00  0.00     0.000 A 
ENDBRANCH  50  64
BRANCH  51  70
ATOM     70  C   UNL A   1      42.637  23.330  27.371  1.00  0.00    -0.014 A 
ATOM     71  C   UNL A   1      42.910  23.086  26.014  1.00  0.00     0.009 A 
ATOM     72  C   UNL A   1      42.190  22.266  28.170  1.00  0.00     0.009 A 
ATOM     73  C   UNL A   1      42.712  21.816  25.466  1.00  0.00     0.001 A 
ATOM     74  C   UNL A   1      42.020  20.991  27.625  1.00  0.00     0.001 A 
ATOM     75  C   UNL A   1      42.271  20.768  26.273  1.00  0.00     0.000 A 
ENDBRANCH  51  70
BRANCH  63  76
ATOM     76  C   UNL A   1      48.061  26.658  30.191  1.00  0.00    -0.014 A 
ATOM     77  C   UNL A   1      48.414  25.993  31.373  1.00  0.00     0.009 A 
ATOM     78  C   UNL A   1      49.036  26.877  29.208  1.00  0.00     0.009 A 
ATOM     79  C   UNL A   1      49.730  25.572  31.576  1.00  0.00     0.001 A 
ATOM     80  C   UNL A   1      50.343  26.431  29.401  1.00  0.00     0.001 A 
ATOM     81  C   UNL A   1      50.690  25.785  30.587  1.00  0.00     0.000 A 
ENDBRANCH  63  76
ENDBRANCH  37  38
ENDBRANCH  29  32
ENDBRANCH  27  28
ENDBRANCH  26  27
ENDBRANCH   1  26
TORSDOF 14
ENDMDL
