MODEL 1
REMARK VINA RESULT:     -11.6      0.000      0.000
REMARK SMILES O=C(NCCCNC(=O)c1cc(/N=C/c2ccc([N+](=O)[O-])cc2)ccc1O)c1ccc(-c2c3nc(c(-c4ccccc4)c4ccc([nH]4)c(-c4ccccc4)c4nc(c(-c5ccccc5)c5ccc2[nH]5)C=C4)C=C3)cc1
REMARK SMILES IDX 5 1 4 2 3 3 1 4 2 5 28 7 29 8 75 9 30 10 74 11 31 12 32 13
REMARK SMILES IDX 33 14 68 15 34 16 73 17 67 18 69 19 35 20 72 21 66 22 65 23
REMARK SMILES IDX 36 25 58 26 43 27 57 28 44 29 47 30 56 31 70 32 45 33 46 34
REMARK SMILES IDX 55 36 71 37 48 38 37 39 38 40 42 41 39 42 41 43 40 44 59 45
REMARK SMILES IDX 60 46 64 47 61 48 63 49 62 50 49 51 50 52 54 53 51 54 53 55
REMARK SMILES IDX 52 56 6 57 7 58 8 59 9 61 10 62 11 63 26 64 12 65 25 66
REMARK SMILES IDX 24 67 27 68 13 70 14 71 15 72 16 73 23 74 17 75 22 76 18 77
REMARK SMILES IDX 19 78 20 79 21 80
REMARK H PARENT 3 6 69 24 47 35 7 60 27 69
REMARK Flexibility Score: inf
ROOT
ATOM      1  C   UNL A   1      35.912  23.739  25.963  1.00  0.00     0.042 C 
ENDROOT
BRANCH   1   2
ATOM      2  C   UNL A   1      37.150  23.848  25.089  1.00  0.00     0.118 C 
BRANCH   2   3
ATOM      3  N   UNL A   1      38.169  22.859  25.422  1.00  0.00    -0.352 N 
ATOM      4  O   UNL A   1      40.151  22.063  26.139  1.00  0.00    -0.269 OA
ATOM      5  C   UNL A   1      39.344  22.989  26.122  1.00  0.00     0.251 C 
ATOM      6  H   UNL A   1      37.984  21.949  25.092  1.00  0.00     0.163 HD
BRANCH   5   7
ATOM      7  C   UNL A   1      39.657  24.246  26.837  1.00  0.00     0.039 A 
ATOM      8  C   UNL A   1      39.241  24.440  28.152  1.00  0.00     0.014 A 
ATOM      9  C   UNL A   1      40.403  25.239  26.191  1.00  0.00     0.014 A 
ATOM     10  C   UNL A   1      39.404  25.681  28.755  1.00  0.00     0.010 A 
ATOM     11  C   UNL A   1      40.672  26.446  26.844  1.00  0.00     0.010 A 
ATOM     12  C   UNL A   1      40.145  26.690  28.121  1.00  0.00    -0.014 A 
BRANCH  12  13
ATOM     13  C   UNL A   1      40.419  27.945  28.866  1.00  0.00     0.031 A 
ATOM     14  C   UNL A   1      39.395  29.040  28.968  1.00  0.00     0.074 A 
ATOM     15  C   UNL A   1      41.599  28.059  29.508  1.00  0.00     0.049 A 
ATOM     16  N   UNL A   1      39.464  30.165  29.636  1.00  0.00    -0.248 NA
ATOM     17  C   UNL A   1      38.137  28.861  28.227  1.00  0.00     0.031 C 
ATOM     18  C   UNL A   1      42.677  27.064  29.473  1.00  0.00     0.029 A 
ATOM     19  N   UNL A   1      42.079  29.035  30.340  1.00  0.00    -0.354 N 
ATOM     20  C   UNL A   1      38.273  30.832  29.385  1.00  0.00     0.074 A 
ATOM     21  C   UNL A   1      37.505  30.000  28.483  1.00  0.00     0.031 C 
ATOM     22  C   UNL A   1      43.656  27.446  30.304  1.00  0.00     0.029 A 
ATOM     23  C   UNL A   1      43.312  28.745  30.870  1.00  0.00     0.049 A 
ATOM     24  H   UNL A   1      41.587  29.865  30.539  1.00  0.00     0.167 HD
ATOM     25  C   UNL A   1      37.855  32.028  29.866  1.00  0.00     0.031 A 
ATOM     26  C   UNL A   1      44.095  29.448  31.708  1.00  0.00     0.031 A 
ATOM     27  C   UNL A   1      38.620  32.855  30.765  1.00  0.00     0.049 A 
ATOM     28  C   UNL A   1      43.615  30.779  32.200  1.00  0.00     0.074 A 
ATOM     29  C   UNL A   1      38.271  34.074  31.322  1.00  0.00     0.029 A 
ATOM     30  N   UNL A   1      39.886  32.549  31.237  1.00  0.00    -0.354 N 
ATOM     31  N   UNL A   1      42.475  31.382  31.969  1.00  0.00    -0.248 NA
ATOM     32  C   UNL A   1      44.533  31.529  33.067  1.00  0.00     0.031 C 
ATOM     33  C   UNL A   1      39.346  34.527  32.093  1.00  0.00     0.029 A 
ATOM     34  C   UNL A   1      40.342  33.566  32.060  1.00  0.00     0.049 A 
ATOM     35  H   UNL A   1      40.387  31.729  31.021  1.00  0.00     0.167 HD
ATOM     36  C   UNL A   1      42.533  32.578  32.667  1.00  0.00     0.074 A 
ATOM     37  C   UNL A   1      43.808  32.600  33.356  1.00  0.00     0.031 C 
ATOM     38  C   UNL A   1      41.619  33.576  32.726  1.00  0.00     0.031 A 
BRANCH  25  39
ATOM     39  C   UNL A   1      36.512  32.534  29.415  1.00  0.00    -0.014 A 
ATOM     40  C   UNL A   1      35.358  32.323  30.183  1.00  0.00     0.009 A 
ATOM     41  C   UNL A   1      36.414  33.294  28.238  1.00  0.00     0.009 A 
ATOM     42  C   UNL A   1      34.128  32.842  29.772  1.00  0.00     0.001 A 
ATOM     43  C   UNL A   1      35.189  33.833  27.840  1.00  0.00     0.001 A 
ATOM     44  C   UNL A   1      34.046  33.601  28.604  1.00  0.00     0.000 A 
ENDBRANCH  25  39
BRANCH  26  45
ATOM     45  C   UNL A   1      45.422  28.915  32.108  1.00  0.00    -0.014 A 
ATOM     46  C   UNL A   1      46.567  29.195  31.349  1.00  0.00     0.009 A 
ATOM     47  C   UNL A   1      45.547  28.120  33.259  1.00  0.00     0.009 A 
ATOM     48  C   UNL A   1      47.806  28.668  31.720  1.00  0.00     0.001 A 
ATOM     49  C   UNL A   1      46.792  27.623  33.646  1.00  0.00     0.001 A 
ATOM     50  C   UNL A   1      47.918  27.888  32.871  1.00  0.00     0.000 A 
ENDBRANCH  26  45
BRANCH  38  51
ATOM     51  C   UNL A   1      41.967  34.759  33.581  1.00  0.00    -0.014 A 
ATOM     52  C   UNL A   1      41.576  34.820  34.928  1.00  0.00     0.009 A 
ATOM     53  C   UNL A   1      42.700  35.824  33.034  1.00  0.00     0.009 A 
ATOM     54  C   UNL A   1      41.877  35.944  35.700  1.00  0.00     0.001 A 
ATOM     55  C   UNL A   1      43.023  36.933  33.816  1.00  0.00     0.001 A 
ATOM     56  C   UNL A   1      42.602  36.997  35.144  1.00  0.00     0.000 A 
ENDBRANCH  38  51
ENDBRANCH  12  13
ENDBRANCH   5   7
ENDBRANCH   2   3
ENDBRANCH   1   2
BRANCH   1  57
ATOM     57  C   UNL A   1      35.670  22.340  26.501  1.00  0.00     0.118 C 
BRANCH  57  58
ATOM     58  N   UNL A   1      34.620  22.308  27.508  1.00  0.00    -0.352 N 
ATOM     59  C   UNL A   1      33.266  22.154  27.338  1.00  0.00     0.255 C 
ATOM     60  H   UNL A   1      34.921  22.410  28.439  1.00  0.00     0.163 HD
ATOM     61  O   UNL A   1      32.509  22.251  28.300  1.00  0.00    -0.269 OA
BRANCH  59  62
ATOM     62  C   UNL A   1      32.711  21.946  25.985  1.00  0.00     0.083 A 
ATOM     63  C   UNL A   1      32.012  23.011  25.405  1.00  0.00     0.046 A 
ATOM     64  C   UNL A   1      32.875  20.746  25.284  1.00  0.00     0.128 A 
ATOM     65  C   UNL A   1      31.530  22.908  24.100  1.00  0.00     0.064 A 
ATOM     66  C   UNL A   1      32.430  20.645  23.969  1.00  0.00     0.049 A 
ATOM     67  C   UNL A   1      31.783  21.733  23.377  1.00  0.00     0.032 A 
BRANCH  64  68
ATOM     68  O   UNL A   1      33.494  19.677  25.869  1.00  0.00    -0.507 OA
ATOM     69  H   UNL A   1      34.072  19.138  25.365  1.00  0.00     0.293 HD
ENDBRANCH  64  68
BRANCH  65  70
ATOM     70  N   UNL A   1      30.861  24.007  23.536  1.00  0.00    -0.256 NA
ATOM     71  C   UNL A   1      30.656  25.034  24.296  1.00  0.00     0.119 C 
BRANCH  71  72
ATOM     72  C   UNL A   1      29.972  26.250  23.814  1.00  0.00    -0.007 A 
ATOM     73  C   UNL A   1      30.729  27.217  23.144  1.00  0.00     0.017 A 
ATOM     74  C   UNL A   1      28.597  26.428  24.003  1.00  0.00     0.017 A 
ATOM     75  C   UNL A   1      30.108  28.367  22.649  1.00  0.00     0.086 A 
ATOM     76  C   UNL A   1      27.969  27.574  23.505  1.00  0.00     0.086 A 
ATOM     77  C   UNL A   1      28.728  28.538  22.825  1.00  0.00     0.269 A 
BRANCH  77  78
ATOM     78  N   UNL A   1      28.072  29.737  22.284  1.00  0.00     0.062 N 
ATOM     79  O   UNL A   1      27.278  30.338  23.021  1.00  0.00    -0.258 OA
ATOM     80  O   UNL A   1      28.354  30.074  21.126  1.00  0.00    -0.258 OA
ENDBRANCH  77  78
ENDBRANCH  71  72
ENDBRANCH  65  70
ENDBRANCH  59  62
ENDBRANCH  57  58
ENDBRANCH   1  57
TORSDOF 14
ENDMDL
MODEL 2
REMARK VINA RESULT:     -11.4      3.138      8.660
REMARK SMILES O=C(NCCCNC(=O)c1cc(/N=C/c2ccc([N+](=O)[O-])cc2)ccc1O)c1ccc(-c2c3nc(c(-c4ccccc4)c4ccc([nH]4)c(-c4ccccc4)c4nc(c(-c5ccccc5)c5ccc2[nH]5)C=C4)C=C3)cc1
REMARK SMILES IDX 5 1 4 2 3 3 1 4 2 5 28 7 29 8 75 9 30 10 74 11 31 12 32 13
REMARK SMILES IDX 33 14 68 15 34 16 73 17 67 18 69 19 35 20 72 21 66 22 65 23
REMARK SMILES IDX 36 25 58 26 43 27 57 28 44 29 47 30 56 31 70 32 45 33 46 34
REMARK SMILES IDX 55 36 71 37 48 38 37 39 38 40 42 41 39 42 41 43 40 44 59 45
REMARK SMILES IDX 60 46 64 47 61 48 63 49 62 50 49 51 50 52 54 53 51 54 53 55
REMARK SMILES IDX 52 56 6 57 7 58 8 59 9 61 10 62 11 63 26 64 12 65 25 66
REMARK SMILES IDX 24 67 27 68 13 70 14 71 15 72 16 73 23 74 17 75 22 76 18 77
REMARK SMILES IDX 19 78 20 79 21 80
REMARK H PARENT 3 6 69 24 47 35 7 60 27 69
REMARK Flexibility Score: inf
ROOT
ATOM      1  C   UNL A   1      33.521  28.630  25.438  1.00  0.00     0.042 C 
ENDROOT
BRANCH   1   2
ATOM      2  C   UNL A   1      33.811  28.658  26.929  1.00  0.00     0.118 C 
BRANCH   2   3
ATOM      3  N   UNL A   1      33.736  30.000  27.495  1.00  0.00    -0.352 N 
ATOM      4  O   UNL A   1      34.309  31.760  28.782  1.00  0.00    -0.269 OA
ATOM      5  C   UNL A   1      34.643  30.702  28.253  1.00  0.00     0.251 C 
ATOM      6  H   UNL A   1      32.899  30.483  27.303  1.00  0.00     0.163 HD
BRANCH   5   7
ATOM      7  C   UNL A   1      36.012  30.181  28.457  1.00  0.00     0.039 A 
ATOM      8  C   UNL A   1      36.386  29.617  29.675  1.00  0.00     0.014 A 
ATOM      9  C   UNL A   1      36.932  30.231  27.404  1.00  0.00     0.014 A 
ATOM     10  C   UNL A   1      37.712  29.278  29.904  1.00  0.00     0.010 A 
ATOM     11  C   UNL A   1      38.240  29.775  27.597  1.00  0.00     0.010 A 
ATOM     12  C   UNL A   1      38.651  29.325  28.861  1.00  0.00    -0.014 A 
BRANCH  12  13
ATOM     13  C   UNL A   1      40.021  28.811  29.114  1.00  0.00     0.031 A 
ATOM     14  C   UNL A   1      40.439  27.434  28.683  1.00  0.00     0.074 A 
ATOM     15  C   UNL A   1      40.913  29.639  29.695  1.00  0.00     0.049 A 
ATOM     16  N   UNL A   1      41.617  26.869  28.777  1.00  0.00    -0.248 NA
ATOM     17  C   UNL A   1      39.411  26.575  28.075  1.00  0.00     0.031 C 
ATOM     18  C   UNL A   1      40.620  30.997  30.167  1.00  0.00     0.029 A 
ATOM     19  N   UNL A   1      42.248  29.481  29.956  1.00  0.00    -0.354 N 
ATOM     20  C   UNL A   1      41.471  25.590  28.258  1.00  0.00     0.074 A 
ATOM     21  C   UNL A   1      40.083  25.449  27.871  1.00  0.00     0.031 C 
ATOM     22  C   UNL A   1      41.754  31.571  30.589  1.00  0.00     0.029 A 
ATOM     23  C   UNL A   1      42.837  30.601  30.491  1.00  0.00     0.049 A 
ATOM     24  H   UNL A   1      42.738  28.647  29.776  1.00  0.00     0.167 HD
ATOM     25  C   UNL A   1      42.409  24.623  28.113  1.00  0.00     0.031 A 
ATOM     26  C   UNL A   1      44.106  30.825  30.878  1.00  0.00     0.031 A 
ATOM     27  C   UNL A   1      43.790  24.766  28.498  1.00  0.00     0.049 A 
ATOM     28  C   UNL A   1      45.112  29.726  30.729  1.00  0.00     0.074 A 
ATOM     29  C   UNL A   1      44.819  23.848  28.372  1.00  0.00     0.029 A 
ATOM     30  N   UNL A   1      44.335  25.897  29.084  1.00  0.00    -0.354 N 
ATOM     31  N   UNL A   1      44.959  28.531  30.213  1.00  0.00    -0.248 NA
ATOM     32  C   UNL A   1      46.468  30.005  31.219  1.00  0.00     0.031 C 
ATOM     33  C   UNL A   1      45.976  24.407  28.926  1.00  0.00     0.029 A 
ATOM     34  C   UNL A   1      45.679  25.693  29.347  1.00  0.00     0.049 A 
ATOM     35  H   UNL A   1      43.840  26.725  29.283  1.00  0.00     0.167 HD
ATOM     36  C   UNL A   1      46.198  27.917  30.309  1.00  0.00     0.074 A 
ATOM     37  C   UNL A   1      47.100  28.885  30.902  1.00  0.00     0.031 C 
ATOM     38  C   UNL A   1      46.558  26.662  29.949  1.00  0.00     0.031 A 
BRANCH  25  39
ATOM     39  C   UNL A   1      41.973  23.306  27.531  1.00  0.00    -0.014 A 
ATOM     40  C   UNL A   1      42.115  23.033  26.162  1.00  0.00     0.009 A 
ATOM     41  C   UNL A   1      41.479  22.300  28.376  1.00  0.00     0.009 A 
ATOM     42  C   UNL A   1      41.750  21.787  25.648  1.00  0.00     0.001 A 
ATOM     43  C   UNL A   1      41.137  21.047  27.864  1.00  0.00     0.001 A 
ATOM     44  C   UNL A   1      41.266  20.793  26.500  1.00  0.00     0.000 A 
ENDBRANCH  25  39
BRANCH  26  45
ATOM     45  C   UNL A   1      44.482  32.136  31.467  1.00  0.00    -0.014 A 
ATOM     46  C   UNL A   1      44.378  32.359  32.847  1.00  0.00     0.009 A 
ATOM     47  C   UNL A   1      44.950  33.172  30.644  1.00  0.00     0.009 A 
ATOM     48  C   UNL A   1      44.711  33.603  33.387  1.00  0.00     0.001 A 
ATOM     49  C   UNL A   1      45.314  34.403  31.191  1.00  0.00     0.001 A 
ATOM     50  C   UNL A   1      45.184  34.621  32.560  1.00  0.00     0.000 A 
ENDBRANCH  26  45
BRANCH  38  51
ATOM     51  C   UNL A   1      47.993  26.282  30.173  1.00  0.00    -0.014 A 
ATOM     52  C   UNL A   1      48.947  26.422  29.153  1.00  0.00     0.009 A 
ATOM     53  C   UNL A   1      48.395  25.783  31.421  1.00  0.00     0.009 A 
ATOM     54  C   UNL A   1      50.270  26.030  29.366  1.00  0.00     0.001 A 
ATOM     55  C   UNL A   1      49.724  25.419  31.640  1.00  0.00     0.001 A 
ATOM     56  C   UNL A   1      50.657  25.531  30.609  1.00  0.00     0.000 A 
ENDBRANCH  38  51
ENDBRANCH  12  13
ENDBRANCH   5   7
ENDBRANCH   2   3
ENDBRANCH   1   2
BRANCH   1  57
ATOM     57  C   UNL A   1      33.499  27.230  24.850  1.00  0.00     0.118 C 
BRANCH  57  58
ATOM     58  N   UNL A   1      33.778  27.224  23.422  1.00  0.00    -0.352 N 
ATOM     59  C   UNL A   1      33.365  26.329  22.465  1.00  0.00     0.255 C 
ATOM     60  H   UNL A   1      34.339  27.964  23.096  1.00  0.00     0.163 HD
ATOM     61  O   UNL A   1      33.779  26.424  21.313  1.00  0.00    -0.269 OA
BRANCH  59  62
ATOM     62  C   UNL A   1      32.481  25.207  22.838  1.00  0.00     0.083 A 
ATOM     63  C   UNL A   1      33.062  23.937  22.945  1.00  0.00     0.046 A 
ATOM     64  C   UNL A   1      31.116  25.381  23.092  1.00  0.00     0.128 A 
ATOM     65  C   UNL A   1      32.298  22.849  23.369  1.00  0.00     0.064 A 
ATOM     66  C   UNL A   1      30.354  24.310  23.550  1.00  0.00     0.049 A 
ATOM     67  C   UNL A   1      30.954  23.058  23.709  1.00  0.00     0.032 A 
BRANCH  64  68
ATOM     68  O   UNL A   1      30.526  26.602  22.921  1.00  0.00    -0.507 OA
ATOM     69  H   UNL A   1      30.294  27.118  23.668  1.00  0.00     0.293 HD
ENDBRANCH  64  68
BRANCH  65  70
ATOM     70  N   UNL A   1      32.919  21.596  23.497  1.00  0.00    -0.256 NA
ATOM     71  C   UNL A   1      32.435  20.776  24.374  1.00  0.00     0.119 C 
BRANCH  71  72
ATOM     72  C   UNL A   1      32.997  19.429  24.592  1.00  0.00    -0.007 A 
ATOM     73  C   UNL A   1      34.384  19.267  24.507  1.00  0.00     0.017 A 
ATOM     74  C   UNL A   1      32.171  18.342  24.895  1.00  0.00     0.017 A 
ATOM     75  C   UNL A   1      34.953  18.011  24.735  1.00  0.00     0.086 A 
ATOM     76  C   UNL A   1      32.735  17.084  25.131  1.00  0.00     0.086 A 
ATOM     77  C   UNL A   1      34.126  16.925  25.054  1.00  0.00     0.269 A 
BRANCH  77  78
ATOM     78  N   UNL A   1      34.728  15.610  25.317  1.00  0.00     0.062 N 
ATOM     79  O   UNL A   1      33.973  14.627  25.335  1.00  0.00    -0.258 OA
ATOM     80  O   UNL A   1      35.952  15.563  25.502  1.00  0.00    -0.258 OA
ENDBRANCH  77  78
ENDBRANCH  71  72
ENDBRANCH  65  70
ENDBRANCH  59  62
ENDBRANCH  57  58
ENDBRANCH   1  57
TORSDOF 14
ENDMDL
MODEL 3
REMARK VINA RESULT:     -11.4      2.886      8.351
REMARK SMILES O=C(NCCCNC(=O)c1cc(/N=C/c2ccc([N+](=O)[O-])cc2)ccc1O)c1ccc(-c2c3nc(c(-c4ccccc4)c4ccc([nH]4)c(-c4ccccc4)c4nc(c(-c5ccccc5)c5ccc2[nH]5)C=C4)C=C3)cc1
REMARK SMILES IDX 5 1 4 2 3 3 1 4 2 5 28 7 29 8 75 9 30 10 74 11 31 12 32 13
REMARK SMILES IDX 33 14 68 15 34 16 73 17 67 18 69 19 35 20 72 21 66 22 65 23
REMARK SMILES IDX 36 25 58 26 43 27 57 28 44 29 47 30 56 31 70 32 45 33 46 34
REMARK SMILES IDX 55 36 71 37 48 38 37 39 38 40 42 41 39 42 41 43 40 44 59 45
REMARK SMILES IDX 60 46 64 47 61 48 63 49 62 50 49 51 50 52 54 53 51 54 53 55
REMARK SMILES IDX 52 56 6 57 7 58 8 59 9 61 10 62 11 63 26 64 12 65 25 66
REMARK SMILES IDX 24 67 27 68 13 70 14 71 15 72 16 73 23 74 17 75 22 76 18 77
REMARK SMILES IDX 19 78 20 79 21 80
REMARK H PARENT 3 6 69 24 47 35 7 60 27 69
REMARK Flexibility Score: inf
ROOT
ATOM      1  C   UNL A   1      32.344  27.629  26.529  1.00  0.00     0.042 C 
ENDROOT
BRANCH   1   2
ATOM      2  C   UNL A   1      33.656  28.308  26.883  1.00  0.00     0.118 C 
BRANCH   2   3
ATOM      3  N   UNL A   1      33.504  29.735  27.144  1.00  0.00    -0.352 N 
ATOM      4  O   UNL A   1      33.935  31.748  28.062  1.00  0.00    -0.269 OA
ATOM      5  C   UNL A   1      34.334  30.617  27.794  1.00  0.00     0.251 C 
ATOM      6  H   UNL A   1      32.671  30.131  26.799  1.00  0.00     0.163 HD
BRANCH   5   7
ATOM      7  C   UNL A   1      35.698  30.207  28.194  1.00  0.00     0.039 A 
ATOM      8  C   UNL A   1      36.764  30.314  27.304  1.00  0.00     0.014 A 
ATOM      9  C   UNL A   1      35.922  29.735  29.492  1.00  0.00     0.014 A 
ATOM     10  C   UNL A   1      38.002  29.781  27.638  1.00  0.00     0.010 A 
ATOM     11  C   UNL A   1      37.200  29.310  29.870  1.00  0.00     0.010 A 
ATOM     12  C   UNL A   1      38.245  29.299  28.934  1.00  0.00    -0.014 A 
BRANCH  12  13
ATOM     13  C   UNL A   1      39.624  28.878  29.288  1.00  0.00     0.031 A 
ATOM     14  C   UNL A   1      40.498  29.712  30.182  1.00  0.00     0.074 A 
ATOM     15  C   UNL A   1      40.062  27.686  28.833  1.00  0.00     0.049 A 
ATOM     16  N   UNL A   1      41.700  29.446  30.631  1.00  0.00    -0.248 NA
ATOM     17  C   UNL A   1      39.968  31.010  30.625  1.00  0.00     0.031 C 
ATOM     18  C   UNL A   1      39.306  26.792  27.949  1.00  0.00     0.029 A 
ATOM     19  N   UNL A   1      41.225  27.004  29.075  1.00  0.00    -0.354 N 
ATOM     20  C   UNL A   1      42.074  30.544  31.394  1.00  0.00     0.074 A 
ATOM     21  C   UNL A   1      40.984  31.494  31.329  1.00  0.00     0.031 C 
ATOM     22  C   UNL A   1      39.991  25.653  27.785  1.00  0.00     0.029 A 
ATOM     23  C   UNL A   1      41.265  25.764  28.485  1.00  0.00     0.049 A 
ATOM     24  H   UNL A   1      41.961  27.367  29.620  1.00  0.00     0.167 HD
ATOM     25  C   UNL A   1      43.221  30.740  32.089  1.00  0.00     0.031 A 
ATOM     26  C   UNL A   1      42.223  24.821  28.490  1.00  0.00     0.031 A 
ATOM     27  C   UNL A   1      44.305  29.793  32.154  1.00  0.00     0.049 A 
ATOM     28  C   UNL A   1      43.490  25.081  29.246  1.00  0.00     0.074 A 
ATOM     29  C   UNL A   1      45.498  29.895  32.848  1.00  0.00     0.029 A 
ATOM     30  N   UNL A   1      44.327  28.572  31.500  1.00  0.00    -0.354 N 
ATOM     31  N   UNL A   1      43.815  26.116  29.981  1.00  0.00    -0.248 NA
ATOM     32  C   UNL A   1      44.525  24.042  29.170  1.00  0.00     0.031 C 
ATOM     33  C   UNL A   1      46.263  28.756  32.576  1.00  0.00     0.029 A 
ATOM     34  C   UNL A   1      45.523  27.921  31.755  1.00  0.00     0.049 A 
ATOM     35  H   UNL A   1      43.601  28.218  30.937  1.00  0.00     0.167 HD
ATOM     36  C   UNL A   1      45.088  25.852  30.462  1.00  0.00     0.074 A 
ATOM     37  C   UNL A   1      45.462  24.544  29.962  1.00  0.00     0.031 C 
ATOM     38  C   UNL A   1      45.883  26.625  31.239  1.00  0.00     0.031 A 
BRANCH  25  39
ATOM     39  C   UNL A   1      43.380  32.043  32.825  1.00  0.00    -0.014 A 
ATOM     40  C   UNL A   1      43.947  33.166  32.203  1.00  0.00     0.009 A 
ATOM     41  C   UNL A   1      42.891  32.167  34.135  1.00  0.00     0.009 A 
ATOM     42  C   UNL A   1      44.042  34.380  32.886  1.00  0.00     0.001 A 
ATOM     43  C   UNL A   1      42.965  33.388  34.808  1.00  0.00     0.001 A 
ATOM     44  C   UNL A   1      43.546  34.492  34.186  1.00  0.00     0.000 A 
ENDBRANCH  25  39
BRANCH  26  45
ATOM     45  C   UNL A   1      42.028  23.559  27.731  1.00  0.00    -0.014 A 
ATOM     46  C   UNL A   1      41.379  22.463  28.316  1.00  0.00     0.009 A 
ATOM     47  C   UNL A   1      42.492  23.450  26.410  1.00  0.00     0.009 A 
ATOM     48  C   UNL A   1      41.223  21.273  27.602  1.00  0.00     0.001 A 
ATOM     49  C   UNL A   1      42.304  22.271  25.688  1.00  0.00     0.001 A 
ATOM     50  C   UNL A   1      41.679  21.180  26.287  1.00  0.00     0.000 A 
ENDBRANCH  26  45
BRANCH  38  51
ATOM     51  C   UNL A   1      47.224  26.059  31.606  1.00  0.00    -0.014 A 
ATOM     52  C   UNL A   1      47.447  25.485  32.868  1.00  0.00     0.009 A 
ATOM     53  C   UNL A   1      48.274  26.095  30.677  1.00  0.00     0.009 A 
ATOM     54  C   UNL A   1      48.710  24.995  33.206  1.00  0.00     0.001 A 
ATOM     55  C   UNL A   1      49.527  25.579  31.008  1.00  0.00     0.001 A 
ATOM     56  C   UNL A   1      49.747  25.041  32.276  1.00  0.00     0.000 A 
ENDBRANCH  38  51
ENDBRANCH  12  13
ENDBRANCH   5   7
ENDBRANCH   2   3
ENDBRANCH   1   2
BRANCH   1  57
ATOM     57  C   UNL A   1      32.030  27.649  25.043  1.00  0.00     0.118 C 
BRANCH  57  58
ATOM     58  N   UNL A   1      30.679  27.194  24.757  1.00  0.00    -0.352 N 
ATOM     59  C   UNL A   1      30.270  26.130  23.990  1.00  0.00     0.255 C 
ATOM     60  H   UNL A   1      29.957  27.721  25.169  1.00  0.00     0.163 HD
ATOM     61  O   UNL A   1      29.075  25.950  23.774  1.00  0.00    -0.269 OA
BRANCH  59  62
ATOM     62  C   UNL A   1      31.272  25.245  23.364  1.00  0.00     0.083 A 
ATOM     63  C   UNL A   1      31.517  24.012  23.980  1.00  0.00     0.046 A 
ATOM     64  C   UNL A   1      31.955  25.596  22.193  1.00  0.00     0.128 A 
ATOM     65  C   UNL A   1      32.394  23.097  23.396  1.00  0.00     0.064 A 
ATOM     66  C   UNL A   1      32.804  24.676  21.584  1.00  0.00     0.049 A 
ATOM     67  C   UNL A   1      33.000  23.425  22.175  1.00  0.00     0.032 A 
BRANCH  64  68
ATOM     68  O   UNL A   1      31.775  26.825  21.625  1.00  0.00    -0.507 OA
ATOM     69  H   UNL A   1      31.468  26.892  20.741  1.00  0.00     0.293 HD
ENDBRANCH  64  68
BRANCH  65  70
ATOM     70  N   UNL A   1      32.593  21.856  24.024  1.00  0.00    -0.256 NA
ATOM     71  C   UNL A   1      32.439  20.792  23.303  1.00  0.00     0.119 C 
BRANCH  71  72
ATOM     72  C   UNL A   1      32.630  19.434  23.849  1.00  0.00    -0.007 A 
ATOM     73  C   UNL A   1      32.982  18.407  22.967  1.00  0.00     0.017 A 
ATOM     74  C   UNL A   1      32.480  19.178  25.216  1.00  0.00     0.017 A 
ATOM     75  C   UNL A   1      33.197  17.114  23.454  1.00  0.00     0.086 A 
ATOM     76  C   UNL A   1      32.701  17.889  25.711  1.00  0.00     0.086 A 
ATOM     77  C   UNL A   1      33.063  16.862  24.827  1.00  0.00     0.269 A 
BRANCH  77  78
ATOM     78  N   UNL A   1      33.313  15.508  25.341  1.00  0.00     0.062 N 
ATOM     79  O   UNL A   1      32.353  14.891  25.824  1.00  0.00    -0.258 OA
ATOM     80  O   UNL A   1      34.466  15.063  25.259  1.00  0.00    -0.258 OA
ENDBRANCH  77  78
ENDBRANCH  71  72
ENDBRANCH  65  70
ENDBRANCH  59  62
ENDBRANCH  57  58
ENDBRANCH   1  57
TORSDOF 14
ENDMDL
