MODEL 1
REMARK VINA RESULT:     -12.3      0.000      0.000
REMARK SMILES O=C(NCCCNC(=O)[C@@H](Cc1ccc(F)cc1)NC(=O)c1ccn(C2CCCC2)n1)c1ccc(-c2c3nc(c(-c4ccccc4)c4ccc([nH]4)c(-c4ccccc4)c4nc(c(-c5ccccc5)c5ccc2[nH]5)C=C4)C=C3)cc1
REMARK SMILES IDX 5 1 4 2 3 3 1 4 2 5 32 7 33 8 79 9 34 10 78 11 35 12 36 13
REMARK SMILES IDX 37 14 72 15 38 16 77 17 71 18 73 19 39 20 76 21 70 22 69 23
REMARK SMILES IDX 40 25 62 26 47 27 61 28 48 29 51 30 60 31 74 32 49 33 50 34
REMARK SMILES IDX 59 36 75 37 52 38 41 39 42 40 46 41 43 42 45 43 44 44 63 45
REMARK SMILES IDX 64 46 68 47 65 48 67 49 66 50 53 51 54 52 58 53 55 54 57 55
REMARK SMILES IDX 56 56 6 57 7 58 8 59 9 61 10 62 11 63 12 64 13 65 18 66
REMARK SMILES IDX 14 67 17 68 15 69 16 70 19 71 20 72 21 74 22 75 23 76 31 77
REMARK SMILES IDX 24 78 25 79 26 80 27 81 30 82 28 83 29 84
REMARK H PARENT 3 6 73 24 51 35 7 60 19 73
REMARK Flexibility Score: inf
ROOT
ATOM      1  C   UNL A   1      32.619  30.078  27.225  1.00  0.00     0.042 C 
ENDROOT
BRANCH   1   2
ATOM      2  C   UNL A   1      34.109  30.407  27.273  1.00  0.00     0.118 C 
BRANCH   2   3
ATOM      3  N   UNL A   1      34.483  31.310  28.343  1.00  0.00    -0.352 N 
ATOM      4  O   UNL A   1      35.460  32.549  29.853  1.00  0.00    -0.269 OA
ATOM      5  C   UNL A   1      35.577  31.564  29.115  1.00  0.00     0.251 C 
ATOM      6  H   UNL A   1      33.737  31.908  28.579  1.00  0.00     0.163 HD
BRANCH   5   7
ATOM      7  C   UNL A   1      36.835  30.770  29.204  1.00  0.00     0.039 A 
ATOM      8  C   UNL A   1      38.142  31.227  29.037  1.00  0.00     0.014 A 
ATOM      9  C   UNL A   1      36.642  29.395  29.466  1.00  0.00     0.014 A 
ATOM     10  C   UNL A   1      39.212  30.314  29.067  1.00  0.00     0.010 A 
ATOM     11  C   UNL A   1      37.693  28.487  29.470  1.00  0.00     0.010 A 
ATOM     12  C   UNL A   1      38.985  28.937  29.232  1.00  0.00    -0.014 A 
BRANCH  12  13
ATOM     13  C   UNL A   1      40.114  28.007  29.391  1.00  0.00     0.031 A 
ATOM     14  C   UNL A   1      40.787  28.132  30.715  1.00  0.00     0.074 A 
ATOM     15  C   UNL A   1      40.407  26.975  28.563  1.00  0.00     0.049 A 
ATOM     16  N   UNL A   1      42.008  28.484  30.955  1.00  0.00    -0.248 NA
ATOM     17  C   UNL A   1      39.963  27.969  31.927  1.00  0.00     0.031 C 
ATOM     18  C   UNL A   1      39.656  26.537  27.384  1.00  0.00     0.029 A 
ATOM     19  N   UNL A   1      41.389  26.021  28.660  1.00  0.00    -0.354 N 
ATOM     20  C   UNL A   1      42.166  28.390  32.335  1.00  0.00     0.074 A 
ATOM     21  C   UNL A   1      40.843  28.253  32.887  1.00  0.00     0.031 C 
ATOM     22  C   UNL A   1      40.062  25.295  27.021  1.00  0.00     0.029 A 
ATOM     23  C   UNL A   1      41.185  24.897  27.854  1.00  0.00     0.049 A 
ATOM     24  H   UNL A   1      42.172  26.119  29.247  1.00  0.00     0.167 HD
ATOM     25  C   UNL A   1      43.384  28.143  32.892  1.00  0.00     0.031 A 
ATOM     26  C   UNL A   1      41.854  23.711  27.890  1.00  0.00     0.031 A 
ATOM     27  C   UNL A   1      44.455  28.414  31.967  1.00  0.00     0.049 A 
ATOM     28  C   UNL A   1      43.127  23.933  28.604  1.00  0.00     0.074 A 
ATOM     29  C   UNL A   1      44.876  29.511  31.243  1.00  0.00     0.029 A 
ATOM     30  N   UNL A   1      45.060  27.326  31.387  1.00  0.00    -0.354 N 
ATOM     31  N   UNL A   1      44.114  24.625  28.120  1.00  0.00    -0.248 NA
ATOM     32  C   UNL A   1      43.146  23.730  30.043  1.00  0.00     0.031 C 
ATOM     33  C   UNL A   1      45.315  28.980  29.993  1.00  0.00     0.029 A 
ATOM     34  C   UNL A   1      45.212  27.591  30.055  1.00  0.00     0.049 A 
ATOM     35  H   UNL A   1      45.335  26.501  31.849  1.00  0.00     0.167 HD
ATOM     36  C   UNL A   1      44.590  25.343  29.205  1.00  0.00     0.074 A 
ATOM     37  C   UNL A   1      44.032  24.671  30.378  1.00  0.00     0.031 C 
ATOM     38  C   UNL A   1      45.148  26.576  29.031  1.00  0.00     0.031 A 
BRANCH  25  39
ATOM     39  C   UNL A   1      43.570  27.202  34.066  1.00  0.00    -0.014 A 
ATOM     40  C   UNL A   1      43.578  25.816  33.817  1.00  0.00     0.009 A 
ATOM     41  C   UNL A   1      43.413  27.596  35.409  1.00  0.00     0.009 A 
ATOM     42  C   UNL A   1      43.330  24.889  34.837  1.00  0.00     0.001 A 
ATOM     43  C   UNL A   1      43.211  26.672  36.437  1.00  0.00     0.001 A 
ATOM     44  C   UNL A   1      43.133  25.319  36.145  1.00  0.00     0.000 A 
ENDBRANCH  25  39
BRANCH  26  45
ATOM     45  C   UNL A   1      41.404  22.329  27.578  1.00  0.00    -0.014 A 
ATOM     46  C   UNL A   1      40.159  22.093  26.962  1.00  0.00     0.009 A 
ATOM     47  C   UNL A   1      42.322  21.267  27.605  1.00  0.00     0.009 A 
ATOM     48  C   UNL A   1      39.868  20.861  26.356  1.00  0.00     0.001 A 
ATOM     49  C   UNL A   1      42.031  20.035  27.003  1.00  0.00     0.001 A 
ATOM     50  C   UNL A   1      40.812  19.837  26.362  1.00  0.00     0.000 A 
ENDBRANCH  26  45
BRANCH  38  51
ATOM     51  C   UNL A   1      45.505  27.003  27.630  1.00  0.00    -0.014 A 
ATOM     52  C   UNL A   1      46.772  26.808  27.052  1.00  0.00     0.009 A 
ATOM     53  C   UNL A   1      44.475  27.508  26.822  1.00  0.00     0.009 A 
ATOM     54  C   UNL A   1      47.005  27.145  25.714  1.00  0.00     0.001 A 
ATOM     55  C   UNL A   1      44.702  27.820  25.481  1.00  0.00     0.001 A 
ATOM     56  C   UNL A   1      45.968  27.645  24.928  1.00  0.00     0.000 A 
ENDBRANCH  38  51
ENDBRANCH  12  13
ENDBRANCH   5   7
ENDBRANCH   2   3
ENDBRANCH   1   2
BRANCH   1  57
ATOM     57  C   UNL A   1      32.275  28.608  26.948  1.00  0.00     0.117 C 
BRANCH  57  58
ATOM     58  N   UNL A   1      32.076  28.326  25.541  1.00  0.00    -0.354 N 
ATOM     59  C   UNL A   1      32.153  27.183  24.813  1.00  0.00     0.242 C 
ATOM     60  H   UNL A   1      31.839  29.119  25.007  1.00  0.00     0.163 HD
ATOM     61  O   UNL A   1      31.757  27.272  23.642  1.00  0.00    -0.273 OA
BRANCH  59  62
ATOM     62  C   UNL A   1      32.619  25.806  25.350  1.00  0.00     0.176 C 
BRANCH  62  63
ATOM     63  C   UNL A   1      34.101  25.636  25.760  1.00  0.00     0.070 C 
BRANCH  63  64
ATOM     64  C   UNL A   1      34.968  24.475  25.311  1.00  0.00    -0.045 A 
ATOM     65  C   UNL A   1      35.714  23.664  26.178  1.00  0.00     0.007 A 
ATOM     66  C   UNL A   1      34.973  24.147  23.940  1.00  0.00     0.007 A 
ATOM     67  C   UNL A   1      36.564  22.672  25.681  1.00  0.00     0.039 A 
ATOM     68  C   UNL A   1      35.783  23.122  23.445  1.00  0.00     0.039 A 
ATOM     69  C   UNL A   1      36.590  22.410  24.321  1.00  0.00     0.123 A 
ATOM     70  F   UNL A   1      37.398  21.454  23.850  1.00  0.00    -0.207 F 
ENDBRANCH  63  64
ENDBRANCH  62  63
BRANCH  62  71
ATOM     71  N   UNL A   1      31.663  25.168  26.245  1.00  0.00    -0.339 N 
ATOM     72  C   UNL A   1      31.257  23.858  26.357  1.00  0.00     0.272 C 
ATOM     73  H   UNL A   1      31.231  25.783  26.881  1.00  0.00     0.164 HD
ATOM     74  O   UNL A   1      30.438  23.620  27.255  1.00  0.00    -0.267 OA
BRANCH  72  75
ATOM     75  C   UNL A   1      31.721  22.824  25.417  1.00  0.00     0.150 A 
ATOM     76  C   UNL A   1      31.620  22.744  24.000  1.00  0.00     0.056 A 
ATOM     77  N   UNL A   1      32.363  21.740  25.890  1.00  0.00    -0.167 NA
ATOM     78  C   UNL A   1      32.138  21.515  23.657  1.00  0.00     0.110 A 
ATOM     79  N   UNL A   1      32.555  20.949  24.824  1.00  0.00    -0.269 N 
BRANCH  79  80
ATOM     80  C   UNL A   1      33.098  19.618  24.999  1.00  0.00     0.107 C 
ATOM     81  C   UNL A   1      32.432  18.543  24.142  1.00  0.00     0.027 C 
ATOM     82  C   UNL A   1      34.573  19.496  24.609  1.00  0.00     0.027 C 
ATOM     83  C   UNL A   1      33.412  17.377  24.220  1.00  0.00     0.002 C 
ATOM     84  C   UNL A   1      34.797  18.002  24.389  1.00  0.00     0.002 C 
ENDBRANCH  79  80
ENDBRANCH  72  75
ENDBRANCH  62  71
ENDBRANCH  59  62
ENDBRANCH  57  58
ENDBRANCH   1  57
TORSDOF 15
ENDMDL
MODEL 2
REMARK VINA RESULT:     -12.3      2.419      3.634
REMARK SMILES O=C(NCCCNC(=O)[C@@H](Cc1ccc(F)cc1)NC(=O)c1ccn(C2CCCC2)n1)c1ccc(-c2c3nc(c(-c4ccccc4)c4ccc([nH]4)c(-c4ccccc4)c4nc(c(-c5ccccc5)c5ccc2[nH]5)C=C4)C=C3)cc1
REMARK SMILES IDX 5 1 4 2 3 3 1 4 2 5 32 7 33 8 79 9 34 10 78 11 35 12 36 13
REMARK SMILES IDX 37 14 72 15 38 16 77 17 71 18 73 19 39 20 76 21 70 22 69 23
REMARK SMILES IDX 40 25 62 26 47 27 61 28 48 29 51 30 60 31 74 32 49 33 50 34
REMARK SMILES IDX 59 36 75 37 52 38 41 39 42 40 46 41 43 42 45 43 44 44 63 45
REMARK SMILES IDX 64 46 68 47 65 48 67 49 66 50 53 51 54 52 58 53 55 54 57 55
REMARK SMILES IDX 56 56 6 57 7 58 8 59 9 61 10 62 11 63 12 64 13 65 18 66
REMARK SMILES IDX 14 67 17 68 15 69 16 70 19 71 20 72 21 74 22 75 23 76 31 77
REMARK SMILES IDX 24 78 25 79 26 80 27 81 30 82 28 83 29 84
REMARK H PARENT 3 6 73 24 51 35 7 60 19 73
REMARK Flexibility Score: inf
ROOT
ATOM      1  C   UNL A   1      32.567  29.662  25.325  1.00  0.00     0.042 C 
ENDROOT
BRANCH   1   2
ATOM      2  C   UNL A   1      32.962  29.667  26.800  1.00  0.00     0.118 C 
BRANCH   2   3
ATOM      3  N   UNL A   1      33.415  30.954  27.289  1.00  0.00    -0.352 N 
ATOM      4  O   UNL A   1      34.502  32.733  27.941  1.00  0.00    -0.269 OA
ATOM      5  C   UNL A   1      34.577  31.518  27.723  1.00  0.00     0.251 C 
ATOM      6  H   UNL A   1      32.675  31.603  27.315  1.00  0.00     0.163 HD
BRANCH   5   7
ATOM      7  C   UNL A   1      35.871  30.837  28.011  1.00  0.00     0.039 A 
ATOM      8  C   UNL A   1      36.164  29.480  27.880  1.00  0.00     0.014 A 
ATOM      9  C   UNL A   1      36.888  31.692  28.492  1.00  0.00     0.014 A 
ATOM     10  C   UNL A   1      37.421  28.994  28.285  1.00  0.00     0.010 A 
ATOM     11  C   UNL A   1      38.120  31.212  28.917  1.00  0.00     0.010 A 
ATOM     12  C   UNL A   1      38.381  29.850  28.852  1.00  0.00    -0.014 A 
BRANCH  12  13
ATOM     13  C   UNL A   1      39.735  29.360  29.153  1.00  0.00     0.031 A 
ATOM     14  C   UNL A   1      40.030  29.326  30.614  1.00  0.00     0.074 A 
ATOM     15  C   UNL A   1      40.576  28.774  28.266  1.00  0.00     0.049 A 
ATOM     16  N   UNL A   1      40.931  29.992  31.258  1.00  0.00    -0.248 NA
ATOM     17  C   UNL A   1      39.125  28.551  31.483  1.00  0.00     0.031 C 
ATOM     18  C   UNL A   1      40.311  28.460  26.860  1.00  0.00     0.029 A 
ATOM     19  N   UNL A   1      41.821  28.230  28.461  1.00  0.00    -0.354 N 
ATOM     20  C   UNL A   1      40.843  29.568  32.582  1.00  0.00     0.074 A 
ATOM     21  C   UNL A   1      39.609  28.834  32.692  1.00  0.00     0.031 C 
ATOM     22  C   UNL A   1      41.247  27.593  26.403  1.00  0.00     0.029 A 
ATOM     23  C   UNL A   1      42.250  27.384  27.434  1.00  0.00     0.049 A 
ATOM     24  H   UNL A   1      42.367  28.419  29.258  1.00  0.00     0.167 HD
ATOM     25  C   UNL A   1      41.923  29.607  33.410  1.00  0.00     0.031 A 
ATOM     26  C   UNL A   1      43.321  26.543  27.438  1.00  0.00     0.031 A 
ATOM     27  C   UNL A   1      42.950  30.481  32.903  1.00  0.00     0.049 A 
ATOM     28  C   UNL A   1      44.230  26.976  28.518  1.00  0.00     0.074 A 
ATOM     29  C   UNL A   1      43.023  31.814  32.551  1.00  0.00     0.029 A 
ATOM     30  N   UNL A   1      44.044  29.881  32.328  1.00  0.00    -0.354 N 
ATOM     31  N   UNL A   1      44.926  28.072  28.479  1.00  0.00    -0.248 NA
ATOM     32  C   UNL A   1      44.050  26.390  29.835  1.00  0.00     0.031 C 
ATOM     33  C   UNL A   1      43.872  31.846  31.405  1.00  0.00     0.029 A 
ATOM     34  C   UNL A   1      44.331  30.551  31.172  1.00  0.00     0.049 A 
ATOM     35  H   UNL A   1      44.534  29.106  32.686  1.00  0.00     0.167 HD
ATOM     36  C   UNL A   1      44.850  28.568  29.770  1.00  0.00     0.074 A 
ATOM     37  C   UNL A   1      44.396  27.440  30.584  1.00  0.00     0.031 C 
ATOM     38  C   UNL A   1      44.883  29.913  30.001  1.00  0.00     0.031 A 
BRANCH  25  39
ATOM     39  C   UNL A   1      42.243  28.494  34.389  1.00  0.00    -0.014 A 
ATOM     40  C   UNL A   1      42.742  27.279  33.880  1.00  0.00     0.009 A 
ATOM     41  C   UNL A   1      41.779  28.473  35.718  1.00  0.00     0.009 A 
ATOM     42  C   UNL A   1      42.673  26.093  34.621  1.00  0.00     0.001 A 
ATOM     43  C   UNL A   1      41.751  27.300  36.478  1.00  0.00     0.001 A 
ATOM     44  C   UNL A   1      42.164  26.102  35.916  1.00  0.00     0.000 A 
ENDBRANCH  25  39
BRANCH  26  45
ATOM     45  C   UNL A   1      43.539  25.241  26.755  1.00  0.00    -0.014 A 
ATOM     46  C   UNL A   1      42.804  24.097  27.124  1.00  0.00     0.009 A 
ATOM     47  C   UNL A   1      44.244  25.192  25.542  1.00  0.00     0.009 A 
ATOM     48  C   UNL A   1      42.741  22.971  26.286  1.00  0.00     0.001 A 
ATOM     49  C   UNL A   1      44.184  24.067  24.707  1.00  0.00     0.001 A 
ATOM     50  C   UNL A   1      43.418  22.964  25.070  1.00  0.00     0.000 A 
ENDBRANCH  26  45
BRANCH  38  51
ATOM     51  C   UNL A   1      45.300  30.818  28.869  1.00  0.00    -0.014 A 
ATOM     52  C   UNL A   1      46.628  31.218  28.638  1.00  0.00     0.009 A 
ATOM     53  C   UNL A   1      44.324  31.173  27.927  1.00  0.00     0.009 A 
ATOM     54  C   UNL A   1      46.957  31.983  27.513  1.00  0.00     0.001 A 
ATOM     55  C   UNL A   1      44.657  31.914  26.792  1.00  0.00     0.001 A 
ATOM     56  C   UNL A   1      45.972  32.325  26.589  1.00  0.00     0.000 A 
ENDBRANCH  38  51
ENDBRANCH  12  13
ENDBRANCH   5   7
ENDBRANCH   2   3
ENDBRANCH   1   2
BRANCH   1  57
ATOM     57  C   UNL A   1      31.058  29.609  25.046  1.00  0.00     0.117 C 
BRANCH  57  58
ATOM     58  N   UNL A   1      30.737  29.751  23.640  1.00  0.00    -0.354 N 
ATOM     59  C   UNL A   1      30.680  28.861  22.616  1.00  0.00     0.242 C 
ATOM     60  H   UNL A   1      30.516  30.673  23.375  1.00  0.00     0.163 HD
ATOM     61  O   UNL A   1      30.204  29.299  21.559  1.00  0.00    -0.273 OA
BRANCH  59  62
ATOM     62  C   UNL A   1      31.088  27.368  22.700  1.00  0.00     0.176 C 
BRANCH  62  63
ATOM     63  C   UNL A   1      30.136  26.381  23.416  1.00  0.00     0.070 C 
BRANCH  63  64
ATOM     64  C   UNL A   1      30.603  25.346  24.421  1.00  0.00    -0.045 A 
ATOM     65  C   UNL A   1      30.714  23.974  24.149  1.00  0.00     0.007 A 
ATOM     66  C   UNL A   1      31.016  25.798  25.691  1.00  0.00     0.007 A 
ATOM     67  C   UNL A   1      31.062  23.067  25.155  1.00  0.00     0.039 A 
ATOM     68  C   UNL A   1      31.413  24.898  26.684  1.00  0.00     0.039 A 
ATOM     69  C   UNL A   1      31.409  23.538  26.411  1.00  0.00     0.123 A 
ATOM     70  F   UNL A   1      31.748  22.668  27.368  1.00  0.00    -0.207 F 
ENDBRANCH  63  64
ENDBRANCH  62  63
BRANCH  62  71
ATOM     71  N   UNL A   1      31.692  26.853  21.478  1.00  0.00    -0.339 N 
ATOM     72  C   UNL A   1      32.704  25.943  21.278  1.00  0.00     0.272 C 
ATOM     73  H   UNL A   1      31.307  27.221  20.650  1.00  0.00     0.164 HD
ATOM     74  O   UNL A   1      32.973  25.683  20.097  1.00  0.00    -0.267 OA
BRANCH  72  75
ATOM     75  C   UNL A   1      33.462  25.373  22.404  1.00  0.00     0.150 A 
ATOM     76  C   UNL A   1      33.895  25.962  23.626  1.00  0.00     0.056 A 
ATOM     77  N   UNL A   1      33.846  24.084  22.359  1.00  0.00    -0.167 NA
ATOM     78  C   UNL A   1      34.643  24.997  24.261  1.00  0.00     0.110 A 
ATOM     79  N   UNL A   1      34.595  23.899  23.456  1.00  0.00    -0.269 N 
BRANCH  79  80
ATOM     80  C   UNL A   1      35.296  22.647  23.650  1.00  0.00     0.107 C 
ATOM     81  C   UNL A   1      36.727  22.794  24.163  1.00  0.00     0.027 C 
ATOM     82  C   UNL A   1      34.654  21.735  24.697  1.00  0.00     0.027 C 
ATOM     83  C   UNL A   1      37.075  21.388  24.638  1.00  0.00     0.002 C 
ATOM     84  C   UNL A   1      35.758  20.761  25.099  1.00  0.00     0.002 C 
ENDBRANCH  79  80
ENDBRANCH  72  75
ENDBRANCH  62  71
ENDBRANCH  59  62
ENDBRANCH  57  58
ENDBRANCH   1  57
TORSDOF 15
ENDMDL
MODEL 3
REMARK VINA RESULT:     -12.3      2.488      3.863
REMARK SMILES O=C(NCCCNC(=O)[C@@H](Cc1ccc(F)cc1)NC(=O)c1ccn(C2CCCC2)n1)c1ccc(-c2c3nc(c(-c4ccccc4)c4ccc([nH]4)c(-c4ccccc4)c4nc(c(-c5ccccc5)c5ccc2[nH]5)C=C4)C=C3)cc1
REMARK SMILES IDX 5 1 4 2 3 3 1 4 2 5 32 7 33 8 79 9 34 10 78 11 35 12 36 13
REMARK SMILES IDX 37 14 72 15 38 16 77 17 71 18 73 19 39 20 76 21 70 22 69 23
REMARK SMILES IDX 40 25 62 26 47 27 61 28 48 29 51 30 60 31 74 32 49 33 50 34
REMARK SMILES IDX 59 36 75 37 52 38 41 39 42 40 46 41 43 42 45 43 44 44 63 45
REMARK SMILES IDX 64 46 68 47 65 48 67 49 66 50 53 51 54 52 58 53 55 54 57 55
REMARK SMILES IDX 56 56 6 57 7 58 8 59 9 61 10 62 11 63 12 64 13 65 18 66
REMARK SMILES IDX 14 67 17 68 15 69 16 70 19 71 20 72 21 74 22 75 23 76 31 77
REMARK SMILES IDX 24 78 25 79 26 80 27 81 30 82 28 83 29 84
REMARK H PARENT 3 6 73 24 51 35 7 60 19 73
REMARK Flexibility Score: inf
ROOT
ATOM      1  C   UNL A   1      33.531  28.996  27.267  1.00  0.00     0.042 C 
ENDROOT
BRANCH   1   2
ATOM      2  C   UNL A   1      34.001  30.426  27.010  1.00  0.00     0.118 C 
BRANCH   2   3
ATOM      3  N   UNL A   1      34.238  31.198  28.213  1.00  0.00    -0.352 N 
ATOM      4  O   UNL A   1      35.022  32.279  29.941  1.00  0.00    -0.269 OA
ATOM      5  C   UNL A   1      35.258  31.412  29.092  1.00  0.00     0.251 C 
ATOM      6  H   UNL A   1      33.437  31.711  28.468  1.00  0.00     0.163 HD
BRANCH   5   7
ATOM      7  C   UNL A   1      36.561  30.693  29.171  1.00  0.00     0.039 A 
ATOM      8  C   UNL A   1      37.797  31.120  28.688  1.00  0.00     0.014 A 
ATOM      9  C   UNL A   1      36.493  29.426  29.792  1.00  0.00     0.014 A 
ATOM     10  C   UNL A   1      38.913  30.266  28.771  1.00  0.00     0.010 A 
ATOM     11  C   UNL A   1      37.586  28.570  29.852  1.00  0.00     0.010 A 
ATOM     12  C   UNL A   1      38.797  28.971  29.305  1.00  0.00    -0.014 A 
BRANCH  12  13
ATOM     13  C   UNL A   1      39.991  28.136  29.506  1.00  0.00     0.031 A 
ATOM     14  C   UNL A   1      40.481  28.152  30.914  1.00  0.00     0.074 A 
ATOM     15  C   UNL A   1      40.492  27.250  28.611  1.00  0.00     0.049 A 
ATOM     16  N   UNL A   1      41.619  28.580  31.354  1.00  0.00    -0.248 NA
ATOM     17  C   UNL A   1      39.539  27.761  31.978  1.00  0.00     0.031 C 
ATOM     18  C   UNL A   1      39.941  26.899  27.300  1.00  0.00     0.029 A 
ATOM     19  N   UNL A   1      41.551  26.385  28.728  1.00  0.00    -0.354 N 
ATOM     20  C   UNL A   1      41.617  28.326  32.722  1.00  0.00     0.074 A 
ATOM     21  C   UNL A   1      40.259  27.999  33.073  1.00  0.00     0.031 C 
ATOM     22  C   UNL A   1      40.519  25.757  26.854  1.00  0.00     0.029 A 
ATOM     23  C   UNL A   1      41.568  25.359  27.778  1.00  0.00     0.049 A 
ATOM     24  H   UNL A   1      42.242  26.478  29.423  1.00  0.00     0.167 HD
ATOM     25  C   UNL A   1      42.777  28.122  33.406  1.00  0.00     0.031 A 
ATOM     26  C   UNL A   1      42.351  24.245  27.767  1.00  0.00     0.031 A 
ATOM     27  C   UNL A   1      43.918  28.605  32.670  1.00  0.00     0.049 A 
ATOM     28  C   UNL A   1      43.497  24.489  28.666  1.00  0.00     0.074 A 
ATOM     29  C   UNL A   1      44.305  29.820  32.139  1.00  0.00     0.029 A 
ATOM     30  N   UNL A   1      44.702  27.661  32.054  1.00  0.00    -0.354 N 
ATOM     31  N   UNL A   1      44.456  25.325  28.401  1.00  0.00    -0.248 NA
ATOM     32  C   UNL A   1      43.362  24.106  30.061  1.00  0.00     0.031 C 
ATOM     33  C   UNL A   1      44.946  29.496  30.907  1.00  0.00     0.029 A 
ATOM     34  C   UNL A   1      44.986  28.107  30.794  1.00  0.00     0.049 A 
ATOM     35  H   UNL A   1      45.006  26.813  32.451  1.00  0.00     0.167 HD
ATOM     36  C   UNL A   1      44.716  25.938  29.615  1.00  0.00     0.074 A 
ATOM     37  C   UNL A   1      44.094  25.074  30.618  1.00  0.00     0.031 C 
ATOM     38  C   UNL A   1      45.156  27.229  29.661  1.00  0.00     0.031 A 
BRANCH  25  39
ATOM     39  C   UNL A   1      42.919  27.060  34.478  1.00  0.00    -0.014 A 
ATOM     40  C   UNL A   1      42.810  25.708  34.098  1.00  0.00     0.009 A 
ATOM     41  C   UNL A   1      42.830  27.332  35.856  1.00  0.00     0.009 A 
ATOM     42  C   UNL A   1      42.516  24.708  35.033  1.00  0.00     0.001 A 
ATOM     43  C   UNL A   1      42.582  26.331  36.798  1.00  0.00     0.001 A 
ATOM     44  C   UNL A   1      42.389  25.023  36.382  1.00  0.00     0.000 A 
ENDBRANCH  25  39
BRANCH  26  45
ATOM     45  C   UNL A   1      42.093  22.879  27.241  1.00  0.00    -0.014 A 
ATOM     46  C   UNL A   1      42.950  22.295  26.287  1.00  0.00     0.009 A 
ATOM     47  C   UNL A   1      41.186  22.031  27.898  1.00  0.00     0.009 A 
ATOM     48  C   UNL A   1      42.930  20.913  26.039  1.00  0.00     0.001 A 
ATOM     49  C   UNL A   1      41.164  20.652  27.649  1.00  0.00     0.001 A 
ATOM     50  C   UNL A   1      42.048  20.089  26.733  1.00  0.00     0.000 A 
ENDBRANCH  26  45
BRANCH  38  51
ATOM     51  C   UNL A   1      45.632  27.863  28.378  1.00  0.00    -0.014 A 
ATOM     52  C   UNL A   1      46.987  27.964  28.012  1.00  0.00     0.009 A 
ATOM     53  C   UNL A   1      44.660  28.258  27.447  1.00  0.00     0.009 A 
ATOM     54  C   UNL A   1      47.352  28.480  26.764  1.00  0.00     0.001 A 
ATOM     55  C   UNL A   1      45.024  28.749  26.193  1.00  0.00     0.001 A 
ATOM     56  C   UNL A   1      46.370  28.867  25.854  1.00  0.00     0.000 A 
ENDBRANCH  38  51
ENDBRANCH  12  13
ENDBRANCH   5   7
ENDBRANCH   2   3
ENDBRANCH   1   2
BRANCH   1  57
ATOM     57  C   UNL A   1      33.791  28.000  26.129  1.00  0.00     0.117 C 
BRANCH  57  58
ATOM     58  N   UNL A   1      34.031  28.645  24.854  1.00  0.00    -0.354 N 
ATOM     59  C   UNL A   1      33.488  28.474  23.621  1.00  0.00     0.242 C 
ATOM     60  H   UNL A   1      34.724  29.343  24.887  1.00  0.00     0.163 HD
ATOM     61  O   UNL A   1      33.815  29.319  22.776  1.00  0.00    -0.273 OA
BRANCH  59  62
ATOM     62  C   UNL A   1      32.467  27.374  23.234  1.00  0.00     0.176 C 
BRANCH  62  63
ATOM     63  C   UNL A   1      30.992  27.551  23.667  1.00  0.00     0.070 C 
BRANCH  63  64
ATOM     64  C   UNL A   1      30.038  28.531  23.013  1.00  0.00    -0.045 A 
ATOM     65  C   UNL A   1      30.429  29.539  22.119  1.00  0.00     0.007 A 
ATOM     66  C   UNL A   1      28.659  28.381  23.268  1.00  0.00     0.007 A 
ATOM     67  C   UNL A   1      29.504  30.465  21.629  1.00  0.00     0.039 A 
ATOM     68  C   UNL A   1      27.725  29.275  22.739  1.00  0.00     0.039 A 
ATOM     69  C   UNL A   1      28.162  30.324  21.943  1.00  0.00     0.123 A 
ATOM     70  F   UNL A   1      27.278  31.207  21.466  1.00  0.00    -0.207 F 
ENDBRANCH  63  64
ENDBRANCH  62  63
BRANCH  62  71
ATOM     71  N   UNL A   1      32.647  26.851  21.886  1.00  0.00    -0.339 N 
ATOM     72  C   UNL A   1      32.903  25.578  21.433  1.00  0.00     0.272 C 
ATOM     73  H   UNL A   1      32.572  27.528  21.175  1.00  0.00     0.164 HD
ATOM     74  O   UNL A   1      32.971  25.444  20.204  1.00  0.00    -0.267 OA
BRANCH  72  75
ATOM     75  C   UNL A   1      33.150  24.463  22.363  1.00  0.00     0.150 A 
ATOM     76  C   UNL A   1      32.280  23.442  22.840  1.00  0.00     0.056 A 
ATOM     77  N   UNL A   1      34.376  24.302  22.894  1.00  0.00    -0.167 NA
ATOM     78  C   UNL A   1      33.013  22.727  23.760  1.00  0.00     0.110 A 
ATOM     79  N   UNL A   1      34.254  23.290  23.765  1.00  0.00    -0.269 N 
BRANCH  79  80
ATOM     80  C   UNL A   1      35.362  22.941  24.629  1.00  0.00     0.107 C 
ATOM     81  C   UNL A   1      36.652  22.580  23.895  1.00  0.00     0.027 C 
ATOM     82  C   UNL A   1      35.806  24.077  25.554  1.00  0.00     0.027 C 
ATOM     83  C   UNL A   1      37.709  22.645  24.991  1.00  0.00     0.002 C 
ATOM     84  C   UNL A   1      37.221  23.701  25.984  1.00  0.00     0.002 C 
ENDBRANCH  79  80
ENDBRANCH  72  75
ENDBRANCH  62  71
ENDBRANCH  59  62
ENDBRANCH  57  58
ENDBRANCH   1  57
TORSDOF 15
ENDMDL
