MODEL 1
REMARK VINA RESULT:     -10.9      0.000      0.000
REMARK SMILES COC(=O)[C@H]1Sc2nnc(CCC(=O)NCCCNC(=O)c3ccc(-c4c5nc(c(-c6ccccc6)c6ccc([nH]6)c(-c6ccccc6)c6nc(c(-c7ccccc7)c7ccc4[nH]7)C=C6)C=C5)cc3)c(=O)n2N=C1C
REMARK SMILES IDX 16 1 15 2 13 3 14 4 12 6 11 7 10 8 5 9 6 10 74 11 7 12 73 13
REMARK SMILES IDX 75 14 8 15 72 16 9 17 70 18 71 19 3 20 4 21 2 22 1 23 17 24
REMARK SMILES IDX 18 25 19 26 20 27 21 29 22 30 23 31 69 32 24 33 68 34 25 35
REMARK SMILES IDX 26 36 27 37 62 38 28 39 67 40 61 41 63 42 29 43 66 44 60 45
REMARK SMILES IDX 59 46 30 48 52 49 37 50 51 51 38 52 41 53 50 54 64 55 39 56
REMARK SMILES IDX 40 57 49 59 65 60 42 61 31 62 32 63 36 64 33 65 35 66 34 67
REMARK SMILES IDX 53 68 54 69 58 70 55 71 57 72 56 73 43 74 44 75 48 76 45 77
REMARK SMILES IDX 47 78 46 79
REMARK H PARENT 15 5 19 28 63 47 41 58
REMARK Flexibility Score: inf
ROOT
ATOM      1  C   UNL A   1      36.142  20.384  24.965  1.00  0.00     0.117 C 
ENDROOT
BRANCH   1   2
ATOM      2  N   UNL A   1      35.590  21.151  26.080  1.00  0.00    -0.356 N 
ATOM      3  C   UNL A   1      34.436  21.865  26.241  1.00  0.00     0.220 C 
ATOM      4  O   UNL A   1      34.310  22.492  27.297  1.00  0.00    -0.275 OA
ATOM      5  H   UNL A   1      36.167  21.154  26.878  1.00  0.00     0.163 HD
BRANCH   3   6
ATOM      6  C   UNL A   1      33.310  21.868  25.212  1.00  0.00     0.106 C 
BRANCH   6   7
ATOM      7  C   UNL A   1      31.908  21.953  25.830  1.00  0.00     0.074 C 
BRANCH   7   8
ATOM      8  C   UNL A   1      31.113  23.067  25.199  1.00  0.00     0.131 A 
ATOM      9  C   UNL A   1      31.003  27.995  24.686  1.00  0.00     0.210 C 
ATOM     10  S   UNL A   1      29.719  27.016  23.768  1.00  0.00    -0.063 SA
ATOM     11  C   UNL A   1      31.190  27.344  26.063  1.00  0.00     0.061 C 
ATOM     12  C   UNL A   1      30.274  25.429  24.261  1.00  0.00     0.214 A 
ATOM     13  N   UNL A   1      30.728  26.214  26.474  1.00  0.00    -0.171 NA
ATOM     14  C   UNL A   1      31.916  27.942  27.225  1.00  0.00     0.065 C 
ATOM     15  N   UNL A   1      30.493  24.471  23.420  1.00  0.00    -0.123 NA
ATOM     16  N   UNL A   1      30.391  25.267  25.608  1.00  0.00    -0.169 N 
ATOM     17  N   UNL A   1      31.098  23.277  23.915  1.00  0.00    -0.147 NA
ATOM     18  C   UNL A   1      30.458  24.011  26.151  1.00  0.00     0.296 A 
ATOM     19  O   UNL A   1      30.185  23.668  27.282  1.00  0.00    -0.265 OA
BRANCH   9  20
ATOM     20  C   UNL A   1      32.128  28.184  23.651  1.00  0.00     0.325 C 
ATOM     21  O   UNL A   1      32.101  28.942  22.689  1.00  0.00    -0.250 OA
BRANCH  20  22
ATOM     22  O   UNL A   1      33.268  27.523  24.019  1.00  0.00    -0.468 OA
ATOM     23  C   UNL A   1      33.604  26.331  23.279  1.00  0.00     0.282 C 
ENDBRANCH  20  22
ENDBRANCH   9  20
ENDBRANCH   7   8
ENDBRANCH   6   7
ENDBRANCH   3   6
ENDBRANCH   1   2
BRANCH   1  24
ATOM     24  C   UNL A   1      37.685  20.435  24.930  1.00  0.00     0.042 C 
BRANCH  24  25
ATOM     25  C   UNL A   1      38.598  19.268  25.443  1.00  0.00     0.118 C 
BRANCH  25  26
ATOM     26  N   UNL A   1      40.035  19.691  25.741  1.00  0.00    -0.352 N 
ATOM     27  C   UNL A   1      40.693  20.122  26.915  1.00  0.00     0.251 C 
ATOM     28  H   UNL A   1      40.625  19.656  24.953  1.00  0.00     0.163 HD
ATOM     29  O   UNL A   1      41.420  19.315  27.497  1.00  0.00    -0.269 OA
BRANCH  27  30
ATOM     30  C   UNL A   1      40.931  21.597  27.227  1.00  0.00     0.039 A 
ATOM     31  C   UNL A   1      41.711  21.992  28.332  1.00  0.00     0.014 A 
ATOM     32  C   UNL A   1      40.356  22.635  26.505  1.00  0.00     0.014 A 
ATOM     33  C   UNL A   1      42.105  23.342  28.554  1.00  0.00     0.010 A 
ATOM     34  C   UNL A   1      40.804  23.974  26.669  1.00  0.00     0.010 A 
ATOM     35  C   UNL A   1      41.700  24.358  27.685  1.00  0.00    -0.014 A 
BRANCH  35  36
ATOM     36  C   UNL A   1      42.005  25.819  27.920  1.00  0.00     0.031 A 
ATOM     37  C   UNL A   1      43.303  26.371  27.362  1.00  0.00     0.074 A 
ATOM     38  C   UNL A   1      41.229  26.659  28.648  1.00  0.00     0.049 A 
ATOM     39  N   UNL A   1      43.817  27.574  27.455  1.00  0.00    -0.248 NA
ATOM     40  C   UNL A   1      44.154  25.419  26.630  1.00  0.00     0.031 C 
ATOM     41  C   UNL A   1      39.974  26.314  29.314  1.00  0.00     0.029 A 
ATOM     42  N   UNL A   1      41.401  27.996  28.970  1.00  0.00    -0.354 N 
ATOM     43  C   UNL A   1      45.047  27.507  26.810  1.00  0.00     0.074 A 
ATOM     44  C   UNL A   1      45.245  26.132  26.416  1.00  0.00     0.031 C 
ATOM     45  C   UNL A   1      39.494  27.397  29.957  1.00  0.00     0.029 A 
ATOM     46  C   UNL A   1      40.399  28.529  29.754  1.00  0.00     0.049 A 
ATOM     47  H   UNL A   1      42.175  28.522  28.663  1.00  0.00     0.167 HD
ATOM     48  C   UNL A   1      45.926  28.494  26.514  1.00  0.00     0.031 A 
ATOM     49  C   UNL A   1      40.212  29.779  30.240  1.00  0.00     0.031 A 
ATOM     50  C   UNL A   1      45.749  29.872  26.869  1.00  0.00     0.049 A 
ATOM     51  C   UNL A   1      41.199  30.877  29.909  1.00  0.00     0.074 A 
ATOM     52  C   UNL A   1      46.551  30.953  26.546  1.00  0.00     0.029 A 
ATOM     53  N   UNL A   1      44.699  30.359  27.626  1.00  0.00    -0.354 N 
ATOM     54  N   UNL A   1      42.298  30.810  29.197  1.00  0.00    -0.248 NA
ATOM     55  C   UNL A   1      40.907  32.228  30.424  1.00  0.00     0.031 C 
ATOM     56  C   UNL A   1      46.006  32.091  27.146  1.00  0.00     0.029 A 
ATOM     57  C   UNL A   1      44.840  31.724  27.797  1.00  0.00     0.049 A 
ATOM     58  H   UNL A   1      43.961  29.816  27.988  1.00  0.00     0.167 HD
ATOM     59  C   UNL A   1      42.804  32.105  29.148  1.00  0.00     0.074 A 
ATOM     60  C   UNL A   1      41.894  32.944  29.897  1.00  0.00     0.031 C 
ATOM     61  C   UNL A   1      43.922  32.556  28.530  1.00  0.00     0.031 A 
BRANCH  48  62
ATOM     62  C   UNL A   1      47.150  28.109  25.728  1.00  0.00    -0.014 A 
ATOM     63  C   UNL A   1      47.079  27.912  24.338  1.00  0.00     0.009 A 
ATOM     64  C   UNL A   1      48.387  27.956  26.371  1.00  0.00     0.009 A 
ATOM     65  C   UNL A   1      48.209  27.522  23.618  1.00  0.00     0.001 A 
ATOM     66  C   UNL A   1      49.523  27.601  25.642  1.00  0.00     0.001 A 
ATOM     67  C   UNL A   1      49.430  27.372  24.270  1.00  0.00     0.000 A 
ENDBRANCH  48  62
BRANCH  49  68
ATOM     68  C   UNL A   1      38.995  30.105  31.044  1.00  0.00    -0.014 A 
ATOM     69  C   UNL A   1      39.023  29.994  32.445  1.00  0.00     0.009 A 
ATOM     70  C   UNL A   1      37.802  30.514  30.430  1.00  0.00     0.009 A 
ATOM     71  C   UNL A   1      37.887  30.282  33.210  1.00  0.00     0.001 A 
ATOM     72  C   UNL A   1      36.672  30.823  31.199  1.00  0.00     0.001 A 
ATOM     73  C   UNL A   1      36.716  30.705  32.587  1.00  0.00     0.000 A 
ENDBRANCH  49  68
BRANCH  61  74
ATOM     74  C   UNL A   1      44.235  34.025  28.592  1.00  0.00    -0.014 A 
ATOM     75  C   UNL A   1      45.088  34.543  29.577  1.00  0.00     0.009 A 
ATOM     76  C   UNL A   1      43.775  34.876  27.572  1.00  0.00     0.009 A 
ATOM     77  C   UNL A   1      45.470  35.886  29.542  1.00  0.00     0.001 A 
ATOM     78  C   UNL A   1      44.176  36.212  27.529  1.00  0.00     0.001 A 
ATOM     79  C   UNL A   1      45.023  36.717  28.514  1.00  0.00     0.000 A 
ENDBRANCH  61  74
ENDBRANCH  35  36
ENDBRANCH  27  30
ENDBRANCH  25  26
ENDBRANCH  24  25
ENDBRANCH   1  24
TORSDOF 14
ENDMDL
MODEL 2
REMARK VINA RESULT:     -10.8      3.186      7.906
REMARK SMILES COC(=O)[C@H]1Sc2nnc(CCC(=O)NCCCNC(=O)c3ccc(-c4c5nc(c(-c6ccccc6)c6ccc([nH]6)c(-c6ccccc6)c6nc(c(-c7ccccc7)c7ccc4[nH]7)C=C6)C=C5)cc3)c(=O)n2N=C1C
REMARK SMILES IDX 16 1 15 2 13 3 14 4 12 6 11 7 10 8 5 9 6 10 74 11 7 12 73 13
REMARK SMILES IDX 75 14 8 15 72 16 9 17 70 18 71 19 3 20 4 21 2 22 1 23 17 24
REMARK SMILES IDX 18 25 19 26 20 27 21 29 22 30 23 31 69 32 24 33 68 34 25 35
REMARK SMILES IDX 26 36 27 37 62 38 28 39 67 40 61 41 63 42 29 43 66 44 60 45
REMARK SMILES IDX 59 46 30 48 52 49 37 50 51 51 38 52 41 53 50 54 64 55 39 56
REMARK SMILES IDX 40 57 49 59 65 60 42 61 31 62 32 63 36 64 33 65 35 66 34 67
REMARK SMILES IDX 53 68 54 69 58 70 55 71 57 72 56 73 43 74 44 75 48 76 45 77
REMARK SMILES IDX 47 78 46 79
REMARK H PARENT 15 5 19 28 63 47 41 58
REMARK Flexibility Score: inf
ROOT
ATOM      1  C   UNL A   1      33.502  31.575  27.461  1.00  0.00     0.117 C 
ENDROOT
BRANCH   1   2
ATOM      2  N   UNL A   1      34.138  30.331  27.030  1.00  0.00    -0.356 N 
ATOM      3  C   UNL A   1      33.747  29.022  27.065  1.00  0.00     0.220 C 
ATOM      4  O   UNL A   1      34.576  28.182  26.701  1.00  0.00    -0.275 OA
ATOM      5  H   UNL A   1      35.030  30.463  26.633  1.00  0.00     0.163 HD
BRANCH   3   6
ATOM      6  C   UNL A   1      32.345  28.583  27.474  1.00  0.00     0.106 C 
BRANCH   6   7
ATOM      7  C   UNL A   1      31.757  27.481  26.584  1.00  0.00     0.074 C 
BRANCH   7   8
ATOM      8  C   UNL A   1      31.486  28.003  25.195  1.00  0.00     0.131 A 
ATOM      9  C   UNL A   1      27.880  29.847  22.341  1.00  0.00     0.210 C 
ATOM     10  S   UNL A   1      29.589  29.784  21.617  1.00  0.00    -0.063 SA
ATOM     11  C   UNL A   1      27.670  28.563  23.155  1.00  0.00     0.061 C 
ATOM     12  C   UNL A   1      30.392  29.136  23.032  1.00  0.00     0.214 A 
ATOM     13  N   UNL A   1      28.549  27.679  23.479  1.00  0.00    -0.171 NA
ATOM     14  C   UNL A   1      26.364  28.065  23.685  1.00  0.00     0.065 C 
ATOM     15  N   UNL A   1      31.461  29.664  23.535  1.00  0.00    -0.123 NA
ATOM     16  N   UNL A   1      29.838  27.992  23.519  1.00  0.00    -0.169 N 
ATOM     17  N   UNL A   1      31.933  29.151  24.780  1.00  0.00    -0.147 NA
ATOM     18  C   UNL A   1      30.547  27.187  24.372  1.00  0.00     0.296 A 
ATOM     19  O   UNL A   1      30.389  26.004  24.590  1.00  0.00    -0.265 OA
BRANCH   9  20
ATOM     20  C   UNL A   1      27.780  31.272  22.918  1.00  0.00     0.325 C 
ATOM     21  O   UNL A   1      27.034  31.633  23.819  1.00  0.00    -0.250 OA
BRANCH  20  22
ATOM     22  O   UNL A   1      28.763  32.086  22.424  1.00  0.00    -0.468 OA
ATOM     23  C   UNL A   1      28.931  33.371  23.059  1.00  0.00     0.282 C 
ENDBRANCH  20  22
ENDBRANCH   9  20
ENDBRANCH   7   8
ENDBRANCH   6   7
ENDBRANCH   3   6
ENDBRANCH   1   2
BRANCH   1  24
ATOM     24  C   UNL A   1      34.493  32.516  28.179  1.00  0.00     0.042 C 
BRANCH  24  25
ATOM     25  C   UNL A   1      34.445  32.807  29.719  1.00  0.00     0.118 C 
BRANCH  25  26
ATOM     26  N   UNL A   1      35.011  31.680  30.580  1.00  0.00    -0.352 N 
ATOM     27  C   UNL A   1      36.190  31.549  31.349  1.00  0.00     0.251 C 
ATOM     28  H   UNL A   1      34.438  30.879  30.604  1.00  0.00     0.163 HD
ATOM     29  O   UNL A   1      36.093  31.657  32.573  1.00  0.00    -0.269 OA
BRANCH  27  30
ATOM     30  C   UNL A   1      37.435  30.836  30.827  1.00  0.00     0.039 A 
ATOM     31  C   UNL A   1      37.709  30.764  29.448  1.00  0.00     0.014 A 
ATOM     32  C   UNL A   1      38.333  30.164  31.647  1.00  0.00     0.014 A 
ATOM     33  C   UNL A   1      38.941  30.271  28.931  1.00  0.00     0.010 A 
ATOM     34  C   UNL A   1      39.596  29.741  31.152  1.00  0.00     0.010 A 
ATOM     35  C   UNL A   1      39.938  29.798  29.788  1.00  0.00    -0.014 A 
BRANCH  35  36
ATOM     36  C   UNL A   1      41.224  29.175  29.297  1.00  0.00     0.031 A 
ATOM     37  C   UNL A   1      42.446  30.067  29.182  1.00  0.00     0.074 A 
ATOM     38  C   UNL A   1      41.350  27.887  28.893  1.00  0.00     0.049 A 
ATOM     39  N   UNL A   1      43.654  29.791  28.754  1.00  0.00    -0.248 NA
ATOM     40  C   UNL A   1      42.261  31.476  29.567  1.00  0.00     0.031 C 
ATOM     41  C   UNL A   1      40.288  26.882  28.873  1.00  0.00     0.029 A 
ATOM     42  N   UNL A   1      42.446  27.200  28.395  1.00  0.00    -0.354 N 
ATOM     43  C   UNL A   1      44.354  30.993  28.808  1.00  0.00     0.074 A 
ATOM     44  C   UNL A   1      43.416  32.012  29.216  1.00  0.00     0.031 C 
ATOM     45  C   UNL A   1      40.776  25.721  28.394  1.00  0.00     0.029 A 
ATOM     46  C   UNL A   1      42.194  25.882  28.070  1.00  0.00     0.049 A 
ATOM     47  H   UNL A   1      43.330  27.617  28.283  1.00  0.00     0.167 HD
ATOM     48  C   UNL A   1      45.668  31.240  28.594  1.00  0.00     0.031 A 
ATOM     49  C   UNL A   1      43.004  24.910  27.588  1.00  0.00     0.031 A 
ATOM     50  C   UNL A   1      46.630  30.248  28.213  1.00  0.00     0.049 A 
ATOM     51  C   UNL A   1      44.471  25.194  27.348  1.00  0.00     0.074 A 
ATOM     52  C   UNL A   1      47.997  30.394  28.046  1.00  0.00     0.029 A 
ATOM     53  N   UNL A   1      46.328  28.926  27.937  1.00  0.00    -0.354 N 
ATOM     54  N   UNL A   1      45.132  26.313  27.519  1.00  0.00    -0.248 NA
ATOM     55  C   UNL A   1      45.308  24.075  26.875  1.00  0.00     0.031 C 
ATOM     56  C   UNL A   1      48.516  29.166  27.628  1.00  0.00     0.029 A 
ATOM     57  C   UNL A   1      47.479  28.247  27.585  1.00  0.00     0.049 A 
ATOM     58  H   UNL A   1      45.428  28.529  27.986  1.00  0.00     0.167 HD
ATOM     59  C   UNL A   1      46.459  26.026  27.213  1.00  0.00     0.074 A 
ATOM     60  C   UNL A   1      46.516  24.627  26.849  1.00  0.00     0.031 C 
ATOM     61  C   UNL A   1      47.532  26.851  27.239  1.00  0.00     0.031 A 
BRANCH  48  62
ATOM     62  C   UNL A   1      46.143  32.652  28.810  1.00  0.00    -0.014 A 
ATOM     63  C   UNL A   1      46.150  33.577  27.753  1.00  0.00     0.009 A 
ATOM     64  C   UNL A   1      46.573  33.069  30.078  1.00  0.00     0.009 A 
ATOM     65  C   UNL A   1      46.623  34.876  27.949  1.00  0.00     0.001 A 
ATOM     66  C   UNL A   1      47.011  34.379  30.280  1.00  0.00     0.001 A 
ATOM     67  C   UNL A   1      47.048  35.276  29.213  1.00  0.00     0.000 A 
ENDBRANCH  48  62
BRANCH  49  68
ATOM     68  C   UNL A   1      42.476  23.531  27.360  1.00  0.00    -0.014 A 
ATOM     69  C   UNL A   1      42.037  23.145  26.081  1.00  0.00     0.009 A 
ATOM     70  C   UNL A   1      42.396  22.597  28.403  1.00  0.00     0.009 A 
ATOM     71  C   UNL A   1      41.528  21.861  25.855  1.00  0.00     0.001 A 
ATOM     72  C   UNL A   1      41.906  21.305  28.170  1.00  0.00     0.001 A 
ATOM     73  C   UNL A   1      41.471  20.940  26.897  1.00  0.00     0.000 A 
ENDBRANCH  49  68
BRANCH  61  74
ATOM     74  C   UNL A   1      48.883  26.284  26.899  1.00  0.00    -0.014 A 
ATOM     75  C   UNL A   1      49.429  26.434  25.617  1.00  0.00     0.009 A 
ATOM     76  C   UNL A   1      49.670  25.711  27.913  1.00  0.00     0.009 A 
ATOM     77  C   UNL A   1      50.736  26.015  25.354  1.00  0.00     0.001 A 
ATOM     78  C   UNL A   1      50.983  25.315  27.653  1.00  0.00     0.001 A 
ATOM     79  C   UNL A   1      51.515  25.466  26.374  1.00  0.00     0.000 A 
ENDBRANCH  61  74
ENDBRANCH  35  36
ENDBRANCH  27  30
ENDBRANCH  25  26
ENDBRANCH  24  25
ENDBRANCH   1  24
TORSDOF 14
ENDMDL
MODEL 3
REMARK VINA RESULT:     -10.8      1.603      2.099
REMARK SMILES COC(=O)[C@H]1Sc2nnc(CCC(=O)NCCCNC(=O)c3ccc(-c4c5nc(c(-c6ccccc6)c6ccc([nH]6)c(-c6ccccc6)c6nc(c(-c7ccccc7)c7ccc4[nH]7)C=C6)C=C5)cc3)c(=O)n2N=C1C
REMARK SMILES IDX 16 1 15 2 13 3 14 4 12 6 11 7 10 8 5 9 6 10 74 11 7 12 73 13
REMARK SMILES IDX 75 14 8 15 72 16 9 17 70 18 71 19 3 20 4 21 2 22 1 23 17 24
REMARK SMILES IDX 18 25 19 26 20 27 21 29 22 30 23 31 69 32 24 33 68 34 25 35
REMARK SMILES IDX 26 36 27 37 62 38 28 39 67 40 61 41 63 42 29 43 66 44 60 45
REMARK SMILES IDX 59 46 30 48 52 49 37 50 51 51 38 52 41 53 50 54 64 55 39 56
REMARK SMILES IDX 40 57 49 59 65 60 42 61 31 62 32 63 36 64 33 65 35 66 34 67
REMARK SMILES IDX 53 68 54 69 58 70 55 71 57 72 56 73 43 74 44 75 48 76 45 77
REMARK SMILES IDX 47 78 46 79
REMARK H PARENT 15 5 19 28 63 47 41 58
REMARK Flexibility Score: inf
ROOT
ATOM      1  C   UNL A   1      35.317  22.457  23.940  1.00  0.00     0.117 C 
ENDROOT
BRANCH   1   2
ATOM      2  N   UNL A   1      34.613  21.249  24.367  1.00  0.00    -0.356 N 
ATOM      3  C   UNL A   1      33.664  21.009  25.320  1.00  0.00     0.220 C 
ATOM      4  O   UNL A   1      33.338  19.832  25.500  1.00  0.00    -0.275 OA
ATOM      5  H   UNL A   1      34.877  20.443  23.866  1.00  0.00     0.163 HD
BRANCH   3   6
ATOM      6  C   UNL A   1      32.974  22.120  26.105  1.00  0.00     0.106 C 
BRANCH   6   7
ATOM      7  C   UNL A   1      31.442  22.059  26.049  1.00  0.00     0.074 C 
BRANCH   7   8
ATOM      8  C   UNL A   1      30.886  23.257  25.322  1.00  0.00     0.131 A 
ATOM      9  C   UNL A   1      31.450  28.158  24.849  1.00  0.00     0.210 C 
ATOM     10  S   UNL A   1      30.201  27.335  23.748  1.00  0.00    -0.063 SA
ATOM     11  C   UNL A   1      31.359  27.499  26.232  1.00  0.00     0.061 C 
ATOM     12  C   UNL A   1      30.483  25.697  24.299  1.00  0.00     0.214 A 
ATOM     13  N   UNL A   1      30.708  26.437  26.562  1.00  0.00    -0.171 NA
ATOM     14  C   UNL A   1      31.979  28.013  27.492  1.00  0.00     0.065 C 
ATOM     15  N   UNL A   1      30.702  24.713  23.488  1.00  0.00    -0.123 NA
ATOM     16  N   UNL A   1      30.386  25.532  25.647  1.00  0.00    -0.169 N 
ATOM     17  N   UNL A   1      31.081  23.458  24.052  1.00  0.00    -0.147 NA
ATOM     18  C   UNL A   1      30.222  24.281  26.182  1.00  0.00     0.296 A 
ATOM     19  O   UNL A   1      29.751  23.982  27.259  1.00  0.00    -0.265 OA
BRANCH   9  20
ATOM     20  C   UNL A   1      32.725  28.201  23.987  1.00  0.00     0.325 C 
ATOM     21  O   UNL A   1      32.911  28.918  23.012  1.00  0.00    -0.250 OA
BRANCH  20  22
ATOM     22  O   UNL A   1      33.732  27.455  24.537  1.00  0.00    -0.468 OA
ATOM     23  C   UNL A   1      33.933  26.130  24.004  1.00  0.00     0.282 C 
ENDBRANCH  20  22
ENDBRANCH   9  20
ENDBRANCH   7   8
ENDBRANCH   6   7
ENDBRANCH   3   6
ENDBRANCH   1   2
BRANCH   1  24
ATOM     24  C   UNL A   1      36.728  22.558  24.560  1.00  0.00     0.042 C 
BRANCH  24  25
ATOM     25  C   UNL A   1      37.579  21.307  24.974  1.00  0.00     0.118 C 
BRANCH  25  26
ATOM     26  N   UNL A   1      39.008  21.643  25.396  1.00  0.00    -0.352 N 
ATOM     27  C   UNL A   1      39.612  21.897  26.649  1.00  0.00     0.251 C 
ATOM     28  H   UNL A   1      39.638  21.693  24.641  1.00  0.00     0.163 HD
ATOM     29  O   UNL A   1      40.286  20.999  27.155  1.00  0.00    -0.269 OA
BRANCH  27  30
ATOM     30  C   UNL A   1      39.868  23.311  27.164  1.00  0.00     0.039 A 
ATOM     31  C   UNL A   1      40.801  23.555  28.191  1.00  0.00     0.014 A 
ATOM     32  C   UNL A   1      39.169  24.427  26.720  1.00  0.00     0.014 A 
ATOM     33  C   UNL A   1      41.200  24.867  28.574  1.00  0.00     0.010 A 
ATOM     34  C   UNL A   1      39.613  25.739  27.037  1.00  0.00     0.010 A 
ATOM     35  C   UNL A   1      40.647  25.992  27.957  1.00  0.00    -0.014 A 
BRANCH  35  36
ATOM     36  C   UNL A   1      40.958  27.407  28.386  1.00  0.00     0.031 A 
ATOM     37  C   UNL A   1      42.401  27.869  28.313  1.00  0.00     0.074 A 
ATOM     38  C   UNL A   1      40.047  28.276  28.888  1.00  0.00     0.049 A 
ATOM     39  N   UNL A   1      42.937  29.016  28.655  1.00  0.00    -0.248 NA
ATOM     40  C   UNL A   1      43.376  26.882  27.823  1.00  0.00     0.031 C 
ATOM     41  C   UNL A   1      38.623  28.012  29.090  1.00  0.00     0.029 A 
ATOM     42  N   UNL A   1      40.196  29.576  29.346  1.00  0.00    -0.354 N 
ATOM     43  C   UNL A   1      44.303  28.872  28.433  1.00  0.00     0.074 A 
ATOM     44  C   UNL A   1      44.523  27.506  28.022  1.00  0.00     0.031 C 
ATOM     45  C   UNL A   1      38.035  29.100  29.625  1.00  0.00     0.029 A 
ATOM     46  C   UNL A   1      39.031  30.156  29.807  1.00  0.00     0.049 A 
ATOM     47  H   UNL A   1      41.061  30.046  29.343  1.00  0.00     0.167 HD
ATOM     48  C   UNL A   1      45.294  29.791  28.508  1.00  0.00     0.031 A 
ATOM     49  C   UNL A   1      38.783  31.393  30.300  1.00  0.00     0.031 A 
ATOM     50  C   UNL A   1      45.107  31.160  28.889  1.00  0.00     0.049 A 
ATOM     51  C   UNL A   1      39.896  32.414  30.383  1.00  0.00     0.074 A 
ATOM     52  C   UNL A   1      46.041  32.181  28.921  1.00  0.00     0.029 A 
ATOM     53  N   UNL A   1      43.903  31.701  29.305  1.00  0.00    -0.354 N 
ATOM     54  N   UNL A   1      41.159  32.285  30.056  1.00  0.00    -0.248 NA
ATOM     55  C   UNL A   1      39.545  33.759  30.877  1.00  0.00     0.031 C 
ATOM     56  C   UNL A   1      45.410  33.332  29.398  1.00  0.00     0.029 A 
ATOM     57  C   UNL A   1      44.073  33.038  29.613  1.00  0.00     0.049 A 
ATOM     58  H   UNL A   1      43.053  31.208  29.372  1.00  0.00     0.167 HD
ATOM     59  C   UNL A   1      41.740  33.531  30.268  1.00  0.00     0.074 A 
ATOM     60  C   UNL A   1      40.696  34.410  30.748  1.00  0.00     0.031 C 
ATOM     61  C   UNL A   1      43.026  33.911  30.074  1.00  0.00     0.031 A 
BRANCH  48  62
ATOM     62  C   UNL A   1      46.679  29.338  28.127  1.00  0.00    -0.014 A 
ATOM     63  C   UNL A   1      47.093  29.344  26.784  1.00  0.00     0.009 A 
ATOM     64  C   UNL A   1      47.582  28.916  29.113  1.00  0.00     0.009 A 
ATOM     65  C   UNL A   1      48.365  28.892  26.431  1.00  0.00     0.001 A 
ATOM     66  C   UNL A   1      48.867  28.498  28.761  1.00  0.00     0.001 A 
ATOM     67  C   UNL A   1      49.252  28.474  27.420  1.00  0.00     0.000 A 
ENDBRANCH  48  62
BRANCH  49  68
ATOM     68  C   UNL A   1      37.396  31.785  30.694  1.00  0.00    -0.014 A 
ATOM     69  C   UNL A   1      36.956  31.592  32.016  1.00  0.00     0.009 A 
ATOM     70  C   UNL A   1      36.501  32.340  29.767  1.00  0.00     0.009 A 
ATOM     71  C   UNL A   1      35.656  31.942  32.397  1.00  0.00     0.001 A 
ATOM     72  C   UNL A   1      35.207  32.709  30.156  1.00  0.00     0.001 A 
ATOM     73  C   UNL A   1      34.786  32.508  31.469  1.00  0.00     0.000 A 
ENDBRANCH  49  68
BRANCH  61  74
ATOM     74  C   UNL A   1      43.401  35.342  30.342  1.00  0.00    -0.014 A 
ATOM     75  C   UNL A   1      43.871  35.745  31.600  1.00  0.00     0.009 A 
ATOM     76  C   UNL A   1      43.407  36.267  29.284  1.00  0.00     0.009 A 
ATOM     77  C   UNL A   1      44.336  37.048  31.795  1.00  0.00     0.001 A 
ATOM     78  C   UNL A   1      43.893  37.561  29.476  1.00  0.00     0.001 A 
ATOM     79  C   UNL A   1      44.356  37.951  30.731  1.00  0.00     0.000 A 
ENDBRANCH  61  74
ENDBRANCH  35  36
ENDBRANCH  27  30
ENDBRANCH  25  26
ENDBRANCH  24  25
ENDBRANCH   1  24
TORSDOF 14
ENDMDL
