MODEL 1
REMARK VINA RESULT:     -11.2      0.000      0.000
REMARK SMILES CCc1cc(OC(F)(F)F)cc2c1O[C@@H](C(F)(F)F)C(C(=O)NCCCNC(=O)c1ccc(-c3c4nc(c(-c5ccccc5)c5ccc([nH]5)c(-c5ccccc5)c5nc(c(-c6ccccc6)c6ccc3[nH]6)C=C5)C=C4)cc1)=C2
REMARK SMILES IDX 25 1 24 2 23 3 21 4 22 5 20 7 3 8 4 9 13 10 5 11 12 12 14 13
REMARK SMILES IDX 11 14 78 15 15 16 2 17 1 18 6 19 7 20 8 21 9 22 10 23 16 24
REMARK SMILES IDX 17 25 18 26 19 27 26 28 27 29 28 30 29 32 30 33 31 34 77 35
REMARK SMILES IDX 32 36 76 37 33 38 34 39 35 40 70 41 36 42 75 43 69 44 71 45
REMARK SMILES IDX 37 46 74 47 68 48 67 49 38 51 60 52 45 53 59 54 46 55 49 56
REMARK SMILES IDX 58 57 72 58 47 59 48 60 57 62 73 63 50 64 39 65 40 66 44 67
REMARK SMILES IDX 41 68 43 69 42 70 61 71 62 72 66 73 63 74 65 75 64 76 51 77
REMARK SMILES IDX 52 78 56 79 53 80 55 81 54 82
REMARK H PARENT 23 6 27 31 71 50 49 61
REMARK Flexibility Score: inf
ROOT
ATOM      1  C   UNL A   1      32.652  28.169  27.622  1.00  0.00     0.042 C 
ENDROOT
BRANCH   1   2
ATOM      2  C   UNL A   1      31.478  27.946  26.664  1.00  0.00     0.118 C 
BRANCH   2   3
ATOM      3  N   UNL A   1      31.837  28.373  25.321  1.00  0.00    -0.352 N 
ATOM      4  C   UNL A   1      32.511  27.775  24.303  1.00  0.00     0.251 C 
ATOM      5  O   UNL A   1      32.811  28.469  23.335  1.00  0.00    -0.270 OA
ATOM      6  H   UNL A   1      31.529  29.283  25.104  1.00  0.00     0.163 HD
BRANCH   4   7
ATOM      7  C   UNL A   1      32.834  26.325  24.284  1.00  0.00     0.067 C 
ATOM      8  C   UNL A   1      33.376  22.152  24.388  1.00  0.00    -0.002 A 
ATOM      9  C   UNL A   1      34.545  21.635  24.981  1.00  0.00     0.054 A 
ATOM     10  C   UNL A   1      33.196  23.542  24.325  1.00  0.00     0.131 A 
ATOM     11  C   UNL A   1      35.523  22.488  25.495  1.00  0.00     0.130 A 
ATOM     12  C   UNL A   1      34.181  24.397  24.815  1.00  0.00     0.021 A 
ATOM     13  O   UNL A   1      32.007  24.007  23.847  1.00  0.00    -0.475 OA
ATOM     14  C   UNL A   1      35.338  23.867  25.397  1.00  0.00     0.058 A 
ATOM     15  C   UNL A   1      33.966  25.833  24.804  1.00  0.00     0.025 C 
ATOM     16  C   UNL A   1      31.892  25.418  23.497  1.00  0.00     0.314 C 
BRANCH   8  17
ATOM     17  C   UNL A   1      32.334  21.193  23.861  1.00  0.00     0.036 C 
ATOM     18  C   UNL A   1      32.516  19.788  24.415  1.00  0.00     0.009 C 
ENDBRANCH   8  17
BRANCH  11  19
ATOM     19  O   UNL A   1      36.678  22.124  26.122  1.00  0.00    -0.406 OA
BRANCH  19  20
ATOM     20  C   UNL A   1      37.864  22.064  25.348  1.00  0.00     0.573 C 
ATOM     21  F   UNL A   1      38.472  20.867  25.477  1.00  0.00    -0.132 F 
ATOM     22  F   UNL A   1      37.603  22.304  24.047  1.00  0.00    -0.132 F 
ATOM     23  F   UNL A   1      38.714  23.017  25.791  1.00  0.00    -0.132 F 
ENDBRANCH  19  20
ENDBRANCH  11  19
BRANCH  16  24
ATOM     24  C   UNL A   1      30.385  25.766  23.535  1.00  0.00     0.429 C 
ATOM     25  F   UNL A   1      30.070  26.825  22.756  1.00  0.00    -0.167 F 
ATOM     26  F   UNL A   1      29.640  24.734  23.054  1.00  0.00    -0.167 F 
ATOM     27  F   UNL A   1      29.945  26.014  24.789  1.00  0.00    -0.167 F 
ENDBRANCH  16  24
ENDBRANCH   4   7
ENDBRANCH   2   3
ENDBRANCH   1   2
BRANCH   1  28
ATOM     28  C   UNL A   1      33.741  29.056  27.024  1.00  0.00     0.118 C 
BRANCH  28  29
ATOM     29  N   UNL A   1      33.747  30.382  27.628  1.00  0.00    -0.352 N 
ATOM     30  C   UNL A   1      34.684  30.962  28.449  1.00  0.00     0.251 C 
ATOM     31  H   UNL A   1      32.967  30.944  27.418  1.00  0.00     0.163 HD
ATOM     32  O   UNL A   1      34.418  31.988  29.060  1.00  0.00    -0.269 OA
BRANCH  30  33
ATOM     33  C   UNL A   1      36.012  30.334  28.597  1.00  0.00     0.039 A 
ATOM     34  C   UNL A   1      36.904  30.355  27.521  1.00  0.00     0.014 A 
ATOM     35  C   UNL A   1      36.369  29.720  29.800  1.00  0.00     0.014 A 
ATOM     36  C   UNL A   1      38.184  29.818  27.677  1.00  0.00     0.010 A 
ATOM     37  C   UNL A   1      37.666  29.255  29.976  1.00  0.00     0.010 A 
ATOM     38  C   UNL A   1      38.586  29.298  28.917  1.00  0.00    -0.014 A 
BRANCH  38  39
ATOM     39  C   UNL A   1      39.959  28.786  29.148  1.00  0.00     0.031 A 
ATOM     40  C   UNL A   1      41.029  29.722  29.639  1.00  0.00     0.074 A 
ATOM     41  C   UNL A   1      40.266  27.518  28.815  1.00  0.00     0.049 A 
ATOM     42  N   UNL A   1      42.316  29.520  29.747  1.00  0.00    -0.248 NA
ATOM     43  C   UNL A   1      40.595  31.073  30.028  1.00  0.00     0.031 C 
ATOM     44  C   UNL A   1      39.322  26.518  28.309  1.00  0.00     0.029 A 
ATOM     45  N   UNL A   1      41.470  26.858  28.831  1.00  0.00    -0.354 N 
ATOM     46  C   UNL A   1      42.849  30.725  30.190  1.00  0.00     0.074 A 
ATOM     47  C   UNL A   1      41.753  31.664  30.284  1.00  0.00     0.031 C 
ATOM     48  C   UNL A   1      39.980  25.371  28.077  1.00  0.00     0.029 A 
ATOM     49  C   UNL A   1      41.397  25.568  28.363  1.00  0.00     0.049 A 
ATOM     50  H   UNL A   1      42.306  27.270  29.149  1.00  0.00     0.167 HD
ATOM     51  C   UNL A   1      44.133  31.019  30.502  1.00  0.00     0.031 A 
ATOM     52  C   UNL A   1      42.367  24.655  28.163  1.00  0.00     0.031 A 
ATOM     53  C   UNL A   1      45.217  30.079  30.412  1.00  0.00     0.049 A 
ATOM     54  C   UNL A   1      43.792  25.018  28.480  1.00  0.00     0.074 A 
ATOM     55  C   UNL A   1      46.545  30.262  30.754  1.00  0.00     0.029 A 
ATOM     56  N   UNL A   1      45.097  28.779  29.945  1.00  0.00    -0.354 N 
ATOM     57  N   UNL A   1      44.272  26.144  28.950  1.00  0.00    -0.248 NA
ATOM     58  C   UNL A   1      44.808  23.983  28.245  1.00  0.00     0.031 C 
ATOM     59  C   UNL A   1      47.242  29.092  30.437  1.00  0.00     0.029 A 
ATOM     60  C   UNL A   1      46.334  28.158  29.963  1.00  0.00     0.049 A 
ATOM     61  H   UNL A   1      44.258  28.362  29.645  1.00  0.00     0.167 HD
ATOM     62  C   UNL A   1      45.638  25.939  29.101  1.00  0.00     0.074 A 
ATOM     63  C   UNL A   1      45.907  24.580  28.680  1.00  0.00     0.031 C 
ATOM     64  C   UNL A   1      46.582  26.799  29.552  1.00  0.00     0.031 A 
BRANCH  51  65
ATOM     65  C   UNL A   1      44.434  32.422  30.953  1.00  0.00    -0.014 A 
ATOM     66  C   UNL A   1      44.410  32.774  32.313  1.00  0.00     0.009 A 
ATOM     67  C   UNL A   1      44.782  33.398  30.007  1.00  0.00     0.009 A 
ATOM     68  C   UNL A   1      44.686  34.083  32.710  1.00  0.00     0.001 A 
ATOM     69  C   UNL A   1      45.092  34.699  30.410  1.00  0.00     0.001 A 
ATOM     70  C   UNL A   1      45.032  35.043  31.760  1.00  0.00     0.000 A 
ENDBRANCH  51  65
BRANCH  52  71
ATOM     71  C   UNL A   1      42.026  23.308  27.633  1.00  0.00    -0.014 A 
ATOM     72  C   UNL A   1      42.162  23.026  26.264  1.00  0.00     0.009 A 
ATOM     73  C   UNL A   1      41.553  22.299  28.487  1.00  0.00     0.009 A 
ATOM     74  C   UNL A   1      41.805  21.774  25.759  1.00  0.00     0.001 A 
ATOM     75  C   UNL A   1      41.228  21.037  27.984  1.00  0.00     0.001 A 
ATOM     76  C   UNL A   1      41.343  20.779  26.620  1.00  0.00     0.000 A 
ENDBRANCH  52  71
BRANCH  64  77
ATOM     77  C   UNL A   1      47.991  26.288  29.670  1.00  0.00    -0.014 A 
ATOM     78  C   UNL A   1      48.470  25.726  30.863  1.00  0.00     0.009 A 
ATOM     79  C   UNL A   1      48.824  26.301  28.540  1.00  0.00     0.009 A 
ATOM     80  C   UNL A   1      49.764  25.208  30.927  1.00  0.00     0.001 A 
ATOM     81  C   UNL A   1      50.106  25.753  28.598  1.00  0.00     0.001 A 
ATOM     82  C   UNL A   1      50.577  25.213  29.793  1.00  0.00     0.000 A 
ENDBRANCH  64  77
ENDBRANCH  38  39
ENDBRANCH  30  33
ENDBRANCH  28  29
ENDBRANCH   1  28
TORSDOF 14
ENDMDL
MODEL 2
REMARK VINA RESULT:     -11.1      2.662      6.817
REMARK SMILES CCc1cc(OC(F)(F)F)cc2c1O[C@@H](C(F)(F)F)C(C(=O)NCCCNC(=O)c1ccc(-c3c4nc(c(-c5ccccc5)c5ccc([nH]5)c(-c5ccccc5)c5nc(c(-c6ccccc6)c6ccc3[nH]6)C=C5)C=C4)cc1)=C2
REMARK SMILES IDX 25 1 24 2 23 3 21 4 22 5 20 7 3 8 4 9 13 10 5 11 12 12 14 13
REMARK SMILES IDX 11 14 78 15 15 16 2 17 1 18 6 19 7 20 8 21 9 22 10 23 16 24
REMARK SMILES IDX 17 25 18 26 19 27 26 28 27 29 28 30 29 32 30 33 31 34 77 35
REMARK SMILES IDX 32 36 76 37 33 38 34 39 35 40 70 41 36 42 75 43 69 44 71 45
REMARK SMILES IDX 37 46 74 47 68 48 67 49 38 51 60 52 45 53 59 54 46 55 49 56
REMARK SMILES IDX 58 57 72 58 47 59 48 60 57 62 73 63 50 64 39 65 40 66 44 67
REMARK SMILES IDX 41 68 43 69 42 70 61 71 62 72 66 73 63 74 65 75 64 76 51 77
REMARK SMILES IDX 52 78 56 79 53 80 55 81 54 82
REMARK H PARENT 23 6 27 31 71 50 49 61
REMARK Flexibility Score: inf
ROOT
ATOM      1  C   UNL A   1      31.716  31.141  25.928  1.00  0.00     0.042 C 
ENDROOT
BRANCH   1   2
ATOM      2  C   UNL A   1      32.016  29.686  25.559  1.00  0.00     0.118 C 
BRANCH   2   3
ATOM      3  N   UNL A   1      31.607  28.799  26.636  1.00  0.00    -0.352 N 
ATOM      4  C   UNL A   1      31.595  27.448  26.775  1.00  0.00     0.251 C 
ATOM      5  O   UNL A   1      31.018  26.981  27.754  1.00  0.00    -0.270 OA
ATOM      6  H   UNL A   1      31.269  29.276  27.429  1.00  0.00     0.163 HD
BRANCH   4   7
ATOM      7  C   UNL A   1      32.298  26.529  25.842  1.00  0.00     0.067 C 
ATOM      8  C   UNL A   1      33.953  23.693  23.209  1.00  0.00    -0.002 A 
ATOM      9  C   UNL A   1      35.237  23.182  23.483  1.00  0.00     0.054 A 
ATOM     10  C   UNL A   1      33.402  24.657  24.065  1.00  0.00     0.131 A 
ATOM     11  C   UNL A   1      35.964  23.629  24.587  1.00  0.00     0.130 A 
ATOM     12  C   UNL A   1      34.134  25.125  25.154  1.00  0.00     0.021 A 
ATOM     13  O   UNL A   1      32.116  25.048  23.836  1.00  0.00    -0.475 OA
ATOM     14  C   UNL A   1      35.409  24.610  25.410  1.00  0.00     0.058 A 
ATOM     15  C   UNL A   1      33.538  26.078  26.074  1.00  0.00     0.025 C 
ATOM     16  C   UNL A   1      31.611  26.240  24.510  1.00  0.00     0.314 C 
BRANCH   8  17
ATOM     17  C   UNL A   1      33.193  23.166  22.014  1.00  0.00     0.036 C 
ATOM     18  C   UNL A   1      32.409  21.905  22.343  1.00  0.00     0.009 C 
ENDBRANCH   8  17
BRANCH  11  19
ATOM     19  O   UNL A   1      37.195  23.198  24.986  1.00  0.00    -0.406 OA
BRANCH  19  20
ATOM     20  C   UNL A   1      37.342  21.828  25.321  1.00  0.00     0.573 C 
ATOM     21  F   UNL A   1      37.365  21.055  24.216  1.00  0.00    -0.132 F 
ATOM     22  F   UNL A   1      38.465  21.626  26.040  1.00  0.00    -0.132 F 
ATOM     23  F   UNL A   1      36.285  21.454  26.074  1.00  0.00    -0.132 F 
ENDBRANCH  19  20
ENDBRANCH  11  19
BRANCH  16  24
ATOM     24  C   UNL A   1      30.069  26.126  24.523  1.00  0.00     0.429 C 
ATOM     25  F   UNL A   1      29.452  27.313  24.333  1.00  0.00    -0.167 F 
ATOM     26  F   UNL A   1      29.635  25.330  23.508  1.00  0.00    -0.167 F 
ATOM     27  F   UNL A   1      29.602  25.583  25.671  1.00  0.00    -0.167 F 
ENDBRANCH  16  24
ENDBRANCH   4   7
ENDBRANCH   2   3
ENDBRANCH   1   2
BRANCH   1  28
ATOM     28  C   UNL A   1      32.576  31.646  27.083  1.00  0.00     0.118 C 
BRANCH  28  29
ATOM     29  N   UNL A   1      32.316  33.050  27.375  1.00  0.00    -0.352 N 
ATOM     30  C   UNL A   1      32.995  33.908  28.206  1.00  0.00     0.251 C 
ATOM     31  H   UNL A   1      31.542  33.440  26.910  1.00  0.00     0.163 HD
ATOM     32  O   UNL A   1      32.499  34.983  28.521  1.00  0.00    -0.269 OA
BRANCH  30  33
ATOM     33  C   UNL A   1      34.321  33.523  28.725  1.00  0.00     0.039 A 
ATOM     34  C   UNL A   1      34.405  32.767  29.898  1.00  0.00     0.014 A 
ATOM     35  C   UNL A   1      35.481  33.918  28.054  1.00  0.00     0.014 A 
ATOM     36  C   UNL A   1      35.655  32.347  30.360  1.00  0.00     0.010 A 
ATOM     37  C   UNL A   1      36.715  33.436  28.472  1.00  0.00     0.010 A 
ATOM     38  C   UNL A   1      36.815  32.647  29.629  1.00  0.00    -0.014 A 
BRANCH  38  39
ATOM     39  C   UNL A   1      38.154  32.160  30.042  1.00  0.00     0.031 A 
ATOM     40  C   UNL A   1      38.663  30.847  29.512  1.00  0.00     0.074 A 
ATOM     41  C   UNL A   1      38.858  32.837  30.968  1.00  0.00     0.049 A 
ATOM     42  N   UNL A   1      39.721  30.167  29.869  1.00  0.00    -0.248 NA
ATOM     43  C   UNL A   1      37.854  30.201  28.465  1.00  0.00     0.031 C 
ATOM     44  C   UNL A   1      38.463  34.110  31.574  1.00  0.00     0.029 A 
ATOM     45  N   UNL A   1      40.048  32.534  31.582  1.00  0.00    -0.354 N 
ATOM     46  C   UNL A   1      39.691  29.002  29.111  1.00  0.00     0.074 A 
ATOM     47  C   UNL A   1      38.487  29.047  28.311  1.00  0.00     0.031 C 
ATOM     48  C   UNL A   1      39.399  34.485  32.461  1.00  0.00     0.029 A 
ATOM     49  C   UNL A   1      40.431  33.454  32.527  1.00  0.00     0.049 A 
ATOM     50  H   UNL A   1      40.578  31.733  31.364  1.00  0.00     0.167 HD
ATOM     51  C   UNL A   1      40.592  27.992  29.076  1.00  0.00     0.031 A 
ATOM     52  C   UNL A   1      41.480  33.457  33.371  1.00  0.00     0.031 A 
ATOM     53  C   UNL A   1      41.790  27.956  29.869  1.00  0.00     0.049 A 
ATOM     54  C   UNL A   1      42.447  32.304  33.340  1.00  0.00     0.074 A 
ATOM     55  C   UNL A   1      42.794  27.005  29.870  1.00  0.00     0.029 A 
ATOM     56  N   UNL A   1      42.146  28.916  30.805  1.00  0.00    -0.354 N 
ATOM     57  N   UNL A   1      42.435  31.236  32.580  1.00  0.00    -0.248 NA
ATOM     58  C   UNL A   1      43.575  32.360  34.281  1.00  0.00     0.031 C 
ATOM     59  C   UNL A   1      43.727  27.356  30.850  1.00  0.00     0.029 A 
ATOM     60  C   UNL A   1      43.339  28.563  31.410  1.00  0.00     0.049 A 
ATOM     61  H   UNL A   1      41.625  29.726  31.010  1.00  0.00     0.167 HD
ATOM     62  C   UNL A   1      43.571  30.513  32.923  1.00  0.00     0.074 A 
ATOM     63  C   UNL A   1      44.251  31.268  33.955  1.00  0.00     0.031 C 
ATOM     64  C   UNL A   1      44.011  29.333  32.426  1.00  0.00     0.031 A 
BRANCH  51  65
ATOM     65  C   UNL A   1      40.303  26.835  28.160  1.00  0.00    -0.014 A 
ATOM     66  C   UNL A   1      40.847  26.773  26.866  1.00  0.00     0.009 A 
ATOM     67  C   UNL A   1      39.502  25.773  28.609  1.00  0.00     0.009 A 
ATOM     68  C   UNL A   1      40.561  25.693  26.029  1.00  0.00     0.001 A 
ATOM     69  C   UNL A   1      39.246  24.678  27.782  1.00  0.00     0.001 A 
ATOM     70  C   UNL A   1      39.765  24.644  26.489  1.00  0.00     0.000 A 
ENDBRANCH  51  65
BRANCH  52  71
ATOM     71  C   UNL A   1      41.674  34.586  34.318  1.00  0.00    -0.014 A 
ATOM     72  C   UNL A   1      42.403  35.722  33.931  1.00  0.00     0.009 A 
ATOM     73  C   UNL A   1      41.144  34.533  35.617  1.00  0.00     0.009 A 
ATOM     74  C   UNL A   1      42.620  36.767  34.832  1.00  0.00     0.001 A 
ATOM     75  C   UNL A   1      41.334  35.594  36.505  1.00  0.00     0.001 A 
ATOM     76  C   UNL A   1      42.081  36.704  36.117  1.00  0.00     0.000 A 
ENDBRANCH  52  71
BRANCH  64  77
ATOM     77  C   UNL A   1      45.318  28.803  32.945  1.00  0.00    -0.014 A 
ATOM     78  C   UNL A   1      46.541  29.174  32.368  1.00  0.00     0.009 A 
ATOM     79  C   UNL A   1      45.323  27.977  34.081  1.00  0.00     0.009 A 
ATOM     80  C   UNL A   1      47.743  28.711  32.906  1.00  0.00     0.001 A 
ATOM     81  C   UNL A   1      46.527  27.541  34.636  1.00  0.00     0.001 A 
ATOM     82  C   UNL A   1      47.736  27.903  34.043  1.00  0.00     0.000 A 
ENDBRANCH  64  77
ENDBRANCH  38  39
ENDBRANCH  30  33
ENDBRANCH  28  29
ENDBRANCH   1  28
TORSDOF 14
ENDMDL
MODEL 3
REMARK VINA RESULT:     -11.0      2.540      7.404
REMARK SMILES CCc1cc(OC(F)(F)F)cc2c1O[C@@H](C(F)(F)F)C(C(=O)NCCCNC(=O)c1ccc(-c3c4nc(c(-c5ccccc5)c5ccc([nH]5)c(-c5ccccc5)c5nc(c(-c6ccccc6)c6ccc3[nH]6)C=C5)C=C4)cc1)=C2
REMARK SMILES IDX 25 1 24 2 23 3 21 4 22 5 20 7 3 8 4 9 13 10 5 11 12 12 14 13
REMARK SMILES IDX 11 14 78 15 15 16 2 17 1 18 6 19 7 20 8 21 9 22 10 23 16 24
REMARK SMILES IDX 17 25 18 26 19 27 26 28 27 29 28 30 29 32 30 33 31 34 77 35
REMARK SMILES IDX 32 36 76 37 33 38 34 39 35 40 70 41 36 42 75 43 69 44 71 45
REMARK SMILES IDX 37 46 74 47 68 48 67 49 38 51 60 52 45 53 59 54 46 55 49 56
REMARK SMILES IDX 58 57 72 58 47 59 48 60 57 62 73 63 50 64 39 65 40 66 44 67
REMARK SMILES IDX 41 68 43 69 42 70 61 71 62 72 66 73 63 74 65 75 64 76 51 77
REMARK SMILES IDX 52 78 56 79 53 80 55 81 54 82
REMARK H PARENT 23 6 27 31 71 50 49 61
REMARK Flexibility Score: inf
ROOT
ATOM      1  C   UNL A   1      37.436  20.265  24.959  1.00  0.00     0.042 C 
ENDROOT
BRANCH   1   2
ATOM      2  C   UNL A   1      36.365  21.360  24.999  1.00  0.00     0.118 C 
BRANCH   2   3
ATOM      3  N   UNL A   1      35.292  20.980  25.904  1.00  0.00    -0.352 N 
ATOM      4  C   UNL A   1      34.172  21.616  26.337  1.00  0.00     0.251 C 
ATOM      5  O   UNL A   1      33.539  21.094  27.252  1.00  0.00    -0.270 OA
ATOM      6  H   UNL A   1      35.398  20.076  26.280  1.00  0.00     0.163 HD
BRANCH   4   7
ATOM      7  C   UNL A   1      33.653  22.861  25.714  1.00  0.00     0.067 C 
ATOM      8  C   UNL A   1      32.276  26.223  23.588  1.00  0.00    -0.002 A 
ATOM      9  C   UNL A   1      32.726  27.501  23.975  1.00  0.00     0.054 A 
ATOM     10  C   UNL A   1      32.708  25.097  24.305  1.00  0.00     0.131 A 
ATOM     11  C   UNL A   1      33.585  27.656  25.064  1.00  0.00     0.130 A 
ATOM     12  C   UNL A   1      33.546  25.250  25.407  1.00  0.00     0.021 A 
ATOM     13  O   UNL A   1      32.345  23.869  23.837  1.00  0.00    -0.475 OA
ATOM     14  C   UNL A   1      33.981  26.526  25.781  1.00  0.00     0.058 A 
ATOM     15  C   UNL A   1      34.041  24.080  26.111  1.00  0.00     0.025 C 
ATOM     16  C   UNL A   1      32.522  22.706  24.700  1.00  0.00     0.314 C 
BRANCH   8  17
ATOM     17  C   UNL A   1      31.362  26.098  22.391  1.00  0.00     0.036 C 
ATOM     18  C   UNL A   1      32.137  25.955  21.090  1.00  0.00     0.009 C 
ENDBRANCH   8  17
BRANCH  11  19
ATOM     19  O   UNL A   1      34.121  28.823  25.522  1.00  0.00    -0.406 OA
BRANCH  19  20
ATOM     20  C   UNL A   1      33.575  29.387  26.703  1.00  0.00     0.573 C 
ATOM     21  F   UNL A   1      32.272  29.068  26.839  1.00  0.00    -0.132 F 
ATOM     22  F   UNL A   1      34.259  28.980  27.792  1.00  0.00    -0.132 F 
ATOM     23  F   UNL A   1      33.673  30.733  26.622  1.00  0.00    -0.132 F 
ENDBRANCH  19  20
ENDBRANCH  11  19
BRANCH  16  24
ATOM     24  C   UNL A   1      32.572  21.467  23.775  1.00  0.00     0.429 C 
ATOM     25  F   UNL A   1      32.267  20.318  24.418  1.00  0.00    -0.167 F 
ATOM     26  F   UNL A   1      31.653  21.574  22.777  1.00  0.00    -0.167 F 
ATOM     27  F   UNL A   1      33.778  21.316  23.181  1.00  0.00    -0.167 F 
ENDBRANCH  16  24
ENDBRANCH   4   7
ENDBRANCH   2   3
ENDBRANCH   1   2
BRANCH   1  28
ATOM     28  C   UNL A   1      38.688  20.637  25.749  1.00  0.00     0.118 C 
BRANCH  28  29
ATOM     29  N   UNL A   1      39.633  19.529  25.812  1.00  0.00    -0.352 N 
ATOM     30  C   UNL A   1      40.999  19.556  25.959  1.00  0.00     0.251 C 
ATOM     31  H   UNL A   1      39.236  18.632  25.738  1.00  0.00     0.163 HD
ATOM     32  O   UNL A   1      41.662  18.548  25.750  1.00  0.00    -0.269 OA
BRANCH  30  33
ATOM     33  C   UNL A   1      41.665  20.810  26.363  1.00  0.00     0.039 A 
ATOM     34  C   UNL A   1      42.070  21.718  25.381  1.00  0.00     0.014 A 
ATOM     35  C   UNL A   1      41.892  21.082  27.715  1.00  0.00     0.014 A 
ATOM     36  C   UNL A   1      42.643  22.934  25.760  1.00  0.00     0.010 A 
ATOM     37  C   UNL A   1      42.392  22.322  28.092  1.00  0.00     0.010 A 
ATOM     38  C   UNL A   1      42.774  23.260  27.119  1.00  0.00    -0.014 A 
BRANCH  38  39
ATOM     39  C   UNL A   1      43.308  24.569  27.567  1.00  0.00     0.031 A 
ATOM     40  C   UNL A   1      42.358  25.653  27.995  1.00  0.00     0.074 A 
ATOM     41  C   UNL A   1      44.629  24.817  27.485  1.00  0.00     0.049 A 
ATOM     42  N   UNL A   1      42.604  26.909  28.262  1.00  0.00    -0.248 NA
ATOM     43  C   UNL A   1      40.938  25.279  28.106  1.00  0.00     0.031 C 
ATOM     44  C   UNL A   1      45.651  23.856  27.066  1.00  0.00     0.029 A 
ATOM     45  N   UNL A   1      45.337  25.968  27.731  1.00  0.00    -0.354 N 
ATOM     46  C   UNL A   1      41.369  27.481  28.545  1.00  0.00     0.074 A 
ATOM     47  C   UNL A   1      40.372  26.447  28.371  1.00  0.00     0.031 C 
ATOM     48  C   UNL A   1      46.854  24.452  27.096  1.00  0.00     0.029 A 
ATOM     49  C   UNL A   1      46.683  25.849  27.483  1.00  0.00     0.049 A 
ATOM     50  H   UNL A   1      44.920  26.798  28.055  1.00  0.00     0.167 HD
ATOM     51  C   UNL A   1      41.092  28.750  28.927  1.00  0.00     0.031 A 
ATOM     52  C   UNL A   1      47.667  26.768  27.535  1.00  0.00     0.031 A 
ATOM     53  C   UNL A   1      42.087  29.772  29.105  1.00  0.00     0.049 A 
ATOM     54  C   UNL A   1      47.328  28.181  27.925  1.00  0.00     0.074 A 
ATOM     55  C   UNL A   1      41.917  31.074  29.539  1.00  0.00     0.029 A 
ATOM     56  N   UNL A   1      43.441  29.605  28.854  1.00  0.00    -0.354 N 
ATOM     57  N   UNL A   1      46.164  28.694  28.243  1.00  0.00    -0.248 NA
ATOM     58  C   UNL A   1      48.440  29.141  27.969  1.00  0.00     0.031 C 
ATOM     59  C   UNL A   1      43.158  31.714  29.494  1.00  0.00     0.029 A 
ATOM     60  C   UNL A   1      44.113  30.790  29.098  1.00  0.00     0.049 A 
ATOM     61  H   UNL A   1      43.861  28.769  28.548  1.00  0.00     0.167 HD
ATOM     62  C   UNL A   1      46.409  30.024  28.560  1.00  0.00     0.074 A 
ATOM     63  C   UNL A   1      47.833  30.236  28.403  1.00  0.00     0.031 C 
ATOM     64  C   UNL A   1      45.533  30.981  28.949  1.00  0.00     0.031 A 
BRANCH  51  65
ATOM     65  C   UNL A   1      39.649  29.105  29.162  1.00  0.00    -0.014 A 
ATOM     66  C   UNL A   1      38.844  29.613  28.129  1.00  0.00     0.009 A 
ATOM     67  C   UNL A   1      39.077  28.896  30.426  1.00  0.00     0.009 A 
ATOM     68  C   UNL A   1      37.509  29.942  28.370  1.00  0.00     0.001 A 
ATOM     69  C   UNL A   1      37.732  29.194  30.655  1.00  0.00     0.001 A 
ATOM     70  C   UNL A   1      36.952  29.727  29.630  1.00  0.00     0.000 A 
ENDBRANCH  51  65
BRANCH  52  71
ATOM     71  C   UNL A   1      49.066  26.384  27.210  1.00  0.00    -0.014 A 
ATOM     72  C   UNL A   1      49.533  26.451  25.888  1.00  0.00     0.009 A 
ATOM     73  C   UNL A   1      49.940  25.940  28.215  1.00  0.00     0.009 A 
ATOM     74  C   UNL A   1      50.834  26.053  25.574  1.00  0.00     0.001 A 
ATOM     75  C   UNL A   1      51.252  25.575  27.903  1.00  0.00     0.001 A 
ATOM     76  C   UNL A   1      51.694  25.621  26.583  1.00  0.00     0.000 A 
ENDBRANCH  52  71
BRANCH  64  77
ATOM     77  C   UNL A   1      46.089  32.336  29.290  1.00  0.00    -0.014 A 
ATOM     78  C   UNL A   1      46.565  32.632  30.576  1.00  0.00     0.009 A 
ATOM     79  C   UNL A   1      46.205  33.305  28.280  1.00  0.00     0.009 A 
ATOM     80  C   UNL A   1      47.127  33.880  30.848  1.00  0.00     0.001 A 
ATOM     81  C   UNL A   1      46.796  34.540  28.547  1.00  0.00     0.001 A 
ATOM     82  C   UNL A   1      47.251  34.829  29.833  1.00  0.00     0.000 A 
ENDBRANCH  64  77
ENDBRANCH  38  39
ENDBRANCH  30  33
ENDBRANCH  28  29
ENDBRANCH   1  28
TORSDOF 14
ENDMDL
