MODEL 1
REMARK VINA RESULT:     -10.7      0.000      0.000
REMARK SMILES O=C(NCCCNC(=O)[C@]1(CCc2cccnc2)C[C@H]2CC[C@@H]1O2)c1ccc(-c2c3nc(c(-c4ccccc4)c4ccc([nH]4)c(-c4ccccc4)c4nc(c(-c5ccccc5)c5ccc2[nH]5)C=C4)C=C3)cc1
REMARK SMILES IDX 5 1 4 2 3 3 1 4 2 5 25 7 26 8 72 9 27 10 71 11 28 12 29 13
REMARK SMILES IDX 30 14 65 15 31 16 70 17 64 18 66 19 32 20 69 21 63 22 62 23
REMARK SMILES IDX 33 25 55 26 40 27 54 28 41 29 44 30 53 31 67 32 42 33 43 34
REMARK SMILES IDX 52 36 68 37 45 38 34 39 35 40 39 41 36 42 38 43 37 44 56 45
REMARK SMILES IDX 57 46 61 47 58 48 60 49 59 50 46 51 47 52 51 53 48 54 50 55
REMARK SMILES IDX 49 56 6 57 7 58 8 59 9 61 10 62 19 63 23 64 20 65 22 66
REMARK SMILES IDX 24 67 21 68 11 69 12 70 13 71 14 72 18 73 15 74 17 75 16 76
REMARK H PARENT 3 6 66 24 44 35 7 60
REMARK Flexibility Score: inf
ROOT
ATOM      1  C   UNL A   1      34.037  28.331  25.852  1.00  0.00     0.042 C 
ENDROOT
BRANCH   1   2
ATOM      2  C   UNL A   1      33.546  28.630  27.256  1.00  0.00     0.118 C 
BRANCH   2   3
ATOM      3  N   UNL A   1      33.592  30.054  27.564  1.00  0.00    -0.352 N 
ATOM      4  O   UNL A   1      34.314  31.934  28.573  1.00  0.00    -0.269 OA
ATOM      5  C   UNL A   1      34.561  30.788  28.196  1.00  0.00     0.251 C 
ATOM      6  H   UNL A   1      32.805  30.568  27.273  1.00  0.00     0.163 HD
BRANCH   5   7
ATOM      7  C   UNL A   1      35.898  30.209  28.434  1.00  0.00     0.039 A 
ATOM      8  C   UNL A   1      36.883  30.278  27.448  1.00  0.00     0.014 A 
ATOM      9  C   UNL A   1      36.193  29.642  29.678  1.00  0.00     0.014 A 
ATOM     10  C   UNL A   1      38.108  29.657  27.643  1.00  0.00     0.010 A 
ATOM     11  C   UNL A   1      37.467  29.121  29.918  1.00  0.00     0.010 A 
ATOM     12  C   UNL A   1      38.431  29.119  28.898  1.00  0.00    -0.014 A 
BRANCH  12  13
ATOM     13  C   UNL A   1      39.831  28.711  29.158  1.00  0.00     0.031 A 
ATOM     14  C   UNL A   1      40.820  29.645  29.787  1.00  0.00     0.074 A 
ATOM     15  C   UNL A   1      40.194  27.460  28.804  1.00  0.00     0.049 A 
ATOM     16  N   UNL A   1      42.083  29.434  30.058  1.00  0.00    -0.248 NA
ATOM     17  C   UNL A   1      40.343  30.986  30.158  1.00  0.00     0.031 C 
ATOM     18  C   UNL A   1      39.312  26.472  28.172  1.00  0.00     0.029 A 
ATOM     19  N   UNL A   1      41.388  26.801  28.928  1.00  0.00    -0.354 N 
ATOM     20  C   UNL A   1      42.558  30.618  30.605  1.00  0.00     0.074 A 
ATOM     21  C   UNL A   1      41.451  31.550  30.623  1.00  0.00     0.031 C 
ATOM     22  C   UNL A   1      39.983  25.326  27.998  1.00  0.00     0.029 A 
ATOM     23  C   UNL A   1      41.361  25.523  28.424  1.00  0.00     0.049 A 
ATOM     24  H   UNL A   1      42.188  27.203  29.337  1.00  0.00     0.167 HD
ATOM     25  C   UNL A   1      43.808  30.895  31.044  1.00  0.00     0.031 A 
ATOM     26  C   UNL A   1      42.345  24.618  28.277  1.00  0.00     0.031 A 
ATOM     27  C   UNL A   1      44.900  29.955  31.023  1.00  0.00     0.049 A 
ATOM     28  C   UNL A   1      43.728  24.983  28.727  1.00  0.00     0.074 A 
ATOM     29  C   UNL A   1      46.187  30.124  31.508  1.00  0.00     0.029 A 
ATOM     30  N   UNL A   1      44.842  28.684  30.474  1.00  0.00    -0.354 N 
ATOM     31  N   UNL A   1      44.141  26.079  29.314  1.00  0.00    -0.248 NA
ATOM     32  C   UNL A   1      44.783  23.989  28.486  1.00  0.00     0.031 C 
ATOM     33  C   UNL A   1      46.926  28.983  31.185  1.00  0.00     0.029 A 
ATOM     34  C   UNL A   1      46.084  28.078  30.559  1.00  0.00     0.049 A 
ATOM     35  H   UNL A   1      44.038  28.274  30.082  1.00  0.00     0.167 HD
ATOM     36  C   UNL A   1      45.502  25.904  29.521  1.00  0.00     0.074 A 
ATOM     37  C   UNL A   1      45.835  24.584  29.029  1.00  0.00     0.031 C 
ATOM     38  C   UNL A   1      46.398  26.766  30.058  1.00  0.00     0.031 A 
BRANCH  25  39
ATOM     39  C   UNL A   1      44.095  32.280  31.556  1.00  0.00    -0.014 A 
ATOM     40  C   UNL A   1      43.977  32.598  32.917  1.00  0.00     0.009 A 
ATOM     41  C   UNL A   1      44.596  33.250  30.673  1.00  0.00     0.009 A 
ATOM     42  C   UNL A   1      44.345  33.865  33.379  1.00  0.00     0.001 A 
ATOM     43  C   UNL A   1      44.986  34.506  31.140  1.00  0.00     0.001 A 
ATOM     44  C   UNL A   1      44.858  34.813  32.494  1.00  0.00     0.000 A 
ENDBRANCH  25  39
BRANCH  26  45
ATOM     45  C   UNL A   1      42.073  23.317  27.611  1.00  0.00    -0.014 A 
ATOM     46  C   UNL A   1      42.358  23.130  26.251  1.00  0.00     0.009 A 
ATOM     47  C   UNL A   1      41.502  22.258  28.337  1.00  0.00     0.009 A 
ATOM     48  C   UNL A   1      42.040  21.922  25.624  1.00  0.00     0.001 A 
ATOM     49  C   UNL A   1      41.222  21.040  27.718  1.00  0.00     0.001 A 
ATOM     50  C   UNL A   1      41.478  20.878  26.358  1.00  0.00     0.000 A 
ENDBRANCH  26  45
BRANCH  38  51
ATOM     51  C   UNL A   1      47.821  26.298  30.150  1.00  0.00    -0.014 A 
ATOM     52  C   UNL A   1      48.694  26.419  29.058  1.00  0.00     0.009 A 
ATOM     53  C   UNL A   1      48.304  25.763  31.354  1.00  0.00     0.009 A 
ATOM     54  C   UNL A   1      50.017  25.988  29.162  1.00  0.00     0.001 A 
ATOM     55  C   UNL A   1      49.635  25.364  31.465  1.00  0.00     0.001 A 
ATOM     56  C   UNL A   1      50.488  25.468  30.367  1.00  0.00     0.000 A 
ENDBRANCH  38  51
ENDBRANCH  12  13
ENDBRANCH   5   7
ENDBRANCH   2   3
ENDBRANCH   1   2
BRANCH   1  57
ATOM     57  C   UNL A   1      32.958  27.786  24.934  1.00  0.00     0.117 C 
BRANCH  57  58
ATOM     58  N   UNL A   1      31.856  27.159  25.647  1.00  0.00    -0.355 N 
ATOM     59  C   UNL A   1      31.588  25.858  25.952  1.00  0.00     0.228 C 
ATOM     60  H   UNL A   1      31.176  27.794  25.969  1.00  0.00     0.163 HD
ATOM     61  O   UNL A   1      30.675  25.658  26.755  1.00  0.00    -0.274 OA
BRANCH  59  62
ATOM     62  C   UNL A   1      32.378  24.706  25.310  1.00  0.00     0.078 C 
ATOM     63  C   UNL A   1      32.697  24.960  23.807  1.00  0.00     0.051 C 
ATOM     64  C   UNL A   1      31.358  23.538  25.164  1.00  0.00     0.134 C 
ATOM     65  C   UNL A   1      31.810  23.945  23.086  1.00  0.00     0.120 C 
ATOM     66  C   UNL A   1      31.971  22.218  24.716  1.00  0.00     0.036 C 
ATOM     67  O   UNL A   1      30.659  23.911  23.942  1.00  0.00    -0.374 OA
ATOM     68  C   UNL A   1      32.349  22.525  23.267  1.00  0.00     0.035 C 
BRANCH  62  69
ATOM     69  C   UNL A   1      33.686  24.427  26.104  1.00  0.00     0.024 C 
BRANCH  69  70
ATOM     70  C   UNL A   1      35.035  24.687  25.388  1.00  0.00     0.038 C 
BRANCH  70  71
ATOM     71  C   UNL A   1      36.066  23.591  25.395  1.00  0.00    -0.030 A 
ATOM     72  C   UNL A   1      37.364  23.801  25.870  1.00  0.00     0.007 A 
ATOM     73  C   UNL A   1      35.748  22.297  24.988  1.00  0.00     0.114 A 
ATOM     74  C   UNL A   1      38.276  22.745  25.893  1.00  0.00     0.020 A 
ATOM     75  N   UNL A   1      36.613  21.257  24.997  1.00  0.00    -0.264 NA
ATOM     76  C   UNL A   1      37.859  21.505  25.441  1.00  0.00     0.111 A 
ENDBRANCH  70  71
ENDBRANCH  69  70
ENDBRANCH  62  69
ENDBRANCH  59  62
ENDBRANCH  57  58
ENDBRANCH   1  57
TORSDOF 13
ENDMDL
MODEL 2
REMARK VINA RESULT:     -10.5      2.976      7.387
REMARK SMILES O=C(NCCCNC(=O)[C@]1(CCc2cccnc2)C[C@H]2CC[C@@H]1O2)c1ccc(-c2c3nc(c(-c4ccccc4)c4ccc([nH]4)c(-c4ccccc4)c4nc(c(-c5ccccc5)c5ccc2[nH]5)C=C4)C=C3)cc1
REMARK SMILES IDX 5 1 4 2 3 3 1 4 2 5 25 7 26 8 72 9 27 10 71 11 28 12 29 13
REMARK SMILES IDX 30 14 65 15 31 16 70 17 64 18 66 19 32 20 69 21 63 22 62 23
REMARK SMILES IDX 33 25 55 26 40 27 54 28 41 29 44 30 53 31 67 32 42 33 43 34
REMARK SMILES IDX 52 36 68 37 45 38 34 39 35 40 39 41 36 42 38 43 37 44 56 45
REMARK SMILES IDX 57 46 61 47 58 48 60 49 59 50 46 51 47 52 51 53 48 54 50 55
REMARK SMILES IDX 49 56 6 57 7 58 8 59 9 61 10 62 19 63 23 64 20 65 22 66
REMARK SMILES IDX 24 67 21 68 11 69 12 70 13 71 14 72 18 73 15 74 17 75 16 76
REMARK H PARENT 3 6 66 24 44 35 7 60
REMARK Flexibility Score: inf
ROOT
ATOM      1  C   UNL A   1      37.759  19.733  24.999  1.00  0.00     0.042 C 
ENDROOT
BRANCH   1   2
ATOM      2  C   UNL A   1      38.983  20.220  25.751  1.00  0.00     0.118 C 
BRANCH   2   3
ATOM      3  N   UNL A   1      40.026  19.204  25.823  1.00  0.00    -0.352 N 
ATOM      4  O   UNL A   1      42.120  18.374  25.770  1.00  0.00    -0.269 OA
ATOM      5  C   UNL A   1      41.381  19.340  25.967  1.00  0.00     0.251 C 
ATOM      6  H   UNL A   1      39.706  18.275  25.758  1.00  0.00     0.163 HD
BRANCH   5   7
ATOM      7  C   UNL A   1      41.962  20.642  26.351  1.00  0.00     0.039 A 
ATOM      8  C   UNL A   1      42.285  21.587  25.376  1.00  0.00     0.014 A 
ATOM      9  C   UNL A   1      42.135  20.948  27.705  1.00  0.00     0.014 A 
ATOM     10  C   UNL A   1      42.910  22.772  25.735  1.00  0.00     0.010 A 
ATOM     11  C   UNL A   1      42.655  22.191  28.074  1.00  0.00     0.010 A 
ATOM     12  C   UNL A   1      43.053  23.108  27.089  1.00  0.00    -0.014 A 
BRANCH  12  13
ATOM     13  C   UNL A   1      43.470  24.486  27.440  1.00  0.00     0.031 A 
ATOM     14  C   UNL A   1      42.479  25.525  27.868  1.00  0.00     0.074 A 
ATOM     15  C   UNL A   1      44.785  24.781  27.358  1.00  0.00     0.049 A 
ATOM     16  N   UNL A   1      42.694  26.776  28.187  1.00  0.00    -0.248 NA
ATOM     17  C   UNL A   1      41.066  25.120  27.947  1.00  0.00     0.031 C 
ATOM     18  C   UNL A   1      45.836  23.846  26.939  1.00  0.00     0.029 A 
ATOM     19  N   UNL A   1      45.465  25.940  27.626  1.00  0.00    -0.354 N 
ATOM     20  C   UNL A   1      41.449  27.315  28.479  1.00  0.00     0.074 A 
ATOM     21  C   UNL A   1      40.476  26.259  28.293  1.00  0.00     0.031 C 
ATOM     22  C   UNL A   1      47.026  24.456  27.013  1.00  0.00     0.029 A 
ATOM     23  C   UNL A   1      46.817  25.843  27.399  1.00  0.00     0.049 A 
ATOM     24  H   UNL A   1      45.029  26.761  27.949  1.00  0.00     0.167 HD
ATOM     25  C   UNL A   1      41.151  28.579  28.860  1.00  0.00     0.031 A 
ATOM     26  C   UNL A   1      47.783  26.778  27.452  1.00  0.00     0.031 A 
ATOM     27  C   UNL A   1      42.131  29.620  29.044  1.00  0.00     0.049 A 
ATOM     28  C   UNL A   1      47.405  28.180  27.827  1.00  0.00     0.074 A 
ATOM     29  C   UNL A   1      41.933  30.915  29.493  1.00  0.00     0.029 A 
ATOM     30  N   UNL A   1      43.484  29.493  28.772  1.00  0.00    -0.354 N 
ATOM     31  N   UNL A   1      46.234  28.652  28.175  1.00  0.00    -0.248 NA
ATOM     32  C   UNL A   1      48.481  29.180  27.806  1.00  0.00     0.031 C 
ATOM     33  C   UNL A   1      43.153  31.592  29.421  1.00  0.00     0.029 A 
ATOM     34  C   UNL A   1      44.123  30.701  28.991  1.00  0.00     0.049 A 
ATOM     35  H   UNL A   1      43.924  28.667  28.468  1.00  0.00     0.167 HD
ATOM     36  C   UNL A   1      46.432  30.002  28.425  1.00  0.00     0.074 A 
ATOM     37  C   UNL A   1      47.842  30.264  28.222  1.00  0.00     0.031 C 
ATOM     38  C   UNL A   1      45.526  30.944  28.777  1.00  0.00     0.031 A 
BRANCH  25  39
ATOM     39  C   UNL A   1      39.707  28.940  29.074  1.00  0.00    -0.014 A 
ATOM     40  C   UNL A   1      38.898  29.382  28.017  1.00  0.00     0.009 A 
ATOM     41  C   UNL A   1      39.124  28.727  30.333  1.00  0.00     0.009 A 
ATOM     42  C   UNL A   1      37.535  29.615  28.223  1.00  0.00     0.001 A 
ATOM     43  C   UNL A   1      37.758  28.937  30.530  1.00  0.00     0.001 A 
ATOM     44  C   UNL A   1      36.965  29.383  29.474  1.00  0.00     0.000 A 
ENDBRANCH  25  39
BRANCH  26  45
ATOM     45  C   UNL A   1      49.178  26.435  27.070  1.00  0.00    -0.014 A 
ATOM     46  C   UNL A   1      49.592  26.483  25.732  1.00  0.00     0.009 A 
ATOM     47  C   UNL A   1      50.101  26.034  28.051  1.00  0.00     0.009 A 
ATOM     48  C   UNL A   1      50.889  26.100  25.380  1.00  0.00     0.001 A 
ATOM     49  C   UNL A   1      51.406  25.690  27.702  1.00  0.00     0.001 A 
ATOM     50  C   UNL A   1      51.795  25.709  26.365  1.00  0.00     0.000 A 
ENDBRANCH  26  45
BRANCH  38  51
ATOM     51  C   UNL A   1      46.038  32.340  28.976  1.00  0.00    -0.014 A 
ATOM     52  C   UNL A   1      46.533  32.757  30.222  1.00  0.00     0.009 A 
ATOM     53  C   UNL A   1      46.059  33.237  27.897  1.00  0.00     0.009 A 
ATOM     54  C   UNL A   1      47.015  34.057  30.389  1.00  0.00     0.001 A 
ATOM     55  C   UNL A   1      46.572  34.524  28.060  1.00  0.00     0.001 A 
ATOM     56  C   UNL A   1      47.040  34.936  29.306  1.00  0.00     0.000 A 
ENDBRANCH  38  51
ENDBRANCH  12  13
ENDBRANCH   5   7
ENDBRANCH   2   3
ENDBRANCH   1   2
BRANCH   1  57
ATOM     57  C   UNL A   1      36.713  20.811  24.779  1.00  0.00     0.117 C 
BRANCH  57  58
ATOM     58  N   UNL A   1      35.992  21.172  25.989  1.00  0.00    -0.355 N 
ATOM     59  C   UNL A   1      34.724  21.627  26.195  1.00  0.00     0.228 C 
ATOM     60  H   UNL A   1      36.519  21.069  26.814  1.00  0.00     0.163 HD
ATOM     61  O   UNL A   1      34.329  21.645  27.362  1.00  0.00    -0.274 OA
BRANCH  59  62
ATOM     62  C   UNL A   1      33.847  22.108  25.028  1.00  0.00     0.078 C 
ATOM     63  C   UNL A   1      34.591  23.099  24.084  1.00  0.00     0.051 C 
ATOM     64  C   UNL A   1      32.813  23.084  25.664  1.00  0.00     0.134 C 
ATOM     65  C   UNL A   1      33.894  24.431  24.359  1.00  0.00     0.120 C 
ATOM     66  C   UNL A   1      31.714  23.544  24.715  1.00  0.00     0.036 C 
ATOM     67  O   UNL A   1      33.588  24.313  25.756  1.00  0.00    -0.374 OA
ATOM     68  C   UNL A   1      32.488  24.445  23.755  1.00  0.00     0.035 C 
BRANCH  62  69
ATOM     69  C   UNL A   1      33.296  20.898  24.220  1.00  0.00     0.024 C 
BRANCH  69  70
ATOM     70  C   UNL A   1      32.546  19.790  25.001  1.00  0.00     0.038 C 
BRANCH  70  71
ATOM     71  C   UNL A   1      33.105  18.394  24.968  1.00  0.00    -0.030 A 
ATOM     72  C   UNL A   1      34.263  18.080  24.250  1.00  0.00     0.007 A 
ATOM     73  C   UNL A   1      32.527  17.365  25.707  1.00  0.00     0.114 A 
ATOM     74  C   UNL A   1      34.767  16.779  24.278  1.00  0.00     0.020 A 
ATOM     75  N   UNL A   1      32.993  16.096  25.750  1.00  0.00    -0.264 NA
ATOM     76  C   UNL A   1      34.098  15.829  25.028  1.00  0.00     0.111 A 
ENDBRANCH  70  71
ENDBRANCH  69  70
ENDBRANCH  62  69
ENDBRANCH  59  62
ENDBRANCH  57  58
ENDBRANCH   1  57
TORSDOF 13
ENDMDL
MODEL 3
REMARK VINA RESULT:     -10.4      3.838      8.392
REMARK SMILES O=C(NCCCNC(=O)[C@]1(CCc2cccnc2)C[C@H]2CC[C@@H]1O2)c1ccc(-c2c3nc(c(-c4ccccc4)c4ccc([nH]4)c(-c4ccccc4)c4nc(c(-c5ccccc5)c5ccc2[nH]5)C=C4)C=C3)cc1
REMARK SMILES IDX 5 1 4 2 3 3 1 4 2 5 25 7 26 8 72 9 27 10 71 11 28 12 29 13
REMARK SMILES IDX 30 14 65 15 31 16 70 17 64 18 66 19 32 20 69 21 63 22 62 23
REMARK SMILES IDX 33 25 55 26 40 27 54 28 41 29 44 30 53 31 67 32 42 33 43 34
REMARK SMILES IDX 52 36 68 37 45 38 34 39 35 40 39 41 36 42 38 43 37 44 56 45
REMARK SMILES IDX 57 46 61 47 58 48 60 49 59 50 46 51 47 52 51 53 48 54 50 55
REMARK SMILES IDX 49 56 6 57 7 58 8 59 9 61 10 62 19 63 23 64 20 65 22 66
REMARK SMILES IDX 24 67 21 68 11 69 12 70 13 71 14 72 18 73 15 74 17 75 16 76
REMARK H PARENT 3 6 66 24 44 35 7 60
REMARK Flexibility Score: inf
ROOT
ATOM      1  C   UNL A   1      31.435  31.780  26.534  1.00  0.00     0.042 C 
ENDROOT
BRANCH   1   2
ATOM      2  C   UNL A   1      32.674  32.418  27.133  1.00  0.00     0.118 C 
BRANCH   2   3
ATOM      3  N   UNL A   1      32.446  33.805  27.521  1.00  0.00    -0.352 N 
ATOM      4  O   UNL A   1      32.558  35.638  28.827  1.00  0.00    -0.269 OA
ATOM      5  C   UNL A   1      33.050  34.559  28.492  1.00  0.00     0.251 C 
ATOM      6  H   UNL A   1      31.750  34.271  27.005  1.00  0.00     0.163 HD
BRANCH   5   7
ATOM      7  C   UNL A   1      34.285  34.082  29.145  1.00  0.00     0.039 A 
ATOM      8  C   UNL A   1      34.217  33.293  30.295  1.00  0.00     0.014 A 
ATOM      9  C   UNL A   1      35.527  34.374  28.572  1.00  0.00     0.014 A 
ATOM     10  C   UNL A   1      35.379  32.921  30.953  1.00  0.00     0.010 A 
ATOM     11  C   UNL A   1      36.696  33.899  29.170  1.00  0.00     0.010 A 
ATOM     12  C   UNL A   1      36.629  33.174  30.370  1.00  0.00    -0.014 A 
BRANCH  12  13
ATOM     13  C   UNL A   1      37.830  32.531  30.952  1.00  0.00     0.031 A 
ATOM     14  C   UNL A   1      38.460  31.324  30.326  1.00  0.00     0.074 A 
ATOM     15  C   UNL A   1      38.344  33.069  32.078  1.00  0.00     0.049 A 
ATOM     16  N   UNL A   1      39.500  30.642  30.732  1.00  0.00    -0.248 NA
ATOM     17  C   UNL A   1      37.849  30.806  29.091  1.00  0.00     0.031 C 
ATOM     18  C   UNL A   1      37.800  34.238  32.779  1.00  0.00     0.029 A 
ATOM     19  N   UNL A   1      39.434  32.715  32.828  1.00  0.00    -0.354 N 
ATOM     20  C   UNL A   1      39.656  29.605  29.824  1.00  0.00     0.074 A 
ATOM     21  C   UNL A   1      38.598  29.737  28.845  1.00  0.00     0.031 C 
ATOM     22  C   UNL A   1      38.578  34.525  33.831  1.00  0.00     0.029 A 
ATOM     23  C   UNL A   1      39.620  33.514  33.931  1.00  0.00     0.049 A 
ATOM     24  H   UNL A   1      40.026  31.962  32.601  1.00  0.00     0.167 HD
ATOM     25  C   UNL A   1      40.595  28.630  29.819  1.00  0.00     0.031 A 
ATOM     26  C   UNL A   1      40.505  33.422  34.940  1.00  0.00     0.031 A 
ATOM     27  C   UNL A   1      41.644  28.512  30.799  1.00  0.00     0.049 A 
ATOM     28  C   UNL A   1      41.495  32.297  34.926  1.00  0.00     0.074 A 
ATOM     29  C   UNL A   1      42.682  27.596  30.839  1.00  0.00     0.029 A 
ATOM     30  N   UNL A   1      41.779  29.319  31.918  1.00  0.00    -0.354 N 
ATOM     31  N   UNL A   1      41.677  31.371  34.016  1.00  0.00    -0.248 NA
ATOM     32  C   UNL A   1      42.397  32.198  36.081  1.00  0.00     0.031 C 
ATOM     33  C   UNL A   1      43.399  27.802  32.021  1.00  0.00     0.029 A 
ATOM     34  C   UNL A   1      42.850  28.887  32.682  1.00  0.00     0.049 A 
ATOM     35  H   UNL A   1      41.199  30.084  32.136  1.00  0.00     0.167 HD
ATOM     36  C   UNL A   1      42.719  30.584  34.485  1.00  0.00     0.074 A 
ATOM     37  C   UNL A   1      43.151  31.163  35.739  1.00  0.00     0.031 C 
ATOM     38  C   UNL A   1      43.260  29.473  33.932  1.00  0.00     0.031 A 
BRANCH  25  39
ATOM     39  C   UNL A   1      40.527  27.578  28.746  1.00  0.00    -0.014 A 
ATOM     40  C   UNL A   1      39.750  26.421  28.903  1.00  0.00     0.009 A 
ATOM     41  C   UNL A   1      41.165  27.807  27.516  1.00  0.00     0.009 A 
ATOM     42  C   UNL A   1      39.625  25.508  27.850  1.00  0.00     0.001 A 
ATOM     43  C   UNL A   1      41.019  26.906  26.460  1.00  0.00     0.001 A 
ATOM     44  C   UNL A   1      40.250  25.756  26.629  1.00  0.00     0.000 A 
ENDBRANCH  25  39
BRANCH  26  45
ATOM     45  C   UNL A   1      40.443  34.376  36.079  1.00  0.00    -0.014 A 
ATOM     46  C   UNL A   1      39.628  34.119  37.190  1.00  0.00     0.009 A 
ATOM     47  C   UNL A   1      41.190  35.565  36.046  1.00  0.00     0.009 A 
ATOM     48  C   UNL A   1      39.533  35.053  38.226  1.00  0.00     0.001 A 
ATOM     49  C   UNL A   1      41.123  36.477  37.099  1.00  0.00     0.001 A 
ATOM     50  C   UNL A   1      40.284  36.227  38.182  1.00  0.00     0.000 A 
ENDBRANCH  26  45
BRANCH  38  51
ATOM     51  C   UNL A   1      44.388  28.822  34.678  1.00  0.00    -0.014 A 
ATOM     52  C   UNL A   1      44.143  27.799  35.608  1.00  0.00     0.009 A 
ATOM     53  C   UNL A   1      45.712  29.210  34.422  1.00  0.00     0.009 A 
ATOM     54  C   UNL A   1      45.203  27.196  36.288  1.00  0.00     0.001 A 
ATOM     55  C   UNL A   1      46.770  28.583  35.079  1.00  0.00     0.001 A 
ATOM     56  C   UNL A   1      46.515  27.584  36.017  1.00  0.00     0.000 A 
ENDBRANCH  38  51
ENDBRANCH  12  13
ENDBRANCH   5   7
ENDBRANCH   2   3
ENDBRANCH   1   2
BRANCH   1  57
ATOM     57  C   UNL A   1      31.596  30.299  26.240  1.00  0.00     0.117 C 
BRANCH  57  58
ATOM     58  N   UNL A   1      32.514  30.024  25.147  1.00  0.00    -0.355 N 
ATOM     59  C   UNL A   1      32.583  29.002  24.247  1.00  0.00     0.228 C 
ATOM     60  H   UNL A   1      33.219  30.703  25.036  1.00  0.00     0.163 HD
ATOM     61  O   UNL A   1      33.355  29.155  23.299  1.00  0.00    -0.274 OA
BRANCH  59  62
ATOM     62  C   UNL A   1      31.750  27.722  24.425  1.00  0.00     0.078 C 
ATOM     63  C   UNL A   1      31.817  27.157  25.875  1.00  0.00     0.051 C 
ATOM     64  C   UNL A   1      32.540  26.608  23.676  1.00  0.00     0.134 C 
ATOM     65  C   UNL A   1      32.633  25.875  25.710  1.00  0.00     0.120 C 
ATOM     66  C   UNL A   1      31.803  25.282  23.561  1.00  0.00     0.036 C 
ATOM     67  O   UNL A   1      33.544  26.246  24.666  1.00  0.00    -0.374 OA
ATOM     68  C   UNL A   1      31.812  24.792  25.008  1.00  0.00     0.035 C 
BRANCH  62  69
ATOM     69  C   UNL A   1      30.272  27.966  24.005  1.00  0.00     0.024 C 
BRANCH  69  70
ATOM     70  C   UNL A   1      30.010  28.564  22.599  1.00  0.00     0.038 C 
BRANCH  70  71
ATOM     71  C   UNL A   1      29.338  29.907  22.513  1.00  0.00    -0.030 A 
ATOM     72  C   UNL A   1      29.247  30.760  23.618  1.00  0.00     0.007 A 
ATOM     73  C   UNL A   1      28.833  30.387  21.307  1.00  0.00     0.114 A 
ATOM     74  C   UNL A   1      28.647  32.013  23.481  1.00  0.00     0.020 A 
ATOM     75  N   UNL A   1      28.245  31.594  21.148  1.00  0.00    -0.264 NA
ATOM     76  C   UNL A   1      28.158  32.377  22.240  1.00  0.00     0.111 A 
ENDBRANCH  70  71
ENDBRANCH  69  70
ENDBRANCH  62  69
ENDBRANCH  59  62
ENDBRANCH  57  58
ENDBRANCH   1  57
TORSDOF 13
ENDMDL
