MODEL 1
REMARK VINA RESULT:     -11.1      0.000      0.000
REMARK SMILES CC[C@H](C)c1ccccc1Oc1cccc(F)c1C(=O)NCCCNC(=O)c1ccc(-c2c3nc(c(-c4ccccc4)c4ccc([nH]4)c(-c4ccccc4)c4nc(c(-c5ccccc5)c5ccc2[nH]5)C=C4)C=C3)cc1
REMARK SMILES IDX 22 1 21 2 19 3 20 4 18 6 12 7 13 8 14 9 16 10 15 11 17 12
REMARK SMILES IDX 11 13 10 14 5 15 6 16 7 17 9 18 8 19 3 20 4 21 2 22 1 23
REMARK SMILES IDX 23 24 24 25 25 26 26 27 27 29 28 30 29 31 75 32 30 33 74 34
REMARK SMILES IDX 31 35 32 36 33 37 68 38 34 39 73 40 67 41 69 42 35 43 72 44
REMARK SMILES IDX 66 45 65 46 36 48 58 49 43 50 57 51 44 52 47 53 56 54 70 55
REMARK SMILES IDX 45 56 46 57 55 59 71 60 48 61 37 62 38 63 42 64 39 65 41 66
REMARK SMILES IDX 40 67 59 68 60 69 64 70 61 71 63 72 62 73 49 74 50 75 54 76
REMARK SMILES IDX 51 77 53 78 52 79
REMARK H PARENT 21 5 25 28 69 47 47 58
REMARK Flexibility Score: inf
ROOT
ATOM      1  C   UNL A   1      35.472  21.599  25.618  1.00  0.00     0.118 C 
ENDROOT
BRANCH   1   2
ATOM      2  N   UNL A   1      34.842  21.771  24.341  1.00  0.00    -0.352 N 
ATOM      3  C   UNL A   1      33.733  22.494  24.001  1.00  0.00     0.258 C 
ATOM      4  O   UNL A   1      33.560  22.656  22.790  1.00  0.00    -0.269 OA
ATOM      5  H   UNL A   1      35.275  21.296  23.595  1.00  0.00     0.163 HD
BRANCH   3   6
ATOM      6  C   UNL A   1      32.733  23.053  24.956  1.00  0.00     0.118 A 
ATOM      7  C   UNL A   1      32.605  24.359  25.469  1.00  0.00     0.143 A 
ATOM      8  C   UNL A   1      31.536  24.655  26.348  1.00  0.00     0.048 A 
ATOM      9  C   UNL A   1      30.556  23.721  26.665  1.00  0.00     0.007 A 
ATOM     10  C   UNL A   1      31.717  22.127  25.295  1.00  0.00     0.139 A 
ATOM     11  C   UNL A   1      30.644  22.450  26.127  1.00  0.00     0.040 A 
ATOM     12  F   UNL A   1      31.760  20.858  24.858  1.00  0.00    -0.206 F 
BRANCH   7  13
ATOM     13  O   UNL A   1      33.530  25.361  25.497  1.00  0.00    -0.456 OA
BRANCH  13  14
ATOM     14  C   UNL A   1      33.528  26.556  24.827  1.00  0.00     0.130 A 
ATOM     15  C   UNL A   1      33.429  27.889  25.242  1.00  0.00    -0.002 A 
ATOM     16  C   UNL A   1      33.288  28.870  24.220  1.00  0.00     0.008 A 
ATOM     17  C   UNL A   1      33.313  28.562  22.858  1.00  0.00     0.001 A 
ATOM     18  C   UNL A   1      33.643  26.277  23.438  1.00  0.00     0.047 A 
ATOM     19  C   UNL A   1      33.520  27.256  22.461  1.00  0.00     0.004 A 
BRANCH  15  20
ATOM     20  C   UNL A   1      33.565  28.450  26.652  1.00  0.00     0.019 C 
ATOM     21  C   UNL A   1      34.786  29.334  26.879  1.00  0.00     0.013 C 
BRANCH  20  22
ATOM     22  C   UNL A   1      32.212  28.958  27.190  1.00  0.00     0.005 C 
ATOM     23  C   UNL A   1      31.237  27.878  27.630  1.00  0.00     0.004 C 
ENDBRANCH  20  22
ENDBRANCH  15  20
ENDBRANCH  13  14
ENDBRANCH   7  13
ENDBRANCH   3   6
ENDBRANCH   1   2
BRANCH   1  24
ATOM     24  C   UNL A   1      36.229  22.804  26.125  1.00  0.00     0.042 C 
BRANCH  24  25
ATOM     25  C   UNL A   1      37.369  23.209  25.200  1.00  0.00     0.118 C 
BRANCH  25  26
ATOM     26  N   UNL A   1      38.642  22.546  25.504  1.00  0.00    -0.352 N 
ATOM     27  C   UNL A   1      39.764  22.991  26.167  1.00  0.00     0.251 C 
ATOM     28  H   UNL A   1      38.705  21.621  25.176  1.00  0.00     0.163 HD
ATOM     29  O   UNL A   1      40.783  22.304  26.187  1.00  0.00    -0.269 OA
BRANCH  27  30
ATOM     30  C   UNL A   1      39.766  24.321  26.812  1.00  0.00     0.039 A 
ATOM     31  C   UNL A   1      39.164  24.488  28.062  1.00  0.00     0.014 A 
ATOM     32  C   UNL A   1      40.407  25.398  26.206  1.00  0.00     0.014 A 
ATOM     33  C   UNL A   1      39.320  25.696  28.749  1.00  0.00     0.010 A 
ATOM     34  C   UNL A   1      40.697  26.530  26.950  1.00  0.00     0.010 A 
ATOM     35  C   UNL A   1      40.146  26.703  28.227  1.00  0.00    -0.014 A 
BRANCH  35  36
ATOM     36  C   UNL A   1      40.436  27.958  28.968  1.00  0.00     0.031 A 
ATOM     37  C   UNL A   1      41.741  28.103  29.711  1.00  0.00     0.074 A 
ATOM     38  C   UNL A   1      39.495  28.920  29.064  1.00  0.00     0.049 A 
ATOM     39  N   UNL A   1      42.132  29.056  30.519  1.00  0.00    -0.248 NA
ATOM     40  C   UNL A   1      42.712  27.004  29.571  1.00  0.00     0.031 C 
ATOM     41  C   UNL A   1      38.161  28.875  28.460  1.00  0.00     0.029 A 
ATOM     42  N   UNL A   1      39.518  30.127  29.716  1.00  0.00    -0.354 N 
ATOM     43  C   UNL A   1      43.363  28.643  31.015  1.00  0.00     0.074 A 
ATOM     44  C   UNL A   1      43.621  27.329  30.474  1.00  0.00     0.031 C 
ATOM     45  C   UNL A   1      37.515  30.020  28.730  1.00  0.00     0.029 A 
ATOM     46  C   UNL A   1      38.368  30.862  29.559  1.00  0.00     0.049 A 
ATOM     47  H   UNL A   1      40.288  30.437  30.247  1.00  0.00     0.167 HD
ATOM     48  C   UNL A   1      44.224  29.308  31.820  1.00  0.00     0.031 A 
ATOM     49  C   UNL A   1      38.042  32.081  30.027  1.00  0.00     0.031 A 
ATOM     50  C   UNL A   1      43.995  30.640  32.308  1.00  0.00     0.049 A 
ATOM     51  C   UNL A   1      39.038  32.831  30.867  1.00  0.00     0.074 A 
ATOM     52  C   UNL A   1      44.835  31.442  33.059  1.00  0.00     0.029 A 
ATOM     53  N   UNL A   1      42.841  31.372  32.076  1.00  0.00    -0.354 N 
ATOM     54  N   UNL A   1      40.228  32.455  31.269  1.00  0.00    -0.248 NA
ATOM     55  C   UNL A   1      38.651  34.179  31.303  1.00  0.00     0.031 C 
ATOM     56  C   UNL A   1      44.175  32.649  33.308  1.00  0.00     0.029 A 
ATOM     57  C   UNL A   1      42.943  32.614  32.674  1.00  0.00     0.049 A 
ATOM     58  H   UNL A   1      42.063  31.054  31.561  1.00  0.00     0.167 HD
ATOM     59  C   UNL A   1      40.742  33.529  31.981  1.00  0.00     0.074 A 
ATOM     60  C   UNL A   1      39.743  34.577  31.940  1.00  0.00     0.031 C 
ATOM     61  C   UNL A   1      41.936  33.641  32.616  1.00  0.00     0.031 A 
BRANCH  48  62
ATOM     62  C   UNL A   1      45.495  28.603  32.205  1.00  0.00    -0.014 A 
ATOM     63  C   UNL A   1      45.563  27.799  33.355  1.00  0.00     0.009 A 
ATOM     64  C   UNL A   1      46.641  28.741  31.407  1.00  0.00     0.009 A 
ATOM     65  C   UNL A   1      46.765  27.192  33.726  1.00  0.00     0.001 A 
ATOM     66  C   UNL A   1      47.832  28.104  31.761  1.00  0.00     0.001 A 
ATOM     67  C   UNL A   1      47.896  27.341  32.926  1.00  0.00     0.000 A 
ENDBRANCH  48  62
BRANCH  49  68
ATOM     68  C   UNL A   1      36.733  32.691  29.676  1.00  0.00    -0.014 A 
ATOM     69  C   UNL A   1      35.647  32.592  30.562  1.00  0.00     0.009 A 
ATOM     70  C   UNL A   1      36.557  33.373  28.463  1.00  0.00     0.009 A 
ATOM     71  C   UNL A   1      34.405  33.138  30.226  1.00  0.00     0.001 A 
ATOM     72  C   UNL A   1      35.321  33.941  28.142  1.00  0.00     0.001 A 
ATOM     73  C   UNL A   1      34.244  33.815  29.018  1.00  0.00     0.000 A 
ENDBRANCH  49  68
BRANCH  61  74
ATOM     74  C   UNL A   1      42.233  34.953  33.282  1.00  0.00    -0.014 A 
ATOM     75  C   UNL A   1      43.031  35.923  32.657  1.00  0.00     0.009 A 
ATOM     76  C   UNL A   1      41.676  35.232  34.540  1.00  0.00     0.009 A 
ATOM     77  C   UNL A   1      43.296  37.134  33.297  1.00  0.00     0.001 A 
ATOM     78  C   UNL A   1      41.919  36.455  35.165  1.00  0.00     0.001 A 
ATOM     79  C   UNL A   1      42.736  37.401  34.548  1.00  0.00     0.000 A 
ENDBRANCH  61  74
ENDBRANCH  35  36
ENDBRANCH  27  30
ENDBRANCH  25  26
ENDBRANCH  24  25
ENDBRANCH   1  24
TORSDOF 14
ENDMDL
MODEL 2
REMARK VINA RESULT:     -11.0      2.597      7.107
REMARK SMILES CC[C@H](C)c1ccccc1Oc1cccc(F)c1C(=O)NCCCNC(=O)c1ccc(-c2c3nc(c(-c4ccccc4)c4ccc([nH]4)c(-c4ccccc4)c4nc(c(-c5ccccc5)c5ccc2[nH]5)C=C4)C=C3)cc1
REMARK SMILES IDX 22 1 21 2 19 3 20 4 18 6 12 7 13 8 14 9 16 10 15 11 17 12
REMARK SMILES IDX 11 13 10 14 5 15 6 16 7 17 9 18 8 19 3 20 4 21 2 22 1 23
REMARK SMILES IDX 23 24 24 25 25 26 26 27 27 29 28 30 29 31 75 32 30 33 74 34
REMARK SMILES IDX 31 35 32 36 33 37 68 38 34 39 73 40 67 41 69 42 35 43 72 44
REMARK SMILES IDX 66 45 65 46 36 48 58 49 43 50 57 51 44 52 47 53 56 54 70 55
REMARK SMILES IDX 45 56 46 57 55 59 71 60 48 61 37 62 38 63 42 64 39 65 41 66
REMARK SMILES IDX 40 67 59 68 60 69 64 70 61 71 63 72 62 73 49 74 50 75 54 76
REMARK SMILES IDX 51 77 53 78 52 79
REMARK H PARENT 21 5 25 28 69 47 47 58
REMARK Flexibility Score: inf
ROOT
ATOM      1  C   UNL A   1      37.043  22.418  24.529  1.00  0.00     0.118 C 
ENDROOT
BRANCH   1   2
ATOM      2  N   UNL A   1      36.180  22.756  25.622  1.00  0.00    -0.352 N 
ATOM      3  C   UNL A   1      34.897  23.230  25.612  1.00  0.00     0.258 C 
ATOM      4  O   UNL A   1      34.317  23.205  26.701  1.00  0.00    -0.269 OA
ATOM      5  H   UNL A   1      36.570  22.628  26.518  1.00  0.00     0.163 HD
BRANCH   3   6
ATOM      6  C   UNL A   1      34.185  23.787  24.426  1.00  0.00     0.118 A 
ATOM      7  C   UNL A   1      34.004  25.126  24.027  1.00  0.00     0.143 A 
ATOM      8  C   UNL A   1      33.308  25.402  22.826  1.00  0.00     0.048 A 
ATOM      9  C   UNL A   1      32.863  24.393  21.978  1.00  0.00     0.007 A 
ATOM     10  C   UNL A   1      33.722  22.784  23.540  1.00  0.00     0.139 A 
ATOM     11  C   UNL A   1      33.080  23.075  22.336  1.00  0.00     0.040 A 
ATOM     12  F   UNL A   1      33.846  21.481  23.840  1.00  0.00    -0.206 F 
BRANCH   7  13
ATOM     13  O   UNL A   1      34.135  26.265  24.768  1.00  0.00    -0.456 OA
BRANCH  13  14
ATOM     14  C   UNL A   1      33.254  26.820  25.659  1.00  0.00     0.130 A 
ATOM     15  C   UNL A   1      31.901  26.597  25.937  1.00  0.00    -0.002 A 
ATOM     16  C   UNL A   1      31.272  27.508  26.833  1.00  0.00     0.008 A 
ATOM     17  C   UNL A   1      31.957  28.542  27.475  1.00  0.00     0.001 A 
ATOM     18  C   UNL A   1      33.950  27.819  26.393  1.00  0.00     0.047 A 
ATOM     19  C   UNL A   1      33.315  28.684  27.275  1.00  0.00     0.004 A 
BRANCH  15  20
ATOM     20  C   UNL A   1      31.027  25.431  25.491  1.00  0.00     0.019 C 
ATOM     21  C   UNL A   1      31.062  24.213  26.406  1.00  0.00     0.013 C 
BRANCH  20  22
ATOM     22  C   UNL A   1      29.644  25.916  25.009  1.00  0.00     0.005 C 
ATOM     23  C   UNL A   1      29.643  26.685  23.698  1.00  0.00     0.004 C 
ENDBRANCH  20  22
ENDBRANCH  15  20
ENDBRANCH  13  14
ENDBRANCH   7  13
ENDBRANCH   3   6
ENDBRANCH   1   2
BRANCH   1  24
ATOM     24  C   UNL A   1      37.736  21.081  24.653  1.00  0.00     0.042 C 
BRANCH  24  25
ATOM     25  C   UNL A   1      38.672  21.016  25.852  1.00  0.00     0.118 C 
BRANCH  25  26
ATOM     26  N   UNL A   1      39.633  19.911  25.795  1.00  0.00    -0.352 N 
ATOM     27  C   UNL A   1      40.982  19.862  26.070  1.00  0.00     0.251 C 
ATOM     28  H   UNL A   1      39.246  19.052  25.510  1.00  0.00     0.163 HD
ATOM     29  O   UNL A   1      41.628  18.847  25.819  1.00  0.00    -0.269 OA
BRANCH  27  30
ATOM     30  C   UNL A   1      41.671  21.051  26.616  1.00  0.00     0.039 A 
ATOM     31  C   UNL A   1      42.295  21.951  25.748  1.00  0.00     0.014 A 
ATOM     32  C   UNL A   1      41.660  21.306  27.984  1.00  0.00     0.014 A 
ATOM     33  C   UNL A   1      42.790  23.160  26.246  1.00  0.00     0.010 A 
ATOM     34  C   UNL A   1      42.003  22.566  28.449  1.00  0.00     0.010 A 
ATOM     35  C   UNL A   1      42.587  23.507  27.590  1.00  0.00    -0.014 A 
BRANCH  35  36
ATOM     36  C   UNL A   1      42.992  24.825  28.143  1.00  0.00     0.031 A 
ATOM     37  C   UNL A   1      41.943  25.874  28.420  1.00  0.00     0.074 A 
ATOM     38  C   UNL A   1      44.299  25.122  28.296  1.00  0.00     0.049 A 
ATOM     39  N   UNL A   1      42.096  27.123  28.778  1.00  0.00    -0.248 NA
ATOM     40  C   UNL A   1      40.538  25.480  28.214  1.00  0.00     0.031 C 
ATOM     41  C   UNL A   1      45.420  24.229  27.992  1.00  0.00     0.029 A 
ATOM     42  N   UNL A   1      44.905  26.269  28.743  1.00  0.00    -0.354 N 
ATOM     43  C   UNL A   1      40.818  27.669  28.789  1.00  0.00     0.074 A 
ATOM     44  C   UNL A   1      39.912  26.638  28.336  1.00  0.00     0.031 C 
ATOM     45  C   UNL A   1      46.572  24.843  28.306  1.00  0.00     0.029 A 
ATOM     46  C   UNL A   1      46.276  26.185  28.792  1.00  0.00     0.049 A 
ATOM     47  H   UNL A   1      44.405  27.076  29.004  1.00  0.00     0.167 HD
ATOM     48  C   UNL A   1      40.422  28.904  29.173  1.00  0.00     0.031 A 
ATOM     49  C   UNL A   1      47.191  27.089  29.190  1.00  0.00     0.031 A 
ATOM     50  C   UNL A   1      41.315  29.908  29.681  1.00  0.00     0.049 A 
ATOM     51  C   UNL A   1      46.725  28.434  29.675  1.00  0.00     0.074 A 
ATOM     52  C   UNL A   1      41.012  31.162  30.180  1.00  0.00     0.029 A 
ATOM     53  N   UNL A   1      42.690  29.761  29.769  1.00  0.00    -0.354 N 
ATOM     54  N   UNL A   1      45.505  28.909  29.746  1.00  0.00    -0.248 NA
ATOM     55  C   UNL A   1      47.762  29.359  30.151  1.00  0.00     0.031 C 
ATOM     56  C   UNL A   1      42.210  31.787  30.540  1.00  0.00     0.029 A 
ATOM     57  C   UNL A   1      43.253  30.904  30.308  1.00  0.00     0.049 A 
ATOM     58  H   UNL A   1      43.193  28.961  29.490  1.00  0.00     0.167 HD
ATOM     59  C   UNL A   1      45.625  30.176  30.297  1.00  0.00     0.074 A 
ATOM     60  C   UNL A   1      47.034  30.388  30.560  1.00  0.00     0.031 C 
ATOM     61  C   UNL A   1      44.657  31.088  30.563  1.00  0.00     0.031 A 
BRANCH  48  62
ATOM     62  C   UNL A   1      38.955  29.222  29.070  1.00  0.00    -0.014 A 
ATOM     63  C   UNL A   1      38.094  29.054  30.167  1.00  0.00     0.009 A 
ATOM     64  C   UNL A   1      38.426  29.699  27.861  1.00  0.00     0.009 A 
ATOM     65  C   UNL A   1      36.726  29.306  30.041  1.00  0.00     0.001 A 
ATOM     66  C   UNL A   1      37.064  29.983  27.747  1.00  0.00     0.001 A 
ATOM     67  C   UNL A   1      36.214  29.774  28.832  1.00  0.00     0.000 A 
ENDBRANCH  48  62
BRANCH  49  68
ATOM     68  C   UNL A   1      48.636  26.739  29.193  1.00  0.00    -0.014 A 
ATOM     69  C   UNL A   1      49.433  27.022  28.072  1.00  0.00     0.009 A 
ATOM     70  C   UNL A   1      49.227  26.125  30.307  1.00  0.00     0.009 A 
ATOM     71  C   UNL A   1      50.785  26.670  28.056  1.00  0.00     0.001 A 
ATOM     72  C   UNL A   1      50.586  25.799  30.298  1.00  0.00     0.001 A 
ATOM     73  C   UNL A   1      51.361  26.062  29.169  1.00  0.00     0.000 A 
ENDBRANCH  49  68
BRANCH  61  74
ATOM     74  C   UNL A   1      45.090  32.376  31.200  1.00  0.00    -0.014 A 
ATOM     75  C   UNL A   1      45.170  32.509  32.594  1.00  0.00     0.009 A 
ATOM     76  C   UNL A   1      45.456  33.461  30.388  1.00  0.00     0.009 A 
ATOM     77  C   UNL A   1      45.573  33.717  33.164  1.00  0.00     0.001 A 
ATOM     78  C   UNL A   1      45.886  34.658  30.959  1.00  0.00     0.001 A 
ATOM     79  C   UNL A   1      45.935  34.789  32.346  1.00  0.00     0.000 A 
ENDBRANCH  61  74
ENDBRANCH  35  36
ENDBRANCH  27  30
ENDBRANCH  25  26
ENDBRANCH  24  25
ENDBRANCH   1  24
TORSDOF 14
ENDMDL
MODEL 3
REMARK VINA RESULT:     -11.0      2.398      7.743
REMARK SMILES CC[C@H](C)c1ccccc1Oc1cccc(F)c1C(=O)NCCCNC(=O)c1ccc(-c2c3nc(c(-c4ccccc4)c4ccc([nH]4)c(-c4ccccc4)c4nc(c(-c5ccccc5)c5ccc2[nH]5)C=C4)C=C3)cc1
REMARK SMILES IDX 22 1 21 2 19 3 20 4 18 6 12 7 13 8 14 9 16 10 15 11 17 12
REMARK SMILES IDX 11 13 10 14 5 15 6 16 7 17 9 18 8 19 3 20 4 21 2 22 1 23
REMARK SMILES IDX 23 24 24 25 25 26 26 27 27 29 28 30 29 31 75 32 30 33 74 34
REMARK SMILES IDX 31 35 32 36 33 37 68 38 34 39 73 40 67 41 69 42 35 43 72 44
REMARK SMILES IDX 66 45 65 46 36 48 58 49 43 50 57 51 44 52 47 53 56 54 70 55
REMARK SMILES IDX 45 56 46 57 55 59 71 60 48 61 37 62 38 63 42 64 39 65 41 66
REMARK SMILES IDX 40 67 59 68 60 69 64 70 61 71 63 72 62 73 49 74 50 75 54 76
REMARK SMILES IDX 51 77 53 78 52 79
REMARK H PARENT 21 5 25 28 69 47 47 58
REMARK Flexibility Score: inf
ROOT
ATOM      1  C   UNL A   1      33.414  28.230  24.839  1.00  0.00     0.118 C 
ENDROOT
BRANCH   1   2
ATOM      2  N   UNL A   1      33.950  27.182  24.021  1.00  0.00    -0.352 N 
ATOM      3  C   UNL A   1      33.578  25.870  23.922  1.00  0.00     0.258 C 
ATOM      4  O   UNL A   1      34.057  25.258  22.963  1.00  0.00    -0.269 OA
ATOM      5  H   UNL A   1      34.702  27.447  23.443  1.00  0.00     0.163 HD
BRANCH   3   6
ATOM      6  C   UNL A   1      32.691  25.143  24.875  1.00  0.00     0.118 A 
ATOM      7  C   UNL A   1      33.011  24.455  26.061  1.00  0.00     0.143 A 
ATOM      8  C   UNL A   1      31.972  23.866  26.820  1.00  0.00     0.048 A 
ATOM      9  C   UNL A   1      30.631  24.008  26.479  1.00  0.00     0.007 A 
ATOM     10  C   UNL A   1      31.317  25.273  24.557  1.00  0.00     0.139 A 
ATOM     11  C   UNL A   1      30.303  24.725  25.343  1.00  0.00     0.040 A 
ATOM     12  F   UNL A   1      30.919  25.907  23.442  1.00  0.00    -0.206 F 
BRANCH   7  13
ATOM     13  O   UNL A   1      34.223  23.988  26.480  1.00  0.00    -0.456 OA
BRANCH  13  14
ATOM     14  C   UNL A   1      35.120  23.196  25.812  1.00  0.00     0.130 A 
ATOM     15  C   UNL A   1      35.016  21.954  25.178  1.00  0.00    -0.002 A 
ATOM     16  C   UNL A   1      36.231  21.357  24.734  1.00  0.00     0.008 A 
ATOM     17  C   UNL A   1      37.474  21.983  24.848  1.00  0.00     0.001 A 
ATOM     18  C   UNL A   1      36.380  23.853  25.834  1.00  0.00     0.047 A 
ATOM     19  C   UNL A   1      37.549  23.255  25.378  1.00  0.00     0.004 A 
BRANCH  15  20
ATOM     20  C   UNL A   1      33.752  21.194  24.793  1.00  0.00     0.019 C 
ATOM     21  C   UNL A   1      32.975  21.788  23.624  1.00  0.00     0.013 C 
BRANCH  20  22
ATOM     22  C   UNL A   1      33.991  19.670  24.784  1.00  0.00     0.005 C 
ATOM     23  C   UNL A   1      32.829  18.825  25.279  1.00  0.00     0.004 C 
ENDBRANCH  20  22
ENDBRANCH  15  20
ENDBRANCH  13  14
ENDBRANCH   7  13
ENDBRANCH   3   6
ENDBRANCH   1   2
BRANCH   1  24
ATOM     24  C   UNL A   1      34.095  28.411  26.175  1.00  0.00     0.042 C 
BRANCH  24  25
ATOM     25  C   UNL A   1      33.140  28.895  27.257  1.00  0.00     0.118 C 
BRANCH  25  26
ATOM     26  N   UNL A   1      33.349  30.293  27.651  1.00  0.00    -0.352 N 
ATOM     27  C   UNL A   1      34.446  30.934  28.182  1.00  0.00     0.251 C 
ATOM     28  H   UNL A   1      32.568  30.874  27.510  1.00  0.00     0.163 HD
ATOM     29  O   UNL A   1      34.354  32.098  28.569  1.00  0.00    -0.269 OA
BRANCH  27  30
ATOM     30  C   UNL A   1      35.724  30.210  28.341  1.00  0.00     0.039 A 
ATOM     31  C   UNL A   1      36.682  30.261  27.324  1.00  0.00     0.014 A 
ATOM     32  C   UNL A   1      36.002  29.518  29.516  1.00  0.00     0.014 A 
ATOM     33  C   UNL A   1      37.955  29.727  27.547  1.00  0.00     0.010 A 
ATOM     34  C   UNL A   1      37.305  29.136  29.795  1.00  0.00     0.010 A 
ATOM     35  C   UNL A   1      38.297  29.220  28.810  1.00  0.00    -0.014 A 
BRANCH  35  36
ATOM     36  C   UNL A   1      39.668  28.745  29.132  1.00  0.00     0.031 A 
ATOM     37  C   UNL A   1      40.630  29.665  29.843  1.00  0.00     0.074 A 
ATOM     38  C   UNL A   1      40.085  27.538  28.699  1.00  0.00     0.049 A 
ATOM     39  N   UNL A   1      41.902  29.494  30.101  1.00  0.00    -0.248 NA
ATOM     40  C   UNL A   1      40.105  30.974  30.272  1.00  0.00     0.031 C 
ATOM     41  C   UNL A   1      39.284  26.580  27.933  1.00  0.00     0.029 A 
ATOM     42  N   UNL A   1      41.299  26.912  28.838  1.00  0.00    -0.354 N 
ATOM     43  C   UNL A   1      42.331  30.687  30.671  1.00  0.00     0.074 A 
ATOM     44  C   UNL A   1      41.207  31.594  30.658  1.00  0.00     0.031 C 
ATOM     45  C   UNL A   1      40.010  25.473  27.713  1.00  0.00     0.029 A 
ATOM     46  C   UNL A   1      41.339  25.656  28.282  1.00  0.00     0.049 A 
ATOM     47  H   UNL A   1      42.068  27.325  29.294  1.00  0.00     0.167 HD
ATOM     48  C   UNL A   1      43.542  30.994  31.192  1.00  0.00     0.031 A 
ATOM     49  C   UNL A   1      42.336  24.752  28.242  1.00  0.00     0.031 A 
ATOM     50  C   UNL A   1      44.641  30.071  31.261  1.00  0.00     0.049 A 
ATOM     51  C   UNL A   1      43.653  25.089  28.885  1.00  0.00     0.074 A 
ATOM     52  C   UNL A   1      45.882  30.248  31.844  1.00  0.00     0.029 A 
ATOM     53  N   UNL A   1      44.620  28.788  30.738  1.00  0.00    -0.354 N 
ATOM     54  N   UNL A   1      44.020  26.196  29.484  1.00  0.00    -0.248 NA
ATOM     55  C   UNL A   1      44.685  24.044  28.861  1.00  0.00     0.031 C 
ATOM     56  C   UNL A   1      46.625  29.080  31.646  1.00  0.00     0.029 A 
ATOM     57  C   UNL A   1      45.829  28.162  30.979  1.00  0.00     0.049 A 
ATOM     58  H   UNL A   1      43.857  28.382  30.265  1.00  0.00     0.167 HD
ATOM     59  C   UNL A   1      45.315  25.972  29.930  1.00  0.00     0.074 A 
ATOM     60  C   UNL A   1      45.661  24.618  29.550  1.00  0.00     0.031 C 
ATOM     61  C   UNL A   1      46.147  26.812  30.594  1.00  0.00     0.031 A 
BRANCH  48  62
ATOM     62  C   UNL A   1      43.724  32.383  31.742  1.00  0.00    -0.014 A 
ATOM     63  C   UNL A   1      44.188  33.432  30.931  1.00  0.00     0.009 A 
ATOM     64  C   UNL A   1      43.427  32.648  33.087  1.00  0.00     0.009 A 
ATOM     65  C   UNL A   1      44.400  34.703  31.468  1.00  0.00     0.001 A 
ATOM     66  C   UNL A   1      43.607  33.928  33.613  1.00  0.00     0.001 A 
ATOM     67  C   UNL A   1      44.105  34.951  32.808  1.00  0.00     0.000 A 
ENDBRANCH  48  62
BRANCH  49  68
ATOM     68  C   UNL A   1      42.116  23.424  27.612  1.00  0.00    -0.014 A 
ATOM     69  C   UNL A   1      42.426  23.226  26.257  1.00  0.00     0.009 A 
ATOM     70  C   UNL A   1      41.599  22.351  28.352  1.00  0.00     0.009 A 
ATOM     71  C   UNL A   1      42.195  21.988  25.650  1.00  0.00     0.001 A 
ATOM     72  C   UNL A   1      41.395  21.107  27.749  1.00  0.00     0.001 A 
ATOM     73  C   UNL A   1      41.683  20.930  26.397  1.00  0.00     0.000 A 
ENDBRANCH  49  68
BRANCH  61  74
ATOM     74  C   UNL A   1      47.494  26.273  30.981  1.00  0.00    -0.014 A 
ATOM     75  C   UNL A   1      47.734  25.764  32.266  1.00  0.00     0.009 A 
ATOM     76  C   UNL A   1      48.526  26.243  30.030  1.00  0.00     0.009 A 
ATOM     77  C   UNL A   1      48.994  25.270  32.603  1.00  0.00     0.001 A 
ATOM     78  C   UNL A   1      49.776  25.722  30.360  1.00  0.00     0.001 A 
ATOM     79  C   UNL A   1      50.013  25.245  31.649  1.00  0.00     0.000 A 
ENDBRANCH  61  74
ENDBRANCH  35  36
ENDBRANCH  27  30
ENDBRANCH  25  26
ENDBRANCH  24  25
ENDBRANCH   1  24
TORSDOF 14
ENDMDL
