MODEL 1
REMARK VINA RESULT:     -11.7      0.000      0.000
REMARK SMILES CC[N@@H+](C)Cc1cc2c(cc1Cl)C=C(C(=O)NCCCNC(=O)c1ccc(-c3c4nc(c(-c5ccccc5)c5ccc([nH]5)c(-c5ccccc5)c5nc(c(-c6ccccc6)c6ccc3[nH]6)C=C5)C=C4)cc1)[C@@H](C(F)(F)F)O2
REMARK SMILES IDX 18 1 17 2 15 3 16 4 14 6 6 7 7 8 11 9 8 10 10 11 12 12 9 13
REMARK SMILES IDX 77 14 13 15 72 16 5 17 3 18 4 19 2 21 1 22 73 23 74 24 75 25
REMARK SMILES IDX 76 26 19 27 20 28 21 29 22 30 23 32 24 33 25 34 71 35 26 36
REMARK SMILES IDX 70 37 27 38 28 39 29 40 64 41 30 42 69 43 63 44 65 45 31 46
REMARK SMILES IDX 68 47 62 48 61 49 32 51 54 52 39 53 53 54 40 55 43 56 52 57
REMARK SMILES IDX 66 58 41 59 42 60 51 62 67 63 44 64 33 65 34 66 38 67 35 68
REMARK SMILES IDX 37 69 36 70 55 71 56 72 60 73 57 74 59 75 58 76 45 77 46 78
REMARK SMILES IDX 50 79 47 80 49 81 48 82
REMARK H PARENT 17 5 3 20 21 31 65 50 43 61
REMARK Flexibility Score: inf
ROOT
ATOM      1  C   UNL A   1      36.428  20.692  25.102  1.00  0.00     0.118 C 
ENDROOT
BRANCH   1   2
ATOM      2  N   UNL A   1      35.356  19.713  25.001  1.00  0.00    -0.352 N 
ATOM      3  C   UNL A   1      34.004  19.723  24.936  1.00  0.00     0.251 C 
ATOM      4  O   UNL A   1      33.473  18.609  24.879  1.00  0.00    -0.270 OA
ATOM      5  H   UNL A   1      35.710  18.794  24.973  1.00  0.00     0.163 HD
BRANCH   3   6
ATOM      6  C   UNL A   1      33.155  20.947  24.930  1.00  0.00     0.067 C 
ATOM      7  C   UNL A   1      30.842  25.265  23.783  1.00  0.00     0.029 A 
ATOM      8  C   UNL A   1      30.670  24.286  24.776  1.00  0.00     0.058 A 
ATOM      9  C   UNL A   1      31.694  24.962  22.704  1.00  0.00     0.050 A 
ATOM     10  C   UNL A   1      31.416  23.115  24.757  1.00  0.00     0.128 A 
ATOM     11  C   UNL A   1      32.408  23.755  22.667  1.00  0.00     0.033 A 
ATOM     12  Cl  UNL A   1      31.916  26.041  21.372  1.00  0.00    -0.084 Cl
ATOM     13  C   UNL A   1      32.294  22.840  23.713  1.00  0.00     0.019 A 
ATOM     14  O   UNL A   1      31.252  22.263  25.814  1.00  0.00    -0.475 OA
ATOM     15  C   UNL A   1      33.069  21.604  23.755  1.00  0.00     0.025 C 
ATOM     16  C   UNL A   1      32.440  21.487  26.136  1.00  0.00     0.314 C 
BRANCH   7  17
ATOM     17  C   UNL A   1      30.136  26.597  23.958  1.00  0.00     0.300 C 
BRANCH  17  18
ATOM     18  N   UNL A   1      30.993  27.772  24.223  1.00  0.00    -0.334 N 
ATOM     19  C   UNL A   1      31.403  27.853  25.625  1.00  0.00     0.333 C 
ATOM     20  H   UNL A   1      31.809  27.589  23.637  1.00  0.00     0.348 HD
BRANCH  18  21
ATOM     21  C   UNL A   1      30.483  29.068  23.760  1.00  0.00     0.258 C 
ATOM     22  C   UNL A   1      29.345  28.956  22.751  1.00  0.00     0.071 C 
ENDBRANCH  18  21
ENDBRANCH  17  18
ENDBRANCH   7  17
BRANCH  16  23
ATOM     23  C   UNL A   1      33.363  22.299  27.070  1.00  0.00     0.429 C 
ATOM     24  F   UNL A   1      32.622  23.055  27.920  1.00  0.00    -0.167 F 
ATOM     25  F   UNL A   1      34.144  21.507  27.841  1.00  0.00    -0.167 F 
ATOM     26  F   UNL A   1      34.190  23.133  26.404  1.00  0.00    -0.167 F 
ENDBRANCH  16  23
ENDBRANCH   3   6
ENDBRANCH   1   2
BRANCH   1  27
ATOM     27  C   UNL A   1      37.779  20.095  24.737  1.00  0.00     0.042 C 
BRANCH  27  28
ATOM     28  C   UNL A   1      38.860  20.449  25.750  1.00  0.00     0.118 C 
BRANCH  28  29
ATOM     29  N   UNL A   1      39.915  19.439  25.806  1.00  0.00    -0.352 N 
ATOM     30  C   UNL A   1      41.259  19.567  26.062  1.00  0.00     0.251 C 
ATOM     31  H   UNL A   1      39.614  18.518  25.632  1.00  0.00     0.163 HD
ATOM     32  O   UNL A   1      42.016  18.625  25.843  1.00  0.00    -0.269 OA
BRANCH  30  33
ATOM     33  C   UNL A   1      41.797  20.841  26.579  1.00  0.00     0.039 A 
ATOM     34  C   UNL A   1      41.888  21.061  27.953  1.00  0.00     0.014 A 
ATOM     35  C   UNL A   1      42.210  21.831  25.681  1.00  0.00     0.014 A 
ATOM     36  C   UNL A   1      42.193  22.328  28.425  1.00  0.00     0.010 A 
ATOM     37  C   UNL A   1      42.625  23.075  26.165  1.00  0.00     0.010 A 
ATOM     38  C   UNL A   1      42.564  23.351  27.539  1.00  0.00    -0.014 A 
BRANCH  38  39
ATOM     39  C   UNL A   1      42.877  24.696  28.086  1.00  0.00     0.031 A 
ATOM     40  C   UNL A   1      44.303  25.137  28.280  1.00  0.00     0.074 A 
ATOM     41  C   UNL A   1      41.867  25.555  28.325  1.00  0.00     0.049 A 
ATOM     42  N   UNL A   1      44.755  26.295  28.693  1.00  0.00    -0.248 NA
ATOM     43  C   UNL A   1      45.361  24.159  27.974  1.00  0.00     0.031 C 
ATOM     44  C   UNL A   1      40.444  25.249  28.151  1.00  0.00     0.029 A 
ATOM     45  N   UNL A   1      41.877  26.869  28.718  1.00  0.00    -0.354 N 
ATOM     46  C   UNL A   1      46.139  26.176  28.720  1.00  0.00     0.074 A 
ATOM     47  C   UNL A   1      46.457  24.828  28.305  1.00  0.00     0.031 C 
ATOM     48  C   UNL A   1      39.728  26.363  28.352  1.00  0.00     0.029 A 
ATOM     49  C   UNL A   1      40.627  27.440  28.749  1.00  0.00     0.049 A 
ATOM     50  H   UNL A   1      42.698  27.356  28.954  1.00  0.00     0.167 HD
ATOM     51  C   UNL A   1      47.060  27.110  29.053  1.00  0.00     0.031 A 
ATOM     52  C   UNL A   1      40.240  28.690  29.066  1.00  0.00     0.031 A 
ATOM     53  C   UNL A   1      46.741  28.457  29.447  1.00  0.00     0.049 A 
ATOM     54  C   UNL A   1      41.279  29.696  29.463  1.00  0.00     0.074 A 
ATOM     55  C   UNL A   1      47.608  29.477  29.796  1.00  0.00     0.029 A 
ATOM     56  N   UNL A   1      45.458  28.971  29.537  1.00  0.00    -0.354 N 
ATOM     57  N   UNL A   1      42.583  29.560  29.496  1.00  0.00    -0.248 NA
ATOM     58  C   UNL A   1      40.798  31.020  29.876  1.00  0.00     0.031 C 
ATOM     59  C   UNL A   1      46.848  30.595  30.146  1.00  0.00     0.029 A 
ATOM     60  C   UNL A   1      45.510  30.290  29.955  1.00  0.00     0.049 A 
ATOM     61  H   UNL A   1      44.632  28.475  29.332  1.00  0.00     0.167 HD
ATOM     62  C   UNL A   1      43.079  30.782  29.927  1.00  0.00     0.074 A 
ATOM     63  C   UNL A   1      41.938  31.654  30.119  1.00  0.00     0.031 C 
ATOM     64  C   UNL A   1      44.365  31.143  30.148  1.00  0.00     0.031 A 
BRANCH  51  65
ATOM     65  C   UNL A   1      48.511  26.714  29.026  1.00  0.00    -0.014 A 
ATOM     66  C   UNL A   1      49.104  26.166  30.174  1.00  0.00     0.009 A 
ATOM     67  C   UNL A   1      49.313  26.963  27.901  1.00  0.00     0.009 A 
ATOM     68  C   UNL A   1      50.471  25.885  30.204  1.00  0.00     0.001 A 
ATOM     69  C   UNL A   1      50.676  26.656  27.924  1.00  0.00     0.001 A 
ATOM     70  C   UNL A   1      51.255  26.127  29.077  1.00  0.00     0.000 A 
ENDBRANCH  51  65
BRANCH  52  71
ATOM     71  C   UNL A   1      38.797  29.041  29.011  1.00  0.00    -0.014 A 
ATOM     72  C   UNL A   1      38.231  29.547  27.828  1.00  0.00     0.009 A 
ATOM     73  C   UNL A   1      37.992  28.934  30.155  1.00  0.00     0.009 A 
ATOM     74  C   UNL A   1      36.902  29.970  27.800  1.00  0.00     0.001 A 
ATOM     75  C   UNL A   1      36.653  29.328  30.115  1.00  0.00     0.001 A 
ATOM     76  C   UNL A   1      36.112  29.856  28.943  1.00  0.00     0.000 A 
ENDBRANCH  52  71
BRANCH  64  77
ATOM     77  C   UNL A   1      44.625  32.547  30.616  1.00  0.00    -0.014 A 
ATOM     78  C   UNL A   1      44.657  32.827  31.991  1.00  0.00     0.009 A 
ATOM     79  C   UNL A   1      44.737  33.603  29.700  1.00  0.00     0.009 A 
ATOM     80  C   UNL A   1      44.781  34.142  32.441  1.00  0.00     0.001 A 
ATOM     81  C   UNL A   1      44.889  34.914  30.154  1.00  0.00     0.001 A 
ATOM     82  C   UNL A   1      44.901  35.183  31.522  1.00  0.00     0.000 A 
ENDBRANCH  64  77
ENDBRANCH  38  39
ENDBRANCH  30  33
ENDBRANCH  28  29
ENDBRANCH  27  28
ENDBRANCH   1  27
TORSDOF 14
ENDMDL
MODEL 2
REMARK VINA RESULT:     -11.6      0.336      5.848
REMARK SMILES CC[N@@H+](C)Cc1cc2c(cc1Cl)C=C(C(=O)NCCCNC(=O)c1ccc(-c3c4nc(c(-c5ccccc5)c5ccc([nH]5)c(-c5ccccc5)c5nc(c(-c6ccccc6)c6ccc3[nH]6)C=C5)C=C4)cc1)[C@@H](C(F)(F)F)O2
REMARK SMILES IDX 18 1 17 2 15 3 16 4 14 6 6 7 7 8 11 9 8 10 10 11 12 12 9 13
REMARK SMILES IDX 77 14 13 15 72 16 5 17 3 18 4 19 2 21 1 22 73 23 74 24 75 25
REMARK SMILES IDX 76 26 19 27 20 28 21 29 22 30 23 32 24 33 25 34 71 35 26 36
REMARK SMILES IDX 70 37 27 38 28 39 29 40 64 41 30 42 69 43 63 44 65 45 31 46
REMARK SMILES IDX 68 47 62 48 61 49 32 51 54 52 39 53 53 54 40 55 43 56 52 57
REMARK SMILES IDX 66 58 41 59 42 60 51 62 67 63 44 64 33 65 34 66 38 67 35 68
REMARK SMILES IDX 37 69 36 70 55 71 56 72 60 73 57 74 59 75 58 76 45 77 46 78
REMARK SMILES IDX 50 79 47 80 49 81 48 82
REMARK H PARENT 17 5 3 20 21 31 65 50 43 61
REMARK Flexibility Score: inf
ROOT
ATOM      1  C   UNL A   1      36.436  20.654  25.165  1.00  0.00     0.118 C 
ENDROOT
BRANCH   1   2
ATOM      2  N   UNL A   1      35.355  19.696  24.988  1.00  0.00    -0.352 N 
ATOM      3  C   UNL A   1      34.006  19.729  24.885  1.00  0.00     0.251 C 
ATOM      4  O   UNL A   1      33.462  18.627  24.761  1.00  0.00    -0.270 OA
ATOM      5  H   UNL A   1      35.698  18.775  24.928  1.00  0.00     0.163 HD
BRANCH   3   6
ATOM      6  C   UNL A   1      33.174  20.964  24.912  1.00  0.00     0.067 C 
ATOM      7  C   UNL A   1      30.864  25.305  23.848  1.00  0.00     0.029 A 
ATOM      8  C   UNL A   1      30.728  24.335  24.856  1.00  0.00     0.058 A 
ATOM      9  C   UNL A   1      31.657  24.984  22.732  1.00  0.00     0.050 A 
ATOM     10  C   UNL A   1      31.456  23.154  24.809  1.00  0.00     0.128 A 
ATOM     11  C   UNL A   1      32.353  23.767  22.668  1.00  0.00     0.033 A 
ATOM     12  Cl  UNL A   1      31.827  26.051  21.383  1.00  0.00    -0.084 Cl
ATOM     13  C   UNL A   1      32.279  22.860  23.725  1.00  0.00     0.019 A 
ATOM     14  O   UNL A   1      31.334  22.311  25.878  1.00  0.00    -0.475 OA
ATOM     15  C   UNL A   1      33.039  21.615  23.738  1.00  0.00     0.025 C 
ATOM     16  C   UNL A   1      32.525  21.521  26.148  1.00  0.00     0.314 C 
BRANCH   7  17
ATOM     17  C   UNL A   1      30.184  26.648  24.048  1.00  0.00     0.300 C 
BRANCH  17  18
ATOM     18  N   UNL A   1      31.062  27.836  24.088  1.00  0.00    -0.334 N 
ATOM     19  C   UNL A   1      31.418  28.215  25.455  1.00  0.00     0.333 C 
ATOM     20  H   UNL A   1      31.895  27.514  23.594  1.00  0.00     0.348 HD
BRANCH  18  21
ATOM     21  C   UNL A   1      30.607  29.007  23.330  1.00  0.00     0.258 C 
ATOM     22  C   UNL A   1      29.187  28.876  22.789  1.00  0.00     0.071 C 
ENDBRANCH  18  21
ENDBRANCH  17  18
ENDBRANCH   7  17
BRANCH  16  23
ATOM     23  C   UNL A   1      33.503  22.327  27.029  1.00  0.00     0.429 C 
ATOM     24  F   UNL A   1      34.302  21.486  27.734  1.00  0.00    -0.167 F 
ATOM     25  F   UNL A   1      34.325  23.117  26.300  1.00  0.00    -0.167 F 
ATOM     26  F   UNL A   1      32.878  23.130  27.918  1.00  0.00    -0.167 F 
ENDBRANCH  16  23
ENDBRANCH   3   6
ENDBRANCH   1   2
BRANCH   1  27
ATOM     27  C   UNL A   1      37.787  20.063  24.791  1.00  0.00     0.042 C 
BRANCH  27  28
ATOM     28  C   UNL A   1      38.893  20.496  25.745  1.00  0.00     0.118 C 
BRANCH  28  29
ATOM     29  N   UNL A   1      39.930  19.477  25.886  1.00  0.00    -0.352 N 
ATOM     30  C   UNL A   1      41.270  19.601  26.166  1.00  0.00     0.251 C 
ATOM     31  H   UNL A   1      39.620  18.551  25.761  1.00  0.00     0.163 HD
ATOM     32  O   UNL A   1      42.017  18.637  26.022  1.00  0.00    -0.269 OA
BRANCH  30  33
ATOM     33  C   UNL A   1      41.815  20.896  26.618  1.00  0.00     0.039 A 
ATOM     34  C   UNL A   1      41.826  21.220  27.974  1.00  0.00     0.014 A 
ATOM     35  C   UNL A   1      42.318  21.800  25.677  1.00  0.00     0.014 A 
ATOM     36  C   UNL A   1      42.142  22.512  28.368  1.00  0.00     0.010 A 
ATOM     37  C   UNL A   1      42.742  23.067  26.091  1.00  0.00     0.010 A 
ATOM     38  C   UNL A   1      42.603  23.452  27.432  1.00  0.00    -0.014 A 
BRANCH  38  39
ATOM     39  C   UNL A   1      42.924  24.826  27.894  1.00  0.00     0.031 A 
ATOM     40  C   UNL A   1      41.830  25.828  28.153  1.00  0.00     0.074 A 
ATOM     41  C   UNL A   1      44.206  25.141  28.166  1.00  0.00     0.049 A 
ATOM     42  N   UNL A   1      41.930  27.051  28.611  1.00  0.00    -0.248 NA
ATOM     43  C   UNL A   1      40.448  25.410  27.862  1.00  0.00     0.031 C 
ATOM     44  C   UNL A   1      45.349  24.244  27.977  1.00  0.00     0.029 A 
ATOM     45  N   UNL A   1      44.760  26.277  28.699  1.00  0.00    -0.354 N 
ATOM     46  C   UNL A   1      40.635  27.553  28.639  1.00  0.00     0.074 A 
ATOM     47  C   UNL A   1      39.766  26.515  28.130  1.00  0.00     0.031 C 
ATOM     48  C   UNL A   1      46.451  24.830  28.466  1.00  0.00     0.029 A 
ATOM     49  C   UNL A   1      46.111  26.171  28.926  1.00  0.00     0.049 A 
ATOM     50  H   UNL A   1      44.240  27.088  28.900  1.00  0.00     0.167 HD
ATOM     51  C   UNL A   1      40.209  28.768  29.059  1.00  0.00     0.031 A 
ATOM     52  C   UNL A   1      46.987  27.055  29.441  1.00  0.00     0.031 A 
ATOM     53  C   UNL A   1      41.075  29.791  29.582  1.00  0.00     0.049 A 
ATOM     54  C   UNL A   1      46.494  28.405  29.868  1.00  0.00     0.074 A 
ATOM     55  C   UNL A   1      40.733  31.052  30.039  1.00  0.00     0.029 A 
ATOM     56  N   UNL A   1      42.447  29.670  29.725  1.00  0.00    -0.354 N 
ATOM     57  N   UNL A   1      45.267  28.867  29.873  1.00  0.00    -0.248 NA
ATOM     58  C   UNL A   1      47.501  29.359  30.349  1.00  0.00     0.031 C 
ATOM     59  C   UNL A   1      41.905  31.713  30.412  1.00  0.00     0.029 A 
ATOM     60  C   UNL A   1      42.970  30.841  30.246  1.00  0.00     0.049 A 
ATOM     61  H   UNL A   1      42.973  28.869  29.493  1.00  0.00     0.167 HD
ATOM     62  C   UNL A   1      45.352  30.162  30.362  1.00  0.00     0.074 A 
ATOM     63  C   UNL A   1      46.748  30.404  30.666  1.00  0.00     0.031 C 
ATOM     64  C   UNL A   1      44.362  31.069  30.538  1.00  0.00     0.031 A 
BRANCH  51  65
ATOM     65  C   UNL A   1      38.741  29.076  28.958  1.00  0.00    -0.014 A 
ATOM     66  C   UNL A   1      38.222  29.607  27.766  1.00  0.00     0.009 A 
ATOM     67  C   UNL A   1      37.888  28.929  30.063  1.00  0.00     0.009 A 
ATOM     68  C   UNL A   1      36.884  29.994  27.684  1.00  0.00     0.001 A 
ATOM     69  C   UNL A   1      36.543  29.293  29.970  1.00  0.00     0.001 A 
ATOM     70  C   UNL A   1      36.044  29.833  28.785  1.00  0.00     0.000 A 
ENDBRANCH  51  65
BRANCH  52  71
ATOM     71  C   UNL A   1      48.415  26.668  29.577  1.00  0.00    -0.014 A 
ATOM     72  C   UNL A   1      49.320  26.906  28.529  1.00  0.00     0.009 A 
ATOM     73  C   UNL A   1      48.869  26.002  30.725  1.00  0.00     0.009 A 
ATOM     74  C   UNL A   1      50.639  26.456  28.613  1.00  0.00     0.001 A 
ATOM     75  C   UNL A   1      50.197  25.581  30.820  1.00  0.00     0.001 A 
ATOM     76  C   UNL A   1      51.077  25.797  29.760  1.00  0.00     0.000 A 
ENDBRANCH  52  71
BRANCH  64  77
ATOM     77  C   UNL A   1      44.737  32.414  31.092  1.00  0.00    -0.014 A 
ATOM     78  C   UNL A   1      44.636  32.650  32.472  1.00  0.00     0.009 A 
ATOM     79  C   UNL A   1      45.091  33.470  30.241  1.00  0.00     0.009 A 
ATOM     80  C   UNL A   1      44.869  33.925  32.989  1.00  0.00     0.001 A 
ATOM     81  C   UNL A   1      45.350  34.738  30.766  1.00  0.00     0.001 A 
ATOM     82  C   UNL A   1      45.230  34.966  32.136  1.00  0.00     0.000 A 
ENDBRANCH  64  77
ENDBRANCH  38  39
ENDBRANCH  30  33
ENDBRANCH  28  29
ENDBRANCH  27  28
ENDBRANCH   1  27
TORSDOF 14
ENDMDL
MODEL 3
REMARK VINA RESULT:     -11.6      4.078      9.303
REMARK SMILES CC[N@@H+](C)Cc1cc2c(cc1Cl)C=C(C(=O)NCCCNC(=O)c1ccc(-c3c4nc(c(-c5ccccc5)c5ccc([nH]5)c(-c5ccccc5)c5nc(c(-c6ccccc6)c6ccc3[nH]6)C=C5)C=C4)cc1)[C@@H](C(F)(F)F)O2
REMARK SMILES IDX 18 1 17 2 15 3 16 4 14 6 6 7 7 8 11 9 8 10 10 11 12 12 9 13
REMARK SMILES IDX 77 14 13 15 72 16 5 17 3 18 4 19 2 21 1 22 73 23 74 24 75 25
REMARK SMILES IDX 76 26 19 27 20 28 21 29 22 30 23 32 24 33 25 34 71 35 26 36
REMARK SMILES IDX 70 37 27 38 28 39 29 40 64 41 30 42 69 43 63 44 65 45 31 46
REMARK SMILES IDX 68 47 62 48 61 49 32 51 54 52 39 53 53 54 40 55 43 56 52 57
REMARK SMILES IDX 66 58 41 59 42 60 51 62 67 63 44 64 33 65 34 66 38 67 35 68
REMARK SMILES IDX 37 69 36 70 55 71 56 72 60 73 57 74 59 75 58 76 45 77 46 78
REMARK SMILES IDX 50 79 47 80 49 81 48 82
REMARK H PARENT 17 5 3 20 21 31 65 50 43 61
REMARK Flexibility Score: inf
ROOT
ATOM      1  C   UNL A   1      31.665  30.439  25.622  1.00  0.00     0.118 C 
ENDROOT
BRANCH   1   2
ATOM      2  N   UNL A   1      30.663  30.452  24.567  1.00  0.00    -0.352 N 
ATOM      3  C   UNL A   1      30.198  29.593  23.629  1.00  0.00     0.251 C 
ATOM      4  O   UNL A   1      29.316  30.047  22.894  1.00  0.00    -0.270 OA
ATOM      5  H   UNL A   1      30.197  31.317  24.524  1.00  0.00     0.163 HD
BRANCH   3   6
ATOM      6  C   UNL A   1      30.670  28.193  23.439  1.00  0.00     0.067 C 
ATOM      7  C   UNL A   1      31.697  23.292  23.918  1.00  0.00     0.029 A 
ATOM      8  C   UNL A   1      31.803  24.225  22.874  1.00  0.00     0.058 A 
ATOM      9  C   UNL A   1      30.968  23.667  25.061  1.00  0.00     0.050 A 
ATOM     10  C   UNL A   1      31.314  25.516  23.021  1.00  0.00     0.128 A 
ATOM     11  C   UNL A   1      30.433  24.959  25.183  1.00  0.00     0.033 A 
ATOM     12  Cl  UNL A   1      30.684  22.579  26.374  1.00  0.00    -0.084 Cl
ATOM     13  C   UNL A   1      30.634  25.899  24.174  1.00  0.00     0.019 A 
ATOM     14  O   UNL A   1      31.545  26.384  21.991  1.00  0.00    -0.475 OA
ATOM     15  C   UNL A   1      30.160  27.275  24.285  1.00  0.00     0.025 C 
ATOM     16  C   UNL A   1      31.677  27.773  22.405  1.00  0.00     0.314 C 
BRANCH   7  17
ATOM     17  C   UNL A   1      32.411  21.961  23.767  1.00  0.00     0.300 C 
BRANCH  17  18
ATOM     18  N   UNL A   1      33.551  21.713  24.674  1.00  0.00    -0.334 N 
ATOM     19  C   UNL A   1      34.771  22.383  24.225  1.00  0.00     0.333 C 
ATOM     20  H   UNL A   1      33.234  22.129  25.550  1.00  0.00     0.348 HD
BRANCH  18  21
ATOM     21  C   UNL A   1      33.826  20.310  25.005  1.00  0.00     0.258 C 
ATOM     22  C   UNL A   1      32.588  19.420  24.992  1.00  0.00     0.071 C 
ENDBRANCH  18  21
ENDBRANCH  17  18
ENDBRANCH   7  17
BRANCH  16  23
ATOM     23  C   UNL A   1      33.133  28.058  22.833  1.00  0.00     0.429 C 
ATOM     24  F   UNL A   1      33.474  29.332  22.513  1.00  0.00    -0.167 F 
ATOM     25  F   UNL A   1      33.312  27.936  24.169  1.00  0.00    -0.167 F 
ATOM     26  F   UNL A   1      34.029  27.239  22.242  1.00  0.00    -0.167 F 
ENDBRANCH  16  23
ENDBRANCH   3   6
ENDBRANCH   1   2
BRANCH   1  27
ATOM     27  C   UNL A   1      31.412  31.523  26.659  1.00  0.00     0.042 C 
BRANCH  27  28
ATOM     28  C   UNL A   1      32.687  32.255  27.055  1.00  0.00     0.118 C 
BRANCH  28  29
ATOM     29  N   UNL A   1      32.428  33.635  27.460  1.00  0.00    -0.352 N 
ATOM     30  C   UNL A   1      33.040  34.416  28.410  1.00  0.00     0.251 C 
ATOM     31  H   UNL A   1      31.697  34.078  26.971  1.00  0.00     0.163 HD
ATOM     32  O   UNL A   1      32.528  35.479  28.751  1.00  0.00    -0.269 OA
BRANCH  30  33
ATOM     33  C   UNL A   1      34.300  33.969  29.037  1.00  0.00     0.039 A 
ATOM     34  C   UNL A   1      35.528  34.392  28.528  1.00  0.00     0.014 A 
ATOM     35  C   UNL A   1      34.256  33.114  30.143  1.00  0.00     0.014 A 
ATOM     36  C   UNL A   1      36.698  33.805  28.986  1.00  0.00     0.010 A 
ATOM     37  C   UNL A   1      35.446  32.609  30.675  1.00  0.00     0.010 A 
ATOM     38  C   UNL A   1      36.672  32.906  30.063  1.00  0.00    -0.014 A 
BRANCH  38  39
ATOM     39  C   UNL A   1      37.947  32.295  30.518  1.00  0.00     0.031 A 
ATOM     40  C   UNL A   1      38.676  32.836  31.719  1.00  0.00     0.074 A 
ATOM     41  C   UNL A   1      38.401  31.190  29.894  1.00  0.00     0.049 A 
ATOM     42  N   UNL A   1      39.769  32.389  32.285  1.00  0.00    -0.248 NA
ATOM     43  C   UNL A   1      38.111  34.029  32.372  1.00  0.00     0.031 C 
ATOM     44  C   UNL A   1      37.766  30.560  28.734  1.00  0.00     0.029 A 
ATOM     45  N   UNL A   1      39.469  30.375  30.171  1.00  0.00    -0.354 N 
ATOM     46  C   UNL A   1      40.035  33.256  33.337  1.00  0.00     0.074 A 
ATOM     47  C   UNL A   1      39.004  34.271  33.322  1.00  0.00     0.031 C 
ATOM     48  C   UNL A   1      38.404  29.415  28.453  1.00  0.00     0.029 A 
ATOM     49  C   UNL A   1      39.539  29.270  29.356  1.00  0.00     0.049 A 
ATOM     50  H   UNL A   1      40.121  30.562  30.884  1.00  0.00     0.167 HD
ATOM     51  C   UNL A   1      41.043  33.205  34.240  1.00  0.00     0.031 A 
ATOM     52  C   UNL A   1      40.421  28.253  29.330  1.00  0.00     0.031 A 
ATOM     53  C   UNL A   1      42.056  32.184  34.264  1.00  0.00     0.049 A 
ATOM     54  C   UNL A   1      41.547  28.239  30.321  1.00  0.00     0.074 A 
ATOM     55  C   UNL A   1      43.114  32.045  35.145  1.00  0.00     0.029 A 
ATOM     56  N   UNL A   1      42.133  31.125  33.374  1.00  0.00    -0.354 N 
ATOM     57  N   UNL A   1      41.790  29.077  31.300  1.00  0.00    -0.248 NA
ATOM     58  C   UNL A   1      42.525  27.151  30.198  1.00  0.00     0.031 C 
ATOM     59  C   UNL A   1      43.860  30.930  34.758  1.00  0.00     0.029 A 
ATOM     60  C   UNL A   1      43.233  30.339  33.674  1.00  0.00     0.049 A 
ATOM     61  H   UNL A   1      41.499  30.955  32.639  1.00  0.00     0.167 HD
ATOM     62  C   UNL A   1      42.944  28.614  31.915  1.00  0.00     0.074 A 
ATOM     63  C   UNL A   1      43.339  27.409  31.214  1.00  0.00     0.031 C 
ATOM     64  C   UNL A   1      43.616  29.146  32.964  1.00  0.00     0.031 A 
BRANCH  51  65
ATOM     65  C   UNL A   1      41.121  34.294  35.275  1.00  0.00    -0.014 A 
ATOM     66  C   UNL A   1      40.407  34.164  36.477  1.00  0.00     0.009 A 
ATOM     67  C   UNL A   1      41.824  35.484  35.028  1.00  0.00     0.009 A 
ATOM     68  C   UNL A   1      40.385  35.204  37.406  1.00  0.00     0.001 A 
ATOM     69  C   UNL A   1      41.821  36.513  35.972  1.00  0.00     0.001 A 
ATOM     70  C   UNL A   1      41.096  36.377  37.155  1.00  0.00     0.000 A 
ENDBRANCH  51  65
BRANCH  52  71
ATOM     71  C   UNL A   1      40.253  27.171  28.326  1.00  0.00    -0.014 A 
ATOM     72  C   UNL A   1      39.513  26.018  28.637  1.00  0.00     0.009 A 
ATOM     73  C   UNL A   1      40.884  27.254  27.075  1.00  0.00     0.009 A 
ATOM     74  C   UNL A   1      39.436  24.957  27.733  1.00  0.00     0.001 A 
ATOM     75  C   UNL A   1      40.778  26.205  26.160  1.00  0.00     0.001 A 
ATOM     76  C   UNL A   1      40.065  25.053  26.494  1.00  0.00     0.000 A 
ENDBRANCH  52  71
BRANCH  64  77
ATOM     77  C   UNL A   1      44.851  28.432  33.435  1.00  0.00    -0.014 A 
ATOM     78  C   UNL A   1      46.094  28.738  32.859  1.00  0.00     0.009 A 
ATOM     79  C   UNL A   1      44.768  27.393  34.372  1.00  0.00     0.009 A 
ATOM     80  C   UNL A   1      47.230  28.004  33.202  1.00  0.00     0.001 A 
ATOM     81  C   UNL A   1      45.913  26.679  34.733  1.00  0.00     0.001 A 
ATOM     82  C   UNL A   1      47.139  26.980  34.141  1.00  0.00     0.000 A 
ENDBRANCH  64  77
ENDBRANCH  38  39
ENDBRANCH  30  33
ENDBRANCH  28  29
ENDBRANCH  27  28
ENDBRANCH   1  27
TORSDOF 14
ENDMDL
