MODEL 1
REMARK VINA RESULT:     -11.8      0.000      0.000
REMARK SMILES CC(=O)N1CCC2(CC1)C[C@H](C(=O)NCCCNC(=O)c1ccc(-c3c4nc(c(-c5ccccc5)c5ccc([nH]5)c(-c5ccccc5)c5nc(c(-c6ccccc6)c6ccc3[nH]6)C=C5)C=C4)cc1)[N@H+](Cc1ncc[nH]1)C2
REMARK SMILES IDX 16 1 15 2 14 3 12 4 13 5 11 7 1 8 2 9 3 10 4 11 5 12 9 13
REMARK SMILES IDX 6 14 8 15 7 16 10 17 76 18 69 19 70 21 71 22 72 23 75 24
REMARK SMILES IDX 73 25 74 26 17 28 18 29 19 30 20 32 21 33 22 34 68 35 23 36
REMARK SMILES IDX 67 37 24 38 25 39 26 40 61 41 27 42 66 43 60 44 62 45 28 46
REMARK SMILES IDX 65 47 59 48 58 49 29 51 51 52 36 53 50 54 37 55 40 56 49 57
REMARK SMILES IDX 63 58 38 59 39 60 48 62 64 63 41 64 30 65 31 66 35 67 32 68
REMARK SMILES IDX 34 69 33 70 52 71 53 72 57 73 54 74 56 75 55 76 42 77 43 78
REMARK SMILES IDX 47 79 44 80 46 81 45 82
REMARK H PARENT 14 6 69 20 75 27 18 31 62 50 40 61
REMARK Flexibility Score: inf
ROOT
ATOM      1  C   UNL A   1      32.112  27.827  27.429  1.00  0.00     0.042 C 
ENDROOT
BRANCH   1   2
ATOM      2  C   UNL A   1      31.680  27.006  26.239  1.00  0.00     0.118 C 
BRANCH   2   3
ATOM      3  N   UNL A   1      30.774  25.938  26.496  1.00  0.00    -0.351 N 
ATOM      4  C   UNL A   1      31.107  24.616  26.518  1.00  0.00     0.278 C 
ATOM      5  O   UNL A   1      30.298  23.876  27.095  1.00  0.00    -0.268 OA
ATOM      6  H   UNL A   1      29.833  26.172  26.672  1.00  0.00     0.163 HD
BRANCH   4   7
ATOM      7  C   UNL A   1      32.371  24.014  25.836  1.00  0.00     0.275 C 
ATOM      8  C   UNL A   1      39.320  22.663  26.127  1.00  0.00     0.114 C 
ATOM      9  C   UNL A   1      38.440  21.604  25.534  1.00  0.00     0.219 C 
ATOM     10  O   UNL A   1      38.686  20.416  25.756  1.00  0.00    -0.275 OA
ATOM     11  N   UNL A   1      37.294  22.016  24.878  1.00  0.00    -0.343 N 
ATOM     12  C   UNL A   1      36.168  21.131  24.967  1.00  0.00     0.120 C 
ATOM     13  C   UNL A   1      36.965  23.329  24.328  1.00  0.00     0.120 C 
ATOM     14  C   UNL A   1      35.218  21.766  25.972  1.00  0.00     0.034 C 
ATOM     15  C   UNL A   1      35.814  24.014  25.090  1.00  0.00     0.034 C 
ATOM     16  C   UNL A   1      34.612  23.092  25.473  1.00  0.00     0.029 C 
ATOM     17  C   UNL A   1      33.712  23.818  26.540  1.00  0.00     0.088 C 
ATOM     18  C   UNL A   1      33.603  22.789  24.325  1.00  0.00     0.270 C 
ATOM     19  N   UNL A   1      32.247  22.865  24.909  1.00  0.00    -0.318 N 
ATOM     20  H   UNL A   1      31.487  23.054  24.255  1.00  0.00     0.349 HD
BRANCH  19  21
ATOM     21  C   UNL A   1      31.622  21.579  25.303  1.00  0.00     0.339 C 
BRANCH  21  22
ATOM     22  C   UNL A   1      32.185  20.214  24.899  1.00  0.00     0.161 A 
ATOM     23  N   UNL A   1      32.364  19.716  23.684  1.00  0.00    -0.236 NA
ATOM     24  N   UNL A   1      32.630  19.281  25.817  1.00  0.00    -0.344 N 
ATOM     25  C   UNL A   1      32.848  18.444  23.814  1.00  0.00     0.131 A 
ATOM     26  C   UNL A   1      33.005  18.148  25.141  1.00  0.00     0.104 A 
ATOM     27  H   UNL A   1      32.670  19.408  26.793  1.00  0.00     0.167 HD
ENDBRANCH  21  22
ENDBRANCH  19  21
ENDBRANCH   4   7
ENDBRANCH   2   3
ENDBRANCH   1   2
BRANCH   1  28
ATOM     28  C   UNL A   1      33.479  28.454  27.229  1.00  0.00     0.118 C 
BRANCH  28  29
ATOM     29  N   UNL A   1      33.572  29.863  27.624  1.00  0.00    -0.352 N 
ATOM     30  C   UNL A   1      34.603  30.630  28.125  1.00  0.00     0.251 C 
ATOM     31  H   UNL A   1      32.730  30.361  27.508  1.00  0.00     0.163 HD
ATOM     32  O   UNL A   1      34.391  31.792  28.438  1.00  0.00    -0.269 OA
BRANCH  30  33
ATOM     33  C   UNL A   1      35.952  30.054  28.323  1.00  0.00     0.039 A 
ATOM     34  C   UNL A   1      36.895  30.135  27.291  1.00  0.00     0.014 A 
ATOM     35  C   UNL A   1      36.304  29.443  29.520  1.00  0.00     0.014 A 
ATOM     36  C   UNL A   1      38.206  29.697  27.510  1.00  0.00     0.010 A 
ATOM     37  C   UNL A   1      37.634  29.176  29.794  1.00  0.00     0.010 A 
ATOM     38  C   UNL A   1      38.601  29.267  28.784  1.00  0.00    -0.014 A 
BRANCH  38  39
ATOM     39  C   UNL A   1      39.988  28.846  29.109  1.00  0.00     0.031 A 
ATOM     40  C   UNL A   1      40.913  29.825  29.790  1.00  0.00     0.074 A 
ATOM     41  C   UNL A   1      40.454  27.652  28.695  1.00  0.00     0.049 A 
ATOM     42  N   UNL A   1      42.206  29.751  29.980  1.00  0.00    -0.248 NA
ATOM     43  C   UNL A   1      40.312  31.082  30.271  1.00  0.00     0.031 C 
ATOM     44  C   UNL A   1      39.680  26.629  27.988  1.00  0.00     0.029 A 
ATOM     45  N   UNL A   1      41.711  27.107  28.793  1.00  0.00    -0.354 N 
ATOM     46  C   UNL A   1      42.570  30.967  30.548  1.00  0.00     0.074 A 
ATOM     47  C   UNL A   1      41.381  31.783  30.608  1.00  0.00     0.031 C 
ATOM     48  C   UNL A   1      40.469  25.568  27.748  1.00  0.00     0.029 A 
ATOM     49  C   UNL A   1      41.815  25.859  28.227  1.00  0.00     0.049 A 
ATOM     50  H   UNL A   1      42.465  27.567  29.227  1.00  0.00     0.167 HD
ATOM     51  C   UNL A   1      43.780  31.361  31.008  1.00  0.00     0.031 A 
ATOM     52  C   UNL A   1      42.881  25.047  28.096  1.00  0.00     0.031 A 
ATOM     53  C   UNL A   1      44.952  30.529  30.991  1.00  0.00     0.049 A 
ATOM     54  C   UNL A   1      44.215  25.502  28.622  1.00  0.00     0.074 A 
ATOM     55  C   UNL A   1      46.209  30.800  31.499  1.00  0.00     0.029 A 
ATOM     56  N   UNL A   1      45.002  29.256  30.445  1.00  0.00    -0.354 N 
ATOM     57  N   UNL A   1      44.533  26.631  29.208  1.00  0.00    -0.248 NA
ATOM     58  C   UNL A   1      45.336  24.562  28.477  1.00  0.00     0.031 C 
ATOM     59  C   UNL A   1      47.035  29.709  31.213  1.00  0.00     0.029 A 
ATOM     60  C   UNL A   1      46.275  28.735  30.585  1.00  0.00     0.049 A 
ATOM     61  H   UNL A   1      44.244  28.793  30.018  1.00  0.00     0.167 HD
ATOM     62  C   UNL A   1      45.878  26.523  29.534  1.00  0.00     0.074 A 
ATOM     63  C   UNL A   1      46.313  25.214  29.092  1.00  0.00     0.031 C 
ATOM     64  C   UNL A   1      46.683  27.425  30.148  1.00  0.00     0.031 A 
BRANCH  51  65
ATOM     65  C   UNL A   1      43.889  32.752  31.573  1.00  0.00    -0.014 A 
ATOM     66  C   UNL A   1      43.701  33.005  32.941  1.00  0.00     0.009 A 
ATOM     67  C   UNL A   1      44.202  33.826  30.725  1.00  0.00     0.009 A 
ATOM     68  C   UNL A   1      43.774  34.307  33.440  1.00  0.00     0.001 A 
ATOM     69  C   UNL A   1      44.312  35.122  31.232  1.00  0.00     0.001 A 
ATOM     70  C   UNL A   1      44.084  35.364  32.586  1.00  0.00     0.000 A 
ENDBRANCH  51  65
BRANCH  52  71
ATOM     71  C   UNL A   1      42.730  23.712  27.459  1.00  0.00    -0.014 A 
ATOM     72  C   UNL A   1      42.378  22.594  28.231  1.00  0.00     0.009 A 
ATOM     73  C   UNL A   1      42.942  23.542  26.081  1.00  0.00     0.009 A 
ATOM     74  C   UNL A   1      42.271  21.330  27.644  1.00  0.00     0.001 A 
ATOM     75  C   UNL A   1      42.802  22.283  25.492  1.00  0.00     0.001 A 
ATOM     76  C   UNL A   1      42.479  21.177  26.275  1.00  0.00     0.000 A 
ENDBRANCH  52  71
BRANCH  64  77
ATOM     77  C   UNL A   1      48.099  27.008  30.429  1.00  0.00    -0.014 A 
ATOM     78  C   UNL A   1      48.440  26.304  31.593  1.00  0.00     0.009 A 
ATOM     79  C   UNL A   1      49.097  27.279  29.479  1.00  0.00     0.009 A 
ATOM     80  C   UNL A   1      49.761  25.909  31.815  1.00  0.00     0.001 A 
ATOM     81  C   UNL A   1      50.409  26.854  29.687  1.00  0.00     0.001 A 
ATOM     82  C   UNL A   1      50.742  26.178  30.860  1.00  0.00     0.000 A 
ENDBRANCH  64  77
ENDBRANCH  38  39
ENDBRANCH  30  33
ENDBRANCH  28  29
ENDBRANCH   1  28
TORSDOF 12
ENDMDL
MODEL 2
REMARK VINA RESULT:     -11.7      2.997      7.175
REMARK SMILES CC(=O)N1CCC2(CC1)C[C@H](C(=O)NCCCNC(=O)c1ccc(-c3c4nc(c(-c5ccccc5)c5ccc([nH]5)c(-c5ccccc5)c5nc(c(-c6ccccc6)c6ccc3[nH]6)C=C5)C=C4)cc1)[N@H+](Cc1ncc[nH]1)C2
REMARK SMILES IDX 16 1 15 2 14 3 12 4 13 5 11 7 1 8 2 9 3 10 4 11 5 12 9 13
REMARK SMILES IDX 6 14 8 15 7 16 10 17 76 18 69 19 70 21 71 22 72 23 75 24
REMARK SMILES IDX 73 25 74 26 17 28 18 29 19 30 20 32 21 33 22 34 68 35 23 36
REMARK SMILES IDX 67 37 24 38 25 39 26 40 61 41 27 42 66 43 60 44 62 45 28 46
REMARK SMILES IDX 65 47 59 48 58 49 29 51 51 52 36 53 50 54 37 55 40 56 49 57
REMARK SMILES IDX 63 58 38 59 39 60 48 62 64 63 41 64 30 65 31 66 35 67 32 68
REMARK SMILES IDX 34 69 33 70 52 71 53 72 57 73 54 74 56 75 55 76 42 77 43 78
REMARK SMILES IDX 47 79 44 80 46 81 45 82
REMARK H PARENT 14 6 69 20 75 27 18 31 62 50 40 61
REMARK Flexibility Score: inf
ROOT
ATOM      1  C   UNL A   1      35.480  22.987  23.707  1.00  0.00     0.042 C 
ENDROOT
BRANCH   1   2
ATOM      2  C   UNL A   1      33.994  23.114  23.479  1.00  0.00     0.118 C 
BRANCH   2   3
ATOM      3  N   UNL A   1      33.586  23.722  22.257  1.00  0.00    -0.351 N 
ATOM      4  C   UNL A   1      33.260  25.037  22.108  1.00  0.00     0.278 C 
ATOM      5  O   UNL A   1      33.278  25.458  20.942  1.00  0.00    -0.268 OA
ATOM      6  H   UNL A   1      33.536  23.148  21.458  1.00  0.00     0.163 HD
BRANCH   4   7
ATOM      7  C   UNL A   1      32.833  25.978  23.272  1.00  0.00     0.275 C 
ATOM      8  C   UNL A   1      34.671  30.843  28.083  1.00  0.00     0.114 C 
ATOM      9  C   UNL A   1      33.353  31.026  27.393  1.00  0.00     0.219 C 
ATOM     10  O   UNL A   1      32.978  32.161  27.091  1.00  0.00    -0.275 OA
ATOM     11  N   UNL A   1      32.677  29.888  26.992  1.00  0.00    -0.343 N 
ATOM     12  C   UNL A   1      31.899  30.011  25.791  1.00  0.00     0.120 C 
ATOM     13  C   UNL A   1      32.835  28.509  27.449  1.00  0.00     0.120 C 
ATOM     14  C   UNL A   1      32.701  29.311  24.704  1.00  0.00     0.034 C 
ATOM     15  C   UNL A   1      33.405  27.588  26.353  1.00  0.00     0.034 C 
ATOM     16  C   UNL A   1      32.812  27.790  24.922  1.00  0.00     0.029 C 
ATOM     17  C   UNL A   1      33.726  27.064  23.867  1.00  0.00     0.088 C 
ATOM     18  C   UNL A   1      31.419  27.138  24.672  1.00  0.00     0.270 C 
ATOM     19  N   UNL A   1      31.460  26.533  23.324  1.00  0.00    -0.318 N 
ATOM     20  H   UNL A   1      30.797  25.777  23.151  1.00  0.00     0.349 HD
BRANCH  19  21
ATOM     21  C   UNL A   1      30.876  27.332  22.221  1.00  0.00     0.339 C 
BRANCH  21  22
ATOM     22  C   UNL A   1      30.059  28.607  22.449  1.00  0.00     0.161 A 
ATOM     23  N   UNL A   1      28.914  28.753  23.100  1.00  0.00    -0.236 NA
ATOM     24  N   UNL A   1      30.458  29.849  21.994  1.00  0.00    -0.344 N 
ATOM     25  C   UNL A   1      28.535  30.063  23.003  1.00  0.00     0.131 A 
ATOM     26  C   UNL A   1      29.479  30.761  22.300  1.00  0.00     0.104 A 
ATOM     27  H   UNL A   1      31.302  30.047  21.527  1.00  0.00     0.167 HD
ENDBRANCH  21  22
ENDBRANCH  19  21
ENDBRANCH   4   7
ENDBRANCH   2   3
ENDBRANCH   1   2
BRANCH   1  28
ATOM     28  C   UNL A   1      35.806  22.451  25.089  1.00  0.00     0.118 C 
BRANCH  28  29
ATOM     29  N   UNL A   1      36.718  21.304  25.103  1.00  0.00    -0.352 N 
ATOM     30  C   UNL A   1      38.028  21.154  25.505  1.00  0.00     0.251 C 
ATOM     31  H   UNL A   1      36.315  20.475  24.755  1.00  0.00     0.163 HD
ATOM     32  O   UNL A   1      38.588  20.078  25.347  1.00  0.00    -0.269 OA
BRANCH  30  33
ATOM     33  C   UNL A   1      38.778  22.287  26.093  1.00  0.00     0.039 A 
ATOM     34  C   UNL A   1      39.931  22.035  26.846  1.00  0.00     0.014 A 
ATOM     35  C   UNL A   1      38.364  23.599  25.900  1.00  0.00     0.014 A 
ATOM     36  C   UNL A   1      40.709  23.103  27.307  1.00  0.00     0.010 A 
ATOM     37  C   UNL A   1      39.220  24.645  26.200  1.00  0.00     0.010 A 
ATOM     38  C   UNL A   1      40.390  24.417  26.937  1.00  0.00    -0.014 A 
BRANCH  38  39
ATOM     39  C   UNL A   1      41.201  25.596  27.335  1.00  0.00     0.031 A 
ATOM     40  C   UNL A   1      40.610  26.609  28.285  1.00  0.00     0.074 A 
ATOM     41  C   UNL A   1      42.399  25.826  26.764  1.00  0.00     0.049 A 
ATOM     42  N   UNL A   1      41.045  27.801  28.605  1.00  0.00    -0.248 NA
ATOM     43  C   UNL A   1      39.326  26.254  28.918  1.00  0.00     0.031 C 
ATOM     44  C   UNL A   1      43.069  24.952  25.798  1.00  0.00     0.029 A 
ATOM     45  N   UNL A   1      43.262  26.885  26.902  1.00  0.00    -0.354 N 
ATOM     46  C   UNL A   1      40.065  28.349  29.424  1.00  0.00     0.074 A 
ATOM     47  C   UNL A   1      38.986  27.393  29.498  1.00  0.00     0.031 C 
ATOM     48  C   UNL A   1      44.250  25.494  25.458  1.00  0.00     0.029 A 
ATOM     49  C   UNL A   1      44.395  26.778  26.132  1.00  0.00     0.049 A 
ATOM     50  H   UNL A   1      43.084  27.650  27.497  1.00  0.00     0.167 HD
ATOM     51  C   UNL A   1      40.073  29.531  30.085  1.00  0.00     0.031 A 
ATOM     52  C   UNL A   1      45.427  27.628  25.977  1.00  0.00     0.031 A 
ATOM     53  C   UNL A   1      41.169  30.460  30.048  1.00  0.00     0.049 A 
ATOM     54  C   UNL A   1      45.419  28.933  26.726  1.00  0.00     0.074 A 
ATOM     55  C   UNL A   1      41.314  31.649  30.738  1.00  0.00     0.029 A 
ATOM     56  N   UNL A   1      42.315  30.291  29.286  1.00  0.00    -0.354 N 
ATOM     57  N   UNL A   1      44.512  29.413  27.542  1.00  0.00    -0.248 NA
ATOM     58  C   UNL A   1      46.585  29.808  26.540  1.00  0.00     0.031 C 
ATOM     59  C   UNL A   1      42.526  32.228  30.353  1.00  0.00     0.029 A 
ATOM     60  C   UNL A   1      43.164  31.366  29.473  1.00  0.00     0.049 A 
ATOM     61  H   UNL A   1      42.496  29.522  28.698  1.00  0.00     0.167 HD
ATOM     62  C   UNL A   1      45.014  30.627  27.995  1.00  0.00     0.074 A 
ATOM     63  C   UNL A   1      46.309  30.802  27.372  1.00  0.00     0.031 C 
ATOM     64  C   UNL A   1      44.454  31.516  28.852  1.00  0.00     0.031 A 
BRANCH  51  65
ATOM     65  C   UNL A   1      38.858  29.877  30.904  1.00  0.00    -0.014 A 
ATOM     66  C   UNL A   1      37.810  30.644  30.372  1.00  0.00     0.009 A 
ATOM     67  C   UNL A   1      38.753  29.414  32.225  1.00  0.00     0.009 A 
ATOM     68  C   UNL A   1      36.706  30.983  31.159  1.00  0.00     0.001 A 
ATOM     69  C   UNL A   1      37.632  29.721  32.998  1.00  0.00     0.001 A 
ATOM     70  C   UNL A   1      36.616  30.516  32.469  1.00  0.00     0.000 A 
ENDBRANCH  51  65
BRANCH  52  71
ATOM     71  C   UNL A   1      46.566  27.268  25.092  1.00  0.00    -0.014 A 
ATOM     72  C   UNL A   1      47.503  26.306  25.500  1.00  0.00     0.009 A 
ATOM     73  C   UNL A   1      46.729  27.882  23.840  1.00  0.00     0.009 A 
ATOM     74  C   UNL A   1      48.596  25.989  24.689  1.00  0.00     0.001 A 
ATOM     75  C   UNL A   1      47.806  27.540  23.017  1.00  0.00     0.001 A 
ATOM     76  C   UNL A   1      48.744  26.603  23.447  1.00  0.00     0.000 A 
ENDBRANCH  52  71
BRANCH  64  77
ATOM     77  C   UNL A   1      45.263  32.731  29.211  1.00  0.00    -0.014 A 
ATOM     78  C   UNL A   1      46.210  32.703  30.245  1.00  0.00     0.009 A 
ATOM     79  C   UNL A   1      45.108  33.906  28.459  1.00  0.00     0.009 A 
ATOM     80  C   UNL A   1      46.963  33.841  30.540  1.00  0.00     0.001 A 
ATOM     81  C   UNL A   1      45.885  35.031  28.734  1.00  0.00     0.001 A 
ATOM     82  C   UNL A   1      46.805  35.001  29.780  1.00  0.00     0.000 A 
ENDBRANCH  64  77
ENDBRANCH  38  39
ENDBRANCH  30  33
ENDBRANCH  28  29
ENDBRANCH   1  28
TORSDOF 12
ENDMDL
MODEL 3
REMARK VINA RESULT:     -11.5      2.428      7.686
REMARK SMILES CC(=O)N1CCC2(CC1)C[C@H](C(=O)NCCCNC(=O)c1ccc(-c3c4nc(c(-c5ccccc5)c5ccc([nH]5)c(-c5ccccc5)c5nc(c(-c6ccccc6)c6ccc3[nH]6)C=C5)C=C4)cc1)[N@H+](Cc1ncc[nH]1)C2
REMARK SMILES IDX 16 1 15 2 14 3 12 4 13 5 11 7 1 8 2 9 3 10 4 11 5 12 9 13
REMARK SMILES IDX 6 14 8 15 7 16 10 17 76 18 69 19 70 21 71 22 72 23 75 24
REMARK SMILES IDX 73 25 74 26 17 28 18 29 19 30 20 32 21 33 22 34 68 35 23 36
REMARK SMILES IDX 67 37 24 38 25 39 26 40 61 41 27 42 66 43 60 44 62 45 28 46
REMARK SMILES IDX 65 47 59 48 58 49 29 51 51 52 36 53 50 54 37 55 40 56 49 57
REMARK SMILES IDX 63 58 38 59 39 60 48 62 64 63 41 64 30 65 31 66 35 67 32 68
REMARK SMILES IDX 34 69 33 70 52 71 53 72 57 73 54 74 56 75 55 76 42 77 43 78
REMARK SMILES IDX 47 79 44 80 46 81 45 82
REMARK H PARENT 14 6 69 20 75 27 18 31 62 50 40 61
REMARK Flexibility Score: inf
ROOT
ATOM      1  C   UNL A   1      36.490  22.628  24.088  1.00  0.00     0.042 C 
ENDROOT
BRANCH   1   2
ATOM      2  C   UNL A   1      35.563  21.591  24.671  1.00  0.00     0.118 C 
BRANCH   2   3
ATOM      3  N   UNL A   1      35.476  21.539  26.091  1.00  0.00    -0.351 N 
ATOM      4  C   UNL A   1      34.379  21.886  26.822  1.00  0.00     0.278 C 
ATOM      5  O   UNL A   1      34.356  21.451  27.982  1.00  0.00    -0.268 OA
ATOM      6  H   UNL A   1      36.270  21.228  26.584  1.00  0.00     0.163 HD
BRANCH   4   7
ATOM      7  C   UNL A   1      33.233  22.807  26.310  1.00  0.00     0.275 C 
ATOM      8  C   UNL A   1      31.239  29.111  23.765  1.00  0.00     0.114 C 
ATOM      9  C   UNL A   1      30.587  27.898  23.176  1.00  0.00     0.219 C 
ATOM     10  O   UNL A   1      30.338  27.867  21.968  1.00  0.00    -0.275 OA
ATOM     11  N   UNL A   1      30.424  26.796  23.996  1.00  0.00    -0.343 N 
ATOM     12  C   UNL A   1      30.513  25.515  23.352  1.00  0.00     0.120 C 
ATOM     13  C   UNL A   1      30.437  26.719  25.455  1.00  0.00     0.120 C 
ATOM     14  C   UNL A   1      31.881  24.959  23.719  1.00  0.00     0.034 C 
ATOM     15  C   UNL A   1      31.653  25.940  25.993  1.00  0.00     0.034 C 
ATOM     16  C   UNL A   1      32.017  24.632  25.218  1.00  0.00     0.029 C 
ATOM     17  C   UNL A   1      33.457  24.158  25.635  1.00  0.00     0.088 C 
ATOM     18  C   UNL A   1      31.138  23.388  25.548  1.00  0.00     0.270 C 
ATOM     19  N   UNL A   1      32.049  22.227  25.633  1.00  0.00    -0.318 N 
ATOM     20  H   UNL A   1      31.715  21.434  26.183  1.00  0.00     0.349 HD
BRANCH  19  21
ATOM     21  C   UNL A   1      32.153  21.376  24.424  1.00  0.00     0.339 C 
BRANCH  21  22
ATOM     22  C   UNL A   1      32.389  19.865  24.479  1.00  0.00     0.161 A 
ATOM     23  N   UNL A   1      32.490  19.003  23.477  1.00  0.00    -0.236 NA
ATOM     24  N   UNL A   1      32.562  19.171  25.662  1.00  0.00    -0.344 N 
ATOM     25  C   UNL A   1      32.650  17.753  24.006  1.00  0.00     0.131 A 
ATOM     26  C   UNL A   1      32.681  17.835  25.372  1.00  0.00     0.104 A 
ATOM     27  H   UNL A   1      32.594  19.569  26.562  1.00  0.00     0.167 HD
ENDBRANCH  21  22
ENDBRANCH  19  21
ENDBRANCH   4   7
ENDBRANCH   2   3
ENDBRANCH   1   2
BRANCH   1  28
ATOM     28  C   UNL A   1      37.339  23.302  25.150  1.00  0.00     0.118 C 
BRANCH  28  29
ATOM     29  N   UNL A   1      38.589  22.605  25.470  1.00  0.00    -0.352 N 
ATOM     30  C   UNL A   1      39.713  22.975  26.177  1.00  0.00     0.251 C 
ATOM     31  H   UNL A   1      38.634  21.691  25.107  1.00  0.00     0.163 HD
ATOM     32  O   UNL A   1      40.663  22.209  26.242  1.00  0.00    -0.269 OA
BRANCH  30  33
ATOM     33  C   UNL A   1      39.799  24.302  26.828  1.00  0.00     0.039 A 
ATOM     34  C   UNL A   1      39.264  24.479  28.110  1.00  0.00     0.014 A 
ATOM     35  C   UNL A   1      40.413  25.375  26.194  1.00  0.00     0.014 A 
ATOM     36  C   UNL A   1      39.443  25.695  28.778  1.00  0.00     0.010 A 
ATOM     37  C   UNL A   1      40.742  26.509  26.916  1.00  0.00     0.010 A 
ATOM     38  C   UNL A   1      40.235  26.701  28.208  1.00  0.00    -0.014 A 
BRANCH  38  39
ATOM     39  C   UNL A   1      40.521  27.994  28.882  1.00  0.00     0.031 A 
ATOM     40  C   UNL A   1      41.823  28.164  29.625  1.00  0.00     0.074 A 
ATOM     41  C   UNL A   1      39.582  28.959  28.935  1.00  0.00     0.049 A 
ATOM     42  N   UNL A   1      42.192  29.112  30.449  1.00  0.00    -0.248 NA
ATOM     43  C   UNL A   1      42.823  27.093  29.464  1.00  0.00     0.031 C 
ATOM     44  C   UNL A   1      38.264  28.908  28.298  1.00  0.00     0.029 A 
ATOM     45  N   UNL A   1      39.591  30.172  29.578  1.00  0.00    -0.354 N 
ATOM     46  C   UNL A   1      43.433  28.720  30.937  1.00  0.00     0.074 A 
ATOM     47  C   UNL A   1      43.723  27.422  30.376  1.00  0.00     0.031 C 
ATOM     48  C   UNL A   1      37.607  30.051  28.554  1.00  0.00     0.029 A 
ATOM     49  C   UNL A   1      38.428  30.887  29.420  1.00  0.00     0.049 A 
ATOM     50  H   UNL A   1      40.357  30.498  30.103  1.00  0.00     0.167 HD
ATOM     51  C   UNL A   1      44.275  29.393  31.757  1.00  0.00     0.031 A 
ATOM     52  C   UNL A   1      38.061  32.078  29.930  1.00  0.00     0.031 A 
ATOM     53  C   UNL A   1      44.005  30.705  32.276  1.00  0.00     0.049 A 
ATOM     54  C   UNL A   1      39.015  32.812  30.832  1.00  0.00     0.074 A 
ATOM     55  C   UNL A   1      44.820  31.509  33.053  1.00  0.00     0.029 A 
ATOM     56  N   UNL A   1      42.832  31.410  32.057  1.00  0.00    -0.354 N 
ATOM     57  N   UNL A   1      40.209  32.457  31.241  1.00  0.00    -0.248 NA
ATOM     58  C   UNL A   1      38.572  34.121  31.336  1.00  0.00     0.031 C 
ATOM     59  C   UNL A   1      44.117  32.681  33.348  1.00  0.00     0.029 A 
ATOM     60  C   UNL A   1      42.892  32.632  32.701  1.00  0.00     0.049 A 
ATOM     61  H   UNL A   1      42.069  31.087  31.524  1.00  0.00     0.167 HD
ATOM     62  C   UNL A   1      40.674  33.510  32.017  1.00  0.00     0.074 A 
ATOM     63  C   UNL A   1      39.639  34.522  32.012  1.00  0.00     0.031 C 
ATOM     64  C   UNL A   1      41.855  33.631  32.674  1.00  0.00     0.031 A 
BRANCH  51  65
ATOM     65  C   UNL A   1      45.565  28.716  32.134  1.00  0.00    -0.014 A 
ATOM     66  C   UNL A   1      46.728  28.873  31.362  1.00  0.00     0.009 A 
ATOM     67  C   UNL A   1      45.624  27.922  33.290  1.00  0.00     0.009 A 
ATOM     68  C   UNL A   1      47.907  28.210  31.710  1.00  0.00     0.001 A 
ATOM     69  C   UNL A   1      46.814  27.291  33.658  1.00  0.00     0.001 A 
ATOM     70  C   UNL A   1      47.950  27.425  32.861  1.00  0.00     0.000 A 
ENDBRANCH  51  65
BRANCH  52  71
ATOM     71  C   UNL A   1      36.739  32.664  29.584  1.00  0.00    -0.014 A 
ATOM     72  C   UNL A   1      35.658  32.547  30.473  1.00  0.00     0.009 A 
ATOM     73  C   UNL A   1      36.544  33.338  28.368  1.00  0.00     0.009 A 
ATOM     74  C   UNL A   1      34.404  33.064  30.138  1.00  0.00     0.001 A 
ATOM     75  C   UNL A   1      35.296  33.881  28.050  1.00  0.00     0.001 A 
ATOM     76  C   UNL A   1      34.225  33.734  28.929  1.00  0.00     0.000 A 
ENDBRANCH  52  71
BRANCH  64  77
ATOM     77  C   UNL A   1      42.114  34.924  33.394  1.00  0.00    -0.014 A 
ATOM     78  C   UNL A   1      41.624  35.155  34.687  1.00  0.00     0.009 A 
ATOM     79  C   UNL A   1      42.914  35.903  32.782  1.00  0.00     0.009 A 
ATOM     80  C   UNL A   1      41.902  36.357  35.341  1.00  0.00     0.001 A 
ATOM     81  C   UNL A   1      43.218  37.089  33.450  1.00  0.00     0.001 A 
ATOM     82  C   UNL A   1      42.703  37.319  34.725  1.00  0.00     0.000 A 
ENDBRANCH  64  77
ENDBRANCH  38  39
ENDBRANCH  30  33
ENDBRANCH  28  29
ENDBRANCH   1  28
TORSDOF 12
ENDMDL
