MODEL 1
REMARK VINA RESULT:     -11.3      0.000      0.000
REMARK SMILES C[N@H+]1CCO[C@@H](CNS(=O)(=O)N2CCC(C(=O)NCCCNC(=O)c3ccc(-c4c5nc(c(-c6ccccc6)c6ccc([nH]6)c(-c6ccccc6)c6nc(c(-c7ccccc7)c7ccc4[nH]7)C=C6)C=C5)cc3)CC2)C1
REMARK SMILES IDX 19 1 18 2 16 3 17 4 15 6 12 7 13 8 74 9 14 10 73 11 9 12
REMARK SMILES IDX 10 13 11 14 8 15 7 17 6 18 1 19 2 20 3 21 75 22 4 24 5 25
REMARK SMILES IDX 20 26 21 27 22 28 23 29 24 31 25 32 26 33 72 34 27 35 71 36
REMARK SMILES IDX 28 37 29 38 30 39 65 40 31 41 70 42 64 43 66 44 32 45 69 46
REMARK SMILES IDX 63 47 62 48 33 50 55 51 40 52 54 53 41 54 44 55 53 56 67 57
REMARK SMILES IDX 42 58 43 59 52 61 68 62 45 63 34 64 35 65 39 66 36 67 38 68
REMARK SMILES IDX 37 69 56 70 57 71 61 72 58 73 60 74 59 75 46 76 47 77 51 78
REMARK SMILES IDX 48 79 50 80 49 81
REMARK H PARENT 18 5 8 16 2 23 22 30 66 49 44 60
REMARK Flexibility Score: inf
ROOT
ATOM      1  C   UNL A   1      36.913  20.465  24.846  1.00  0.00     0.117 C 
ENDROOT
BRANCH   1   2
ATOM      2  N   UNL A   1      35.634  19.831  25.083  1.00  0.00    -0.356 N 
ATOM      3  C   UNL A   1      34.377  20.346  24.992  1.00  0.00     0.223 C 
ATOM      4  O   UNL A   1      33.432  19.572  25.164  1.00  0.00    -0.275 OA
ATOM      5  H   UNL A   1      35.680  18.884  25.352  1.00  0.00     0.163 HD
BRANCH   3   6
ATOM      6  C   UNL A   1      34.114  21.827  24.709  1.00  0.00     0.081 C 
ATOM      7  N   UNL A   1      32.381  24.158  24.995  1.00  0.00    -0.189 NA
ATOM      8  C   UNL A   1      33.681  24.134  25.711  1.00  0.00     0.104 C 
ATOM      9  C   UNL A   1      32.464  23.473  23.691  1.00  0.00     0.104 C 
ATOM     10  C   UNL A   1      34.173  22.713  25.964  1.00  0.00     0.030 C 
ATOM     11  C   UNL A   1      32.862  22.015  23.844  1.00  0.00     0.030 C 
BRANCH   7  12
ATOM     12  S   UNL A   1      31.006  23.988  25.934  1.00  0.00     0.279 S 
ATOM     13  O   UNL A   1      31.291  24.438  27.276  1.00  0.00    -0.195 OA
ATOM     14  O   UNL A   1      30.395  22.707  25.709  1.00  0.00    -0.195 OA
BRANCH  12  15
ATOM     15  N   UNL A   1      29.951  25.073  25.224  1.00  0.00    -0.199 NA
ATOM     16  H   UNL A   1      29.748  24.733  24.284  1.00  0.00     0.142 HD
BRANCH  15  17
ATOM     17  C   UNL A   1      30.413  26.466  25.105  1.00  0.00     0.138 C 
BRANCH  17  18
ATOM     18  C   UNL A   1      30.207  27.048  23.690  1.00  0.00     0.188 C 
ATOM     19  C   UNL A   1      31.808  29.560  25.028  1.00  0.00     0.332 C 
ATOM     20  N   UNL A   1      31.353  29.357  23.659  1.00  0.00    -0.333 N 
ATOM     21  C   UNL A   1      32.379  28.727  22.811  1.00  0.00     0.290 C 
ATOM     22  C   UNL A   1      30.102  28.590  23.548  1.00  0.00     0.295 C 
ATOM     23  H   UNL A   1      31.169  30.302  23.322  1.00  0.00     0.348 HD
ATOM     24  C   UNL A   1      32.489  27.203  22.976  1.00  0.00     0.222 C 
ATOM     25  O   UNL A   1      31.225  26.544  22.796  1.00  0.00    -0.365 OA
ENDBRANCH  17  18
ENDBRANCH  15  17
ENDBRANCH  12  15
ENDBRANCH   7  12
ENDBRANCH   3   6
ENDBRANCH   1   2
BRANCH   1  26
ATOM     26  C   UNL A   1      38.098  19.519  24.969  1.00  0.00     0.042 C 
BRANCH  26  27
ATOM     27  C   UNL A   1      39.202  20.058  25.856  1.00  0.00     0.118 C 
BRANCH  27  28
ATOM     28  N   UNL A   1      40.412  19.250  25.785  1.00  0.00    -0.352 N 
ATOM     29  C   UNL A   1      41.723  19.586  25.995  1.00  0.00     0.251 C 
ATOM     30  H   UNL A   1      40.263  18.306  25.548  1.00  0.00     0.163 HD
ATOM     31  O   UNL A   1      42.606  18.790  25.686  1.00  0.00    -0.269 OA
BRANCH  29  32
ATOM     32  C   UNL A   1      42.082  20.898  26.570  1.00  0.00     0.039 A 
ATOM     33  C   UNL A   1      42.420  21.936  25.699  1.00  0.00     0.014 A 
ATOM     34  C   UNL A   1      42.120  21.108  27.950  1.00  0.00     0.014 A 
ATOM     35  C   UNL A   1      42.748  23.189  26.213  1.00  0.00     0.010 A 
ATOM     36  C   UNL A   1      42.332  22.386  28.456  1.00  0.00     0.010 A 
ATOM     37  C   UNL A   1      42.671  23.435  27.594  1.00  0.00    -0.014 A 
BRANCH  37  38
ATOM     38  C   UNL A   1      42.950  24.787  28.135  1.00  0.00     0.031 A 
ATOM     39  C   UNL A   1      44.360  25.221  28.430  1.00  0.00     0.074 A 
ATOM     40  C   UNL A   1      41.919  25.623  28.369  1.00  0.00     0.049 A 
ATOM     41  N   UNL A   1      44.792  26.387  28.842  1.00  0.00    -0.248 NA
ATOM     42  C   UNL A   1      45.422  24.213  28.270  1.00  0.00     0.031 C 
ATOM     43  C   UNL A   1      40.503  25.295  28.180  1.00  0.00     0.029 A 
ATOM     44  N   UNL A   1      41.904  26.924  28.797  1.00  0.00    -0.354 N 
ATOM     45  C   UNL A   1      46.168  26.249  28.990  1.00  0.00     0.074 A 
ATOM     46  C   UNL A   1      46.489  24.872  28.694  1.00  0.00     0.031 C 
ATOM     47  C   UNL A   1      39.763  26.386  28.428  1.00  0.00     0.029 A 
ATOM     48  C   UNL A   1      40.645  27.474  28.837  1.00  0.00     0.049 A 
ATOM     49  H   UNL A   1      42.716  27.419  29.051  1.00  0.00     0.167 HD
ATOM     50  C   UNL A   1      47.084  27.191  29.317  1.00  0.00     0.031 A 
ATOM     51  C   UNL A   1      40.245  28.718  29.157  1.00  0.00     0.031 A 
ATOM     52  C   UNL A   1      46.760  28.561  29.614  1.00  0.00     0.049 A 
ATOM     53  C   UNL A   1      41.284  29.741  29.521  1.00  0.00     0.074 A 
ATOM     54  C   UNL A   1      47.616  29.607  29.911  1.00  0.00     0.029 A 
ATOM     55  N   UNL A   1      45.471  29.074  29.660  1.00  0.00    -0.354 N 
ATOM     56  N   UNL A   1      42.588  29.616  29.576  1.00  0.00    -0.248 NA
ATOM     57  C   UNL A   1      40.791  31.085  29.847  1.00  0.00     0.031 C 
ATOM     58  C   UNL A   1      46.843  30.737  30.198  1.00  0.00     0.029 A 
ATOM     59  C   UNL A   1      45.509  30.415  30.007  1.00  0.00     0.049 A 
ATOM     60  H   UNL A   1      44.652  28.562  29.474  1.00  0.00     0.167 HD
ATOM     61  C   UNL A   1      43.074  30.872  29.916  1.00  0.00     0.074 A 
ATOM     62  C   UNL A   1      41.923  31.748  30.020  1.00  0.00     0.031 C 
ATOM     63  C   UNL A   1      44.354  31.268  30.124  1.00  0.00     0.031 A 
BRANCH  50  64
ATOM     64  C   UNL A   1      48.527  26.765  29.375  1.00  0.00    -0.014 A 
ATOM     65  C   UNL A   1      49.087  26.240  30.552  1.00  0.00     0.009 A 
ATOM     66  C   UNL A   1      49.330  26.853  28.228  1.00  0.00     0.009 A 
ATOM     67  C   UNL A   1      50.428  25.850  30.589  1.00  0.00     0.001 A 
ATOM     68  C   UNL A   1      50.661  26.431  28.256  1.00  0.00     0.001 A 
ATOM     69  C   UNL A   1      51.211  25.940  29.439  1.00  0.00     0.000 A 
ENDBRANCH  50  64
BRANCH  51  70
ATOM     70  C   UNL A   1      38.802  29.074  29.121  1.00  0.00    -0.014 A 
ATOM     71  C   UNL A   1      38.200  29.508  27.930  1.00  0.00     0.009 A 
ATOM     72  C   UNL A   1      38.022  28.997  30.286  1.00  0.00     0.009 A 
ATOM     73  C   UNL A   1      36.858  29.896  27.915  1.00  0.00     0.001 A 
ATOM     74  C   UNL A   1      36.671  29.350  30.259  1.00  0.00     0.001 A 
ATOM     75  C   UNL A   1      36.094  29.812  29.078  1.00  0.00     0.000 A 
ENDBRANCH  51  70
BRANCH  63  76
ATOM     76  C   UNL A   1      44.569  32.722  30.452  1.00  0.00    -0.014 A 
ATOM     77  C   UNL A   1      44.552  33.187  31.777  1.00  0.00     0.009 A 
ATOM     78  C   UNL A   1      44.781  33.641  29.413  1.00  0.00     0.009 A 
ATOM     79  C   UNL A   1      44.677  34.551  32.048  1.00  0.00     0.001 A 
ATOM     80  C   UNL A   1      44.947  34.999  29.690  1.00  0.00     0.001 A 
ATOM     81  C   UNL A   1      44.875  35.454  31.005  1.00  0.00     0.000 A 
ENDBRANCH  63  76
ENDBRANCH  37  38
ENDBRANCH  29  32
ENDBRANCH  27  28
ENDBRANCH  26  27
ENDBRANCH   1  26
TORSDOF 14
ENDMDL
MODEL 2
REMARK VINA RESULT:     -11.2      4.154      9.740
REMARK SMILES C[N@H+]1CCO[C@@H](CNS(=O)(=O)N2CCC(C(=O)NCCCNC(=O)c3ccc(-c4c5nc(c(-c6ccccc6)c6ccc([nH]6)c(-c6ccccc6)c6nc(c(-c7ccccc7)c7ccc4[nH]7)C=C6)C=C5)cc3)CC2)C1
REMARK SMILES IDX 19 1 18 2 16 3 17 4 15 6 12 7 13 8 74 9 14 10 73 11 9 12
REMARK SMILES IDX 10 13 11 14 8 15 7 17 6 18 1 19 2 20 3 21 75 22 4 24 5 25
REMARK SMILES IDX 20 26 21 27 22 28 23 29 24 31 25 32 26 33 72 34 27 35 71 36
REMARK SMILES IDX 28 37 29 38 30 39 65 40 31 41 70 42 64 43 66 44 32 45 69 46
REMARK SMILES IDX 63 47 62 48 33 50 55 51 40 52 54 53 41 54 44 55 53 56 67 57
REMARK SMILES IDX 42 58 43 59 52 61 68 62 45 63 34 64 35 65 39 66 36 67 38 68
REMARK SMILES IDX 37 69 56 70 57 71 61 72 58 73 60 74 59 75 46 76 47 77 51 78
REMARK SMILES IDX 48 79 50 80 49 81
REMARK H PARENT 18 5 8 16 2 23 22 30 66 49 44 60
REMARK Flexibility Score: inf
ROOT
ATOM      1  C   UNL A   1      31.411  30.846  26.038  1.00  0.00     0.117 C 
ENDROOT
BRANCH   1   2
ATOM      2  N   UNL A   1      30.801  30.592  24.749  1.00  0.00    -0.356 N 
ATOM      3  C   UNL A   1      30.655  29.420  24.073  1.00  0.00     0.223 C 
ATOM      4  O   UNL A   1      30.018  29.449  23.017  1.00  0.00    -0.275 OA
ATOM      5  H   UNL A   1      30.437  31.387  24.294  1.00  0.00     0.163 HD
BRANCH   3   6
ATOM      6  C   UNL A   1      31.264  28.105  24.564  1.00  0.00     0.081 C 
ATOM      7  N   UNL A   1      32.438  25.506  23.942  1.00  0.00    -0.189 NA
ATOM      8  C   UNL A   1      33.299  26.564  24.527  1.00  0.00     0.104 C 
ATOM      9  C   UNL A   1      31.060  25.572  24.468  1.00  0.00     0.104 C 
ATOM     10  C   UNL A   1      32.762  27.964  24.246  1.00  0.00     0.030 C 
ATOM     11  C   UNL A   1      30.402  26.904  24.156  1.00  0.00     0.030 C 
BRANCH   7  12
ATOM     12  S   UNL A   1      32.693  25.139  22.329  1.00  0.00     0.279 S 
ATOM     13  O   UNL A   1      34.050  25.480  21.976  1.00  0.00    -0.195 OA
ATOM     14  O   UNL A   1      31.593  25.598  21.526  1.00  0.00    -0.195 OA
BRANCH  12  15
ATOM     15  N   UNL A   1      32.543  23.475  22.313  1.00  0.00    -0.199 NA
ATOM     16  H   UNL A   1      31.596  23.248  22.615  1.00  0.00     0.142 HD
BRANCH  15  17
ATOM     17  C   UNL A   1      33.476  22.716  23.163  1.00  0.00     0.138 C 
BRANCH  17  18
ATOM     18  C   UNL A   1      32.761  21.711  24.091  1.00  0.00     0.188 C 
ATOM     19  C   UNL A   1      35.834  21.180  25.062  1.00  0.00     0.332 C 
ATOM     20  N   UNL A   1      34.581  20.634  25.566  1.00  0.00    -0.333 N 
ATOM     21  C   UNL A   1      34.020  21.433  26.670  1.00  0.00     0.290 C 
ATOM     22  C   UNL A   1      33.548  20.448  24.535  1.00  0.00     0.295 C 
ATOM     23  H   UNL A   1      34.841  19.711  25.915  1.00  0.00     0.348 HD
ATOM     24  C   UNL A   1      33.263  22.692  26.219  1.00  0.00     0.222 C 
ATOM     25  O   UNL A   1      32.242  22.396  25.253  1.00  0.00    -0.365 OA
ENDBRANCH  17  18
ENDBRANCH  15  17
ENDBRANCH  12  15
ENDBRANCH   7  12
ENDBRANCH   3   6
ENDBRANCH   1   2
BRANCH   1  26
ATOM     26  C   UNL A   1      31.260  32.284  26.513  1.00  0.00     0.042 C 
BRANCH  26  27
ATOM     27  C   UNL A   1      32.525  32.843  27.132  1.00  0.00     0.118 C 
BRANCH  27  28
ATOM     28  N   UNL A   1      32.341  34.196  27.639  1.00  0.00    -0.352 N 
ATOM     29  C   UNL A   1      33.005  34.877  28.624  1.00  0.00     0.251 C 
ATOM     30  H   UNL A   1      31.620  34.705  27.201  1.00  0.00     0.163 HD
ATOM     31  O   UNL A   1      32.553  35.947  29.026  1.00  0.00    -0.269 OA
BRANCH  29  32
ATOM     32  C   UNL A   1      34.244  34.333  29.215  1.00  0.00     0.039 A 
ATOM     33  C   UNL A   1      34.143  33.558  30.372  1.00  0.00     0.014 A 
ATOM     34  C   UNL A   1      35.499  34.600  28.663  1.00  0.00     0.014 A 
ATOM     35  C   UNL A   1      35.294  33.019  30.943  1.00  0.00     0.010 A 
ATOM     36  C   UNL A   1      36.630  33.966  29.162  1.00  0.00     0.010 A 
ATOM     37  C   UNL A   1      36.543  33.187  30.322  1.00  0.00    -0.014 A 
BRANCH  37  38
ATOM     38  C   UNL A   1      37.758  32.552  30.889  1.00  0.00     0.031 A 
ATOM     39  C   UNL A   1      38.341  33.035  32.190  1.00  0.00     0.074 A 
ATOM     40  C   UNL A   1      38.340  31.540  30.217  1.00  0.00     0.049 A 
ATOM     41  N   UNL A   1      39.356  32.554  32.864  1.00  0.00    -0.248 NA
ATOM     42  C   UNL A   1      37.728  34.225  32.802  1.00  0.00     0.031 C 
ATOM     43  C   UNL A   1      37.904  31.024  28.917  1.00  0.00     0.029 A 
ATOM     44  N   UNL A   1      39.412  30.751  30.544  1.00  0.00    -0.354 N 
ATOM     45  C   UNL A   1      39.500  33.381  33.971  1.00  0.00     0.074 A 
ATOM     46  C   UNL A   1      38.518  34.434  33.844  1.00  0.00     0.031 C 
ATOM     47  C   UNL A   1      38.659  29.965  28.589  1.00  0.00     0.029 A 
ATOM     48  C   UNL A   1      39.660  29.756  29.629  1.00  0.00     0.049 A 
ATOM     49  H   UNL A   1      39.953  30.883  31.356  1.00  0.00     0.167 HD
ATOM     50  C   UNL A   1      40.355  33.261  35.014  1.00  0.00     0.031 A 
ATOM     51  C   UNL A   1      40.583  28.778  29.632  1.00  0.00     0.031 A 
ATOM     52  C   UNL A   1      41.335  32.214  35.136  1.00  0.00     0.049 A 
ATOM     53  C   UNL A   1      41.523  28.672  30.800  1.00  0.00     0.074 A 
ATOM     54  C   UNL A   1      42.218  31.973  36.174  1.00  0.00     0.029 A 
ATOM     55  N   UNL A   1      41.565  31.235  34.180  1.00  0.00    -0.354 N 
ATOM     56  N   UNL A   1      41.592  29.413  31.880  1.00  0.00    -0.248 NA
ATOM     57  C   UNL A   1      42.500  27.577  30.756  1.00  0.00     0.031 C 
ATOM     58  C   UNL A   1      43.025  30.888  35.819  1.00  0.00     0.029 A 
ATOM     59  C   UNL A   1      42.595  30.405  34.593  1.00  0.00     0.049 A 
ATOM     60  H   UNL A   1      41.070  31.144  33.335  1.00  0.00     0.167 HD
ATOM     61  C   UNL A   1      42.600  28.858  32.656  1.00  0.00     0.074 A 
ATOM     62  C   UNL A   1      43.088  27.699  31.935  1.00  0.00     0.031 C 
ATOM     63  C   UNL A   1      43.081  29.267  33.856  1.00  0.00     0.031 A 
BRANCH  50  64
ATOM     64  C   UNL A   1      40.270  34.297  36.104  1.00  0.00    -0.014 A 
ATOM     65  C   UNL A   1      40.993  35.499  36.028  1.00  0.00     0.009 A 
ATOM     66  C   UNL A   1      39.427  34.086  37.206  1.00  0.00     0.009 A 
ATOM     67  C   UNL A   1      40.903  36.448  37.049  1.00  0.00     0.001 A 
ATOM     68  C   UNL A   1      39.312  35.051  38.209  1.00  0.00     0.001 A 
ATOM     69  C   UNL A   1      40.057  36.226  38.134  1.00  0.00     0.000 A 
ENDBRANCH  50  64
BRANCH  51  70
ATOM     70  C   UNL A   1      40.648  27.806  28.509  1.00  0.00    -0.014 A 
ATOM     71  C   UNL A   1      41.418  28.079  27.367  1.00  0.00     0.009 A 
ATOM     72  C   UNL A   1      39.924  26.604  28.566  1.00  0.00     0.009 A 
ATOM     73  C   UNL A   1      41.430  27.188  26.291  1.00  0.00     0.001 A 
ATOM     74  C   UNL A   1      39.968  25.699  27.504  1.00  0.00     0.001 A 
ATOM     75  C   UNL A   1      40.709  25.998  26.362  1.00  0.00     0.000 A 
ENDBRANCH  51  70
BRANCH  63  76
ATOM     76  C   UNL A   1      44.169  28.428  34.471  1.00  0.00    -0.014 A 
ATOM     77  C   UNL A   1      45.527  28.673  34.203  1.00  0.00     0.009 A 
ATOM     78  C   UNL A   1      43.827  27.368  35.325  1.00  0.00     0.009 A 
ATOM     79  C   UNL A   1      46.512  27.832  34.725  1.00  0.00     0.001 A 
ATOM     80  C   UNL A   1      44.817  26.555  35.879  1.00  0.00     0.001 A 
ATOM     81  C   UNL A   1      46.156  26.776  35.563  1.00  0.00     0.000 A 
ENDBRANCH  63  76
ENDBRANCH  37  38
ENDBRANCH  29  32
ENDBRANCH  27  28
ENDBRANCH  26  27
ENDBRANCH   1  26
TORSDOF 14
ENDMDL
MODEL 3
REMARK VINA RESULT:     -11.1      1.209      6.027
REMARK SMILES C[N@H+]1CCO[C@@H](CNS(=O)(=O)N2CCC(C(=O)NCCCNC(=O)c3ccc(-c4c5nc(c(-c6ccccc6)c6ccc([nH]6)c(-c6ccccc6)c6nc(c(-c7ccccc7)c7ccc4[nH]7)C=C6)C=C5)cc3)CC2)C1
REMARK SMILES IDX 19 1 18 2 16 3 17 4 15 6 12 7 13 8 74 9 14 10 73 11 9 12
REMARK SMILES IDX 10 13 11 14 8 15 7 17 6 18 1 19 2 20 3 21 75 22 4 24 5 25
REMARK SMILES IDX 20 26 21 27 22 28 23 29 24 31 25 32 26 33 72 34 27 35 71 36
REMARK SMILES IDX 28 37 29 38 30 39 65 40 31 41 70 42 64 43 66 44 32 45 69 46
REMARK SMILES IDX 63 47 62 48 33 50 55 51 40 52 54 53 41 54 44 55 53 56 67 57
REMARK SMILES IDX 42 58 43 59 52 61 68 62 45 63 34 64 35 65 39 66 36 67 38 68
REMARK SMILES IDX 37 69 56 70 57 71 61 72 58 73 60 74 59 75 46 76 47 77 51 78
REMARK SMILES IDX 48 79 50 80 49 81
REMARK H PARENT 18 5 8 16 2 23 22 30 66 49 44 60
REMARK Flexibility Score: inf
ROOT
ATOM      1  C   UNL A   1      36.780  20.325  24.913  1.00  0.00     0.117 C 
ENDROOT
BRANCH   1   2
ATOM      2  N   UNL A   1      35.500  19.670  25.075  1.00  0.00    -0.356 N 
ATOM      3  C   UNL A   1      34.242  20.158  24.892  1.00  0.00     0.223 C 
ATOM      4  O   UNL A   1      33.302  19.368  25.014  1.00  0.00    -0.275 OA
ATOM      5  H   UNL A   1      35.545  18.728  25.362  1.00  0.00     0.163 HD
BRANCH   3   6
ATOM      6  C   UNL A   1      33.970  21.629  24.567  1.00  0.00     0.081 C 
ATOM      7  N   UNL A   1      32.287  23.991  24.888  1.00  0.00    -0.189 NA
ATOM      8  C   UNL A   1      33.639  23.981  25.500  1.00  0.00     0.104 C 
ATOM      9  C   UNL A   1      32.261  23.250  23.612  1.00  0.00     0.104 C 
ATOM     10  C   UNL A   1      34.137  22.566  25.774  1.00  0.00     0.030 C 
ATOM     11  C   UNL A   1      32.656  21.796  23.796  1.00  0.00     0.030 C 
BRANCH   7  12
ATOM     12  S   UNL A   1      30.989  23.878  25.939  1.00  0.00     0.279 S 
ATOM     13  O   UNL A   1      31.404  24.311  27.251  1.00  0.00    -0.195 OA
ATOM     14  O   UNL A   1      30.306  22.625  25.766  1.00  0.00    -0.195 OA
BRANCH  12  15
ATOM     15  N   UNL A   1      29.927  25.009  25.318  1.00  0.00    -0.199 NA
ATOM     16  H   UNL A   1      29.599  24.662  24.417  1.00  0.00     0.142 HD
BRANCH  15  17
ATOM     17  C   UNL A   1      30.453  26.368  25.107  1.00  0.00     0.138 C 
BRANCH  17  18
ATOM     18  C   UNL A   1      30.216  26.888  23.673  1.00  0.00     0.188 C 
ATOM     19  C   UNL A   1      31.402  29.626  25.001  1.00  0.00     0.332 C 
ATOM     20  N   UNL A   1      31.027  29.335  23.624  1.00  0.00    -0.333 N 
ATOM     21  C   UNL A   1      32.160  28.839  22.822  1.00  0.00     0.290 C 
ATOM     22  C   UNL A   1      29.901  28.397  23.492  1.00  0.00     0.295 C 
ATOM     23  H   UNL A   1      30.724  30.238  23.258  1.00  0.00     0.348 HD
ATOM     24  C   UNL A   1      32.477  27.350  23.027  1.00  0.00     0.222 C 
ATOM     25  O   UNL A   1      31.324  26.516  22.824  1.00  0.00    -0.365 OA
ENDBRANCH  17  18
ENDBRANCH  15  17
ENDBRANCH  12  15
ENDBRANCH   7  12
ENDBRANCH   3   6
ENDBRANCH   1   2
BRANCH   1  26
ATOM     26  C   UNL A   1      37.968  19.380  25.000  1.00  0.00     0.042 C 
BRANCH  26  27
ATOM     27  C   UNL A   1      39.147  19.970  25.745  1.00  0.00     0.118 C 
BRANCH  27  28
ATOM     28  N   UNL A   1      40.229  19.009  25.919  1.00  0.00    -0.352 N 
ATOM     29  C   UNL A   1      41.568  19.202  26.128  1.00  0.00     0.251 C 
ATOM     30  H   UNL A   1      39.950  18.065  25.880  1.00  0.00     0.163 HD
ATOM     31  O   UNL A   1      42.334  18.245  26.048  1.00  0.00    -0.269 OA
BRANCH  29  32
ATOM     32  C   UNL A   1      42.099  20.547  26.430  1.00  0.00     0.039 A 
ATOM     33  C   UNL A   1      42.465  21.372  25.363  1.00  0.00     0.014 A 
ATOM     34  C   UNL A   1      42.268  20.991  27.743  1.00  0.00     0.014 A 
ATOM     35  C   UNL A   1      42.954  22.651  25.618  1.00  0.00     0.010 A 
ATOM     36  C   UNL A   1      42.643  22.306  27.992  1.00  0.00     0.010 A 
ATOM     37  C   UNL A   1      43.013  23.143  26.933  1.00  0.00    -0.014 A 
BRANCH  37  38
ATOM     38  C   UNL A   1      43.465  24.530  27.198  1.00  0.00     0.031 A 
ATOM     39  C   UNL A   1      42.485  25.589  27.626  1.00  0.00     0.074 A 
ATOM     40  C   UNL A   1      44.768  24.833  27.042  1.00  0.00     0.049 A 
ATOM     41  N   UNL A   1      42.716  26.834  27.964  1.00  0.00    -0.248 NA
ATOM     42  C   UNL A   1      41.061  25.217  27.653  1.00  0.00     0.031 C 
ATOM     43  C   UNL A   1      45.803  23.908  26.573  1.00  0.00     0.029 A 
ATOM     44  N   UNL A   1      45.448  25.999  27.279  1.00  0.00    -0.354 N 
ATOM     45  C   UNL A   1      41.471  27.387  28.240  1.00  0.00     0.074 A 
ATOM     46  C   UNL A   1      40.484  26.368  27.962  1.00  0.00     0.031 C 
ATOM     47  C   UNL A   1      46.995  24.522  26.619  1.00  0.00     0.029 A 
ATOM     48  C   UNL A   1      46.804  25.895  27.074  1.00  0.00     0.049 A 
ATOM     49  H   UNL A   1      45.010  26.832  27.568  1.00  0.00     0.167 HD
ATOM     50  C   UNL A   1      41.177  28.623  28.708  1.00  0.00     0.031 A 
ATOM     51  C   UNL A   1      47.784  26.800  27.245  1.00  0.00     0.031 A 
ATOM     52  C   UNL A   1      42.162  29.636  28.980  1.00  0.00     0.049 A 
ATOM     53  C   UNL A   1      47.428  28.165  27.761  1.00  0.00     0.074 A 
ATOM     54  C   UNL A   1      41.976  30.905  29.501  1.00  0.00     0.029 A 
ATOM     55  N   UNL A   1      43.522  29.497  28.745  1.00  0.00    -0.354 N 
ATOM     56  N   UNL A   1      46.255  28.646  28.095  1.00  0.00    -0.248 NA
ATOM     57  C   UNL A   1      48.541  29.106  27.941  1.00  0.00     0.031 C 
ATOM     58  C   UNL A   1      43.214  31.555  29.521  1.00  0.00     0.029 A 
ATOM     59  C   UNL A   1      44.183  30.667  29.084  1.00  0.00     0.049 A 
ATOM     60  H   UNL A   1      43.954  28.687  28.390  1.00  0.00     0.167 HD
ATOM     61  C   UNL A   1      46.492  29.936  28.552  1.00  0.00     0.074 A 
ATOM     62  C   UNL A   1      47.924  30.145  28.481  1.00  0.00     0.031 C 
ATOM     63  C   UNL A   1      45.606  30.865  28.990  1.00  0.00     0.031 A 
BRANCH  50  64
ATOM     64  C   UNL A   1      39.727  28.947  28.949  1.00  0.00    -0.014 A 
ATOM     65  C   UNL A   1      38.918  29.479  27.931  1.00  0.00     0.009 A 
ATOM     66  C   UNL A   1      39.149  28.683  30.200  1.00  0.00     0.009 A 
ATOM     67  C   UNL A   1      37.574  29.775  28.172  1.00  0.00     0.001 A 
ATOM     68  C   UNL A   1      37.796  28.947  30.430  1.00  0.00     0.001 A 
ATOM     69  C   UNL A   1      37.013  29.502  29.418  1.00  0.00     0.000 A 
ENDBRANCH  50  64
BRANCH  51  70
ATOM     70  C   UNL A   1      49.197  26.437  26.954  1.00  0.00    -0.014 A 
ATOM     71  C   UNL A   1      50.020  25.897  27.954  1.00  0.00     0.009 A 
ATOM     72  C   UNL A   1      49.735  26.649  25.674  1.00  0.00     0.009 A 
ATOM     73  C   UNL A   1      51.362  25.611  27.690  1.00  0.00     0.001 A 
ATOM     74  C   UNL A   1      51.067  26.327  25.403  1.00  0.00     0.001 A 
ATOM     75  C   UNL A   1      51.882  25.823  26.414  1.00  0.00     0.000 A 
ENDBRANCH  51  70
BRANCH  63  76
ATOM     76  C   UNL A   1      46.178  32.178  29.457  1.00  0.00    -0.014 A 
ATOM     77  C   UNL A   1      46.539  32.387  30.798  1.00  0.00     0.009 A 
ATOM     78  C   UNL A   1      46.347  33.225  28.538  1.00  0.00     0.009 A 
ATOM     79  C   UNL A   1      46.994  33.638  31.220  1.00  0.00     0.001 A 
ATOM     80  C   UNL A   1      46.842  34.461  28.954  1.00  0.00     0.001 A 
ATOM     81  C   UNL A   1      47.146  34.672  30.298  1.00  0.00     0.000 A 
ENDBRANCH  63  76
ENDBRANCH  37  38
ENDBRANCH  29  32
ENDBRANCH  27  28
ENDBRANCH  26  27
ENDBRANCH   1  26
TORSDOF 14
ENDMDL
