MODEL 1
REMARK VINA RESULT:     -11.3      0.000      0.000
REMARK SMILES CCn1cccc1C(=O)N(C)c1snc(C)c1C(=O)NCCCNC(=O)c1ccc(-c2c3nc(c(-c4ccccc4)c4ccc([nH]4)c(-c4ccccc4)c4nc(c(-c5ccccc5)c5ccc2[nH]5)C=C4)C=C3)cc1
REMARK SMILES IDX 21 1 20 2 18 3 19 4 17 6 12 7 13 8 14 9 15 10 16 11 10 12
REMARK SMILES IDX 11 13 8 14 9 15 7 16 3 17 4 18 5 19 6 20 2 21 1 22 22 23
REMARK SMILES IDX 23 24 24 25 25 26 26 28 27 29 28 30 74 31 29 32 73 33 30 34
REMARK SMILES IDX 31 35 32 36 67 37 33 38 72 39 66 40 68 41 34 42 71 43 65 44
REMARK SMILES IDX 64 45 35 47 57 48 42 49 56 50 43 51 46 52 55 53 69 54 44 55
REMARK SMILES IDX 45 56 54 58 70 59 47 60 36 61 37 62 41 63 38 64 40 65 39 66
REMARK SMILES IDX 58 67 59 68 63 69 60 70 62 71 61 72 48 73 49 74 53 75 50 76
REMARK SMILES IDX 52 77 51 78
REMARK H PARENT 20 5 24 27 68 46 46 57
REMARK Flexibility Score: inf
ROOT
ATOM      1  C   UNL A   1      33.256  29.182  25.773  1.00  0.00     0.118 C 
ENDROOT
BRANCH   1   2
ATOM      2  N   UNL A   1      33.891  28.895  24.519  1.00  0.00    -0.352 N 
ATOM      3  C   UNL A   1      33.315  28.311  23.410  1.00  0.00     0.256 C 
ATOM      4  O   UNL A   1      33.924  28.460  22.348  1.00  0.00    -0.269 OA
ATOM      5  H   UNL A   1      34.841  29.140  24.442  1.00  0.00     0.163 HD
BRANCH   3   6
ATOM      6  C   UNL A   1      32.179  27.381  23.515  1.00  0.00     0.097 A 
ATOM      7  C   UNL A   1      32.112  25.979  23.638  1.00  0.00     0.131 A 
ATOM      8  S   UNL A   1      30.444  25.540  23.562  1.00  0.00    -0.017 S 
ATOM      9  N   UNL A   1      29.819  27.044  23.522  1.00  0.00    -0.195 NA
ATOM     10  C   UNL A   1      30.813  27.925  23.495  1.00  0.00     0.066 A 
ATOM     11  C   UNL A   1      30.406  29.363  23.405  1.00  0.00     0.069 C 
BRANCH   7  12
ATOM     12  N   UNL A   1      33.032  24.891  23.808  1.00  0.00    -0.300 N 
ATOM     13  C   UNL A   1      32.933  23.662  23.034  1.00  0.00     0.154 C 
BRANCH  12  14
ATOM     14  C   UNL A   1      33.847  24.913  24.950  1.00  0.00     0.275 C 
ATOM     15  O   UNL A   1      34.734  25.771  25.022  1.00  0.00    -0.267 OA
BRANCH  14  16
ATOM     16  C   UNL A   1      33.749  23.915  26.056  1.00  0.00     0.107 A 
ATOM     17  N   UNL A   1      32.726  23.248  26.745  1.00  0.00    -0.344 N 
ATOM     18  C   UNL A   1      33.275  22.196  27.463  1.00  0.00     0.086 A 
ATOM     19  C   UNL A   1      34.636  22.221  27.345  1.00  0.00     0.020 A 
ATOM     20  C   UNL A   1      34.929  23.289  26.489  1.00  0.00     0.033 A 
BRANCH  17  21
ATOM     21  C   UNL A   1      31.299  23.488  26.901  1.00  0.00     0.119 C 
ATOM     22  C   UNL A   1      30.358  22.567  26.156  1.00  0.00     0.027 C 
ENDBRANCH  17  21
ENDBRANCH  14  16
ENDBRANCH  12  14
ENDBRANCH   7  12
ENDBRANCH   3   6
ENDBRANCH   1   2
BRANCH   1  23
ATOM     23  C   UNL A   1      33.811  28.506  27.009  1.00  0.00     0.042 C 
BRANCH  23  24
ATOM     24  C   UNL A   1      35.152  29.071  27.438  1.00  0.00     0.118 C 
BRANCH  24  25
ATOM     25  N   UNL A   1      35.092  30.142  28.436  1.00  0.00    -0.352 N 
ATOM     26  C   UNL A   1      36.117  30.610  29.245  1.00  0.00     0.251 C 
ATOM     27  H   UNL A   1      34.218  30.583  28.545  1.00  0.00     0.163 HD
ATOM     28  O   UNL A   1      35.946  31.404  30.142  1.00  0.00    -0.269 OA
BRANCH  26  29
ATOM     29  C   UNL A   1      37.455  30.050  29.010  1.00  0.00     0.039 A 
ATOM     30  C   UNL A   1      38.013  29.207  29.974  1.00  0.00     0.014 A 
ATOM     31  C   UNL A   1      38.058  30.263  27.772  1.00  0.00     0.014 A 
ATOM     32  C   UNL A   1      39.128  28.459  29.633  1.00  0.00     0.010 A 
ATOM     33  C   UNL A   1      39.085  29.439  27.389  1.00  0.00     0.010 A 
ATOM     34  C   UNL A   1      39.617  28.541  28.323  1.00  0.00    -0.014 A 
BRANCH  34  35
ATOM     35  C   UNL A   1      40.720  27.683  27.876  1.00  0.00     0.031 A 
ATOM     36  C   UNL A   1      42.070  28.392  27.833  1.00  0.00     0.074 A 
ATOM     37  C   UNL A   1      40.353  26.387  27.668  1.00  0.00     0.049 A 
ATOM     38  N   UNL A   1      43.143  28.086  27.172  1.00  0.00    -0.248 NA
ATOM     39  C   UNL A   1      42.249  29.658  28.596  1.00  0.00     0.031 C 
ATOM     40  C   UNL A   1      38.957  25.899  27.780  1.00  0.00     0.029 A 
ATOM     41  N   UNL A   1      41.028  25.230  27.370  1.00  0.00    -0.354 N 
ATOM     42  C   UNL A   1      44.152  29.001  27.540  1.00  0.00     0.074 A 
ATOM     43  C   UNL A   1      43.514  30.005  28.339  1.00  0.00     0.031 C 
ATOM     44  C   UNL A   1      38.889  24.581  27.533  1.00  0.00     0.029 A 
ATOM     45  C   UNL A   1      40.209  24.090  27.209  1.00  0.00     0.049 A 
ATOM     46  H   UNL A   1      42.008  25.197  27.273  1.00  0.00     0.167 HD
ATOM     47  C   UNL A   1      45.478  28.792  27.284  1.00  0.00     0.031 A 
ATOM     48  C   UNL A   1      40.547  22.841  26.785  1.00  0.00     0.031 A 
ATOM     49  C   UNL A   1      45.663  27.580  26.557  1.00  0.00     0.049 A 
ATOM     50  C   UNL A   1      42.009  22.835  26.622  1.00  0.00     0.074 A 
ATOM     51  C   UNL A   1      45.387  27.197  25.270  1.00  0.00     0.029 A 
ATOM     52  N   UNL A   1      45.893  26.452  27.309  1.00  0.00    -0.354 N 
ATOM     53  N   UNL A   1      42.866  22.858  27.595  1.00  0.00    -0.248 NA
ATOM     54  C   UNL A   1      42.571  22.942  25.272  1.00  0.00     0.031 C 
ATOM     55  C   UNL A   1      44.977  25.848  25.404  1.00  0.00     0.029 A 
ATOM     56  C   UNL A   1      45.178  25.435  26.725  1.00  0.00     0.049 A 
ATOM     57  H   UNL A   1      46.459  26.386  28.112  1.00  0.00     0.167 HD
ATOM     58  C   UNL A   1      43.990  23.374  26.993  1.00  0.00     0.074 A 
ATOM     59  C   UNL A   1      43.854  23.117  25.576  1.00  0.00     0.031 C 
ATOM     60  C   UNL A   1      44.669  24.390  27.585  1.00  0.00     0.031 A 
BRANCH  47  61
ATOM     61  C   UNL A   1      46.709  29.445  27.859  1.00  0.00    -0.014 A 
ATOM     62  C   UNL A   1      47.683  29.920  26.947  1.00  0.00     0.009 A 
ATOM     63  C   UNL A   1      47.092  29.342  29.200  1.00  0.00     0.009 A 
ATOM     64  C   UNL A   1      49.001  30.172  27.334  1.00  0.00     0.001 A 
ATOM     65  C   UNL A   1      48.407  29.632  29.598  1.00  0.00     0.001 A 
ATOM     66  C   UNL A   1      49.367  30.012  28.662  1.00  0.00     0.000 A 
ENDBRANCH  47  61
BRANCH  48  67
ATOM     67  C   UNL A   1      39.781  21.635  26.328  1.00  0.00    -0.014 A 
ATOM     68  C   UNL A   1      38.522  21.650  25.720  1.00  0.00     0.009 A 
ATOM     69  C   UNL A   1      40.407  20.368  26.415  1.00  0.00     0.009 A 
ATOM     70  C   UNL A   1      37.978  20.496  25.130  1.00  0.00     0.001 A 
ATOM     71  C   UNL A   1      39.890  19.224  25.800  1.00  0.00     0.001 A 
ATOM     72  C   UNL A   1      38.679  19.294  25.137  1.00  0.00     0.000 A 
ENDBRANCH  48  67
BRANCH  60  73
ATOM     73  C   UNL A   1      44.414  24.546  29.080  1.00  0.00    -0.014 A 
ATOM     74  C   UNL A   1      43.952  25.765  29.601  1.00  0.00     0.009 A 
ATOM     75  C   UNL A   1      44.743  23.543  30.010  1.00  0.00     0.009 A 
ATOM     76  C   UNL A   1      43.861  25.981  30.984  1.00  0.00     0.001 A 
ATOM     77  C   UNL A   1      44.647  23.749  31.393  1.00  0.00     0.001 A 
ATOM     78  C   UNL A   1      44.212  24.975  31.881  1.00  0.00     0.000 A 
ENDBRANCH  60  73
ENDBRANCH  34  35
ENDBRANCH  26  29
ENDBRANCH  24  25
ENDBRANCH  23  24
ENDBRANCH   1  23
TORSDOF 14
ENDMDL
MODEL 2
REMARK VINA RESULT:     -11.0      1.280      3.552
REMARK SMILES CCn1cccc1C(=O)N(C)c1snc(C)c1C(=O)NCCCNC(=O)c1ccc(-c2c3nc(c(-c4ccccc4)c4ccc([nH]4)c(-c4ccccc4)c4nc(c(-c5ccccc5)c5ccc2[nH]5)C=C4)C=C3)cc1
REMARK SMILES IDX 21 1 20 2 18 3 19 4 17 6 12 7 13 8 14 9 15 10 16 11 10 12
REMARK SMILES IDX 11 13 8 14 9 15 7 16 3 17 4 18 5 19 6 20 2 21 1 22 22 23
REMARK SMILES IDX 23 24 24 25 25 26 26 28 27 29 28 30 74 31 29 32 73 33 30 34
REMARK SMILES IDX 31 35 32 36 67 37 33 38 72 39 66 40 68 41 34 42 71 43 65 44
REMARK SMILES IDX 64 45 35 47 57 48 42 49 56 50 43 51 46 52 55 53 69 54 44 55
REMARK SMILES IDX 45 56 54 58 70 59 47 60 36 61 37 62 41 63 38 64 40 65 39 66
REMARK SMILES IDX 58 67 59 68 63 69 60 70 62 71 61 72 48 73 49 74 53 75 50 76
REMARK SMILES IDX 52 77 51 78
REMARK H PARENT 20 5 24 27 68 46 46 57
REMARK Flexibility Score: inf
ROOT
ATOM      1  C   UNL A   1      33.325  29.251  25.797  1.00  0.00     0.118 C 
ENDROOT
BRANCH   1   2
ATOM      2  N   UNL A   1      33.775  28.825  24.504  1.00  0.00    -0.352 N 
ATOM      3  C   UNL A   1      33.171  27.901  23.677  1.00  0.00     0.256 C 
ATOM      4  O   UNL A   1      33.524  27.928  22.494  1.00  0.00    -0.269 OA
ATOM      5  H   UNL A   1      34.605  29.236  24.171  1.00  0.00     0.163 HD
BRANCH   3   6
ATOM      6  C   UNL A   1      32.339  26.806  24.200  1.00  0.00     0.097 A 
ATOM      7  C   UNL A   1      30.946  26.602  24.218  1.00  0.00     0.131 A 
ATOM      8  S   UNL A   1      30.653  25.163  25.127  1.00  0.00    -0.017 S 
ATOM      9  N   UNL A   1      32.205  24.731  25.367  1.00  0.00    -0.195 NA
ATOM     10  C   UNL A   1      32.998  25.662  24.848  1.00  0.00     0.066 A 
ATOM     11  C   UNL A   1      34.468  25.440  25.030  1.00  0.00     0.069 C 
BRANCH   7  12
ATOM     12  N   UNL A   1      29.778  27.251  23.694  1.00  0.00    -0.300 N 
ATOM     13  C   UNL A   1      28.440  26.708  23.876  1.00  0.00     0.154 C 
BRANCH  12  14
ATOM     14  C   UNL A   1      29.980  28.262  22.741  1.00  0.00     0.275 C 
ATOM     15  O   UNL A   1      30.502  27.957  21.663  1.00  0.00    -0.267 OA
BRANCH  14  16
ATOM     16  C   UNL A   1      29.660  29.700  22.982  1.00  0.00     0.107 A 
ATOM     17  N   UNL A   1      28.784  30.657  22.450  1.00  0.00    -0.344 N 
ATOM     18  C   UNL A   1      28.728  31.745  23.308  1.00  0.00     0.086 A 
ATOM     19  C   UNL A   1      29.619  31.572  24.328  1.00  0.00     0.020 A 
ATOM     20  C   UNL A   1      30.204  30.317  24.120  1.00  0.00     0.033 A 
BRANCH  17  21
ATOM     21  C   UNL A   1      28.033  30.749  21.207  1.00  0.00     0.119 C 
ATOM     22  C   UNL A   1      28.024  32.089  20.503  1.00  0.00     0.027 C 
ENDBRANCH  17  21
ENDBRANCH  14  16
ENDBRANCH  12  14
ENDBRANCH   7  12
ENDBRANCH   3   6
ENDBRANCH   1   2
BRANCH   1  23
ATOM     23  C   UNL A   1      33.918  28.560  27.008  1.00  0.00     0.042 C 
BRANCH  23  24
ATOM     24  C   UNL A   1      35.235  29.171  27.449  1.00  0.00     0.118 C 
BRANCH  24  25
ATOM     25  N   UNL A   1      35.154  30.069  28.604  1.00  0.00    -0.352 N 
ATOM     26  C   UNL A   1      36.154  30.380  29.513  1.00  0.00     0.251 C 
ATOM     27  H   UNL A   1      34.283  30.507  28.751  1.00  0.00     0.163 HD
ATOM     28  O   UNL A   1      35.962  31.023  30.519  1.00  0.00    -0.269 OA
BRANCH  26  29
ATOM     29  C   UNL A   1      37.490  29.834  29.239  1.00  0.00     0.039 A 
ATOM     30  C   UNL A   1      38.055  28.939  30.150  1.00  0.00     0.014 A 
ATOM     31  C   UNL A   1      38.086  30.117  28.011  1.00  0.00     0.014 A 
ATOM     32  C   UNL A   1      39.168  28.213  29.760  1.00  0.00     0.010 A 
ATOM     33  C   UNL A   1      39.110  29.317  27.575  1.00  0.00     0.010 A 
ATOM     34  C   UNL A   1      39.649  28.369  28.454  1.00  0.00    -0.014 A 
BRANCH  34  35
ATOM     35  C   UNL A   1      40.750  27.538  27.953  1.00  0.00     0.031 A 
ATOM     36  C   UNL A   1      42.104  28.242  27.965  1.00  0.00     0.074 A 
ATOM     37  C   UNL A   1      40.377  26.262  27.653  1.00  0.00     0.049 A 
ATOM     38  N   UNL A   1      43.178  27.977  27.289  1.00  0.00    -0.248 NA
ATOM     39  C   UNL A   1      42.286  29.450  28.817  1.00  0.00     0.031 C 
ATOM     40  C   UNL A   1      38.978  25.775  27.723  1.00  0.00     0.029 A 
ATOM     41  N   UNL A   1      41.047  25.125  27.276  1.00  0.00    -0.354 N 
ATOM     42  C   UNL A   1      44.190  28.858  27.725  1.00  0.00     0.074 A 
ATOM     43  C   UNL A   1      43.553  29.807  28.590  1.00  0.00     0.031 C 
ATOM     44  C   UNL A   1      38.905  24.478  27.384  1.00  0.00     0.029 A 
ATOM     45  C   UNL A   1      40.223  24.004  27.032  1.00  0.00     0.049 A 
ATOM     46  H   UNL A   1      42.027  25.094  27.182  1.00  0.00     0.167 HD
ATOM     47  C   UNL A   1      45.516  28.661  27.461  1.00  0.00     0.031 A 
ATOM     48  C   UNL A   1      40.557  22.786  26.523  1.00  0.00     0.031 A 
ATOM     49  C   UNL A   1      45.699  27.502  26.651  1.00  0.00     0.049 A 
ATOM     50  C   UNL A   1      42.019  22.784  26.366  1.00  0.00     0.074 A 
ATOM     51  C   UNL A   1      45.426  27.211  25.339  1.00  0.00     0.029 A 
ATOM     52  N   UNL A   1      45.919  26.322  27.323  1.00  0.00    -0.354 N 
ATOM     53  N   UNL A   1      42.872  22.734  27.342  1.00  0.00    -0.248 NA
ATOM     54  C   UNL A   1      42.588  22.982  25.029  1.00  0.00     0.031 C 
ATOM     55  C   UNL A   1      45.008  25.858  25.376  1.00  0.00     0.029 A 
ATOM     56  C   UNL A   1      45.202  25.353  26.665  1.00  0.00     0.049 A 
ATOM     57  H   UNL A   1      46.481  26.197  28.121  1.00  0.00     0.167 HD
ATOM     58  C   UNL A   1      44.002  23.284  26.783  1.00  0.00     0.074 A 
ATOM     59  C   UNL A   1      43.871  23.128  25.351  1.00  0.00     0.031 C 
ATOM     60  C   UNL A   1      44.684  24.253  27.448  1.00  0.00     0.031 A 
BRANCH  47  61
ATOM     61  C   UNL A   1      46.748  29.264  28.085  1.00  0.00    -0.014 A 
ATOM     62  C   UNL A   1      47.031  28.926  29.431  1.00  0.00     0.009 A 
ATOM     63  C   UNL A   1      47.445  30.349  27.544  1.00  0.00     0.009 A 
ATOM     64  C   UNL A   1      47.881  29.697  30.227  1.00  0.00     0.001 A 
ATOM     65  C   UNL A   1      48.329  31.103  28.332  1.00  0.00     0.001 A 
ATOM     66  C   UNL A   1      48.519  30.799  29.678  1.00  0.00     0.000 A 
ENDBRANCH  47  61
BRANCH  48  67
ATOM     67  C   UNL A   1      39.787  21.619  25.979  1.00  0.00    -0.014 A 
ATOM     68  C   UNL A   1      40.153  20.275  26.098  1.00  0.00     0.009 A 
ATOM     69  C   UNL A   1      38.528  21.863  25.379  1.00  0.00     0.009 A 
ATOM     70  C   UNL A   1      39.267  19.239  25.751  1.00  0.00     0.001 A 
ATOM     71  C   UNL A   1      37.628  20.842  25.065  1.00  0.00     0.001 A 
ATOM     72  C   UNL A   1      37.993  19.524  25.271  1.00  0.00     0.000 A 
ENDBRANCH  48  67
BRANCH  60  73
ATOM     73  C   UNL A   1      44.422  24.305  28.949  1.00  0.00    -0.014 A 
ATOM     74  C   UNL A   1      44.238  25.535  29.599  1.00  0.00     0.009 A 
ATOM     75  C   UNL A   1      44.478  23.159  29.764  1.00  0.00     0.009 A 
ATOM     76  C   UNL A   1      44.154  25.618  30.996  1.00  0.00     0.001 A 
ATOM     77  C   UNL A   1      44.387  23.233  31.161  1.00  0.00     0.001 A 
ATOM     78  C   UNL A   1      44.233  24.469  31.778  1.00  0.00     0.000 A 
ENDBRANCH  60  73
ENDBRANCH  34  35
ENDBRANCH  26  29
ENDBRANCH  24  25
ENDBRANCH  23  24
ENDBRANCH   1  23
TORSDOF 14
ENDMDL
MODEL 3
REMARK VINA RESULT:     -10.8      2.607      7.821
REMARK SMILES CCn1cccc1C(=O)N(C)c1snc(C)c1C(=O)NCCCNC(=O)c1ccc(-c2c3nc(c(-c4ccccc4)c4ccc([nH]4)c(-c4ccccc4)c4nc(c(-c5ccccc5)c5ccc2[nH]5)C=C4)C=C3)cc1
REMARK SMILES IDX 21 1 20 2 18 3 19 4 17 6 12 7 13 8 14 9 15 10 16 11 10 12
REMARK SMILES IDX 11 13 8 14 9 15 7 16 3 17 4 18 5 19 6 20 2 21 1 22 22 23
REMARK SMILES IDX 23 24 24 25 25 26 26 28 27 29 28 30 74 31 29 32 73 33 30 34
REMARK SMILES IDX 31 35 32 36 67 37 33 38 72 39 66 40 68 41 34 42 71 43 65 44
REMARK SMILES IDX 64 45 35 47 57 48 42 49 56 50 43 51 46 52 55 53 69 54 44 55
REMARK SMILES IDX 45 56 54 58 70 59 47 60 36 61 37 62 41 63 38 64 40 65 39 66
REMARK SMILES IDX 58 67 59 68 63 69 60 70 62 71 61 72 48 73 49 74 53 75 50 76
REMARK SMILES IDX 52 77 51 78
REMARK H PARENT 20 5 24 27 68 46 46 57
REMARK Flexibility Score: inf
ROOT
ATOM      1  C   UNL A   1      37.199  21.204  24.942  1.00  0.00     0.118 C 
ENDROOT
BRANCH   1   2
ATOM      2  N   UNL A   1      36.393  21.580  26.067  1.00  0.00    -0.352 N 
ATOM      3  C   UNL A   1      35.017  21.522  26.161  1.00  0.00     0.256 C 
ATOM      4  O   UNL A   1      34.555  21.568  27.304  1.00  0.00    -0.269 OA
ATOM      5  H   UNL A   1      36.873  21.916  26.857  1.00  0.00     0.163 HD
BRANCH   3   6
ATOM      6  C   UNL A   1      34.146  21.631  24.980  1.00  0.00     0.097 A 
ATOM      7  C   UNL A   1      33.760  22.729  24.187  1.00  0.00     0.131 A 
ATOM      8  S   UNL A   1      32.598  22.152  23.048  1.00  0.00    -0.017 S 
ATOM      9  N   UNL A   1      32.677  20.571  23.431  1.00  0.00    -0.195 NA
ATOM     10  C   UNL A   1      33.509  20.414  24.454  1.00  0.00     0.066 A 
ATOM     11  C   UNL A   1      33.657  19.014  24.965  1.00  0.00     0.069 C 
BRANCH   7  12
ATOM     12  N   UNL A   1      34.080  24.125  24.092  1.00  0.00    -0.300 N 
ATOM     13  C   UNL A   1      34.817  24.826  25.134  1.00  0.00     0.154 C 
BRANCH  12  14
ATOM     14  C   UNL A   1      33.407  24.871  23.113  1.00  0.00     0.275 C 
ATOM     15  O   UNL A   1      33.910  24.953  21.987  1.00  0.00    -0.267 OA
BRANCH  14  16
ATOM     16  C   UNL A   1      32.148  25.630  23.373  1.00  0.00     0.107 A 
ATOM     17  N   UNL A   1      31.338  25.921  24.479  1.00  0.00    -0.344 N 
ATOM     18  C   UNL A   1      30.464  26.944  24.144  1.00  0.00     0.086 A 
ATOM     19  C   UNL A   1      30.608  27.257  22.822  1.00  0.00     0.020 A 
ATOM     20  C   UNL A   1      31.637  26.437  22.343  1.00  0.00     0.033 A 
BRANCH  17  21
ATOM     21  C   UNL A   1      31.199  25.333  25.804  1.00  0.00     0.119 C 
ATOM     22  C   UNL A   1      30.760  23.887  25.875  1.00  0.00     0.027 C 
ENDBRANCH  17  21
ENDBRANCH  14  16
ENDBRANCH  12  14
ENDBRANCH   7  12
ENDBRANCH   3   6
ENDBRANCH   1   2
BRANCH   1  23
ATOM     23  C   UNL A   1      38.005  19.927  25.053  1.00  0.00     0.042 C 
BRANCH  23  24
ATOM     24  C   UNL A   1      39.347  20.134  25.730  1.00  0.00     0.118 C 
BRANCH  24  25
ATOM     25  N   UNL A   1      40.185  18.938  25.843  1.00  0.00    -0.352 N 
ATOM     26  C   UNL A   1      41.551  18.874  26.075  1.00  0.00     0.251 C 
ATOM     27  H   UNL A   1      39.721  18.075  25.741  1.00  0.00     0.163 HD
ATOM     28  O   UNL A   1      42.188  17.847  26.014  1.00  0.00    -0.269 OA
BRANCH  26  29
ATOM     29  C   UNL A   1      42.236  20.144  26.350  1.00  0.00     0.039 A 
ATOM     30  C   UNL A   1      42.867  20.813  25.299  1.00  0.00     0.014 A 
ATOM     31  C   UNL A   1      42.109  20.708  27.618  1.00  0.00     0.014 A 
ATOM     32  C   UNL A   1      43.258  22.128  25.491  1.00  0.00     0.010 A 
ATOM     33  C   UNL A   1      42.381  22.042  27.777  1.00  0.00     0.010 A 
ATOM     34  C   UNL A   1      42.957  22.746  26.712  1.00  0.00    -0.014 A 
BRANCH  34  35
ATOM     35  C   UNL A   1      43.242  24.170  26.924  1.00  0.00     0.031 A 
ATOM     36  C   UNL A   1      41.994  25.017  27.158  1.00  0.00     0.074 A 
ATOM     37  C   UNL A   1      44.573  24.460  26.961  1.00  0.00     0.049 A 
ATOM     38  N   UNL A   1      41.825  26.295  27.016  1.00  0.00    -0.248 NA
ATOM     39  C   UNL A   1      40.728  24.346  27.563  1.00  0.00     0.031 C 
ATOM     40  C   UNL A   1      45.641  23.461  26.712  1.00  0.00     0.029 A 
ATOM     41  N   UNL A   1      45.307  25.586  27.239  1.00  0.00    -0.354 N 
ATOM     42  C   UNL A   1      40.519  26.607  27.448  1.00  0.00     0.074 A 
ATOM     43  C   UNL A   1      39.858  25.355  27.673  1.00  0.00     0.031 C 
ATOM     44  C   UNL A   1      46.856  24.021  26.824  1.00  0.00     0.029 A 
ATOM     45  C   UNL A   1      46.705  25.426  27.121  1.00  0.00     0.049 A 
ATOM     46  H   UNL A   1      44.890  26.440  27.499  1.00  0.00     0.167 HD
ATOM     47  C   UNL A   1      40.111  27.880  27.732  1.00  0.00     0.031 A 
ATOM     48  C   UNL A   1      47.687  26.367  27.195  1.00  0.00     0.031 A 
ATOM     49  C   UNL A   1      41.158  28.812  27.470  1.00  0.00     0.049 A 
ATOM     50  C   UNL A   1      47.029  27.633  27.554  1.00  0.00     0.074 A 
ATOM     51  C   UNL A   1      41.737  29.287  26.322  1.00  0.00     0.029 A 
ATOM     52  N   UNL A   1      41.980  29.112  28.531  1.00  0.00    -0.354 N 
ATOM     53  N   UNL A   1      46.526  27.906  28.718  1.00  0.00    -0.248 NA
ATOM     54  C   UNL A   1      46.794  28.630  26.505  1.00  0.00     0.031 C 
ATOM     55  C   UNL A   1      43.105  29.415  26.666  1.00  0.00     0.029 A 
ATOM     56  C   UNL A   1      43.259  29.172  28.035  1.00  0.00     0.049 A 
ATOM     57  H   UNL A   1      41.705  29.255  29.466  1.00  0.00     0.167 HD
ATOM     58  C   UNL A   1      45.604  28.883  28.425  1.00  0.00     0.074 A 
ATOM     59  C   UNL A   1      46.018  29.479  27.174  1.00  0.00     0.031 C 
ATOM     60  C   UNL A   1      44.340  28.790  28.916  1.00  0.00     0.031 A 
BRANCH  47  61
ATOM     61  C   UNL A   1      38.914  28.386  28.496  1.00  0.00    -0.014 A 
ATOM     62  C   UNL A   1      38.163  29.435  27.913  1.00  0.00     0.009 A 
ATOM     63  C   UNL A   1      38.678  28.110  29.846  1.00  0.00     0.009 A 
ATOM     64  C   UNL A   1      37.304  30.240  28.666  1.00  0.00     0.001 A 
ATOM     65  C   UNL A   1      37.786  28.893  30.596  1.00  0.00     0.001 A 
ATOM     66  C   UNL A   1      37.128  29.976  30.016  1.00  0.00     0.000 A 
ENDBRANCH  47  61
BRANCH  48  67
ATOM     67  C   UNL A   1      49.146  26.404  26.847  1.00  0.00    -0.014 A 
ATOM     68  C   UNL A   1      50.200  26.126  27.723  1.00  0.00     0.009 A 
ATOM     69  C   UNL A   1      49.512  26.637  25.500  1.00  0.00     0.009 A 
ATOM     70  C   UNL A   1      51.519  25.973  27.259  1.00  0.00     0.001 A 
ATOM     71  C   UNL A   1      50.813  26.451  25.025  1.00  0.00     0.001 A 
ATOM     72  C   UNL A   1      51.817  26.098  25.907  1.00  0.00     0.000 A 
ENDBRANCH  48  67
BRANCH  60  73
ATOM     73  C   UNL A   1      44.190  27.879  30.129  1.00  0.00    -0.014 A 
ATOM     74  C   UNL A   1      44.404  28.375  31.425  1.00  0.00     0.009 A 
ATOM     75  C   UNL A   1      43.962  26.496  30.008  1.00  0.00     0.009 A 
ATOM     76  C   UNL A   1      44.427  27.523  32.538  1.00  0.00     0.001 A 
ATOM     77  C   UNL A   1      43.974  25.639  31.118  1.00  0.00     0.001 A 
ATOM     78  C   UNL A   1      44.217  26.155  32.386  1.00  0.00     0.000 A 
ENDBRANCH  60  73
ENDBRANCH  34  35
ENDBRANCH  26  29
ENDBRANCH  24  25
ENDBRANCH  23  24
ENDBRANCH   1  23
TORSDOF 14
ENDMDL
