MODEL 1
REMARK VINA RESULT:     -11.5      0.000      0.000
REMARK SMILES O=C(NCCCNC(=O)[C@@H]([NH2+]C[C@@H]1CCCO1)c1cncn1C1CC1)c1ccc(-c2c3nc(c(-c4ccccc4)c4ccc([nH]4)c(-c4ccccc4)c4nc(c(-c5ccccc5)c5ccc2[nH]5)C=C4)C=C3)cc1
REMARK SMILES IDX 5 1 4 2 3 3 1 4 2 5 26 7 27 8 73 9 28 10 72 11 29 12 30 13
REMARK SMILES IDX 31 14 66 15 32 16 71 17 65 18 67 19 33 20 70 21 64 22 63 23
REMARK SMILES IDX 34 25 56 26 41 27 55 28 42 29 45 30 54 31 68 32 43 33 44 34
REMARK SMILES IDX 53 36 69 37 46 38 35 39 36 40 40 41 37 42 39 43 38 44 57 45
REMARK SMILES IDX 58 46 62 47 59 48 61 49 60 50 47 51 48 52 52 53 49 54 51 55
REMARK SMILES IDX 50 56 6 57 7 58 8 59 9 61 10 62 11 63 12 66 13 67 14 68
REMARK SMILES IDX 17 69 15 70 16 71 18 72 19 73 22 74 20 75 21 76 23 77 24 78
REMARK SMILES IDX 25 79
REMARK H PARENT 3 6 67 24 45 35 7 60 11 64 11 65
REMARK Flexibility Score: inf
ROOT
ATOM      1  C   UNL A   1      37.557  21.329  25.230  1.00  0.00     0.042 C 
ENDROOT
BRANCH   1   2
ATOM      2  C   UNL A   1      38.486  22.215  26.057  1.00  0.00     0.118 C 
BRANCH   2   3
ATOM      3  N   UNL A   1      39.902  22.067  25.767  1.00  0.00    -0.352 N 
ATOM      4  O   UNL A   1      42.109  22.157  25.837  1.00  0.00    -0.269 OA
ATOM      5  C   UNL A   1      41.046  22.689  26.182  1.00  0.00     0.251 C 
ATOM      6  H   UNL A   1      40.080  21.348  25.120  1.00  0.00     0.163 HD
BRANCH   5   7
ATOM      7  C   UNL A   1      41.111  23.965  26.940  1.00  0.00     0.039 A 
ATOM      8  C   UNL A   1      41.996  24.253  27.980  1.00  0.00     0.014 A 
ATOM      9  C   UNL A   1      40.178  24.951  26.560  1.00  0.00     0.014 A 
ATOM     10  C   UNL A   1      41.900  25.461  28.671  1.00  0.00     0.010 A 
ATOM     11  C   UNL A   1      40.086  26.162  27.236  1.00  0.00     0.010 A 
ATOM     12  C   UNL A   1      40.931  26.405  28.313  1.00  0.00    -0.014 A 
BRANCH  12  13
ATOM     13  C   UNL A   1      40.961  27.716  28.960  1.00  0.00     0.031 A 
ATOM     14  C   UNL A   1      41.929  28.680  28.360  1.00  0.00     0.074 A 
ATOM     15  C   UNL A   1      40.081  28.116  29.902  1.00  0.00     0.049 A 
ATOM     16  N   UNL A   1      42.907  29.302  28.936  1.00  0.00    -0.248 NA
ATOM     17  C   UNL A   1      41.843  28.918  26.908  1.00  0.00     0.031 C 
ATOM     18  C   UNL A   1      38.889  27.410  30.377  1.00  0.00     0.029 A 
ATOM     19  N   UNL A   1      40.007  29.313  30.553  1.00  0.00    -0.354 N 
ATOM     20  C   UNL A   1      43.467  30.128  27.963  1.00  0.00     0.074 A 
ATOM     21  C   UNL A   1      42.853  29.764  26.711  1.00  0.00     0.031 C 
ATOM     22  C   UNL A   1      38.098  28.276  31.053  1.00  0.00     0.029 A 
ATOM     23  C   UNL A   1      38.785  29.550  31.170  1.00  0.00     0.049 A 
ATOM     24  H   UNL A   1      40.755  29.953  30.582  1.00  0.00     0.167 HD
ATOM     25  C   UNL A   1      44.251  31.195  28.277  1.00  0.00     0.031 A 
ATOM     26  C   UNL A   1      38.345  30.727  31.686  1.00  0.00     0.031 A 
ATOM     27  C   UNL A   1      44.768  31.117  29.615  1.00  0.00     0.049 A 
ATOM     28  C   UNL A   1      39.520  31.599  31.897  1.00  0.00     0.074 A 
ATOM     29  C   UNL A   1      45.581  30.231  30.294  1.00  0.00     0.029 A 
ATOM     30  N   UNL A   1      44.151  31.874  30.580  1.00  0.00    -0.354 N 
ATOM     31  N   UNL A   1      40.432  31.374  32.797  1.00  0.00    -0.248 NA
ATOM     32  C   UNL A   1      39.907  32.502  30.826  1.00  0.00     0.031 C 
ATOM     33  C   UNL A   1      45.029  30.165  31.606  1.00  0.00     0.029 A 
ATOM     34  C   UNL A   1      43.959  31.059  31.664  1.00  0.00     0.049 A 
ATOM     35  H   UNL A   1      43.896  32.821  30.506  1.00  0.00     0.167 HD
ATOM     36  C   UNL A   1      41.623  31.728  32.182  1.00  0.00     0.074 A 
ATOM     37  C   UNL A   1      41.228  32.512  31.014  1.00  0.00     0.031 C 
ATOM     38  C   UNL A   1      42.797  31.118  32.521  1.00  0.00     0.031 A 
BRANCH  25  39
ATOM     39  C   UNL A   1      44.233  32.487  27.499  1.00  0.00    -0.014 A 
ATOM     40  C   UNL A   1      43.663  33.632  28.084  1.00  0.00     0.009 A 
ATOM     41  C   UNL A   1      44.493  32.544  26.116  1.00  0.00     0.009 A 
ATOM     42  C   UNL A   1      43.315  34.748  27.311  1.00  0.00     0.001 A 
ATOM     43  C   UNL A   1      44.186  33.672  25.350  1.00  0.00     0.001 A 
ATOM     44  C   UNL A   1      43.571  34.764  25.943  1.00  0.00     0.000 A 
ENDBRANCH  25  39
BRANCH  26  45
ATOM     45  C   UNL A   1      36.967  31.261  31.752  1.00  0.00    -0.014 A 
ATOM     46  C   UNL A   1      36.459  31.810  32.942  1.00  0.00     0.009 A 
ATOM     47  C   UNL A   1      36.246  31.494  30.567  1.00  0.00     0.009 A 
ATOM     48  C   UNL A   1      35.296  32.593  32.937  1.00  0.00     0.001 A 
ATOM     49  C   UNL A   1      35.084  32.273  30.563  1.00  0.00     0.001 A 
ATOM     50  C   UNL A   1      34.617  32.836  31.745  1.00  0.00     0.000 A 
ENDBRANCH  26  45
BRANCH  38  51
ATOM     51  C   UNL A   1      42.804  30.220  33.734  1.00  0.00    -0.014 A 
ATOM     52  C   UNL A   1      42.435  28.863  33.688  1.00  0.00     0.009 A 
ATOM     53  C   UNL A   1      43.338  30.722  34.929  1.00  0.00     0.009 A 
ATOM     54  C   UNL A   1      42.565  28.045  34.815  1.00  0.00     0.001 A 
ATOM     55  C   UNL A   1      43.490  29.900  36.048  1.00  0.00     0.001 A 
ATOM     56  C   UNL A   1      43.097  28.564  35.993  1.00  0.00     0.000 A 
ENDBRANCH  38  51
ENDBRANCH  12  13
ENDBRANCH   5   7
ENDBRANCH   2   3
ENDBRANCH   1   2
BRANCH   1  57
ATOM     57  C   UNL A   1      36.118  21.824  25.159  1.00  0.00     0.118 C 
BRANCH  57  58
ATOM     58  N   UNL A   1      35.468  21.977  26.462  1.00  0.00    -0.350 N 
ATOM     59  C   UNL A   1      34.130  21.896  26.792  1.00  0.00     0.284 C 
ATOM     60  H   UNL A   1      36.075  22.165  27.214  1.00  0.00     0.163 HD
ATOM     61  O   UNL A   1      33.842  21.886  27.994  1.00  0.00    -0.268 OA
BRANCH  59  62
ATOM     62  C   UNL A   1      32.994  21.865  25.676  1.00  0.00     0.322 C 
BRANCH  62  63
ATOM     63  N   UNL A   1      32.502  20.464  25.715  1.00  0.00    -0.329 N 
ATOM     64  H   UNL A   1      31.538  20.500  26.045  1.00  0.00     0.347 HD
ATOM     65  H   UNL A   1      33.186  19.994  26.308  1.00  0.00     0.347 HD
BRANCH  63  66
ATOM     66  C   UNL A   1      32.500  19.649  24.501  1.00  0.00     0.293 C 
BRANCH  66  67
ATOM     67  C   UNL A   1      33.486  18.458  24.420  1.00  0.00     0.173 C 
ATOM     68  C   UNL A   1      33.373  17.683  23.112  1.00  0.00     0.040 C 
ATOM     69  O   UNL A   1      33.232  17.460  25.435  1.00  0.00    -0.372 OA
ATOM     70  C   UNL A   1      34.050  16.388  23.467  1.00  0.00     0.031 C 
ATOM     71  C   UNL A   1      33.548  16.164  24.877  1.00  0.00     0.161 C 
ENDBRANCH  66  67
ENDBRANCH  63  66
ENDBRANCH  62  63
BRANCH  62  72
ATOM     72  C   UNL A   1      32.018  23.004  25.967  1.00  0.00     0.106 A 
ATOM     73  C   UNL A   1      30.971  23.010  26.901  1.00  0.00     0.141 A 
ATOM     74  N   UNL A   1      32.054  24.355  25.635  1.00  0.00    -0.326 N 
ATOM     75  N   UNL A   1      30.255  24.167  26.922  1.00  0.00    -0.245 NA
ATOM     76  C   UNL A   1      30.920  24.953  26.124  1.00  0.00     0.200 A 
BRANCH  74  77
ATOM     77  C   UNL A   1      33.062  25.226  25.074  1.00  0.00     0.089 C 
ATOM     78  C   UNL A   1      34.525  25.246  25.374  1.00  0.00     0.027 C 
ATOM     79  C   UNL A   1      34.042  24.760  24.037  1.00  0.00     0.027 C 
ENDBRANCH  74  77
ENDBRANCH  62  72
ENDBRANCH  59  62
ENDBRANCH  57  58
ENDBRANCH   1  57
TORSDOF 15
ENDMDL
MODEL 2
REMARK VINA RESULT:     -11.3      1.014      1.456
REMARK SMILES O=C(NCCCNC(=O)[C@@H]([NH2+]C[C@@H]1CCCO1)c1cncn1C1CC1)c1ccc(-c2c3nc(c(-c4ccccc4)c4ccc([nH]4)c(-c4ccccc4)c4nc(c(-c5ccccc5)c5ccc2[nH]5)C=C4)C=C3)cc1
REMARK SMILES IDX 5 1 4 2 3 3 1 4 2 5 26 7 27 8 73 9 28 10 72 11 29 12 30 13
REMARK SMILES IDX 31 14 66 15 32 16 71 17 65 18 67 19 33 20 70 21 64 22 63 23
REMARK SMILES IDX 34 25 56 26 41 27 55 28 42 29 45 30 54 31 68 32 43 33 44 34
REMARK SMILES IDX 53 36 69 37 46 38 35 39 36 40 40 41 37 42 39 43 38 44 57 45
REMARK SMILES IDX 58 46 62 47 59 48 61 49 60 50 47 51 48 52 52 53 49 54 51 55
REMARK SMILES IDX 50 56 6 57 7 58 8 59 9 61 10 62 11 63 12 66 13 67 14 68
REMARK SMILES IDX 17 69 15 70 16 71 18 72 19 73 22 74 20 75 21 76 23 77 24 78
REMARK SMILES IDX 25 79
REMARK H PARENT 3 6 67 24 45 35 7 60 11 64 11 65
REMARK Flexibility Score: inf
ROOT
ATOM      1  C   UNL A   1      38.418  21.419  25.514  1.00  0.00     0.042 C 
ENDROOT
BRANCH   1   2
ATOM      2  C   UNL A   1      39.499  21.935  26.461  1.00  0.00     0.118 C 
BRANCH   2   3
ATOM      3  N   UNL A   1      40.806  22.132  25.860  1.00  0.00    -0.352 N 
ATOM      4  O   UNL A   1      42.883  22.760  25.442  1.00  0.00    -0.269 OA
ATOM      5  C   UNL A   1      41.827  23.024  26.031  1.00  0.00     0.251 C 
ATOM      6  H   UNL A   1      41.004  21.464  25.165  1.00  0.00     0.163 HD
BRANCH   5   7
ATOM      7  C   UNL A   1      41.747  24.293  26.799  1.00  0.00     0.039 A 
ATOM      8  C   UNL A   1      42.402  24.563  28.002  1.00  0.00     0.014 A 
ATOM      9  C   UNL A   1      40.923  25.293  26.244  1.00  0.00     0.014 A 
ATOM     10  C   UNL A   1      42.178  25.766  28.670  1.00  0.00     0.010 A 
ATOM     11  C   UNL A   1      40.707  26.500  26.899  1.00  0.00     0.010 A 
ATOM     12  C   UNL A   1      41.314  26.724  28.129  1.00  0.00    -0.014 A 
BRANCH  12  13
ATOM     13  C   UNL A   1      41.224  28.030  28.781  1.00  0.00     0.031 A 
ATOM     14  C   UNL A   1      42.298  28.991  28.393  1.00  0.00     0.074 A 
ATOM     15  C   UNL A   1      40.177  28.430  29.533  1.00  0.00     0.049 A 
ATOM     16  N   UNL A   1      43.146  29.600  29.157  1.00  0.00    -0.248 NA
ATOM     17  C   UNL A   1      42.503  29.240  26.955  1.00  0.00     0.031 C 
ATOM     18  C   UNL A   1      38.910  27.731  29.756  1.00  0.00     0.029 A 
ATOM     19  N   UNL A   1      39.983  29.623  30.168  1.00  0.00    -0.354 N 
ATOM     20  C   UNL A   1      43.893  30.429  28.322  1.00  0.00     0.074 A 
ATOM     21  C   UNL A   1      43.538  30.080  26.970  1.00  0.00     0.031 C 
ATOM     22  C   UNL A   1      38.006  28.598  30.269  1.00  0.00     0.029 A 
ATOM     23  C   UNL A   1      38.665  29.866  30.533  1.00  0.00     0.049 A 
ATOM     24  H   UNL A   1      40.715  30.257  30.350  1.00  0.00     0.167 HD
ATOM     25  C   UNL A   1      44.607  31.487  28.795  1.00  0.00     0.031 A 
ATOM     26  C   UNL A   1      38.139  31.042  30.961  1.00  0.00     0.031 A 
ATOM     27  C   UNL A   1      44.847  31.395  30.208  1.00  0.00     0.049 A 
ATOM     28  C   UNL A   1      39.254  31.903  31.409  1.00  0.00     0.074 A 
ATOM     29  C   UNL A   1      45.504  30.498  31.026  1.00  0.00     0.029 A 
ATOM     30  N   UNL A   1      44.056  32.150  31.038  1.00  0.00    -0.354 N 
ATOM     31  N   UNL A   1      39.968  31.663  32.470  1.00  0.00    -0.248 NA
ATOM     32  C   UNL A   1      39.851  32.810  30.444  1.00  0.00     0.031 C 
ATOM     33  C   UNL A   1      44.702  30.426  32.203  1.00  0.00     0.029 A 
ATOM     34  C   UNL A   1      43.647  31.328  32.056  1.00  0.00     0.049 A 
ATOM     35  H   UNL A   1      43.826  33.100  30.924  1.00  0.00     0.167 HD
ATOM     36  C   UNL A   1      41.260  32.013  32.106  1.00  0.00     0.074 A 
ATOM     37  C   UNL A   1      41.109  32.809  30.890  1.00  0.00     0.031 C 
ATOM     38  C   UNL A   1      42.339  31.390  32.666  1.00  0.00     0.031 A 
BRANCH  25  39
ATOM     39  C   UNL A   1      44.751  32.786  28.041  1.00  0.00    -0.014 A 
ATOM     40  C   UNL A   1      43.666  33.679  27.998  1.00  0.00     0.009 A 
ATOM     41  C   UNL A   1      45.806  33.026  27.140  1.00  0.00     0.009 A 
ATOM     42  C   UNL A   1      43.615  34.719  27.059  1.00  0.00     0.001 A 
ATOM     43  C   UNL A   1      45.778  34.087  26.230  1.00  0.00     0.001 A 
ATOM     44  C   UNL A   1      44.668  34.917  26.172  1.00  0.00     0.000 A 
ENDBRANCH  25  39
BRANCH  26  45
ATOM     45  C   UNL A   1      36.778  31.587  30.758  1.00  0.00    -0.014 A 
ATOM     46  C   UNL A   1      35.932  31.848  31.848  1.00  0.00     0.009 A 
ATOM     47  C   UNL A   1      36.415  32.121  29.508  1.00  0.00     0.009 A 
ATOM     48  C   UNL A   1      34.788  32.645  31.700  1.00  0.00     0.001 A 
ATOM     49  C   UNL A   1      35.272  32.914  29.360  1.00  0.00     0.001 A 
ATOM     50  C   UNL A   1      34.467  33.189  30.459  1.00  0.00     0.000 A 
ENDBRANCH  26  45
BRANCH  38  51
ATOM     51  C   UNL A   1      42.100  30.483  33.847  1.00  0.00    -0.014 A 
ATOM     52  C   UNL A   1      41.736  29.130  33.718  1.00  0.00     0.009 A 
ATOM     53  C   UNL A   1      42.390  30.971  35.129  1.00  0.00     0.009 A 
ATOM     54  C   UNL A   1      41.635  28.302  34.840  1.00  0.00     0.001 A 
ATOM     55  C   UNL A   1      42.312  30.139  36.249  1.00  0.00     0.001 A 
ATOM     56  C   UNL A   1      41.928  28.807  36.105  1.00  0.00     0.000 A 
ENDBRANCH  38  51
ENDBRANCH  12  13
ENDBRANCH   5   7
ENDBRANCH   2   3
ENDBRANCH   1   2
BRANCH   1  57
ATOM     57  C   UNL A   1      37.223  22.350  25.359  1.00  0.00     0.118 C 
BRANCH  57  58
ATOM     58  N   UNL A   1      36.209  22.210  26.407  1.00  0.00    -0.350 N 
ATOM     59  C   UNL A   1      34.886  21.830  26.306  1.00  0.00     0.284 C 
ATOM     60  H   UNL A   1      36.517  22.419  27.319  1.00  0.00     0.163 HD
ATOM     61  O   UNL A   1      34.275  21.615  27.358  1.00  0.00    -0.268 OA
BRANCH  59  62
ATOM     62  C   UNL A   1      34.154  21.717  24.895  1.00  0.00     0.322 C 
BRANCH  62  63
ATOM     63  N   UNL A   1      32.887  21.008  25.212  1.00  0.00    -0.329 N 
ATOM     64  H   UNL A   1      32.133  21.677  25.070  1.00  0.00     0.347 HD
ATOM     65  H   UNL A   1      33.044  20.669  26.162  1.00  0.00     0.347 HD
BRANCH  63  66
ATOM     66  C   UNL A   1      32.519  19.796  24.483  1.00  0.00     0.293 C 
BRANCH  66  67
ATOM     67  C   UNL A   1      33.183  18.461  24.901  1.00  0.00     0.173 C 
ATOM     68  C   UNL A   1      33.491  17.555  23.715  1.00  0.00     0.040 C 
ATOM     69  O   UNL A   1      32.324  17.654  25.737  1.00  0.00    -0.372 OA
ATOM     70  C   UNL A   1      33.676  16.224  24.389  1.00  0.00     0.031 C 
ATOM     71  C   UNL A   1      32.583  16.264  25.435  1.00  0.00     0.161 C 
ENDBRANCH  66  67
ENDBRANCH  63  66
ENDBRANCH  62  63
BRANCH  62  72
ATOM     72  C   UNL A   1      34.090  23.117  24.286  1.00  0.00     0.106 A 
ATOM     73  C   UNL A   1      34.104  23.452  22.923  1.00  0.00     0.141 A 
ATOM     74  N   UNL A   1      33.733  24.345  24.834  1.00  0.00    -0.326 N 
ATOM     75  N   UNL A   1      34.053  24.791  22.683  1.00  0.00    -0.245 NA
ATOM     76  C   UNL A   1      33.856  25.307  23.864  1.00  0.00     0.200 A 
BRANCH  74  77
ATOM     77  C   UNL A   1      33.131  24.751  26.084  1.00  0.00     0.089 C 
ATOM     78  C   UNL A   1      31.995  25.698  26.288  1.00  0.00     0.027 C 
ATOM     79  C   UNL A   1      31.801  24.230  26.544  1.00  0.00     0.027 C 
ENDBRANCH  74  77
ENDBRANCH  62  72
ENDBRANCH  59  62
ENDBRANCH  57  58
ENDBRANCH   1  57
TORSDOF 15
ENDMDL
MODEL 3
REMARK VINA RESULT:     -11.2      4.714      7.285
REMARK SMILES O=C(NCCCNC(=O)[C@@H]([NH2+]C[C@@H]1CCCO1)c1cncn1C1CC1)c1ccc(-c2c3nc(c(-c4ccccc4)c4ccc([nH]4)c(-c4ccccc4)c4nc(c(-c5ccccc5)c5ccc2[nH]5)C=C4)C=C3)cc1
REMARK SMILES IDX 5 1 4 2 3 3 1 4 2 5 26 7 27 8 73 9 28 10 72 11 29 12 30 13
REMARK SMILES IDX 31 14 66 15 32 16 71 17 65 18 67 19 33 20 70 21 64 22 63 23
REMARK SMILES IDX 34 25 56 26 41 27 55 28 42 29 45 30 54 31 68 32 43 33 44 34
REMARK SMILES IDX 53 36 69 37 46 38 35 39 36 40 40 41 37 42 39 43 38 44 57 45
REMARK SMILES IDX 58 46 62 47 59 48 61 49 60 50 47 51 48 52 52 53 49 54 51 55
REMARK SMILES IDX 50 56 6 57 7 58 8 59 9 61 10 62 11 63 12 66 13 67 14 68
REMARK SMILES IDX 17 69 15 70 16 71 18 72 19 73 22 74 20 75 21 76 23 77 24 78
REMARK SMILES IDX 25 79
REMARK H PARENT 3 6 67 24 45 35 7 60 11 64 11 65
REMARK Flexibility Score: inf
ROOT
ATOM      1  C   UNL A   1      46.451  25.336  27.412  1.00  0.00     0.042 C 
ENDROOT
BRANCH   1   2
ATOM      2  C   UNL A   1      46.891  25.536  28.860  1.00  0.00     0.118 C 
BRANCH   2   3
ATOM      3  N   UNL A   1      46.110  24.813  29.849  1.00  0.00    -0.352 N 
ATOM      4  O   UNL A   1      44.470  24.014  31.097  1.00  0.00    -0.269 OA
ATOM      5  C   UNL A   1      44.863  24.951  30.388  1.00  0.00     0.251 C 
ATOM      6  H   UNL A   1      46.595  24.040  30.218  1.00  0.00     0.163 HD
BRANCH   5   7
ATOM      7  C   UNL A   1      43.987  26.142  30.248  1.00  0.00     0.039 A 
ATOM      8  C   UNL A   1      43.313  26.530  29.089  1.00  0.00     0.014 A 
ATOM      9  C   UNL A   1      43.849  26.939  31.403  1.00  0.00     0.014 A 
ATOM     10  C   UNL A   1      42.586  27.720  29.062  1.00  0.00     0.010 A 
ATOM     11  C   UNL A   1      43.114  28.119  31.386  1.00  0.00     0.010 A 
ATOM     12  C   UNL A   1      42.505  28.524  30.204  1.00  0.00    -0.014 A 
BRANCH  12  13
ATOM     13  C   UNL A   1      41.613  29.682  30.180  1.00  0.00     0.031 A 
ATOM     14  C   UNL A   1      42.299  30.988  29.947  1.00  0.00     0.074 A 
ATOM     15  C   UNL A   1      40.266  29.600  30.183  1.00  0.00     0.049 A 
ATOM     16  N   UNL A   1      42.288  32.045  30.691  1.00  0.00    -0.248 NA
ATOM     17  C   UNL A   1      43.177  31.095  28.768  1.00  0.00     0.031 C 
ATOM     18  C   UNL A   1      39.438  28.396  30.097  1.00  0.00     0.029 A 
ATOM     19  N   UNL A   1      39.346  30.608  30.145  1.00  0.00    -0.354 N 
ATOM     20  C   UNL A   1      43.028  33.008  30.008  1.00  0.00     0.074 A 
ATOM     21  C   UNL A   1      43.649  32.335  28.894  1.00  0.00     0.031 C 
ATOM     22  C   UNL A   1      38.169  28.749  29.783  1.00  0.00     0.029 A 
ATOM     23  C   UNL A   1      38.069  30.198  29.780  1.00  0.00     0.049 A 
ATOM     24  H   UNL A   1      39.568  31.544  30.358  1.00  0.00     0.167 HD
ATOM     25  C   UNL A   1      42.925  34.337  30.280  1.00  0.00     0.031 A 
ATOM     26  C   UNL A   1      37.023  30.993  29.439  1.00  0.00     0.031 A 
ATOM     27  C   UNL A   1      42.339  34.585  31.569  1.00  0.00     0.049 A 
ATOM     28  C   UNL A   1      37.302  32.355  29.942  1.00  0.00     0.074 A 
ATOM     29  C   UNL A   1      42.681  34.273  32.869  1.00  0.00     0.029 A 
ATOM     30  N   UNL A   1      41.015  34.945  31.605  1.00  0.00    -0.354 N 
ATOM     31  N   UNL A   1      37.320  32.666  31.205  1.00  0.00    -0.248 NA
ATOM     32  C   UNL A   1      37.976  33.289  29.056  1.00  0.00     0.031 C 
ATOM     33  C   UNL A   1      41.442  33.976  33.509  1.00  0.00     0.029 A 
ATOM     34  C   UNL A   1      40.422  34.187  32.581  1.00  0.00     0.049 A 
ATOM     35  H   UNL A   1      40.575  35.620  31.040  1.00  0.00     0.167 HD
ATOM     36  C   UNL A   1      38.369  33.566  31.327  1.00  0.00     0.074 A 
ATOM     37  C   UNL A   1      38.665  33.990  29.960  1.00  0.00     0.031 C 
ATOM     38  C   UNL A   1      39.078  33.665  32.490  1.00  0.00     0.031 A 
BRANCH  25  39
ATOM     39  C   UNL A   1      43.004  35.405  29.218  1.00  0.00    -0.014 A 
ATOM     40  C   UNL A   1      41.916  35.588  28.345  1.00  0.00     0.009 A 
ATOM     41  C   UNL A   1      44.214  36.034  28.864  1.00  0.00     0.009 A 
ATOM     42  C   UNL A   1      42.053  36.310  27.153  1.00  0.00     0.001 A 
ATOM     43  C   UNL A   1      44.342  36.790  27.695  1.00  0.00     0.001 A 
ATOM     44  C   UNL A   1      43.268  36.905  26.826  1.00  0.00     0.000 A 
ENDBRANCH  25  39
BRANCH  26  45
ATOM     45  C   UNL A   1      35.930  30.737  28.474  1.00  0.00    -0.014 A 
ATOM     46  C   UNL A   1      35.765  29.473  27.886  1.00  0.00     0.009 A 
ATOM     47  C   UNL A   1      34.874  31.659  28.348  1.00  0.00     0.009 A 
ATOM     48  C   UNL A   1      34.573  29.131  27.231  1.00  0.00     0.001 A 
ATOM     49  C   UNL A   1      33.686  31.319  27.693  1.00  0.00     0.001 A 
ATOM     50  C   UNL A   1      33.529  30.049  27.147  1.00  0.00     0.000 A 
ENDBRANCH  26  45
BRANCH  38  51
ATOM     51  C   UNL A   1      38.548  32.943  33.705  1.00  0.00    -0.014 A 
ATOM     52  C   UNL A   1      38.783  31.578  33.952  1.00  0.00     0.009 A 
ATOM     53  C   UNL A   1      37.917  33.698  34.703  1.00  0.00     0.009 A 
ATOM     54  C   UNL A   1      38.367  30.982  35.147  1.00  0.00     0.001 A 
ATOM     55  C   UNL A   1      37.521  33.109  35.907  1.00  0.00     0.001 A 
ATOM     56  C   UNL A   1      37.740  31.750  36.125  1.00  0.00     0.000 A 
ENDBRANCH  38  51
ENDBRANCH  12  13
ENDBRANCH   5   7
ENDBRANCH   2   3
ENDBRANCH   1   2
BRANCH   1  57
ATOM     57  C   UNL A   1      46.141  23.891  27.044  1.00  0.00     0.118 C 
BRANCH  57  58
ATOM     58  N   UNL A   1      46.094  23.632  25.603  1.00  0.00    -0.350 N 
ATOM     59  C   UNL A   1      45.117  23.007  24.853  1.00  0.00     0.284 C 
ATOM     60  H   UNL A   1      46.874  23.950  25.095  1.00  0.00     0.163 HD
ATOM     61  O   UNL A   1      45.223  23.066  23.623  1.00  0.00    -0.268 OA
BRANCH  59  62
ATOM     62  C   UNL A   1      43.925  22.202  25.537  1.00  0.00     0.322 C 
BRANCH  62  63
ATOM     63  N   UNL A   1      42.704  22.856  24.997  1.00  0.00    -0.329 N 
ATOM     64  H   UNL A   1      41.907  22.370  25.404  1.00  0.00     0.347 HD
ATOM     65  H   UNL A   1      42.833  22.788  23.987  1.00  0.00     0.347 HD
BRANCH  63  66
ATOM     66  C   UNL A   1      42.479  24.285  25.208  1.00  0.00     0.293 C 
BRANCH  66  67
ATOM     67  C   UNL A   1      41.717  24.724  26.482  1.00  0.00     0.173 C 
ATOM     68  C   UNL A   1      40.565  23.791  26.835  1.00  0.00     0.040 C 
ATOM     69  O   UNL A   1      41.081  26.013  26.330  1.00  0.00    -0.372 OA
ATOM     70  C   UNL A   1      39.753  24.648  27.766  1.00  0.00     0.031 C 
ATOM     71  C   UNL A   1      39.853  25.999  27.091  1.00  0.00     0.161 C 
ENDBRANCH  66  67
ENDBRANCH  63  66
ENDBRANCH  62  63
BRANCH  62  72
ATOM     72  C   UNL A   1      44.150  20.714  25.273  1.00  0.00     0.106 A 
ATOM     73  C   UNL A   1      45.332  20.097  24.838  1.00  0.00     0.141 A 
ATOM     74  N   UNL A   1      43.408  19.593  25.632  1.00  0.00    -0.326 N 
ATOM     75  N   UNL A   1      45.224  18.750  24.672  1.00  0.00    -0.245 NA
ATOM     76  C   UNL A   1      44.037  18.479  25.136  1.00  0.00     0.200 A 
BRANCH  74  77
ATOM     77  C   UNL A   1      42.284  19.371  26.513  1.00  0.00     0.089 C 
ATOM     78  C   UNL A   1      41.683  20.328  27.489  1.00  0.00     0.027 C 
ATOM     79  C   UNL A   1      40.925  19.952  26.248  1.00  0.00     0.027 C 
ENDBRANCH  74  77
ENDBRANCH  62  72
ENDBRANCH  59  62
ENDBRANCH  57  58
ENDBRANCH   1  57
TORSDOF 15
ENDMDL
