MODEL 1
REMARK VINA RESULT:     -11.5      0.000      0.000
REMARK SMILES CC1(C)[C@@]2(CC[C@@H]2C(=O)NCc2ccco2)[C@]1(C)C(=O)NCCCNC(=O)c1ccc(-c2c3nc(c(-c4ccccc4)c4ccc([nH]4)c(-c4ccccc4)c4nc(c(-c5ccccc5)c5ccc2[nH]5)C=C4)C=C3)cc1
REMARK SMILES IDX 22 1 21 2 19 3 20 4 17 6 1 7 2 8 3 9 4 10 18 11 5 12 7 13
REMARK SMILES IDX 6 14 8 15 9 16 10 17 11 19 12 20 13 21 16 22 14 23 15 24
REMARK SMILES IDX 23 25 24 26 25 27 26 28 27 30 28 31 29 32 75 33 30 34 74 35
REMARK SMILES IDX 31 36 32 37 33 38 68 39 34 40 73 41 67 42 69 43 35 44 72 45
REMARK SMILES IDX 66 46 65 47 36 49 58 50 43 51 57 52 44 53 47 54 56 55 70 56
REMARK SMILES IDX 45 57 46 58 55 60 71 61 48 62 37 63 38 64 42 65 39 66 41 67
REMARK SMILES IDX 40 68 59 69 60 70 64 71 61 72 63 73 62 74 49 75 50 76 54 77
REMARK SMILES IDX 51 78 53 79 52 80
REMARK H PARENT 21 5 10 18 25 29 69 48 47 59
REMARK Flexibility Score: inf
ROOT
ATOM      1  C   UNL A   1      34.892  23.142  26.296  1.00  0.00     0.117 C 
ENDROOT
BRANCH   1   2
ATOM      2  N   UNL A   1      34.066  22.572  25.256  1.00  0.00    -0.356 N 
ATOM      3  C   UNL A   1      32.887  23.041  24.732  1.00  0.00     0.227 C 
ATOM      4  O   UNL A   1      32.324  22.404  23.850  1.00  0.00    -0.274 OA
ATOM      5  H   UNL A   1      34.394  21.728  24.870  1.00  0.00     0.163 HD
BRANCH   3   6
ATOM      6  C   UNL A   1      32.222  24.249  25.347  1.00  0.00     0.059 C 
ATOM      7  C   UNL A   1      30.942  24.623  23.078  1.00  0.00     0.013 C 
ATOM      8  C   UNL A   1      31.209  25.067  24.505  1.00  0.00    -0.013 C 
ATOM      9  C   UNL A   1      29.961  25.632  25.147  1.00  0.00     0.013 C 
ATOM     10  C   UNL A   1      32.539  25.686  24.860  1.00  0.00     0.003 C 
ATOM     11  C   UNL A   1      31.821  23.997  26.797  1.00  0.00     0.023 C 
ATOM     12  C   UNL A   1      32.908  26.728  25.864  1.00  0.00     0.010 C 
ATOM     13  C   UNL A   1      33.569  26.162  23.869  1.00  0.00     0.086 C 
ATOM     14  C   UNL A   1      34.101  27.080  24.978  1.00  0.00     0.015 C 
BRANCH  13  15
ATOM     15  C   UNL A   1      33.185  26.784  22.510  1.00  0.00     0.224 C 
ATOM     16  O   UNL A   1      33.624  26.315  21.446  1.00  0.00    -0.275 OA
ATOM     17  N   UNL A   1      32.403  27.902  22.370  1.00  0.00    -0.349 N 
ATOM     18  H   UNL A   1      32.350  28.239  21.445  1.00  0.00     0.163 HD
BRANCH  17  19
ATOM     19  C   UNL A   1      31.643  28.676  23.319  1.00  0.00     0.191 C 
BRANCH  19  20
ATOM     20  C   UNL A   1      30.292  29.041  22.810  1.00  0.00     0.122 A 
ATOM     21  C   UNL A   1      29.036  28.529  23.077  1.00  0.00     0.047 A 
ATOM     22  O   UNL A   1      30.188  30.054  21.898  1.00  0.00    -0.467 OA
ATOM     23  C   UNL A   1      28.122  29.268  22.288  1.00  0.00     0.042 A 
ATOM     24  C   UNL A   1      28.873  30.186  21.593  1.00  0.00     0.195 A 
ENDBRANCH  19  20
ENDBRANCH  17  19
ENDBRANCH  13  15
ENDBRANCH   3   6
ENDBRANCH   1   2
BRANCH   1  25
ATOM     25  C   UNL A   1      35.959  24.104  25.806  1.00  0.00     0.042 C 
BRANCH  25  26
ATOM     26  C   UNL A   1      36.914  23.539  24.769  1.00  0.00     0.118 C 
BRANCH  26  27
ATOM     27  N   UNL A   1      37.860  22.577  25.314  1.00  0.00    -0.352 N 
ATOM     28  C   UNL A   1      38.970  22.724  26.107  1.00  0.00     0.251 C 
ATOM     29  H   UNL A   1      37.667  21.645  25.066  1.00  0.00     0.163 HD
ATOM     30  O   UNL A   1      39.674  21.739  26.318  1.00  0.00    -0.269 OA
BRANCH  28  31
ATOM     31  C   UNL A   1      39.360  24.029  26.692  1.00  0.00     0.039 A 
ATOM     32  C   UNL A   1      38.964  24.307  28.006  1.00  0.00     0.014 A 
ATOM     33  C   UNL A   1      40.049  25.004  25.970  1.00  0.00     0.014 A 
ATOM     34  C   UNL A   1      39.307  25.522  28.603  1.00  0.00     0.010 A 
ATOM     35  C   UNL A   1      40.480  26.173  26.597  1.00  0.00     0.010 A 
ATOM     36  C   UNL A   1      40.098  26.454  27.915  1.00  0.00    -0.014 A 
BRANCH  36  37
ATOM     37  C   UNL A   1      40.519  27.720  28.567  1.00  0.00     0.031 A 
ATOM     38  C   UNL A   1      41.928  27.904  29.063  1.00  0.00     0.074 A 
ATOM     39  C   UNL A   1      39.614  28.700  28.755  1.00  0.00     0.049 A 
ATOM     40  N   UNL A   1      42.475  28.954  29.624  1.00  0.00    -0.248 NA
ATOM     41  C   UNL A   1      42.833  26.750  28.944  1.00  0.00     0.031 C 
ATOM     42  C   UNL A   1      38.196  28.624  28.395  1.00  0.00     0.029 A 
ATOM     43  N   UNL A   1      39.754  29.954  29.294  1.00  0.00    -0.354 N 
ATOM     44  C   UNL A   1      43.775  28.581  29.940  1.00  0.00     0.074 A 
ATOM     45  C   UNL A   1      43.918  27.193  29.561  1.00  0.00     0.031 C 
ATOM     46  C   UNL A   1      37.607  29.794  28.690  1.00  0.00     0.029 A 
ATOM     47  C   UNL A   1      38.596  30.691  29.277  1.00  0.00     0.049 A 
ATOM     48  H   UNL A   1      40.604  30.293  29.657  1.00  0.00     0.167 HD
ATOM     49  C   UNL A   1      44.770  29.328  30.476  1.00  0.00     0.031 A 
ATOM     50  C   UNL A   1      38.357  31.954  29.674  1.00  0.00     0.031 A 
ATOM     51  C   UNL A   1      44.637  30.714  30.840  1.00  0.00     0.049 A 
ATOM     52  C   UNL A   1      39.485  32.786  30.210  1.00  0.00     0.074 A 
ATOM     53  C   UNL A   1      45.606  31.577  31.321  1.00  0.00     0.029 A 
ATOM     54  N   UNL A   1      43.458  31.437  30.765  1.00  0.00    -0.354 N 
ATOM     55  N   UNL A   1      40.735  32.447  30.413  1.00  0.00    -0.248 NA
ATOM     56  C   UNL A   1      39.175  34.183  30.545  1.00  0.00     0.031 C 
ATOM     57  C   UNL A   1      45.001  32.815  31.574  1.00  0.00     0.029 A 
ATOM     58  C   UNL A   1      43.668  32.733  31.207  1.00  0.00     0.049 A 
ATOM     59  H   UNL A   1      42.597  31.082  30.445  1.00  0.00     0.167 HD
ATOM     60  C   UNL A   1      41.366  33.591  30.881  1.00  0.00     0.074 A 
ATOM     61  C   UNL A   1      40.363  34.639  30.913  1.00  0.00     0.031 C 
ATOM     62  C   UNL A   1      42.660  33.760  31.248  1.00  0.00     0.031 A 
BRANCH  49  63
ATOM     63  C   UNL A   1      46.091  28.646  30.703  1.00  0.00    -0.014 A 
ATOM     64  C   UNL A   1      46.380  28.005  31.920  1.00  0.00     0.009 A 
ATOM     65  C   UNL A   1      47.060  28.642  29.689  1.00  0.00     0.009 A 
ATOM     66  C   UNL A   1      47.629  27.419  32.132  1.00  0.00     0.001 A 
ATOM     67  C   UNL A   1      48.298  28.029  29.894  1.00  0.00     0.001 A 
ATOM     68  C   UNL A   1      48.587  27.430  31.120  1.00  0.00     0.000 A 
ENDBRANCH  49  63
BRANCH  50  69
ATOM     69  C   UNL A   1      36.991  32.517  29.527  1.00  0.00    -0.014 A 
ATOM     70  C   UNL A   1      36.608  33.150  28.336  1.00  0.00     0.009 A 
ATOM     71  C   UNL A   1      36.052  32.388  30.563  1.00  0.00     0.009 A 
ATOM     72  C   UNL A   1      35.314  33.656  28.189  1.00  0.00     0.001 A 
ATOM     73  C   UNL A   1      34.753  32.873  30.404  1.00  0.00     0.001 A 
ATOM     74  C   UNL A   1      34.387  33.511  29.220  1.00  0.00     0.000 A 
ENDBRANCH  50  69
BRANCH  62  75
ATOM     75  C   UNL A   1      43.067  35.133  31.700  1.00  0.00    -0.014 A 
ATOM     76  C   UNL A   1      43.590  36.072  30.797  1.00  0.00     0.009 A 
ATOM     77  C   UNL A   1      42.905  35.499  33.045  1.00  0.00     0.009 A 
ATOM     78  C   UNL A   1      43.977  37.338  31.241  1.00  0.00     0.001 A 
ATOM     79  C   UNL A   1      43.269  36.774  33.481  1.00  0.00     0.001 A 
ATOM     80  C   UNL A   1      43.814  37.689  32.581  1.00  0.00     0.000 A 
ENDBRANCH  62  75
ENDBRANCH  36  37
ENDBRANCH  28  31
ENDBRANCH  26  27
ENDBRANCH  25  26
ENDBRANCH   1  25
TORSDOF 13
ENDMDL
MODEL 2
REMARK VINA RESULT:     -11.4      2.847      8.035
REMARK SMILES CC1(C)[C@@]2(CC[C@@H]2C(=O)NCc2ccco2)[C@]1(C)C(=O)NCCCNC(=O)c1ccc(-c2c3nc(c(-c4ccccc4)c4ccc([nH]4)c(-c4ccccc4)c4nc(c(-c5ccccc5)c5ccc2[nH]5)C=C4)C=C3)cc1
REMARK SMILES IDX 22 1 21 2 19 3 20 4 17 6 1 7 2 8 3 9 4 10 18 11 5 12 7 13
REMARK SMILES IDX 6 14 8 15 9 16 10 17 11 19 12 20 13 21 16 22 14 23 15 24
REMARK SMILES IDX 23 25 24 26 25 27 26 28 27 30 28 31 29 32 75 33 30 34 74 35
REMARK SMILES IDX 31 36 32 37 33 38 68 39 34 40 73 41 67 42 69 43 35 44 72 45
REMARK SMILES IDX 66 46 65 47 36 49 58 50 43 51 57 52 44 53 47 54 56 55 70 56
REMARK SMILES IDX 45 57 46 58 55 60 71 61 48 62 37 63 38 64 42 65 39 66 41 67
REMARK SMILES IDX 40 68 59 69 60 70 64 71 61 72 63 73 62 74 49 75 50 76 54 77
REMARK SMILES IDX 51 78 53 79 52 80
REMARK H PARENT 21 5 10 18 25 29 69 48 47 59
REMARK Flexibility Score: inf
ROOT
ATOM      1  C   UNL A   1      32.730  28.290  24.993  1.00  0.00     0.117 C 
ENDROOT
BRANCH   1   2
ATOM      2  N   UNL A   1      31.521  27.833  24.347  1.00  0.00    -0.356 N 
ATOM      3  C   UNL A   1      31.302  26.683  23.631  1.00  0.00     0.227 C 
ATOM      4  O   UNL A   1      30.196  26.474  23.148  1.00  0.00    -0.274 OA
ATOM      5  H   UNL A   1      30.744  28.433  24.432  1.00  0.00     0.163 HD
BRANCH   3   6
ATOM      6  C   UNL A   1      32.459  25.764  23.320  1.00  0.00     0.059 C 
ATOM      7  C   UNL A   1      30.854  23.714  23.707  1.00  0.00     0.013 C 
ATOM      8  C   UNL A   1      32.236  24.229  23.347  1.00  0.00    -0.013 C 
ATOM      9  C   UNL A   1      32.903  23.341  22.319  1.00  0.00     0.013 C 
ATOM     10  C   UNL A   1      33.098  24.865  24.410  1.00  0.00     0.003 C 
ATOM     11  C   UNL A   1      33.300  26.286  22.160  1.00  0.00     0.023 C 
ATOM     12  C   UNL A   1      34.580  24.893  24.595  1.00  0.00     0.010 C 
ATOM     13  C   UNL A   1      32.833  24.813  25.892  1.00  0.00     0.086 C 
ATOM     14  C   UNL A   1      34.333  25.069  26.092  1.00  0.00     0.015 C 
BRANCH  13  15
ATOM     15  C   UNL A   1      32.191  23.587  26.575  1.00  0.00     0.224 C 
ATOM     16  O   UNL A   1      31.153  23.703  27.249  1.00  0.00    -0.275 OA
ATOM     17  N   UNL A   1      32.723  22.324  26.546  1.00  0.00    -0.349 N 
ATOM     18  H   UNL A   1      32.257  21.680  27.128  1.00  0.00     0.163 HD
BRANCH  17  19
ATOM     19  C   UNL A   1      33.836  21.760  25.823  1.00  0.00     0.191 C 
BRANCH  19  20
ATOM     20  C   UNL A   1      33.454  20.560  25.028  1.00  0.00     0.122 A 
ATOM     21  C   UNL A   1      32.344  20.281  24.255  1.00  0.00     0.047 A 
ATOM     22  O   UNL A   1      34.300  19.487  25.017  1.00  0.00    -0.467 OA
ATOM     23  C   UNL A   1      32.522  18.972  23.747  1.00  0.00     0.042 A 
ATOM     24  C   UNL A   1      33.730  18.535  24.236  1.00  0.00     0.195 A 
ENDBRANCH  19  20
ENDBRANCH  17  19
ENDBRANCH  13  15
ENDBRANCH   3   6
ENDBRANCH   1   2
BRANCH   1  25
ATOM     25  C   UNL A   1      32.570  28.663  26.455  1.00  0.00     0.042 C 
BRANCH  25  26
ATOM     26  C   UNL A   1      33.866  28.788  27.238  1.00  0.00     0.118 C 
BRANCH  26  27
ATOM     27  N   UNL A   1      33.964  30.021  28.004  1.00  0.00    -0.352 N 
ATOM     28  C   UNL A   1      34.997  30.591  28.704  1.00  0.00     0.251 C 
ATOM     29  H   UNL A   1      33.131  30.544  28.025  1.00  0.00     0.163 HD
ATOM     30  O   UNL A   1      34.766  31.593  29.378  1.00  0.00    -0.269 OA
BRANCH  28  31
ATOM     31  C   UNL A   1      36.369  30.027  28.696  1.00  0.00     0.039 A 
ATOM     32  C   UNL A   1      37.112  30.121  27.513  1.00  0.00     0.014 A 
ATOM     33  C   UNL A   1      36.917  29.361  29.792  1.00  0.00     0.014 A 
ATOM     34  C   UNL A   1      38.409  29.605  27.452  1.00  0.00     0.010 A 
ATOM     35  C   UNL A   1      38.246  28.938  29.767  1.00  0.00     0.010 A 
ATOM     36  C   UNL A   1      39.002  29.038  28.591  1.00  0.00    -0.014 A 
BRANCH  36  37
ATOM     37  C   UNL A   1      40.401  28.545  28.552  1.00  0.00     0.031 A 
ATOM     38  C   UNL A   1      40.707  27.112  28.206  1.00  0.00     0.074 A 
ATOM     39  C   UNL A   1      41.408  29.381  28.873  1.00  0.00     0.049 A 
ATOM     40  N   UNL A   1      41.870  26.521  28.093  1.00  0.00    -0.248 NA
ATOM     41  C   UNL A   1      39.559  26.218  27.992  1.00  0.00     0.031 C 
ATOM     42  C   UNL A   1      41.248  30.772  29.303  1.00  0.00     0.029 A 
ATOM     43  N   UNL A   1      42.765  29.183  28.884  1.00  0.00    -0.354 N 
ATOM     44  C   UNL A   1      41.593  25.189  27.814  1.00  0.00     0.074 A 
ATOM     45  C   UNL A   1      40.154  25.046  27.832  1.00  0.00     0.031 C 
ATOM     46  C   UNL A   1      42.461  31.311  29.501  1.00  0.00     0.029 A 
ATOM     47  C   UNL A   1      43.480  30.301  29.233  1.00  0.00     0.049 A 
ATOM     48  H   UNL A   1      43.186  28.320  28.663  1.00  0.00     0.167 HD
ATOM     49  C   UNL A   1      42.453  24.177  27.545  1.00  0.00     0.031 A 
ATOM     50  C   UNL A   1      44.808  30.501  29.314  1.00  0.00     0.031 A 
ATOM     51  C   UNL A   1      43.884  24.317  27.510  1.00  0.00     0.049 A 
ATOM     52  C   UNL A   1      45.746  29.386  28.953  1.00  0.00     0.074 A 
ATOM     53  C   UNL A   1      44.838  23.371  27.175  1.00  0.00     0.029 A 
ATOM     54  N   UNL A   1      44.569  25.481  27.826  1.00  0.00    -0.354 N 
ATOM     55  N   UNL A   1      45.465  28.156  28.597  1.00  0.00    -0.248 NA
ATOM     56  C   UNL A   1      47.182  29.696  28.980  1.00  0.00     0.031 C 
ATOM     57  C   UNL A   1      46.103  23.953  27.327  1.00  0.00     0.029 A 
ATOM     58  C   UNL A   1      45.933  25.273  27.711  1.00  0.00     0.049 A 
ATOM     59  H   UNL A   1      44.147  26.329  28.093  1.00  0.00     0.167 HD
ATOM     60  C   UNL A   1      46.687  27.549  28.338  1.00  0.00     0.074 A 
ATOM     61  C   UNL A   1      47.709  28.554  28.561  1.00  0.00     0.031 C 
ATOM     62  C   UNL A   1      46.939  26.276  27.949  1.00  0.00     0.031 A 
BRANCH  49  63
ATOM     63  C   UNL A   1      41.854  22.825  27.272  1.00  0.00    -0.014 A 
ATOM     64  C   UNL A   1      41.079  22.590  26.123  1.00  0.00     0.009 A 
ATOM     65  C   UNL A   1      42.066  21.771  28.172  1.00  0.00     0.009 A 
ATOM     66  C   UNL A   1      40.490  21.342  25.909  1.00  0.00     0.001 A 
ATOM     67  C   UNL A   1      41.499  20.516  27.941  1.00  0.00     0.001 A 
ATOM     68  C   UNL A   1      40.701  20.306  26.817  1.00  0.00     0.000 A 
ENDBRANCH  49  63
BRANCH  50  69
ATOM     69  C   UNL A   1      45.321  31.837  29.709  1.00  0.00    -0.014 A 
ATOM     70  C   UNL A   1      45.532  32.831  28.743  1.00  0.00     0.009 A 
ATOM     71  C   UNL A   1      45.563  32.136  31.059  1.00  0.00     0.009 A 
ATOM     72  C   UNL A   1      45.989  34.096  29.119  1.00  0.00     0.001 A 
ATOM     73  C   UNL A   1      45.997  33.408  31.434  1.00  0.00     0.001 A 
ATOM     74  C   UNL A   1      46.215  34.385  30.463  1.00  0.00     0.000 A 
ENDBRANCH  50  69
BRANCH  62  75
ATOM     75  C   UNL A   1      48.376  25.904  27.723  1.00  0.00    -0.014 A 
ATOM     76  C   UNL A   1      48.951  25.966  26.444  1.00  0.00     0.009 A 
ATOM     77  C   UNL A   1      49.171  25.506  28.808  1.00  0.00     0.009 A 
ATOM     78  C   UNL A   1      50.286  25.601  26.253  1.00  0.00     0.001 A 
ATOM     79  C   UNL A   1      50.511  25.165  28.618  1.00  0.00     0.001 A 
ATOM     80  C   UNL A   1      51.065  25.204  27.339  1.00  0.00     0.000 A 
ENDBRANCH  62  75
ENDBRANCH  36  37
ENDBRANCH  28  31
ENDBRANCH  26  27
ENDBRANCH  25  26
ENDBRANCH   1  25
TORSDOF 13
ENDMDL
MODEL 3
REMARK VINA RESULT:     -11.3      2.289      7.208
REMARK SMILES CC1(C)[C@@]2(CC[C@@H]2C(=O)NCc2ccco2)[C@]1(C)C(=O)NCCCNC(=O)c1ccc(-c2c3nc(c(-c4ccccc4)c4ccc([nH]4)c(-c4ccccc4)c4nc(c(-c5ccccc5)c5ccc2[nH]5)C=C4)C=C3)cc1
REMARK SMILES IDX 22 1 21 2 19 3 20 4 17 6 1 7 2 8 3 9 4 10 18 11 5 12 7 13
REMARK SMILES IDX 6 14 8 15 9 16 10 17 11 19 12 20 13 21 16 22 14 23 15 24
REMARK SMILES IDX 23 25 24 26 25 27 26 28 27 30 28 31 29 32 75 33 30 34 74 35
REMARK SMILES IDX 31 36 32 37 33 38 68 39 34 40 73 41 67 42 69 43 35 44 72 45
REMARK SMILES IDX 66 46 65 47 36 49 58 50 43 51 57 52 44 53 47 54 56 55 70 56
REMARK SMILES IDX 45 57 46 58 55 60 71 61 48 62 37 63 38 64 42 65 39 66 41 67
REMARK SMILES IDX 40 68 59 69 60 70 64 71 61 72 63 73 62 74 49 75 50 76 54 77
REMARK SMILES IDX 51 78 53 79 52 80
REMARK H PARENT 21 5 10 18 25 29 69 48 47 59
REMARK Flexibility Score: inf
ROOT
ATOM      1  C   UNL A   1      31.275  30.329  25.214  1.00  0.00     0.117 C 
ENDROOT
BRANCH   1   2
ATOM      2  N   UNL A   1      32.650  29.906  25.073  1.00  0.00    -0.356 N 
ATOM      3  C   UNL A   1      33.194  28.657  25.246  1.00  0.00     0.227 C 
ATOM      4  O   UNL A   1      34.397  28.497  25.088  1.00  0.00    -0.274 OA
ATOM      5  H   UNL A   1      33.286  30.613  24.819  1.00  0.00     0.163 HD
BRANCH   3   6
ATOM      6  C   UNL A   1      32.335  27.533  25.773  1.00  0.00     0.059 C 
ATOM      7  C   UNL A   1      33.915  25.830  24.537  1.00  0.00     0.013 C 
ATOM      8  C   UNL A   1      32.704  26.068  25.421  1.00  0.00    -0.013 C 
ATOM      9  C   UNL A   1      32.552  24.972  26.453  1.00  0.00     0.013 C 
ATOM     10  C   UNL A   1      31.454  26.673  24.830  1.00  0.00     0.003 C 
ATOM     11  C   UNL A   1      31.909  27.776  27.217  1.00  0.00     0.023 C 
ATOM     12  C   UNL A   1      30.010  26.481  25.161  1.00  0.00     0.010 C 
ATOM     13  C   UNL A   1      31.178  26.835  23.358  1.00  0.00     0.086 C 
ATOM     14  C   UNL A   1      29.687  26.864  23.719  1.00  0.00     0.015 C 
BRANCH  13  15
ATOM     15  C   UNL A   1      31.667  25.816  22.307  1.00  0.00     0.224 C 
ATOM     16  O   UNL A   1      32.285  26.190  21.296  1.00  0.00    -0.275 OA
ATOM     17  N   UNL A   1      31.421  24.469  22.369  1.00  0.00    -0.349 N 
ATOM     18  H   UNL A   1      31.698  23.975  21.563  1.00  0.00     0.163 HD
BRANCH  17  19
ATOM     19  C   UNL A   1      30.832  23.640  23.391  1.00  0.00     0.191 C 
BRANCH  19  20
ATOM     20  C   UNL A   1      31.780  22.616  23.914  1.00  0.00     0.122 A 
ATOM     21  C   UNL A   1      33.030  22.212  23.485  1.00  0.00     0.047 A 
ATOM     22  O   UNL A   1      31.418  21.891  25.014  1.00  0.00    -0.467 OA
ATOM     23  C   UNL A   1      33.450  21.189  24.368  1.00  0.00     0.042 A 
ATOM     24  C   UNL A   1      32.436  21.035  25.283  1.00  0.00     0.195 A 
ENDBRANCH  19  20
ENDBRANCH  17  19
ENDBRANCH  13  15
ENDBRANCH   3   6
ENDBRANCH   1   2
BRANCH   1  25
ATOM     25  C   UNL A   1      31.056  31.470  26.191  1.00  0.00     0.042 C 
BRANCH  25  26
ATOM     26  C   UNL A   1      32.299  31.944  26.921  1.00  0.00     0.118 C 
BRANCH  26  27
ATOM     27  N   UNL A   1      32.209  33.319  27.389  1.00  0.00    -0.352 N 
ATOM     28  C   UNL A   1      33.021  34.074  28.196  1.00  0.00     0.251 C 
ATOM     29  H   UNL A   1      31.412  33.798  27.065  1.00  0.00     0.163 HD
ATOM     30  O   UNL A   1      32.634  35.189  28.540  1.00  0.00    -0.269 OA
BRANCH  28  31
ATOM     31  C   UNL A   1      34.331  33.582  28.686  1.00  0.00     0.039 A 
ATOM     32  C   UNL A   1      34.342  32.741  29.805  1.00  0.00     0.014 A 
ATOM     33  C   UNL A   1      35.544  33.970  28.116  1.00  0.00     0.014 A 
ATOM     34  C   UNL A   1      35.550  32.250  30.307  1.00  0.00     0.010 A 
ATOM     35  C   UNL A   1      36.742  33.400  28.551  1.00  0.00     0.010 A 
ATOM     36  C   UNL A   1      36.760  32.548  29.662  1.00  0.00    -0.014 A 
BRANCH  36  37
ATOM     37  C   UNL A   1      38.041  31.978  30.152  1.00  0.00     0.031 A 
ATOM     38  C   UNL A   1      38.567  30.677  29.607  1.00  0.00     0.074 A 
ATOM     39  C   UNL A   1      38.717  32.613  31.129  1.00  0.00     0.049 A 
ATOM     40  N   UNL A   1      39.682  30.053  29.897  1.00  0.00    -0.248 NA
ATOM     41  C   UNL A   1      37.720  29.969  28.637  1.00  0.00     0.031 C 
ATOM     42  C   UNL A   1      38.281  33.839  31.802  1.00  0.00     0.029 A 
ATOM     43  N   UNL A   1      39.917  32.316  31.724  1.00  0.00    -0.354 N 
ATOM     44  C   UNL A   1      39.659  28.876  29.161  1.00  0.00     0.074 A 
ATOM     45  C   UNL A   1      38.396  28.844  28.457  1.00  0.00     0.031 C 
ATOM     46  C   UNL A   1      39.217  34.208  32.690  1.00  0.00     0.029 A 
ATOM     47  C   UNL A   1      40.306  33.236  32.665  1.00  0.00     0.049 A 
ATOM     48  H   UNL A   1      40.448  31.519  31.497  1.00  0.00     0.167 HD
ATOM     49  C   UNL A   1      40.609  27.915  29.059  1.00  0.00     0.031 A 
ATOM     50  C   UNL A   1      41.420  33.303  33.415  1.00  0.00     0.031 A 
ATOM     51  C   UNL A   1      41.873  27.949  29.745  1.00  0.00     0.049 A 
ATOM     52  C   UNL A   1      42.489  32.263  33.245  1.00  0.00     0.074 A 
ATOM     53  C   UNL A   1      42.932  27.062  29.651  1.00  0.00     0.029 A 
ATOM     54  N   UNL A   1      42.248  28.924  30.657  1.00  0.00    -0.354 N 
ATOM     55  N   UNL A   1      42.493  31.205  32.472  1.00  0.00    -0.248 NA
ATOM     56  C   UNL A   1      43.717  32.442  34.032  1.00  0.00     0.031 C 
ATOM     57  C   UNL A   1      43.933  27.480  30.537  1.00  0.00     0.029 A 
ATOM     58  C   UNL A   1      43.515  28.652  31.147  1.00  0.00     0.049 A 
ATOM     59  H   UNL A   1      41.694  29.695  30.918  1.00  0.00     0.167 HD
ATOM     60  C   UNL A   1      43.728  30.601  32.662  1.00  0.00     0.074 A 
ATOM     61  C   UNL A   1      44.454  31.424  33.611  1.00  0.00     0.031 C 
ATOM     62  C   UNL A   1      44.219  29.470  32.100  1.00  0.00     0.031 A 
BRANCH  49  63
ATOM     63  C   UNL A   1      40.302  26.741  28.171  1.00  0.00    -0.014 A 
ATOM     64  C   UNL A   1      39.573  25.638  28.648  1.00  0.00     0.009 A 
ATOM     65  C   UNL A   1      40.744  26.736  26.841  1.00  0.00     0.009 A 
ATOM     66  C   UNL A   1      39.339  24.534  27.825  1.00  0.00     0.001 A 
ATOM     67  C   UNL A   1      40.483  25.643  26.010  1.00  0.00     0.001 A 
ATOM     68  C   UNL A   1      39.792  24.538  26.507  1.00  0.00     0.000 A 
ENDBRANCH  49  63
BRANCH  50  69
ATOM     69  C   UNL A   1      41.596  34.434  34.360  1.00  0.00    -0.014 A 
ATOM     70  C   UNL A   1      42.169  35.639  33.929  1.00  0.00     0.009 A 
ATOM     71  C   UNL A   1      41.152  34.328  35.688  1.00  0.00     0.009 A 
ATOM     72  C   UNL A   1      42.309  36.712  34.812  1.00  0.00     0.001 A 
ATOM     73  C   UNL A   1      41.271  35.410  36.562  1.00  0.00     0.001 A 
ATOM     74  C   UNL A   1      41.854  36.598  36.125  1.00  0.00     0.000 A 
ENDBRANCH  50  69
BRANCH  62  75
ATOM     75  C   UNL A   1      45.612  29.066  32.486  1.00  0.00    -0.014 A 
ATOM     76  C   UNL A   1      45.847  28.212  33.575  1.00  0.00     0.009 A 
ATOM     77  C   UNL A   1      46.704  29.529  31.736  1.00  0.00     0.009 A 
ATOM     78  C   UNL A   1      47.152  27.861  33.927  1.00  0.00     0.001 A 
ATOM     79  C   UNL A   1      48.006  29.156  32.074  1.00  0.00     0.001 A 
ATOM     80  C   UNL A   1      48.229  28.330  33.175  1.00  0.00     0.000 A 
ENDBRANCH  62  75
ENDBRANCH  36  37
ENDBRANCH  28  31
ENDBRANCH  26  27
ENDBRANCH  25  26
ENDBRANCH   1  25
TORSDOF 13
ENDMDL
