MODEL 1
REMARK VINA RESULT:     -11.9      0.000      0.000
REMARK SMILES CCOC(=O)c1ccc(NC(=O)[C@H]2CC=CC[C@@]2(C)C(=O)NCCCNC(=O)c2ccc(-c3c4nc(c(-c5ccccc5)c5ccc([nH]5)c(-c5ccccc5)c5nc(c(-c6ccccc6)c6ccc3[nH]6)C=C5)C=C4)cc2)cc1
REMARK SMILES IDX 20 1 21 2 22 3 18 5 13 6 14 7 15 8 17 9 19 10 16 11 11 12
REMARK SMILES IDX 10 13 12 15 9 16 6 17 7 18 78 19 8 20 77 21 4 22 5 23 3 24
REMARK SMILES IDX 2 25 1 26 23 27 24 28 25 29 26 30 27 31 28 33 29 34 30 35
REMARK SMILES IDX 76 36 31 37 75 38 32 39 33 40 34 41 69 42 35 43 74 44 68 45
REMARK SMILES IDX 70 46 36 47 73 48 67 49 66 50 37 52 59 53 44 54 58 55 45 56
REMARK SMILES IDX 48 57 57 58 71 59 46 60 47 61 56 63 72 64 49 65 38 66 39 67
REMARK SMILES IDX 43 68 40 69 42 70 41 71 60 72 61 73 65 74 62 75 64 76 63 77
REMARK SMILES IDX 50 78 51 79 55 80 52 81 54 82 53 83
REMARK H PARENT 22 4 10 14 26 32 70 51 48 62
REMARK Flexibility Score: inf
ROOT
ATOM      1  C   UNL A   1      35.199  23.308  23.974  1.00  0.00     0.227 C 
ATOM      2  O   UNL A   1      35.128  23.819  22.851  1.00  0.00    -0.274 OA
ATOM      3  N   UNL A   1      36.009  22.213  24.072  1.00  0.00    -0.356 N 
ATOM      4  H   UNL A   1      36.740  22.196  23.413  1.00  0.00     0.163 HD
ENDROOT
BRANCH   1   5
ATOM      5  C   UNL A   1      34.304  23.777  25.148  1.00  0.00     0.062 C 
ATOM      6  C   UNL A   1      32.876  23.048  25.159  1.00  0.00     0.098 C 
ATOM      7  C   UNL A   1      32.723  21.978  26.250  1.00  0.00     0.041 C 
ATOM      8  C   UNL A   1      33.527  22.084  27.492  1.00  0.00    -0.030 C 
ATOM      9  C   UNL A   1      35.190  23.550  26.414  1.00  0.00     0.044 C 
ATOM     10  C   UNL A   1      33.960  25.288  25.014  1.00  0.00     0.023 C 
ATOM     11  C   UNL A   1      34.636  22.808  27.572  1.00  0.00    -0.030 C 
BRANCH   6  12
ATOM     12  C   UNL A   1      32.381  22.665  23.716  1.00  0.00     0.228 C 
ATOM     13  N   UNL A   1      31.477  23.408  23.001  1.00  0.00    -0.326 N 
ATOM     14  H   UNL A   1      30.926  22.894  22.369  1.00  0.00     0.169 HD
ATOM     15  O   UNL A   1      32.813  21.641  23.170  1.00  0.00    -0.274 OA
BRANCH  13  16
ATOM     16  C   UNL A   1      31.219  24.784  23.027  1.00  0.00     0.041 A 
ATOM     17  C   UNL A   1      30.357  27.426  22.711  1.00  0.00     0.060 A 
ATOM     18  C   UNL A   1      29.841  26.631  23.741  1.00  0.00     0.018 A 
ATOM     19  C   UNL A   1      31.415  26.935  21.932  1.00  0.00     0.018 A 
ATOM     20  C   UNL A   1      30.292  25.325  23.915  1.00  0.00     0.027 A 
ATOM     21  C   UNL A   1      31.864  25.617  22.110  1.00  0.00     0.027 A 
BRANCH  17  22
ATOM     22  C   UNL A   1      29.725  28.751  22.492  1.00  0.00     0.338 C 
ATOM     23  O   UNL A   1      30.271  29.646  21.858  1.00  0.00    -0.246 OA
BRANCH  22  24
ATOM     24  O   UNL A   1      28.534  28.847  23.132  1.00  0.00    -0.462 OA
BRANCH  24  25
ATOM     25  C   UNL A   1      27.654  29.863  22.622  1.00  0.00     0.230 C 
ATOM     26  C   UNL A   1      27.649  31.101  23.504  1.00  0.00     0.049 C 
ENDBRANCH  24  25
ENDBRANCH  22  24
ENDBRANCH  17  22
ENDBRANCH  13  16
ENDBRANCH   6  12
ENDBRANCH   1   5
BRANCH   3  27
ATOM     27  C   UNL A   1      35.994  21.064  24.971  1.00  0.00     0.117 C 
BRANCH  27  28
ATOM     28  C   UNL A   1      37.222  20.179  24.785  1.00  0.00     0.042 C 
BRANCH  28  29
ATOM     29  C   UNL A   1      38.447  20.673  25.538  1.00  0.00     0.118 C 
BRANCH  29  30
ATOM     30  N   UNL A   1      39.422  19.612  25.755  1.00  0.00    -0.352 N 
ATOM     31  C   UNL A   1      40.745  19.689  26.111  1.00  0.00     0.251 C 
ATOM     32  H   UNL A   1      39.078  18.699  25.626  1.00  0.00     0.163 HD
ATOM     33  O   UNL A   1      41.472  18.708  25.991  1.00  0.00    -0.269 OA
BRANCH  31  34
ATOM     34  C   UNL A   1      41.300  20.961  26.615  1.00  0.00     0.039 A 
ATOM     35  C   UNL A   1      41.945  21.823  25.725  1.00  0.00     0.014 A 
ATOM     36  C   UNL A   1      41.183  21.302  27.965  1.00  0.00     0.014 A 
ATOM     37  C   UNL A   1      42.385  23.071  26.171  1.00  0.00     0.010 A 
ATOM     38  C   UNL A   1      41.538  22.578  28.385  1.00  0.00     0.010 A 
ATOM     39  C   UNL A   1      42.135  23.479  27.491  1.00  0.00    -0.014 A 
BRANCH  39  40
ATOM     40  C   UNL A   1      42.456  24.850  27.955  1.00  0.00     0.031 A 
ATOM     41  C   UNL A   1      43.856  25.201  28.373  1.00  0.00     0.074 A 
ATOM     42  C   UNL A   1      41.463  25.752  28.088  1.00  0.00     0.049 A 
ATOM     43  N   UNL A   1      44.305  26.311  28.901  1.00  0.00    -0.248 NA
ATOM     44  C   UNL A   1      44.882  24.159  28.197  1.00  0.00     0.031 C 
ATOM     45  C   UNL A   1      40.056  25.521  27.752  1.00  0.00     0.029 A 
ATOM     46  N   UNL A   1      41.483  27.042  28.556  1.00  0.00    -0.354 N 
ATOM     47  C   UNL A   1      45.658  26.096  29.135  1.00  0.00     0.074 A 
ATOM     48  C   UNL A   1      45.946  24.735  28.738  1.00  0.00     0.031 C 
ATOM     49  C   UNL A   1      39.355  26.639  28.001  1.00  0.00     0.029 A 
ATOM     50  C   UNL A   1      40.249  27.644  28.563  1.00  0.00     0.049 A 
ATOM     51  H   UNL A   1      42.305  27.492  28.857  1.00  0.00     0.167 HD
ATOM     52  C   UNL A   1      46.580  26.959  29.621  1.00  0.00     0.031 A 
ATOM     53  C   UNL A   1      39.872  28.862  28.996  1.00  0.00     0.031 A 
ATOM     54  C   UNL A   1      46.291  28.312  30.016  1.00  0.00     0.049 A 
ATOM     55  C   UNL A   1      40.907  29.784  29.576  1.00  0.00     0.074 A 
ATOM     56  C   UNL A   1      47.165  29.284  30.465  1.00  0.00     0.029 A 
ATOM     57  N   UNL A   1      45.026  28.880  30.018  1.00  0.00    -0.354 N 
ATOM     58  N   UNL A   1      42.196  29.592  29.721  1.00  0.00    -0.248 NA
ATOM     59  C   UNL A   1      40.436  31.092  30.051  1.00  0.00     0.031 C 
ATOM     60  C   UNL A   1      46.422  30.419  30.801  1.00  0.00     0.029 A 
ATOM     61  C   UNL A   1      45.091  30.176  30.499  1.00  0.00     0.049 A 
ATOM     62  H   UNL A   1      44.203  28.428  29.720  1.00  0.00     0.167 HD
ATOM     63  C   UNL A   1      42.692  30.760  30.285  1.00  0.00     0.074 A 
ATOM     64  C   UNL A   1      41.569  31.663  30.434  1.00  0.00     0.031 C 
ATOM     65  C   UNL A   1      43.962  31.058  30.651  1.00  0.00     0.031 A 
BRANCH  52  66
ATOM     66  C   UNL A   1      47.991  26.459  29.767  1.00  0.00    -0.014 A 
ATOM     67  C   UNL A   1      48.907  26.539  28.705  1.00  0.00     0.009 A 
ATOM     68  C   UNL A   1      48.422  25.936  30.996  1.00  0.00     0.009 A 
ATOM     69  C   UNL A   1      50.213  26.071  28.861  1.00  0.00     0.001 A 
ATOM     70  C   UNL A   1      49.739  25.499  31.158  1.00  0.00     0.001 A 
ATOM     71  C   UNL A   1      50.629  25.557  30.088  1.00  0.00     0.000 A 
ENDBRANCH  52  66
BRANCH  53  72
ATOM     72  C   UNL A   1      38.448  29.278  28.907  1.00  0.00    -0.014 A 
ATOM     73  C   UNL A   1      37.913  29.732  27.691  1.00  0.00     0.009 A 
ATOM     74  C   UNL A   1      37.616  29.232  30.036  1.00  0.00     0.009 A 
ATOM     75  C   UNL A   1      36.584  30.156  27.616  1.00  0.00     0.001 A 
ATOM     76  C   UNL A   1      36.279  29.626  29.951  1.00  0.00     0.001 A 
ATOM     77  C   UNL A   1      35.766  30.097  28.744  1.00  0.00     0.000 A 
ENDBRANCH  53  72
BRANCH  65  78
ATOM     78  C   UNL A   1      44.208  32.421  31.234  1.00  0.00    -0.014 A 
ATOM     79  C   UNL A   1      44.188  32.633  32.621  1.00  0.00     0.009 A 
ATOM     80  C   UNL A   1      44.513  33.498  30.385  1.00  0.00     0.009 A 
ATOM     81  C   UNL A   1      44.438  33.903  33.144  1.00  0.00     0.001 A 
ATOM     82  C   UNL A   1      44.795  34.758  30.913  1.00  0.00     0.001 A 
ATOM     83  C   UNL A   1      44.748  34.961  32.291  1.00  0.00     0.000 A 
ENDBRANCH  65  78
ENDBRANCH  39  40
ENDBRANCH  31  34
ENDBRANCH  29  30
ENDBRANCH  28  29
ENDBRANCH  27  28
ENDBRANCH   3  27
TORSDOF 15
ENDMDL
MODEL 2
REMARK VINA RESULT:     -11.7      0.893      5.964
REMARK SMILES CCOC(=O)c1ccc(NC(=O)[C@H]2CC=CC[C@@]2(C)C(=O)NCCCNC(=O)c2ccc(-c3c4nc(c(-c5ccccc5)c5ccc([nH]5)c(-c5ccccc5)c5nc(c(-c6ccccc6)c6ccc3[nH]6)C=C5)C=C4)cc2)cc1
REMARK SMILES IDX 20 1 21 2 22 3 18 5 13 6 14 7 15 8 17 9 19 10 16 11 11 12
REMARK SMILES IDX 10 13 12 15 9 16 6 17 7 18 78 19 8 20 77 21 4 22 5 23 3 24
REMARK SMILES IDX 2 25 1 26 23 27 24 28 25 29 26 30 27 31 28 33 29 34 30 35
REMARK SMILES IDX 76 36 31 37 75 38 32 39 33 40 34 41 69 42 35 43 74 44 68 45
REMARK SMILES IDX 70 46 36 47 73 48 67 49 66 50 37 52 59 53 44 54 58 55 45 56
REMARK SMILES IDX 48 57 57 58 71 59 46 60 47 61 56 63 72 64 49 65 38 66 39 67
REMARK SMILES IDX 43 68 40 69 42 70 41 71 60 72 61 73 65 74 62 75 64 76 63 77
REMARK SMILES IDX 50 78 51 79 55 80 52 81 54 82 53 83
REMARK H PARENT 22 4 10 14 26 32 70 51 48 62
REMARK Flexibility Score: inf
ROOT
ATOM      1  C   UNL A   1      34.930  23.597  23.834  1.00  0.00     0.227 C 
ATOM      2  O   UNL A   1      34.739  24.137  22.740  1.00  0.00    -0.274 OA
ATOM      3  N   UNL A   1      35.883  22.618  23.848  1.00  0.00    -0.356 N 
ATOM      4  H   UNL A   1      36.578  22.727  23.159  1.00  0.00     0.163 HD
ENDROOT
BRANCH   1   5
ATOM      5  C   UNL A   1      34.038  23.894  25.065  1.00  0.00     0.062 C 
ATOM      6  C   UNL A   1      32.696  23.018  25.073  1.00  0.00     0.098 C 
ATOM      7  C   UNL A   1      32.696  21.872  26.095  1.00  0.00     0.041 C 
ATOM      8  C   UNL A   1      33.533  21.985  27.315  1.00  0.00    -0.030 C 
ATOM      9  C   UNL A   1      34.992  23.683  26.283  1.00  0.00     0.044 C 
ATOM     10  C   UNL A   1      33.535  25.365  25.043  1.00  0.00     0.023 C 
ATOM     11  C   UNL A   1      34.563  22.816  27.407  1.00  0.00    -0.030 C 
BRANCH   6  12
ATOM     12  C   UNL A   1      32.187  22.676  23.625  1.00  0.00     0.228 C 
ATOM     13  N   UNL A   1      31.253  23.421  22.952  1.00  0.00    -0.326 N 
ATOM     14  H   UNL A   1      30.704  22.916  22.310  1.00  0.00     0.169 HD
ATOM     15  O   UNL A   1      32.636  21.684  23.034  1.00  0.00    -0.274 OA
BRANCH  13  16
ATOM     16  C   UNL A   1      30.959  24.787  23.033  1.00  0.00     0.041 A 
ATOM     17  C   UNL A   1      30.740  27.526  23.555  1.00  0.00     0.060 A 
ATOM     18  C   UNL A   1      31.494  27.071  22.467  1.00  0.00     0.018 A 
ATOM     19  C   UNL A   1      29.976  26.609  24.291  1.00  0.00     0.018 A 
ATOM     20  C   UNL A   1      31.578  25.708  22.191  1.00  0.00     0.027 A 
ATOM     21  C   UNL A   1      30.067  25.236  24.010  1.00  0.00     0.027 A 
BRANCH  17  22
ATOM     22  C   UNL A   1      30.816  28.973  23.877  1.00  0.00     0.338 C 
ATOM     23  O   UNL A   1      29.859  29.728  23.753  1.00  0.00    -0.246 OA
BRANCH  22  24
ATOM     24  O   UNL A   1      32.069  29.336  24.245  1.00  0.00    -0.462 OA
BRANCH  24  25
ATOM     25  C   UNL A   1      32.264  29.481  25.663  1.00  0.00     0.230 C 
ATOM     26  C   UNL A   1      33.617  28.946  26.105  1.00  0.00     0.049 C 
ENDBRANCH  24  25
ENDBRANCH  22  24
ENDBRANCH  17  22
ENDBRANCH  13  16
ENDBRANCH   6  12
ENDBRANCH   1   5
BRANCH   3  27
ATOM     27  C   UNL A   1      36.065  21.444  24.694  1.00  0.00     0.117 C 
BRANCH  27  28
ATOM     28  C   UNL A   1      37.422  20.783  24.468  1.00  0.00     0.042 C 
BRANCH  28  29
ATOM     29  C   UNL A   1      38.361  20.901  25.659  1.00  0.00     0.118 C 
BRANCH  29  30
ATOM     30  N   UNL A   1      39.304  19.793  25.724  1.00  0.00    -0.352 N 
ATOM     31  C   UNL A   1      40.647  19.793  26.006  1.00  0.00     0.251 C 
ATOM     32  H   UNL A   1      38.919  18.907  25.536  1.00  0.00     0.163 HD
ATOM     33  O   UNL A   1      41.328  18.803  25.757  1.00  0.00    -0.269 OA
BRANCH  31  34
ATOM     34  C   UNL A   1      41.278  20.995  26.586  1.00  0.00     0.039 A 
ATOM     35  C   UNL A   1      41.896  21.917  25.738  1.00  0.00     0.014 A 
ATOM     36  C   UNL A   1      41.259  21.213  27.966  1.00  0.00     0.014 A 
ATOM     37  C   UNL A   1      42.409  23.104  26.265  1.00  0.00     0.010 A 
ATOM     38  C   UNL A   1      41.685  22.433  28.476  1.00  0.00     0.010 A 
ATOM     39  C   UNL A   1      42.257  23.394  27.631  1.00  0.00    -0.014 A 
BRANCH  39  40
ATOM     40  C   UNL A   1      42.655  24.707  28.195  1.00  0.00     0.031 A 
ATOM     41  C   UNL A   1      41.631  25.789  28.394  1.00  0.00     0.074 A 
ATOM     42  C   UNL A   1      43.957  24.953  28.440  1.00  0.00     0.049 A 
ATOM     43  N   UNL A   1      41.804  27.028  28.776  1.00  0.00    -0.248 NA
ATOM     44  C   UNL A   1      40.231  25.438  28.102  1.00  0.00     0.031 C 
ATOM     45  C   UNL A   1      45.052  23.998  28.252  1.00  0.00     0.029 A 
ATOM     46  N   UNL A   1      44.583  26.089  28.887  1.00  0.00    -0.354 N 
ATOM     47  C   UNL A   1      40.542  27.608  28.754  1.00  0.00     0.074 A 
ATOM     48  C   UNL A   1      39.620  26.602  28.275  1.00  0.00     0.031 C 
ATOM     49  C   UNL A   1      46.209  24.580  28.604  1.00  0.00     0.029 A 
ATOM     50  C   UNL A   1      45.947  25.961  28.990  1.00  0.00     0.049 A 
ATOM     51  H   UNL A   1      44.101  26.916  29.112  1.00  0.00     0.167 HD
ATOM     52  C   UNL A   1      40.182  28.862  29.116  1.00  0.00     0.031 A 
ATOM     53  C   UNL A   1      46.887  26.861  29.335  1.00  0.00     0.031 A 
ATOM     54  C   UNL A   1      41.101  29.861  29.592  1.00  0.00     0.049 A 
ATOM     55  C   UNL A   1      46.465  28.261  29.686  1.00  0.00     0.074 A 
ATOM     56  C   UNL A   1      40.827  31.141  30.038  1.00  0.00     0.029 A 
ATOM     57  N   UNL A   1      42.475  29.695  29.671  1.00  0.00    -0.354 N 
ATOM     58  N   UNL A   1      45.258  28.772  29.733  1.00  0.00    -0.248 NA
ATOM     59  C   UNL A   1      47.534  29.206  30.034  1.00  0.00     0.031 C 
ATOM     60  C   UNL A   1      42.040  31.772  30.326  1.00  0.00     0.029 A 
ATOM     61  C   UNL A   1      43.066  30.863  30.121  1.00  0.00     0.049 A 
ATOM     62  H   UNL A   1      42.959  28.868  29.442  1.00  0.00     0.167 HD
ATOM     63  C   UNL A   1      45.421  30.092  30.133  1.00  0.00     0.074 A 
ATOM     64  C   UNL A   1      46.842  30.295  30.338  1.00  0.00     0.031 C 
ATOM     65  C   UNL A   1      44.481  31.052  30.310  1.00  0.00     0.031 A 
BRANCH  52  66
ATOM     66  C   UNL A   1      38.727  29.228  28.998  1.00  0.00    -0.014 A 
ATOM     67  C   UNL A   1      38.192  29.715  27.795  1.00  0.00     0.009 A 
ATOM     68  C   UNL A   1      37.871  29.045  30.095  1.00  0.00     0.009 A 
ATOM     69  C   UNL A   1      36.839  30.047  27.704  1.00  0.00     0.001 A 
ATOM     70  C   UNL A   1      36.512  29.348  29.992  1.00  0.00     0.001 A 
ATOM     71  C   UNL A   1      36.000  29.858  28.800  1.00  0.00     0.000 A 
ENDBRANCH  52  66
BRANCH  53  72
ATOM     72  C   UNL A   1      48.321  26.473  29.356  1.00  0.00    -0.014 A 
ATOM     73  C   UNL A   1      48.890  25.909  30.508  1.00  0.00     0.009 A 
ATOM     74  C   UNL A   1      49.134  26.669  28.228  1.00  0.00     0.009 A 
ATOM     75  C   UNL A   1      50.246  25.575  30.539  1.00  0.00     0.001 A 
ATOM     76  C   UNL A   1      50.481  26.306  28.251  1.00  0.00     0.001 A 
ATOM     77  C   UNL A   1      51.039  25.768  29.409  1.00  0.00     0.000 A 
ENDBRANCH  53  72
BRANCH  65  78
ATOM     78  C   UNL A   1      44.957  32.404  30.764  1.00  0.00    -0.014 A 
ATOM     79  C   UNL A   1      45.272  33.411  29.839  1.00  0.00     0.009 A 
ATOM     80  C   UNL A   1      45.042  32.689  32.136  1.00  0.00     0.009 A 
ATOM     81  C   UNL A   1      45.693  34.667  30.280  1.00  0.00     0.001 A 
ATOM     82  C   UNL A   1      45.431  33.954  32.574  1.00  0.00     0.001 A 
ATOM     83  C   UNL A   1      45.765  34.939  31.646  1.00  0.00     0.000 A 
ENDBRANCH  65  78
ENDBRANCH  39  40
ENDBRANCH  31  34
ENDBRANCH  29  30
ENDBRANCH  28  29
ENDBRANCH  27  28
ENDBRANCH   3  27
TORSDOF 15
ENDMDL
MODEL 3
REMARK VINA RESULT:     -11.5      3.271      8.852
REMARK SMILES CCOC(=O)c1ccc(NC(=O)[C@H]2CC=CC[C@@]2(C)C(=O)NCCCNC(=O)c2ccc(-c3c4nc(c(-c5ccccc5)c5ccc([nH]5)c(-c5ccccc5)c5nc(c(-c6ccccc6)c6ccc3[nH]6)C=C5)C=C4)cc2)cc1
REMARK SMILES IDX 20 1 21 2 22 3 18 5 13 6 14 7 15 8 17 9 19 10 16 11 11 12
REMARK SMILES IDX 10 13 12 15 9 16 6 17 7 18 78 19 8 20 77 21 4 22 5 23 3 24
REMARK SMILES IDX 2 25 1 26 23 27 24 28 25 29 26 30 27 31 28 33 29 34 30 35
REMARK SMILES IDX 76 36 31 37 75 38 32 39 33 40 34 41 69 42 35 43 74 44 68 45
REMARK SMILES IDX 70 46 36 47 73 48 67 49 66 50 37 52 59 53 44 54 58 55 45 56
REMARK SMILES IDX 48 57 57 58 71 59 46 60 47 61 56 63 72 64 49 65 38 66 39 67
REMARK SMILES IDX 43 68 40 69 42 70 41 71 60 72 61 73 65 74 62 75 64 76 63 77
REMARK SMILES IDX 50 78 51 79 55 80 52 81 54 82 53 83
REMARK H PARENT 22 4 10 14 26 32 70 51 48 62
REMARK Flexibility Score: inf
ROOT
ATOM      1  C   UNL A   1      33.432  28.270  25.929  1.00  0.00     0.227 C 
ATOM      2  O   UNL A   1      34.130  27.790  26.828  1.00  0.00    -0.274 OA
ATOM      3  N   UNL A   1      32.953  29.527  26.164  1.00  0.00    -0.356 N 
ATOM      4  H   UNL A   1      33.515  30.063  26.768  1.00  0.00     0.163 HD
ENDROOT
BRANCH   1   5
ATOM      5  C   UNL A   1      32.993  27.440  24.697  1.00  0.00     0.062 C 
ATOM      6  C   UNL A   1      31.535  26.800  24.876  1.00  0.00     0.098 C 
ATOM      7  C   UNL A   1      30.437  27.493  24.056  1.00  0.00     0.041 C 
ATOM      8  C   UNL A   1      30.802  28.206  22.807  1.00  0.00    -0.030 C 
ATOM      9  C   UNL A   1      33.157  28.427  23.498  1.00  0.00     0.044 C 
ATOM     10  C   UNL A   1      33.927  26.212  24.495  1.00  0.00     0.023 C 
ATOM     11  C   UNL A   1      32.036  28.615  22.546  1.00  0.00    -0.030 C 
BRANCH   6  12
ATOM     12  C   UNL A   1      31.198  26.473  26.377  1.00  0.00     0.228 C 
ATOM     13  N   UNL A   1      31.092  25.198  26.872  1.00  0.00    -0.326 N 
ATOM     14  H   UNL A   1      30.476  25.098  27.632  1.00  0.00     0.169 HD
ATOM     15  O   UNL A   1      31.011  27.397  27.181  1.00  0.00    -0.274 OA
BRANCH  13  16
ATOM     16  C   UNL A   1      31.725  24.017  26.466  1.00  0.00     0.041 A 
ATOM     17  C   UNL A   1      33.287  21.971  25.374  1.00  0.00     0.060 A 
ATOM     18  C   UNL A   1      33.572  22.475  26.648  1.00  0.00     0.018 A 
ATOM     19  C   UNL A   1      32.126  22.396  24.713  1.00  0.00     0.018 A 
ATOM     20  C   UNL A   1      32.775  23.475  27.203  1.00  0.00     0.027 A 
ATOM     21  C   UNL A   1      31.328  23.405  25.275  1.00  0.00     0.027 A 
BRANCH  17  22
ATOM     22  C   UNL A   1      34.262  21.018  24.786  1.00  0.00     0.338 C 
ATOM     23  O   UNL A   1      33.986  19.844  24.565  1.00  0.00    -0.246 OA
BRANCH  22  24
ATOM     24  O   UNL A   1      35.475  21.595  24.605  1.00  0.00    -0.462 OA
BRANCH  24  25
ATOM     25  C   UNL A   1      36.596  20.768  24.960  1.00  0.00     0.230 C 
ATOM     26  C   UNL A   1      37.827  21.596  25.293  1.00  0.00     0.049 C 
ENDBRANCH  24  25
ENDBRANCH  22  24
ENDBRANCH  17  22
ENDBRANCH  13  16
ENDBRANCH   6  12
ENDBRANCH   1   5
BRANCH   3  27
ATOM     27  C   UNL A   1      31.765  30.226  25.686  1.00  0.00     0.117 C 
BRANCH  27  28
ATOM     28  C   UNL A   1      31.467  31.474  26.510  1.00  0.00     0.042 C 
BRANCH  28  29
ATOM     29  C   UNL A   1      32.700  32.085  27.156  1.00  0.00     0.118 C 
BRANCH  29  30
ATOM     30  N   UNL A   1      32.506  33.490  27.489  1.00  0.00    -0.352 N 
ATOM     31  C   UNL A   1      33.174  34.285  28.385  1.00  0.00     0.251 C 
ATOM     32  H   UNL A   1      31.782  33.938  26.994  1.00  0.00     0.163 HD
ATOM     33  O   UNL A   1      32.702  35.367  28.719  1.00  0.00    -0.269 OA
BRANCH  31  34
ATOM     34  C   UNL A   1      34.451  33.827  28.968  1.00  0.00     0.039 A 
ATOM     35  C   UNL A   1      34.437  33.142  30.186  1.00  0.00     0.014 A 
ATOM     36  C   UNL A   1      35.660  34.070  28.313  1.00  0.00     0.014 A 
ATOM     37  C   UNL A   1      35.627  32.618  30.696  1.00  0.00     0.010 A 
ATOM     38  C   UNL A   1      36.826  33.471  28.773  1.00  0.00     0.010 A 
ATOM     39  C   UNL A   1      36.820  32.732  29.965  1.00  0.00    -0.014 A 
BRANCH  39  40
ATOM     40  C   UNL A   1      38.068  32.061  30.404  1.00  0.00     0.031 A 
ATOM     41  C   UNL A   1      38.995  32.742  31.370  1.00  0.00     0.074 A 
ATOM     42  C   UNL A   1      38.409  30.877  29.857  1.00  0.00     0.049 A 
ATOM     43  N   UNL A   1      40.175  32.361  31.789  1.00  0.00    -0.248 NA
ATOM     44  C   UNL A   1      38.548  34.033  31.921  1.00  0.00     0.031 C 
ATOM     45  C   UNL A   1      37.612  30.132  28.879  1.00  0.00     0.029 A 
ATOM     46  N   UNL A   1      39.525  30.099  30.036  1.00  0.00    -0.354 N 
ATOM     47  C   UNL A   1      40.617  33.370  32.636  1.00  0.00     0.074 A 
ATOM     48  C   UNL A   1      39.603  34.401  32.634  1.00  0.00     0.031 C 
ATOM     49  C   UNL A   1      38.252  28.995  28.565  1.00  0.00     0.029 A 
ATOM     50  C   UNL A   1      39.526  28.956  29.274  1.00  0.00     0.049 A 
ATOM     51  H   UNL A   1      40.254  30.337  30.652  1.00  0.00     0.167 HD
ATOM     52  C   UNL A   1      41.758  33.424  33.363  1.00  0.00     0.031 A 
ATOM     53  C   UNL A   1      40.458  27.993  29.141  1.00  0.00     0.031 A 
ATOM     54  C   UNL A   1      42.766  32.398  33.363  1.00  0.00     0.049 A 
ATOM     55  C   UNL A   1      41.737  28.102  29.923  1.00  0.00     0.074 A 
ATOM     56  C   UNL A   1      43.929  32.332  34.107  1.00  0.00     0.029 A 
ATOM     57  N   UNL A   1      42.733  31.261  32.569  1.00  0.00    -0.354 N 
ATOM     58  N   UNL A   1      42.107  29.025  30.777  1.00  0.00    -0.248 NA
ATOM     59  C   UNL A   1      42.726  27.034  29.724  1.00  0.00     0.031 C 
ATOM     60  C   UNL A   1      44.633  31.189  33.718  1.00  0.00     0.029 A 
ATOM     61  C   UNL A   1      43.876  30.508  32.776  1.00  0.00     0.049 A 
ATOM     62  H   UNL A   1      42.005  31.024  31.950  1.00  0.00     0.167 HD
ATOM     63  C   UNL A   1      43.362  28.641  31.231  1.00  0.00     0.074 A 
ATOM     64  C   UNL A   1      43.679  27.388  30.574  1.00  0.00     0.031 C 
ATOM     65  C   UNL A   1      44.181  29.270  32.108  1.00  0.00     0.031 A 
BRANCH  52  66
ATOM     66  C   UNL A   1      41.983  34.647  34.211  1.00  0.00    -0.014 A 
ATOM     67  C   UNL A   1      41.564  34.693  35.550  1.00  0.00     0.009 A 
ATOM     68  C   UNL A   1      42.661  35.752  33.674  1.00  0.00     0.009 A 
ATOM     69  C   UNL A   1      41.784  35.836  36.321  1.00  0.00     0.001 A 
ATOM     70  C   UNL A   1      42.908  36.881  34.457  1.00  0.00     0.001 A 
ATOM     71  C   UNL A   1      42.461  36.926  35.776  1.00  0.00     0.000 A 
ENDBRANCH  52  66
BRANCH  53  72
ATOM     72  C   UNL A   1      40.222  26.846  28.225  1.00  0.00    -0.014 A 
ATOM     73  C   UNL A   1      39.478  25.736  28.651  1.00  0.00     0.009 A 
ATOM     74  C   UNL A   1      40.745  26.851  26.923  1.00  0.00     0.009 A 
ATOM     75  C   UNL A   1      39.286  24.643  27.802  1.00  0.00     0.001 A 
ATOM     76  C   UNL A   1      40.524  25.771  26.065  1.00  0.00     0.001 A 
ATOM     77  C   UNL A   1      39.804  24.664  26.508  1.00  0.00     0.000 A 
ENDBRANCH  53  72
BRANCH  65  78
ATOM     78  C   UNL A   1      45.493  28.605  32.422  1.00  0.00    -0.014 A 
ATOM     79  C   UNL A   1      45.596  27.649  33.443  1.00  0.00     0.009 A 
ATOM     80  C   UNL A   1      46.628  28.905  31.652  1.00  0.00     0.009 A 
ATOM     81  C   UNL A   1      46.819  27.028  33.707  1.00  0.00     0.001 A 
ATOM     82  C   UNL A   1      47.840  28.260  31.896  1.00  0.00     0.001 A 
ATOM     83  C   UNL A   1      47.936  27.329  32.929  1.00  0.00     0.000 A 
ENDBRANCH  65  78
ENDBRANCH  39  40
ENDBRANCH  31  34
ENDBRANCH  29  30
ENDBRANCH  28  29
ENDBRANCH  27  28
ENDBRANCH   3  27
TORSDOF 15
ENDMDL
