MODEL 1
REMARK VINA RESULT:     -10.2      0.000      0.000
REMARK SMILES C[C@H]1CCCC/C1=C\C(=O)NCCCNC(=O)c1ccc(-c2c3nc(c(-c4ccccc4)c4ccc([nH]4)c(-c4ccccc4)c4nc(c(-c5ccccc5)c5ccc2[nH]5)C=C4)C=C3)cc1
REMARK SMILES IDX 14 1 13 2 12 3 11 4 9 5 10 6 8 8 1 9 2 10 3 11 7 12 4 13
REMARK SMILES IDX 6 14 5 15 15 16 16 17 17 19 18 20 19 21 65 22 20 23 64 24
REMARK SMILES IDX 21 25 22 26 23 27 58 28 24 29 63 30 57 31 59 32 25 33 62 34
REMARK SMILES IDX 56 35 55 36 26 38 48 39 33 40 47 41 34 42 37 43 46 44 60 45
REMARK SMILES IDX 35 46 36 47 45 49 61 50 38 51 27 52 28 53 32 54 29 55 31 56
REMARK SMILES IDX 30 57 49 58 50 59 54 60 51 61 53 62 52 63 39 64 40 65 44 66
REMARK SMILES IDX 41 67 43 68 42 69
REMARK H PARENT 11 7 15 18 59 37 37 48
REMARK Flexibility Score: inf
ROOT
ATOM      1  C   UNL A   1      34.166  28.575  25.984  1.00  0.00     0.118 C 
ENDROOT
BRANCH   1   2
ATOM      2  C   UNL A   1      33.223  27.450  26.344  1.00  0.00     0.042 C 
BRANCH   2   3
ATOM      3  C   UNL A   1      33.638  26.102  25.809  1.00  0.00     0.118 C 
BRANCH   3   4
ATOM      4  N   UNL A   1      33.829  25.974  24.395  1.00  0.00    -0.352 N 
ATOM      5  C   UNL A   1      34.130  24.852  23.686  1.00  0.00     0.243 C 
ATOM      6  O   UNL A   1      34.182  24.946  22.458  1.00  0.00    -0.270 OA
ATOM      7  H   UNL A   1      33.730  26.802  23.870  1.00  0.00     0.163 HD
BRANCH   5   8
ATOM      8  C   UNL A   1      34.541  23.547  24.308  1.00  0.00     0.070 C 
ATOM      9  C   UNL A   1      34.481  20.645  25.035  1.00  0.00     0.012 C 
ATOM     10  C   UNL A   1      35.573  21.585  25.549  1.00  0.00     0.012 C 
ATOM     11  C   UNL A   1      36.959  21.107  25.070  1.00  0.00     0.008 C 
ATOM     12  C   UNL A   1      35.435  23.077  25.211  1.00  0.00    -0.062 C 
ATOM     13  C   UNL A   1      38.108  21.934  25.660  1.00  0.00     0.001 C 
ATOM     14  C   UNL A   1      36.469  23.838  26.015  1.00  0.00     0.031 C 
ATOM     15  C   UNL A   1      37.875  23.438  25.530  1.00  0.00     0.004 C 
ENDBRANCH   5   8
ENDBRANCH   3   4
ENDBRANCH   2   3
ENDBRANCH   1   2
BRANCH   1  16
ATOM     16  N   UNL A   1      33.850  29.837  26.652  1.00  0.00    -0.352 N 
ATOM     17  C   UNL A   1      34.499  30.559  27.625  1.00  0.00     0.251 C 
ATOM     18  H   UNL A   1      33.009  30.248  26.346  1.00  0.00     0.163 HD
ATOM     19  O   UNL A   1      33.930  31.526  28.135  1.00  0.00    -0.269 OA
BRANCH  17  20
ATOM     20  C   UNL A   1      35.850  30.182  28.099  1.00  0.00     0.039 A 
ATOM     21  C   UNL A   1      36.003  29.607  29.365  1.00  0.00     0.014 A 
ATOM     22  C   UNL A   1      36.975  30.400  27.310  1.00  0.00     0.014 A 
ATOM     23  C   UNL A   1      37.264  29.173  29.786  1.00  0.00     0.010 A 
ATOM     24  C   UNL A   1      38.189  29.826  27.656  1.00  0.00     0.010 A 
ATOM     25  C   UNL A   1      38.360  29.227  28.910  1.00  0.00    -0.014 A 
BRANCH  25  26
ATOM     26  C   UNL A   1      39.704  28.713  29.279  1.00  0.00     0.031 A 
ATOM     27  C   UNL A   1      40.656  29.590  30.053  1.00  0.00     0.074 A 
ATOM     28  C   UNL A   1      40.105  27.503  28.841  1.00  0.00     0.049 A 
ATOM     29  N   UNL A   1      41.909  29.377  30.365  1.00  0.00    -0.248 NA
ATOM     30  C   UNL A   1      40.145  30.898  30.499  1.00  0.00     0.031 C 
ATOM     31  C   UNL A   1      39.304  26.575  28.039  1.00  0.00     0.029 A 
ATOM     32  N   UNL A   1      41.301  26.847  29.005  1.00  0.00    -0.354 N 
ATOM     33  C   UNL A   1      42.338  30.535  31.004  1.00  0.00     0.074 A 
ATOM     34  C   UNL A   1      41.239  31.470  30.976  1.00  0.00     0.031 C 
ATOM     35  C   UNL A   1      40.012  25.456  27.818  1.00  0.00     0.029 A 
ATOM     36  C   UNL A   1      41.335  25.607  28.413  1.00  0.00     0.049 A 
ATOM     37  H   UNL A   1      42.061  27.229  29.500  1.00  0.00     0.167 HD
ATOM     38  C   UNL A   1      43.530  30.789  31.594  1.00  0.00     0.031 A 
ATOM     39  C   UNL A   1      42.325  24.696  28.351  1.00  0.00     0.031 A 
ATOM     40  C   UNL A   1      44.613  29.847  31.654  1.00  0.00     0.049 A 
ATOM     41  C   UNL A   1      43.640  25.001  29.012  1.00  0.00     0.074 A 
ATOM     42  C   UNL A   1      45.836  29.976  32.286  1.00  0.00     0.029 A 
ATOM     43  N   UNL A   1      44.597  28.594  31.059  1.00  0.00    -0.354 N 
ATOM     44  N   UNL A   1      44.005  26.073  29.675  1.00  0.00    -0.248 NA
ATOM     45  C   UNL A   1      44.677  23.964  28.927  1.00  0.00     0.031 C 
ATOM     46  C   UNL A   1      46.584  28.824  32.026  1.00  0.00     0.029 A 
ATOM     47  C   UNL A   1      45.800  27.950  31.289  1.00  0.00     0.049 A 
ATOM     48  H   UNL A   1      43.843  28.219  30.550  1.00  0.00     0.167 HD
ATOM     49  C   UNL A   1      45.301  25.826  30.111  1.00  0.00     0.074 A 
ATOM     50  C   UNL A   1      45.650  24.496  29.653  1.00  0.00     0.031 C 
ATOM     51  C   UNL A   1      46.128  26.627  30.827  1.00  0.00     0.031 A 
BRANCH  38  52
ATOM     52  C   UNL A   1      43.718  32.143  32.223  1.00  0.00    -0.014 A 
ATOM     53  C   UNL A   1      43.373  32.381  33.565  1.00  0.00     0.009 A 
ATOM     54  C   UNL A   1      44.270  33.192  31.472  1.00  0.00     0.009 A 
ATOM     55  C   UNL A   1      43.532  33.651  34.124  1.00  0.00     0.001 A 
ATOM     56  C   UNL A   1      44.462  34.452  32.045  1.00  0.00     0.001 A 
ATOM     57  C   UNL A   1      44.082  34.683  33.366  1.00  0.00     0.000 A 
ENDBRANCH  38  52
BRANCH  39  58
ATOM     58  C   UNL A   1      42.106  23.401  27.654  1.00  0.00    -0.014 A 
ATOM     59  C   UNL A   1      42.498  23.239  26.315  1.00  0.00     0.009 A 
ATOM     60  C   UNL A   1      41.499  22.322  28.315  1.00  0.00     0.009 A 
ATOM     61  C   UNL A   1      42.256  22.037  25.646  1.00  0.00     0.001 A 
ATOM     62  C   UNL A   1      41.288  21.110  27.653  1.00  0.00     0.001 A 
ATOM     63  C   UNL A   1      41.657  20.973  26.315  1.00  0.00     0.000 A 
ENDBRANCH  39  58
BRANCH  51  64
ATOM     64  C   UNL A   1      47.475  26.071  31.195  1.00  0.00    -0.014 A 
ATOM     65  C   UNL A   1      48.542  26.074  30.285  1.00  0.00     0.009 A 
ATOM     66  C   UNL A   1      47.687  25.578  32.492  1.00  0.00     0.009 A 
ATOM     67  C   UNL A   1      49.787  25.563  30.657  1.00  0.00     0.001 A 
ATOM     68  C   UNL A   1      48.941  25.099  32.872  1.00  0.00     0.001 A 
ATOM     69  C   UNL A   1      49.986  25.082  31.950  1.00  0.00     0.000 A 
ENDBRANCH  51  64
ENDBRANCH  25  26
ENDBRANCH  17  20
ENDBRANCH   1  16
TORSDOF 10
ENDMDL
MODEL 2
REMARK VINA RESULT:     -10.1      2.369      7.937
REMARK SMILES C[C@H]1CCCC/C1=C\C(=O)NCCCNC(=O)c1ccc(-c2c3nc(c(-c4ccccc4)c4ccc([nH]4)c(-c4ccccc4)c4nc(c(-c5ccccc5)c5ccc2[nH]5)C=C4)C=C3)cc1
REMARK SMILES IDX 14 1 13 2 12 3 11 4 9 5 10 6 8 8 1 9 2 10 3 11 7 12 4 13
REMARK SMILES IDX 6 14 5 15 15 16 16 17 17 19 18 20 19 21 65 22 20 23 64 24
REMARK SMILES IDX 21 25 22 26 23 27 58 28 24 29 63 30 57 31 59 32 25 33 62 34
REMARK SMILES IDX 56 35 55 36 26 38 48 39 33 40 47 41 34 42 37 43 46 44 60 45
REMARK SMILES IDX 35 46 36 47 45 49 61 50 38 51 27 52 28 53 32 54 29 55 31 56
REMARK SMILES IDX 30 57 49 58 50 59 54 60 51 61 53 62 52 63 39 64 40 65 44 66
REMARK SMILES IDX 41 67 43 68 42 69
REMARK H PARENT 11 7 15 18 59 37 37 48
REMARK Flexibility Score: inf
ROOT
ATOM      1  C   UNL A   1      36.224  23.635  26.123  1.00  0.00     0.118 C 
ENDROOT
BRANCH   1   2
ATOM      2  C   UNL A   1      35.531  23.918  24.809  1.00  0.00     0.042 C 
BRANCH   2   3
ATOM      3  C   UNL A   1      34.409  24.922  24.909  1.00  0.00     0.118 C 
BRANCH   3   4
ATOM      4  N   UNL A   1      33.371  24.671  25.865  1.00  0.00    -0.352 N 
ATOM      5  C   UNL A   1      32.323  25.473  26.196  1.00  0.00     0.243 C 
ATOM      6  O   UNL A   1      31.497  25.035  27.000  1.00  0.00    -0.270 OA
ATOM      7  H   UNL A   1      33.423  23.811  26.342  1.00  0.00     0.163 HD
BRANCH   5   8
ATOM      8  C   UNL A   1      32.186  26.905  25.759  1.00  0.00     0.070 C 
ATOM      9  C   UNL A   1      31.065  29.329  24.410  1.00  0.00     0.012 C 
ATOM     10  C   UNL A   1      32.345  29.388  25.245  1.00  0.00     0.012 C 
ATOM     11  C   UNL A   1      32.167  30.359  26.430  1.00  0.00     0.008 C 
ATOM     12  C   UNL A   1      32.893  28.059  25.789  1.00  0.00    -0.062 C 
ATOM     13  C   UNL A   1      33.460  30.560  27.231  1.00  0.00     0.001 C 
ATOM     14  C   UNL A   1      34.271  28.319  26.361  1.00  0.00     0.031 C 
ATOM     15  C   UNL A   1      34.140  29.239  27.588  1.00  0.00     0.004 C 
ENDBRANCH   5   8
ENDBRANCH   3   4
ENDBRANCH   2   3
ENDBRANCH   1   2
BRANCH   1  16
ATOM     16  N   UNL A   1      37.351  22.712  25.998  1.00  0.00    -0.352 N 
ATOM     17  C   UNL A   1      38.700  22.858  26.224  1.00  0.00     0.251 C 
ATOM     18  H   UNL A   1      37.094  21.811  25.693  1.00  0.00     0.163 HD
ATOM     19  O   UNL A   1      39.466  21.954  25.886  1.00  0.00    -0.269 OA
BRANCH  17  20
ATOM     20  C   UNL A   1      39.255  24.089  26.831  1.00  0.00     0.039 A 
ATOM     21  C   UNL A   1      39.958  24.997  26.032  1.00  0.00     0.014 A 
ATOM     22  C   UNL A   1      39.101  24.354  28.188  1.00  0.00     0.014 A 
ATOM     23  C   UNL A   1      40.413  26.201  26.579  1.00  0.00     0.010 A 
ATOM     24  C   UNL A   1      39.407  25.610  28.690  1.00  0.00     0.010 A 
ATOM     25  C   UNL A   1      40.092  26.543  27.902  1.00  0.00    -0.014 A 
BRANCH  25  26
ATOM     26  C   UNL A   1      40.486  27.839  28.510  1.00  0.00     0.031 A 
ATOM     27  C   UNL A   1      41.889  28.025  29.033  1.00  0.00     0.074 A 
ATOM     28  C   UNL A   1      39.568  28.811  28.681  1.00  0.00     0.049 A 
ATOM     29  N   UNL A   1      42.395  29.028  29.705  1.00  0.00    -0.248 NA
ATOM     30  C   UNL A   1      42.837  26.920  28.809  1.00  0.00     0.031 C 
ATOM     31  C   UNL A   1      38.164  28.741  28.270  1.00  0.00     0.029 A 
ATOM     32  N   UNL A   1      39.680  30.053  29.257  1.00  0.00    -0.354 N 
ATOM     33  C   UNL A   1      43.699  28.654  30.012  1.00  0.00     0.074 A 
ATOM     34  C   UNL A   1      43.885  27.311  29.515  1.00  0.00     0.031 C 
ATOM     35  C   UNL A   1      37.558  29.902  28.567  1.00  0.00     0.029 A 
ATOM     36  C   UNL A   1      38.512  30.777  29.238  1.00  0.00     0.049 A 
ATOM     37  H   UNL A   1      40.518  30.392  29.645  1.00  0.00     0.167 HD
ATOM     38  C   UNL A   1      44.670  29.374  30.622  1.00  0.00     0.031 A 
ATOM     39  C   UNL A   1      38.240  32.006  29.715  1.00  0.00     0.031 A 
ATOM     40  C   UNL A   1      44.496  30.723  31.085  1.00  0.00     0.049 A 
ATOM     41  C   UNL A   1      39.333  32.787  30.390  1.00  0.00     0.074 A 
ATOM     42  C   UNL A   1      45.433  31.567  31.653  1.00  0.00     0.029 A 
ATOM     43  N   UNL A   1      43.303  31.426  31.027  1.00  0.00    -0.354 N 
ATOM     44  N   UNL A   1      40.581  32.446  30.607  1.00  0.00    -0.248 NA
ATOM     45  C   UNL A   1      38.982  34.129  30.875  1.00  0.00     0.031 C 
ATOM     46  C   UNL A   1      44.792  32.762  31.992  1.00  0.00     0.029 A 
ATOM     47  C   UNL A   1      43.473  32.686  31.573  1.00  0.00     0.049 A 
ATOM     48  H   UNL A   1      42.460  31.080  30.653  1.00  0.00     0.167 HD
ATOM     49  C   UNL A   1      41.171  33.541  31.226  1.00  0.00     0.074 A 
ATOM     50  C   UNL A   1      40.149  34.562  31.331  1.00  0.00     0.031 C 
ATOM     51  C   UNL A   1      42.444  33.689  31.667  1.00  0.00     0.031 A 
BRANCH  38  52
ATOM     52  C   UNL A   1      46.006  28.711  30.819  1.00  0.00    -0.014 A 
ATOM     53  C   UNL A   1      47.032  28.835  29.867  1.00  0.00     0.009 A 
ATOM     54  C   UNL A   1      46.253  27.969  31.984  1.00  0.00     0.009 A 
ATOM     55  C   UNL A   1      48.258  28.192  30.055  1.00  0.00     0.001 A 
ATOM     56  C   UNL A   1      47.492  27.357  32.188  1.00  0.00     0.001 A 
ATOM     57  C   UNL A   1      48.488  27.458  31.218  1.00  0.00     0.000 A 
ENDBRANCH  38  52
BRANCH  39  58
ATOM     58  C   UNL A   1      36.879  32.586  29.554  1.00  0.00    -0.014 A 
ATOM     59  C   UNL A   1      36.534  33.273  28.379  1.00  0.00     0.009 A 
ATOM     60  C   UNL A   1      35.922  32.465  30.573  1.00  0.00     0.009 A 
ATOM     61  C   UNL A   1      35.271  33.853  28.243  1.00  0.00     0.001 A 
ATOM     62  C   UNL A   1      34.648  33.018  30.420  1.00  0.00     0.001 A 
ATOM     63  C   UNL A   1      34.328  33.722  29.260  1.00  0.00     0.000 A 
ENDBRANCH  39  58
BRANCH  51  64
ATOM     64  C   UNL A   1      42.815  35.017  32.265  1.00  0.00    -0.014 A 
ATOM     65  C   UNL A   1      43.474  36.000  31.512  1.00  0.00     0.009 A 
ATOM     66  C   UNL A   1      42.456  35.301  33.592  1.00  0.00     0.009 A 
ATOM     67  C   UNL A   1      43.796  37.230  32.089  1.00  0.00     0.001 A 
ATOM     68  C   UNL A   1      42.749  36.543  34.155  1.00  0.00     0.001 A 
ATOM     69  C   UNL A   1      43.428  37.502  33.406  1.00  0.00     0.000 A 
ENDBRANCH  51  64
ENDBRANCH  25  26
ENDBRANCH  17  20
ENDBRANCH   1  16
TORSDOF 10
ENDMDL
MODEL 3
REMARK VINA RESULT:     -10.0      2.581      7.585
REMARK SMILES C[C@H]1CCCC/C1=C\C(=O)NCCCNC(=O)c1ccc(-c2c3nc(c(-c4ccccc4)c4ccc([nH]4)c(-c4ccccc4)c4nc(c(-c5ccccc5)c5ccc2[nH]5)C=C4)C=C3)cc1
REMARK SMILES IDX 14 1 13 2 12 3 11 4 9 5 10 6 8 8 1 9 2 10 3 11 7 12 4 13
REMARK SMILES IDX 6 14 5 15 15 16 16 17 17 19 18 20 19 21 65 22 20 23 64 24
REMARK SMILES IDX 21 25 22 26 23 27 58 28 24 29 63 30 57 31 59 32 25 33 62 34
REMARK SMILES IDX 56 35 55 36 26 38 48 39 33 40 47 41 34 42 37 43 46 44 60 45
REMARK SMILES IDX 35 46 36 47 45 49 61 50 38 51 27 52 28 53 32 54 29 55 31 56
REMARK SMILES IDX 30 57 49 58 50 59 54 60 51 61 53 62 52 63 39 64 40 65 44 66
REMARK SMILES IDX 41 67 43 68 42 69
REMARK H PARENT 11 7 15 18 59 37 37 48
REMARK Flexibility Score: inf
ROOT
ATOM      1  C   UNL A   1      38.797  20.216  25.638  1.00  0.00     0.118 C 
ENDROOT
BRANCH   1   2
ATOM      2  C   UNL A   1      37.704  19.668  24.750  1.00  0.00     0.042 C 
BRANCH   2   3
ATOM      3  C   UNL A   1      36.333  20.228  25.042  1.00  0.00     0.118 C 
BRANCH   3   4
ATOM      4  N   UNL A   1      35.212  19.343  24.929  1.00  0.00    -0.352 N 
ATOM      5  C   UNL A   1      33.889  19.661  24.928  1.00  0.00     0.243 C 
ATOM      6  O   UNL A   1      33.079  18.748  24.749  1.00  0.00    -0.270 OA
ATOM      7  H   UNL A   1      35.425  18.386  24.843  1.00  0.00     0.163 HD
BRANCH   5   8
ATOM      8  C   UNL A   1      33.348  21.021  25.272  1.00  0.00     0.070 C 
ATOM      9  C   UNL A   1      31.750  23.132  26.666  1.00  0.00     0.012 C 
ATOM     10  C   UNL A   1      32.687  23.463  25.503  1.00  0.00     0.012 C 
ATOM     11  C   UNL A   1      33.785  24.443  25.964  1.00  0.00     0.008 C 
ATOM     12  C   UNL A   1      33.363  22.285  24.786  1.00  0.00    -0.062 C 
ATOM     13  C   UNL A   1      34.681  24.915  24.811  1.00  0.00     0.001 C 
ATOM     14  C   UNL A   1      34.034  22.818  23.537  1.00  0.00     0.031 C 
ATOM     15  C   UNL A   1      35.181  23.759  23.947  1.00  0.00     0.004 C 
ENDBRANCH   5   8
ENDBRANCH   3   4
ENDBRANCH   2   3
ENDBRANCH   1   2
BRANCH   1  16
ATOM     16  N   UNL A   1      39.959  19.335  25.742  1.00  0.00    -0.352 N 
ATOM     17  C   UNL A   1      41.273  19.566  26.078  1.00  0.00     0.251 C 
ATOM     18  H   UNL A   1      39.763  18.393  25.531  1.00  0.00     0.163 HD
ATOM     19  O   UNL A   1      42.097  18.662  25.933  1.00  0.00    -0.269 OA
BRANCH  17  20
ATOM     20  C   UNL A   1      41.724  20.886  26.574  1.00  0.00     0.039 A 
ATOM     21  C   UNL A   1      42.186  21.845  25.666  1.00  0.00     0.014 A 
ATOM     22  C   UNL A   1      41.710  21.186  27.932  1.00  0.00     0.014 A 
ATOM     23  C   UNL A   1      42.536  23.122  26.118  1.00  0.00     0.010 A 
ATOM     24  C   UNL A   1      41.900  22.492  28.358  1.00  0.00     0.010 A 
ATOM     25  C   UNL A   1      42.342  23.474  27.463  1.00  0.00    -0.014 A 
BRANCH  25  26
ATOM     26  C   UNL A   1      42.627  24.836  27.981  1.00  0.00     0.031 A 
ATOM     27  C   UNL A   1      44.027  25.197  28.411  1.00  0.00     0.074 A 
ATOM     28  C   UNL A   1      41.620  25.716  28.155  1.00  0.00     0.049 A 
ATOM     29  N   UNL A   1      44.458  26.283  29.001  1.00  0.00    -0.248 NA
ATOM     30  C   UNL A   1      45.075  24.185  28.188  1.00  0.00     0.031 C 
ATOM     31  C   UNL A   1      40.212  25.477  27.830  1.00  0.00     0.029 A 
ATOM     32  N   UNL A   1      41.629  26.993  28.660  1.00  0.00    -0.354 N 
ATOM     33  C   UNL A   1      45.809  26.064  29.249  1.00  0.00     0.074 A 
ATOM     34  C   UNL A   1      46.111  24.722  28.812  1.00  0.00     0.031 C 
ATOM     35  C   UNL A   1      39.502  26.584  28.103  1.00  0.00     0.029 A 
ATOM     36  C   UNL A   1      40.391  27.590  28.672  1.00  0.00     0.049 A 
ATOM     37  H   UNL A   1      42.445  27.439  28.982  1.00  0.00     0.167 HD
ATOM     38  C   UNL A   1      46.727  26.915  29.765  1.00  0.00     0.031 A 
ATOM     39  C   UNL A   1      40.014  28.809  29.102  1.00  0.00     0.031 A 
ATOM     40  C   UNL A   1      46.435  28.262  30.168  1.00  0.00     0.049 A 
ATOM     41  C   UNL A   1      41.052  29.736  29.672  1.00  0.00     0.074 A 
ATOM     42  C   UNL A   1      47.304  29.230  30.638  1.00  0.00     0.029 A 
ATOM     43  N   UNL A   1      45.172  28.833  30.144  1.00  0.00    -0.354 N 
ATOM     44  N   UNL A   1      42.338  29.539  29.833  1.00  0.00    -0.248 NA
ATOM     45  C   UNL A   1      40.585  31.059  30.108  1.00  0.00     0.031 C 
ATOM     46  C   UNL A   1      46.558  30.369  30.952  1.00  0.00     0.029 A 
ATOM     47  C   UNL A   1      45.235  30.133  30.615  1.00  0.00     0.049 A 
ATOM     48  H   UNL A   1      44.353  28.381  29.838  1.00  0.00     0.167 HD
ATOM     49  C   UNL A   1      42.839  30.723  30.360  1.00  0.00     0.074 A 
ATOM     50  C   UNL A   1      41.721  31.637  30.473  1.00  0.00     0.031 C 
ATOM     51  C   UNL A   1      44.111  31.027  30.718  1.00  0.00     0.031 A 
BRANCH  38  52
ATOM     52  C   UNL A   1      48.135  26.406  29.918  1.00  0.00    -0.014 A 
ATOM     53  C   UNL A   1      49.074  26.527  28.878  1.00  0.00     0.009 A 
ATOM     54  C   UNL A   1      48.539  25.817  31.126  1.00  0.00     0.009 A 
ATOM     55  C   UNL A   1      50.369  26.027  29.029  1.00  0.00     0.001 A 
ATOM     56  C   UNL A   1      49.845  25.351  31.288  1.00  0.00     0.001 A 
ATOM     57  C   UNL A   1      50.755  25.445  30.235  1.00  0.00     0.000 A 
ENDBRANCH  38  52
BRANCH  39  58
ATOM     58  C   UNL A   1      38.593  29.234  28.991  1.00  0.00    -0.014 A 
ATOM     59  C   UNL A   1      38.099  29.758  27.785  1.00  0.00     0.009 A 
ATOM     60  C   UNL A   1      37.724  29.128  30.088  1.00  0.00     0.009 A 
ATOM     61  C   UNL A   1      36.777  30.196  27.691  1.00  0.00     0.001 A 
ATOM     62  C   UNL A   1      36.392  29.536  29.981  1.00  0.00     0.001 A 
ATOM     63  C   UNL A   1      35.923  30.081  28.786  1.00  0.00     0.000 A 
ENDBRANCH  39  58
BRANCH  51  64
ATOM     64  C   UNL A   1      44.369  32.418  31.225  1.00  0.00    -0.014 A 
ATOM     65  C   UNL A   1      44.671  33.472  30.351  1.00  0.00     0.009 A 
ATOM     66  C   UNL A   1      44.261  32.682  32.600  1.00  0.00     0.009 A 
ATOM     67  C   UNL A   1      44.895  34.758  30.848  1.00  0.00     0.001 A 
ATOM     68  C   UNL A   1      44.451  33.974  33.090  1.00  0.00     0.001 A 
ATOM     69  C   UNL A   1      44.778  35.008  32.214  1.00  0.00     0.000 A 
ENDBRANCH  51  64
ENDBRANCH  25  26
ENDBRANCH  17  20
ENDBRANCH   1  16
TORSDOF 10
ENDMDL
