MODEL 1
REMARK VINA RESULT:     -11.7      0.000      0.000
REMARK SMILES O=C(NCCCNC(=O)c1ccc(-c2c3nc(c(-c4ccccc4)c4ccc([nH]4)c(-c4ccccc4)c4nc(c(-c5ccccc5)c5ccc2[nH]5)C=C4)C=C3)cc1)c1ccc(-c2ccc(S(=O)(=O)[O-])cc2)cc1
REMARK SMILES IDX 5 1 4 2 3 3 1 4 2 5 58 7 59 8 73 9 60 10 72 11 61 12 62 13
REMARK SMILES IDX 63 14 71 15 64 16 70 17 65 18 66 19 67 20 68 21 69 22 6 23
REMARK SMILES IDX 7 24 8 25 9 27 10 28 11 29 57 30 12 31 56 32 13 33 14 34
REMARK SMILES IDX 15 35 50 36 16 37 55 38 49 39 51 40 17 41 54 42 48 43 47 44
REMARK SMILES IDX 18 46 40 47 25 48 39 49 26 50 29 51 38 52 52 53 27 54 28 55
REMARK SMILES IDX 37 57 53 58 30 59 19 60 20 61 24 62 21 63 23 64 22 65 41 66
REMARK SMILES IDX 42 67 46 68 43 69 45 70 44 71 31 72 32 73 36 74 33 75 35 76
REMARK SMILES IDX 34 77
REMARK H PARENT 3 6 7 26 51 45 29 56
REMARK Flexibility Score: inf
ROOT
ATOM      1  C   UNL A   1      32.036  27.893  27.306  1.00  0.00     0.042 C 
ENDROOT
BRANCH   1   2
ATOM      2  C   UNL A   1      31.718  27.163  26.009  1.00  0.00     0.118 C 
BRANCH   2   3
ATOM      3  N   UNL A   1      32.461  27.694  24.876  1.00  0.00    -0.352 N 
ATOM      4  O   UNL A   1      34.020  27.708  23.249  1.00  0.00    -0.269 OA
ATOM      5  C   UNL A   1      33.324  27.056  24.022  1.00  0.00     0.251 C 
ATOM      6  H   UNL A   1      32.324  28.652  24.696  1.00  0.00     0.163 HD
BRANCH   5   7
ATOM      7  C   UNL A   1      33.432  25.583  24.044  1.00  0.00     0.039 A 
ATOM      8  C   UNL A   1      32.679  24.797  23.170  1.00  0.00     0.014 A 
ATOM      9  C   UNL A   1      34.326  24.984  24.932  1.00  0.00     0.014 A 
ATOM     10  C   UNL A   1      32.750  23.406  23.253  1.00  0.00     0.009 A 
ATOM     11  C   UNL A   1      34.409  23.590  24.995  1.00  0.00     0.009 A 
ATOM     12  C   UNL A   1      33.609  22.777  24.170  1.00  0.00    -0.018 A 
BRANCH  12  13
ATOM     13  C   UNL A   1      33.672  21.309  24.251  1.00  0.00    -0.018 A 
ATOM     14  C   UNL A   1      34.836  20.665  24.710  1.00  0.00     0.010 A 
ATOM     15  C   UNL A   1      32.581  20.511  23.860  1.00  0.00     0.010 A 
ATOM     16  C   UNL A   1      34.912  19.273  24.778  1.00  0.00     0.020 A 
ATOM     17  C   UNL A   1      32.646  19.115  23.925  1.00  0.00     0.020 A 
ATOM     18  C   UNL A   1      33.813  18.507  24.385  1.00  0.00     0.054 A 
BRANCH  18  19
ATOM     19  S   UNL A   1      33.937  16.748  24.497  1.00  0.00     0.124 S 
ATOM     20  O   UNL A   1      35.197  16.434  25.135  1.00  0.00    -0.237 OA
ATOM     21  O   UNL A   1      32.681  16.246  25.008  1.00  0.00    -0.237 OA
ATOM     22  O   UNL A   1      34.039  16.211  22.979  1.00  0.00    -0.744 OA
ENDBRANCH  18  19
ENDBRANCH  12  13
ENDBRANCH   5   7
ENDBRANCH   2   3
ENDBRANCH   1   2
BRANCH   1  23
ATOM     23  C   UNL A   1      33.435  28.493  27.368  1.00  0.00     0.118 C 
BRANCH  23  24
ATOM     24  N   UNL A   1      33.428  29.920  27.650  1.00  0.00    -0.352 N 
ATOM     25  C   UNL A   1      34.397  30.741  28.167  1.00  0.00     0.251 C 
ATOM     26  H   UNL A   1      32.583  30.374  27.432  1.00  0.00     0.163 HD
ATOM     27  O   UNL A   1      34.099  31.894  28.472  1.00  0.00    -0.269 OA
BRANCH  25  28
ATOM     28  C   UNL A   1      35.783  30.265  28.376  1.00  0.00     0.039 A 
ATOM     29  C   UNL A   1      36.125  29.747  29.631  1.00  0.00     0.014 A 
ATOM     30  C   UNL A   1      36.763  30.380  27.389  1.00  0.00     0.014 A 
ATOM     31  C   UNL A   1      37.428  29.311  29.876  1.00  0.00     0.010 A 
ATOM     32  C   UNL A   1      38.039  29.862  27.604  1.00  0.00     0.010 A 
ATOM     33  C   UNL A   1      38.393  29.344  28.857  1.00  0.00    -0.014 A 
BRANCH  33  34
ATOM     34  C   UNL A   1      39.781  28.880  29.106  1.00  0.00     0.031 A 
ATOM     35  C   UNL A   1      40.772  29.781  29.793  1.00  0.00     0.074 A 
ATOM     36  C   UNL A   1      40.164  27.661  28.682  1.00  0.00     0.049 A 
ATOM     37  N   UNL A   1      42.026  29.552  30.097  1.00  0.00    -0.248 NA
ATOM     38  C   UNL A   1      40.304  31.126  30.165  1.00  0.00     0.031 C 
ATOM     39  C   UNL A   1      39.320  26.709  27.957  1.00  0.00     0.029 A 
ATOM     40  N   UNL A   1      41.368  27.012  28.804  1.00  0.00    -0.354 N 
ATOM     41  C   UNL A   1      42.497  30.726  30.670  1.00  0.00     0.074 A 
ATOM     42  C   UNL A   1      41.414  31.683  30.626  1.00  0.00     0.031 C 
ATOM     43  C   UNL A   1      40.020  25.585  27.732  1.00  0.00     0.029 A 
ATOM     44  C   UNL A   1      41.367  25.748  28.270  1.00  0.00     0.049 A 
ATOM     45  H   UNL A   1      42.156  27.415  29.235  1.00  0.00     0.167 HD
ATOM     46  C   UNL A   1      43.713  30.982  31.209  1.00  0.00     0.031 A 
ATOM     47  C   UNL A   1      42.338  24.818  28.225  1.00  0.00     0.031 A 
ATOM     48  C   UNL A   1      44.787  30.028  31.275  1.00  0.00     0.049 A 
ATOM     49  C   UNL A   1      43.670  25.112  28.856  1.00  0.00     0.074 A 
ATOM     50  C   UNL A   1      46.037  30.172  31.853  1.00  0.00     0.029 A 
ATOM     51  N   UNL A   1      44.737  28.749  30.744  1.00  0.00    -0.354 N 
ATOM     52  N   UNL A   1      44.075  26.203  29.461  1.00  0.00    -0.248 NA
ATOM     53  C   UNL A   1      44.669  24.037  28.818  1.00  0.00     0.031 C 
ATOM     54  C   UNL A   1      46.756  28.990  31.638  1.00  0.00     0.029 A 
ATOM     55  C   UNL A   1      45.937  28.095  30.970  1.00  0.00     0.049 A 
ATOM     56  H   UNL A   1      43.962  28.361  30.277  1.00  0.00     0.167 HD
ATOM     57  C   UNL A   1      45.365  25.935  29.899  1.00  0.00     0.074 A 
ATOM     58  C   UNL A   1      45.667  24.574  29.506  1.00  0.00     0.031 C 
ATOM     59  C   UNL A   1      46.223  26.743  30.570  1.00  0.00     0.031 A 
BRANCH  46  60
ATOM     60  C   UNL A   1      43.943  32.361  31.765  1.00  0.00    -0.014 A 
ATOM     61  C   UNL A   1      44.451  33.395  30.962  1.00  0.00     0.009 A 
ATOM     62  C   UNL A   1      43.632  32.634  33.106  1.00  0.00     0.009 A 
ATOM     63  C   UNL A   1      44.683  34.662  31.502  1.00  0.00     0.001 A 
ATOM     64  C   UNL A   1      43.838  33.909  33.636  1.00  0.00     0.001 A 
ATOM     65  C   UNL A   1      44.374  34.919  32.837  1.00  0.00     0.000 A 
ENDBRANCH  46  60
BRANCH  47  66
ATOM     66  C   UNL A   1      42.075  23.499  27.594  1.00  0.00    -0.014 A 
ATOM     67  C   UNL A   1      41.489  22.461  28.335  1.00  0.00     0.009 A 
ATOM     68  C   UNL A   1      42.407  23.272  26.250  1.00  0.00     0.009 A 
ATOM     69  C   UNL A   1      41.265  21.214  27.750  1.00  0.00     0.001 A 
ATOM     70  C   UNL A   1      42.157  22.031  25.660  1.00  0.00     0.001 A 
ATOM     71  C   UNL A   1      41.596  21.001  26.412  1.00  0.00     0.000 A 
ENDBRANCH  47  66
BRANCH  59  72
ATOM     72  C   UNL A   1      47.554  26.159  30.949  1.00  0.00    -0.014 A 
ATOM     73  C   UNL A   1      48.610  26.084  30.026  1.00  0.00     0.009 A 
ATOM     74  C   UNL A   1      47.758  25.690  32.256  1.00  0.00     0.009 A 
ATOM     75  C   UNL A   1      49.829  25.512  30.394  1.00  0.00     0.001 A 
ATOM     76  C   UNL A   1      48.987  25.145  32.629  1.00  0.00     0.001 A 
ATOM     77  C   UNL A   1      50.017  25.046  31.695  1.00  0.00     0.000 A 
ENDBRANCH  59  72
ENDBRANCH  33  34
ENDBRANCH  25  28
ENDBRANCH  23  24
ENDBRANCH   1  23
TORSDOF 12
ENDMDL
MODEL 2
REMARK VINA RESULT:     -11.7      4.883      7.627
REMARK SMILES O=C(NCCCNC(=O)c1ccc(-c2c3nc(c(-c4ccccc4)c4ccc([nH]4)c(-c4ccccc4)c4nc(c(-c5ccccc5)c5ccc2[nH]5)C=C4)C=C3)cc1)c1ccc(-c2ccc(S(=O)(=O)[O-])cc2)cc1
REMARK SMILES IDX 5 1 4 2 3 3 1 4 2 5 58 7 59 8 73 9 60 10 72 11 61 12 62 13
REMARK SMILES IDX 63 14 71 15 64 16 70 17 65 18 66 19 67 20 68 21 69 22 6 23
REMARK SMILES IDX 7 24 8 25 9 27 10 28 11 29 57 30 12 31 56 32 13 33 14 34
REMARK SMILES IDX 15 35 50 36 16 37 55 38 49 39 51 40 17 41 54 42 48 43 47 44
REMARK SMILES IDX 18 46 40 47 25 48 39 49 26 50 29 51 38 52 52 53 27 54 28 55
REMARK SMILES IDX 37 57 53 58 30 59 19 60 20 61 24 62 21 63 23 64 22 65 41 66
REMARK SMILES IDX 42 67 46 68 43 69 45 70 44 71 31 72 32 73 36 74 33 75 35 76
REMARK SMILES IDX 34 77
REMARK H PARENT 3 6 7 26 51 45 29 56
REMARK Flexibility Score: inf
ROOT
ATOM      1  C   UNL A   1      33.632  34.235  28.364  1.00  0.00     0.042 C 
ENDROOT
BRANCH   1   2
ATOM      2  C   UNL A   1      34.328  35.378  29.091  1.00  0.00     0.118 C 
BRANCH   2   3
ATOM      3  N   UNL A   1      33.555  35.869  30.221  1.00  0.00    -0.352 N 
ATOM      4  O   UNL A   1      32.689  35.845  32.301  1.00  0.00    -0.269 OA
ATOM      5  C   UNL A   1      33.557  35.452  31.528  1.00  0.00     0.251 C 
ATOM      6  H   UNL A   1      32.941  36.612  30.019  1.00  0.00     0.163 HD
BRANCH   5   7
ATOM      7  C   UNL A   1      34.593  34.513  32.003  1.00  0.00     0.039 A 
ATOM      8  C   UNL A   1      35.669  34.963  32.770  1.00  0.00     0.014 A 
ATOM      9  C   UNL A   1      34.467  33.157  31.700  1.00  0.00     0.014 A 
ATOM     10  C   UNL A   1      36.669  34.068  33.153  1.00  0.00     0.009 A 
ATOM     11  C   UNL A   1      35.460  32.261  32.106  1.00  0.00     0.009 A 
ATOM     12  C   UNL A   1      36.588  32.705  32.822  1.00  0.00    -0.018 A 
BRANCH  12  13
ATOM     13  C   UNL A   1      37.651  31.771  33.228  1.00  0.00    -0.018 A 
ATOM     14  C   UNL A   1      38.822  32.244  33.847  1.00  0.00     0.010 A 
ATOM     15  C   UNL A   1      37.535  30.389  32.994  1.00  0.00     0.010 A 
ATOM     16  C   UNL A   1      39.843  31.371  34.224  1.00  0.00     0.020 A 
ATOM     17  C   UNL A   1      38.551  29.503  33.369  1.00  0.00     0.020 A 
ATOM     18  C   UNL A   1      39.700  30.003  33.983  1.00  0.00     0.054 A 
BRANCH  18  19
ATOM     19  S   UNL A   1      41.005  28.923  34.484  1.00  0.00     0.124 S 
ATOM     20  O   UNL A   1      40.742  27.620  33.915  1.00  0.00    -0.237 OA
ATOM     21  O   UNL A   1      42.257  29.610  34.265  1.00  0.00    -0.237 OA
ATOM     22  O   UNL A   1      40.864  28.768  36.084  1.00  0.00    -0.744 OA
ENDBRANCH  18  19
ENDBRANCH  12  13
ENDBRANCH   5   7
ENDBRANCH   2   3
ENDBRANCH   1   2
BRANCH   1  23
ATOM     23  C   UNL A   1      34.523  33.034  28.074  1.00  0.00     0.118 C 
BRANCH  23  24
ATOM     24  N   UNL A   1      33.769  31.812  27.841  1.00  0.00    -0.352 N 
ATOM     25  C   UNL A   1      34.171  30.502  27.781  1.00  0.00     0.251 C 
ATOM     26  H   UNL A   1      32.804  31.949  27.702  1.00  0.00     0.163 HD
ATOM     27  O   UNL A   1      33.370  29.651  27.402  1.00  0.00    -0.269 OA
BRANCH  25  28
ATOM     28  C   UNL A   1      35.547  30.098  28.149  1.00  0.00     0.039 A 
ATOM     29  C   UNL A   1      36.534  30.124  27.157  1.00  0.00     0.014 A 
ATOM     30  C   UNL A   1      35.867  29.635  29.426  1.00  0.00     0.014 A 
ATOM     31  C   UNL A   1      37.838  29.727  27.456  1.00  0.00     0.010 A 
ATOM     32  C   UNL A   1      37.186  29.325  29.749  1.00  0.00     0.010 A 
ATOM     33  C   UNL A   1      38.182  29.343  28.763  1.00  0.00    -0.014 A 
BRANCH  33  34
ATOM     34  C   UNL A   1      39.566  28.922  29.093  1.00  0.00     0.031 A 
ATOM     35  C   UNL A   1      40.486  29.851  29.840  1.00  0.00     0.074 A 
ATOM     36  C   UNL A   1      40.012  27.716  28.692  1.00  0.00     0.049 A 
ATOM     37  N   UNL A   1      41.726  29.660  30.217  1.00  0.00    -0.248 NA
ATOM     38  C   UNL A   1      39.955  31.180  30.184  1.00  0.00     0.031 C 
ATOM     39  C   UNL A   1      39.243  26.741  27.917  1.00  0.00     0.029 A 
ATOM     40  N   UNL A   1      41.226  27.105  28.885  1.00  0.00    -0.354 N 
ATOM     41  C   UNL A   1      42.126  30.847  30.819  1.00  0.00     0.074 A 
ATOM     42  C   UNL A   1      41.017  31.769  30.711  1.00  0.00     0.031 C 
ATOM     43  C   UNL A   1      39.989  25.640  27.732  1.00  0.00     0.029 A 
ATOM     44  C   UNL A   1      41.296  25.842  28.350  1.00  0.00     0.049 A 
ATOM     45  H   UNL A   1      41.974  27.531  29.363  1.00  0.00     0.167 HD
ATOM     46  C   UNL A   1      43.299  31.139  31.429  1.00  0.00     0.031 A 
ATOM     47  C   UNL A   1      42.297  24.943  28.362  1.00  0.00     0.031 A 
ATOM     48  C   UNL A   1      44.396  30.218  31.558  1.00  0.00     0.049 A 
ATOM     49  C   UNL A   1      43.578  25.277  29.072  1.00  0.00     0.074 A 
ATOM     50  C   UNL A   1      45.604  30.399  32.210  1.00  0.00     0.029 A 
ATOM     51  N   UNL A   1      44.417  28.940  31.024  1.00  0.00    -0.354 N 
ATOM     52  N   UNL A   1      43.913  26.378  29.700  1.00  0.00    -0.248 NA
ATOM     53  C   UNL A   1      44.611  24.233  29.092  1.00  0.00     0.031 C 
ATOM     54  C   UNL A   1      46.372  29.241  32.037  1.00  0.00     0.029 A 
ATOM     55  C   UNL A   1      45.622  28.323  31.320  1.00  0.00     0.049 A 
ATOM     56  H   UNL A   1      43.684  28.529  30.511  1.00  0.00     0.167 HD
ATOM     57  C   UNL A   1      45.182  26.149  30.215  1.00  0.00     0.074 A 
ATOM     58  C   UNL A   1      45.549  24.799  29.839  1.00  0.00     0.031 C 
ATOM     59  C   UNL A   1      45.973  26.982  30.936  1.00  0.00     0.031 A 
BRANCH  46  60
ATOM     60  C   UNL A   1      43.452  32.522  32.000  1.00  0.00    -0.014 A 
ATOM     61  C   UNL A   1      43.967  33.576  31.227  1.00  0.00     0.009 A 
ATOM     62  C   UNL A   1      43.061  32.780  33.323  1.00  0.00     0.009 A 
ATOM     63  C   UNL A   1      44.127  34.848  31.782  1.00  0.00     0.001 A 
ATOM     64  C   UNL A   1      43.195  34.059  33.865  1.00  0.00     0.001 A 
ATOM     65  C   UNL A   1      43.739  35.089  33.098  1.00  0.00     0.000 A 
ENDBRANCH  46  60
BRANCH  47  66
ATOM     66  C   UNL A   1      42.113  23.619  27.715  1.00  0.00    -0.014 A 
ATOM     67  C   UNL A   1      42.525  23.413  26.390  1.00  0.00     0.009 A 
ATOM     68  C   UNL A   1      41.526  22.556  28.418  1.00  0.00     0.009 A 
ATOM     69  C   UNL A   1      42.329  22.176  25.772  1.00  0.00     0.001 A 
ATOM     70  C   UNL A   1      41.356  21.313  27.806  1.00  0.00     0.001 A 
ATOM     71  C   UNL A   1      41.748  21.127  26.482  1.00  0.00     0.000 A 
ENDBRANCH  47  66
BRANCH  59  72
ATOM     72  C   UNL A   1      47.297  26.438  31.393  1.00  0.00    -0.014 A 
ATOM     73  C   UNL A   1      48.447  26.544  30.595  1.00  0.00     0.009 A 
ATOM     74  C   UNL A   1      47.396  25.823  32.652  1.00  0.00     0.009 A 
ATOM     75  C   UNL A   1      49.660  26.007  31.030  1.00  0.00     0.001 A 
ATOM     76  C   UNL A   1      48.617  25.312  33.095  1.00  0.00     0.001 A 
ATOM     77  C   UNL A   1      49.744  25.395  32.280  1.00  0.00     0.000 A 
ENDBRANCH  59  72
ENDBRANCH  33  34
ENDBRANCH  25  28
ENDBRANCH  23  24
ENDBRANCH   1  23
TORSDOF 12
ENDMDL
MODEL 3
REMARK VINA RESULT:     -11.6      3.343      8.451
REMARK SMILES O=C(NCCCNC(=O)c1ccc(-c2c3nc(c(-c4ccccc4)c4ccc([nH]4)c(-c4ccccc4)c4nc(c(-c5ccccc5)c5ccc2[nH]5)C=C4)C=C3)cc1)c1ccc(-c2ccc(S(=O)(=O)[O-])cc2)cc1
REMARK SMILES IDX 5 1 4 2 3 3 1 4 2 5 58 7 59 8 73 9 60 10 72 11 61 12 62 13
REMARK SMILES IDX 63 14 71 15 64 16 70 17 65 18 66 19 67 20 68 21 69 22 6 23
REMARK SMILES IDX 7 24 8 25 9 27 10 28 11 29 57 30 12 31 56 32 13 33 14 34
REMARK SMILES IDX 15 35 50 36 16 37 55 38 49 39 51 40 17 41 54 42 48 43 47 44
REMARK SMILES IDX 18 46 40 47 25 48 39 49 26 50 29 51 38 52 52 53 27 54 28 55
REMARK SMILES IDX 37 57 53 58 30 59 19 60 20 61 24 62 21 63 23 64 22 65 41 66
REMARK SMILES IDX 42 67 46 68 43 69 45 70 44 71 31 72 32 73 36 74 33 75 35 76
REMARK SMILES IDX 34 77
REMARK H PARENT 3 6 7 26 51 45 29 56
REMARK Flexibility Score: inf
ROOT
ATOM      1  C   UNL A   1      35.296  22.625  25.435  1.00  0.00     0.042 C 
ENDROOT
BRANCH   1   2
ATOM      2  C   UNL A   1      34.607  21.787  26.503  1.00  0.00     0.118 C 
BRANCH   2   3
ATOM      3  N   UNL A   1      33.878  20.660  25.939  1.00  0.00    -0.352 N 
ATOM      4  O   UNL A   1      32.111  19.570  25.064  1.00  0.00    -0.269 OA
ATOM      5  C   UNL A   1      32.671  20.639  25.289  1.00  0.00     0.251 C 
ATOM      6  H   UNL A   1      34.317  19.785  26.038  1.00  0.00     0.163 HD
BRANCH   5   7
ATOM      7  C   UNL A   1      32.031  21.904  24.876  1.00  0.00     0.039 A 
ATOM      8  C   UNL A   1      32.160  22.378  23.569  1.00  0.00     0.014 A 
ATOM      9  C   UNL A   1      31.265  22.610  25.804  1.00  0.00     0.014 A 
ATOM     10  C   UNL A   1      31.600  23.608  23.219  1.00  0.00     0.009 A 
ATOM     11  C   UNL A   1      30.687  23.830  25.441  1.00  0.00     0.009 A 
ATOM     12  C   UNL A   1      30.862  24.359  24.149  1.00  0.00    -0.018 A 
BRANCH  12  13
ATOM     13  C   UNL A   1      30.280  25.657  23.769  1.00  0.00    -0.018 A 
ATOM     14  C   UNL A   1      28.957  25.980  24.121  1.00  0.00     0.010 A 
ATOM     15  C   UNL A   1      31.022  26.600  23.034  1.00  0.00     0.010 A 
ATOM     16  C   UNL A   1      28.390  27.202  23.755  1.00  0.00     0.020 A 
ATOM     17  C   UNL A   1      30.465  27.828  22.663  1.00  0.00     0.020 A 
ATOM     18  C   UNL A   1      29.151  28.120  23.027  1.00  0.00     0.054 A 
BRANCH  18  19
ATOM     19  S   UNL A   1      28.408  29.662  22.592  1.00  0.00     0.124 S 
ATOM     20  O   UNL A   1      28.729  29.932  21.208  1.00  0.00    -0.237 OA
ATOM     21  O   UNL A   1      27.043  29.647  23.066  1.00  0.00    -0.237 OA
ATOM     22  O   UNL A   1      29.164  30.784  23.471  1.00  0.00    -0.744 OA
ENDBRANCH  18  19
ENDBRANCH  12  13
ENDBRANCH   5   7
ENDBRANCH   2   3
ENDBRANCH   1   2
BRANCH   1  23
ATOM     23  C   UNL A   1      36.543  23.357  25.911  1.00  0.00     0.118 C 
BRANCH  23  24
ATOM     24  N   UNL A   1      37.727  22.511  25.925  1.00  0.00    -0.352 N 
ATOM     25  C   UNL A   1      39.028  22.787  26.259  1.00  0.00     0.251 C 
ATOM     26  H   UNL A   1      37.566  21.582  25.645  1.00  0.00     0.163 HD
ATOM     27  O   UNL A   1      39.892  21.945  26.030  1.00  0.00    -0.269 OA
BRANCH  25  28
ATOM     28  C   UNL A   1      39.411  24.077  26.876  1.00  0.00     0.039 A 
ATOM     29  C   UNL A   1      40.063  25.026  26.080  1.00  0.00     0.014 A 
ATOM     30  C   UNL A   1      39.201  24.343  28.231  1.00  0.00     0.014 A 
ATOM     31  C   UNL A   1      40.463  26.245  26.631  1.00  0.00     0.010 A 
ATOM     32  C   UNL A   1      39.519  25.593  28.757  1.00  0.00     0.010 A 
ATOM     33  C   UNL A   1      40.175  26.549  27.971  1.00  0.00    -0.014 A 
BRANCH  33  34
ATOM     34  C   UNL A   1      40.594  27.843  28.565  1.00  0.00     0.031 A 
ATOM     35  C   UNL A   1      42.027  28.066  28.969  1.00  0.00     0.074 A 
ATOM     36  C   UNL A   1      39.679  28.808  28.777  1.00  0.00     0.049 A 
ATOM     37  N   UNL A   1      42.579  29.127  29.503  1.00  0.00    -0.248 NA
ATOM     38  C   UNL A   1      42.957  26.943  28.774  1.00  0.00     0.031 C 
ATOM     39  C   UNL A   1      38.248  28.703  28.482  1.00  0.00     0.029 A 
ATOM     40  N   UNL A   1      39.820  30.073  29.291  1.00  0.00    -0.354 N 
ATOM     41  C   UNL A   1      43.908  28.790  29.727  1.00  0.00     0.074 A 
ATOM     42  C   UNL A   1      44.069  27.412  29.320  1.00  0.00     0.031 C 
ATOM     43  C   UNL A   1      37.651  29.866  28.784  1.00  0.00     0.029 A 
ATOM     44  C   UNL A   1      38.648  30.788  29.320  1.00  0.00     0.049 A 
ATOM     45  H   UNL A   1      40.680  30.433  29.608  1.00  0.00     0.167 HD
ATOM     46  C   UNL A   1      44.914  29.562  30.203  1.00  0.00     0.031 A 
ATOM     47  C   UNL A   1      38.403  32.048  29.724  1.00  0.00     0.031 A 
ATOM     48  C   UNL A   1      44.765  30.940  30.588  1.00  0.00     0.049 A 
ATOM     49  C   UNL A   1      39.540  32.896  30.221  1.00  0.00     0.074 A 
ATOM     50  C   UNL A   1      45.735  31.824  31.028  1.00  0.00     0.029 A 
ATOM     51  N   UNL A   1      43.566  31.634  30.579  1.00  0.00    -0.354 N 
ATOM     52  N   UNL A   1      40.806  32.584  30.357  1.00  0.00    -0.248 NA
ATOM     53  C   UNL A   1      39.215  34.277  30.598  1.00  0.00     0.031 C 
ATOM     54  C   UNL A   1      45.114  33.044  31.320  1.00  0.00     0.029 A 
ATOM     55  C   UNL A   1      43.767  32.933  31.016  1.00  0.00     0.049 A 
ATOM     56  H   UNL A   1      42.698  31.260  30.301  1.00  0.00     0.167 HD
ATOM     57  C   UNL A   1      41.433  33.738  30.807  1.00  0.00     0.074 A 
ATOM     58  C   UNL A   1      40.411  34.760  30.905  1.00  0.00     0.031 C 
ATOM     59  C   UNL A   1      42.740  33.936  31.111  1.00  0.00     0.031 A 
BRANCH  46  60
ATOM     60  C   UNL A   1      46.268  28.922  30.338  1.00  0.00    -0.014 A 
ATOM     61  C   UNL A   1      47.187  28.931  29.276  1.00  0.00     0.009 A 
ATOM     62  C   UNL A   1      46.637  28.314  31.549  1.00  0.00     0.009 A 
ATOM     63  C   UNL A   1      48.430  28.308  29.410  1.00  0.00     0.001 A 
ATOM     64  C   UNL A   1      47.892  27.718  31.689  1.00  0.00     0.001 A 
ATOM     65  C   UNL A   1      48.782  27.704  30.616  1.00  0.00     0.000 A 
ENDBRANCH  46  60
BRANCH  47  66
ATOM     66  C   UNL A   1      37.028  32.601  29.637  1.00  0.00    -0.014 A 
ATOM     67  C   UNL A   1      36.611  33.290  28.488  1.00  0.00     0.009 A 
ATOM     68  C   UNL A   1      36.126  32.444  30.701  1.00  0.00     0.009 A 
ATOM     69  C   UNL A   1      35.327  33.833  28.415  1.00  0.00     0.001 A 
ATOM     70  C   UNL A   1      34.834  32.965  30.614  1.00  0.00     0.001 A 
ATOM     71  C   UNL A   1      34.438  33.667  29.476  1.00  0.00     0.000 A 
ENDBRANCH  47  66
BRANCH  59  72
ATOM     72  C   UNL A   1      43.138  35.318  31.543  1.00  0.00    -0.014 A 
ATOM     73  C   UNL A   1      43.570  36.279  30.614  1.00  0.00     0.009 A 
ATOM     74  C   UNL A   1      43.063  35.670  32.900  1.00  0.00     0.009 A 
ATOM     75  C   UNL A   1      43.960  37.549  31.042  1.00  0.00     0.001 A 
ATOM     76  C   UNL A   1      43.426  36.949  33.321  1.00  0.00     0.001 A 
ATOM     77  C   UNL A   1      43.885  37.883  32.394  1.00  0.00     0.000 A 
ENDBRANCH  59  72
ENDBRANCH  33  34
ENDBRANCH  25  28
ENDBRANCH  23  24
ENDBRANCH   1  23
TORSDOF 12
ENDMDL
