MODEL 1
REMARK VINA RESULT:     -10.1      0.000      0.000
REMARK SMILES C[C@H](C(=O)NCCCNC(=O)c1ccc(-c2c3nc(c(-c4ccccc4)c4ccc([nH]4)c(-c4ccccc4)c4nc(c(-c5ccccc5)c5ccc2[nH]5)C=C4)C=C3)cc1)[C@@H](C)[N@@H+](C)C[C@H]1C[C@H](O)C1
REMARK SMILES IDX 3 1 4 2 5 3 2 5 1 6 60 7 61 8 62 9 63 10 64 12 65 13 69 14
REMARK SMILES IDX 66 15 67 16 68 17 6 19 7 20 8 21 9 22 10 23 11 25 12 26
REMARK SMILES IDX 13 27 59 28 14 29 58 30 15 31 16 32 17 33 52 34 18 35 57 36
REMARK SMILES IDX 51 37 53 38 19 39 56 40 50 41 49 42 20 44 42 45 27 46 41 47
REMARK SMILES IDX 28 48 31 49 40 50 54 51 29 52 30 53 39 55 55 56 32 57 21 58
REMARK SMILES IDX 22 59 26 60 23 61 25 62 24 63 43 64 44 65 48 66 45 67 47 68
REMARK SMILES IDX 46 69 33 70 34 71 38 72 35 73 37 74 36 75
REMARK H PARENT 5 4 62 11 68 18 9 24 53 43 31 54
REMARK Flexibility Score: inf
ROOT
ATOM      1  C   UNL A   1      34.017  20.196  24.790  1.00  0.00     0.228 C 
ATOM      2  O   UNL A   1      33.299  19.187  24.721  1.00  0.00    -0.275 OA
ATOM      3  N   UNL A   1      35.312  19.949  25.159  1.00  0.00    -0.356 N 
ATOM      4  H   UNL A   1      35.441  19.082  25.605  1.00  0.00     0.163 HD
ENDROOT
BRANCH   1   5
ATOM      5  C   UNL A   1      33.355  21.589  24.565  1.00  0.00     0.133 C 
ATOM      6  C   UNL A   1      32.279  21.353  23.488  1.00  0.00     0.024 C 
BRANCH   5   7
ATOM      7  C   UNL A   1      32.799  22.338  25.798  1.00  0.00     0.192 C 
ATOM      8  C   UNL A   1      33.949  22.853  26.682  1.00  0.00     0.076 C 
BRANCH   7   9
ATOM      9  N   UNL A   1      31.703  23.308  25.569  1.00  0.00    -0.334 N 
ATOM     10  C   UNL A   1      30.639  23.197  26.565  1.00  0.00     0.332 C 
ATOM     11  H   UNL A   1      31.388  22.953  24.667  1.00  0.00     0.348 HD
BRANCH   9  12
ATOM     12  C   UNL A   1      31.948  24.676  25.093  1.00  0.00     0.265 C 
BRANCH  12  13
ATOM     13  C   UNL A   1      31.733  25.793  26.108  1.00  0.00     0.049 C 
ATOM     14  C   UNL A   1      30.859  27.034  25.723  1.00  0.00     0.041 C 
ATOM     15  C   UNL A   1      32.819  26.834  26.493  1.00  0.00     0.041 C 
ATOM     16  C   UNL A   1      31.645  27.815  26.791  1.00  0.00     0.115 C 
BRANCH  16  17
ATOM     17  O   UNL A   1      31.090  27.793  28.125  1.00  0.00    -0.393 OA
ATOM     18  H   UNL A   1      31.243  28.649  28.553  1.00  0.00     0.210 HD
ENDBRANCH  16  17
ENDBRANCH  12  13
ENDBRANCH   9  12
ENDBRANCH   7   9
ENDBRANCH   5   7
ENDBRANCH   1   5
BRANCH   3  19
ATOM     19  C   UNL A   1      36.532  20.728  25.014  1.00  0.00     0.117 C 
BRANCH  19  20
ATOM     20  C   UNL A   1      37.820  19.965  24.814  1.00  0.00     0.042 C 
BRANCH  20  21
ATOM     21  C   UNL A   1      38.896  20.304  25.829  1.00  0.00     0.118 C 
BRANCH  21  22
ATOM     22  N   UNL A   1      40.061  19.414  25.805  1.00  0.00    -0.352 N 
ATOM     23  C   UNL A   1      41.395  19.589  26.096  1.00  0.00     0.251 C 
ATOM     24  H   UNL A   1      39.843  18.498  25.520  1.00  0.00     0.163 HD
ATOM     25  O   UNL A   1      42.175  18.658  25.893  1.00  0.00    -0.269 OA
BRANCH  23  26
ATOM     26  C   UNL A   1      41.924  20.879  26.594  1.00  0.00     0.039 A 
ATOM     27  C   UNL A   1      42.297  21.873  25.681  1.00  0.00     0.014 A 
ATOM     28  C   UNL A   1      42.051  21.129  27.954  1.00  0.00     0.014 A 
ATOM     29  C   UNL A   1      42.673  23.138  26.144  1.00  0.00     0.010 A 
ATOM     30  C   UNL A   1      42.248  22.425  28.406  1.00  0.00     0.010 A 
ATOM     31  C   UNL A   1      42.582  23.447  27.510  1.00  0.00    -0.014 A 
BRANCH  31  32
ATOM     32  C   UNL A   1      42.848  24.812  28.035  1.00  0.00     0.031 A 
ATOM     33  C   UNL A   1      44.247  25.216  28.427  1.00  0.00     0.074 A 
ATOM     34  C   UNL A   1      41.819  25.658  28.244  1.00  0.00     0.049 A 
ATOM     35  N   UNL A   1      44.662  26.326  28.987  1.00  0.00    -0.248 NA
ATOM     36  C   UNL A   1      45.318  24.226  28.212  1.00  0.00     0.031 C 
ATOM     37  C   UNL A   1      40.406  25.365  27.990  1.00  0.00     0.029 A 
ATOM     38  N   UNL A   1      41.805  26.945  28.722  1.00  0.00    -0.354 N 
ATOM     39  C   UNL A   1      46.021  26.149  29.214  1.00  0.00     0.074 A 
ATOM     40  C   UNL A   1      46.348  24.802  28.811  1.00  0.00     0.031 C 
ATOM     41  C   UNL A   1      39.671  26.455  28.263  1.00  0.00     0.029 A 
ATOM     42  C   UNL A   1      40.551  27.509  28.752  1.00  0.00     0.049 A 
ATOM     43  H   UNL A   1      42.616  27.419  29.016  1.00  0.00     0.167 HD
ATOM     44  C   UNL A   1      46.931  27.038  29.678  1.00  0.00     0.031 A 
ATOM     45  C   UNL A   1      40.156  28.739  29.126  1.00  0.00     0.031 A 
ATOM     46  C   UNL A   1      46.617  28.393  30.037  1.00  0.00     0.049 A 
ATOM     47  C   UNL A   1      41.190  29.725  29.594  1.00  0.00     0.074 A 
ATOM     48  C   UNL A   1      47.473  29.397  30.452  1.00  0.00     0.029 A 
ATOM     49  N   UNL A   1      45.343  28.936  30.010  1.00  0.00    -0.354 N 
ATOM     50  N   UNL A   1      42.483  29.561  29.733  1.00  0.00    -0.248 NA
ATOM     51  C   UNL A   1      40.709  31.068  29.940  1.00  0.00     0.031 C 
ATOM     52  C   UNL A   1      46.708  30.540  30.712  1.00  0.00     0.029 A 
ATOM     53  C   UNL A   1      45.385  30.259  30.411  1.00  0.00     0.049 A 
ATOM     54  H   UNL A   1      44.527  28.452  29.744  1.00  0.00     0.167 HD
ATOM     55  C   UNL A   1      42.974  30.785  30.165  1.00  0.00     0.074 A 
ATOM     56  C   UNL A   1      41.843  31.688  30.236  1.00  0.00     0.031 C 
ATOM     57  C   UNL A   1      44.245  31.134  30.481  1.00  0.00     0.031 A 
BRANCH  44  58
ATOM     58  C   UNL A   1      48.355  26.570  29.797  1.00  0.00    -0.014 A 
ATOM     59  C   UNL A   1      48.815  25.930  30.961  1.00  0.00     0.009 A 
ATOM     60  C   UNL A   1      49.248  26.754  28.729  1.00  0.00     0.009 A 
ATOM     61  C   UNL A   1      50.145  25.524  31.071  1.00  0.00     0.001 A 
ATOM     62  C   UNL A   1      50.571  26.316  28.830  1.00  0.00     0.001 A 
ATOM     63  C   UNL A   1      51.021  25.712  30.002  1.00  0.00     0.000 A 
ENDBRANCH  44  58
BRANCH  45  64
ATOM     64  C   UNL A   1      38.722  29.122  29.041  1.00  0.00    -0.014 A 
ATOM     65  C   UNL A   1      38.187  29.617  27.842  1.00  0.00     0.009 A 
ATOM     66  C   UNL A   1      37.881  29.001  30.159  1.00  0.00     0.009 A 
ATOM     67  C   UNL A   1      36.849  30.012  27.772  1.00  0.00     0.001 A 
ATOM     68  C   UNL A   1      36.536  29.367  30.077  1.00  0.00     0.001 A 
ATOM     69  C   UNL A   1      36.024  29.884  28.887  1.00  0.00     0.000 A 
ENDBRANCH  45  64
BRANCH  57  70
ATOM     70  C   UNL A   1      44.473  32.554  30.912  1.00  0.00    -0.014 A 
ATOM     71  C   UNL A   1      44.752  33.561  29.974  1.00  0.00     0.009 A 
ATOM     72  C   UNL A   1      44.382  32.892  32.271  1.00  0.00     0.009 A 
ATOM     73  C   UNL A   1      44.979  34.871  30.395  1.00  0.00     0.001 A 
ATOM     74  C   UNL A   1      44.580  34.210  32.685  1.00  0.00     0.001 A 
ATOM     75  C   UNL A   1      44.889  35.195  31.748  1.00  0.00     0.000 A 
ENDBRANCH  57  70
ENDBRANCH  31  32
ENDBRANCH  23  26
ENDBRANCH  21  22
ENDBRANCH  20  21
ENDBRANCH  19  20
ENDBRANCH   3  19
TORSDOF 15
ENDMDL
MODEL 2
REMARK VINA RESULT:      -9.9      2.037      6.516
REMARK SMILES C[C@H](C(=O)NCCCNC(=O)c1ccc(-c2c3nc(c(-c4ccccc4)c4ccc([nH]4)c(-c4ccccc4)c4nc(c(-c5ccccc5)c5ccc2[nH]5)C=C4)C=C3)cc1)[C@@H](C)[N@@H+](C)C[C@H]1C[C@H](O)C1
REMARK SMILES IDX 3 1 4 2 5 3 2 5 1 6 60 7 61 8 62 9 63 10 64 12 65 13 69 14
REMARK SMILES IDX 66 15 67 16 68 17 6 19 7 20 8 21 9 22 10 23 11 25 12 26
REMARK SMILES IDX 13 27 59 28 14 29 58 30 15 31 16 32 17 33 52 34 18 35 57 36
REMARK SMILES IDX 51 37 53 38 19 39 56 40 50 41 49 42 20 44 42 45 27 46 41 47
REMARK SMILES IDX 28 48 31 49 40 50 54 51 29 52 30 53 39 55 55 56 32 57 21 58
REMARK SMILES IDX 22 59 26 60 23 61 25 62 24 63 43 64 44 65 48 66 45 67 47 68
REMARK SMILES IDX 46 69 33 70 34 71 38 72 35 73 37 74 36 75
REMARK H PARENT 5 4 62 11 68 18 9 24 53 43 31 54
REMARK Flexibility Score: inf
ROOT
ATOM      1  C   UNL A   1      34.049  20.552  24.924  1.00  0.00     0.228 C 
ATOM      2  O   UNL A   1      33.202  19.659  25.080  1.00  0.00    -0.275 OA
ATOM      3  N   UNL A   1      35.303  20.229  25.367  1.00  0.00    -0.356 N 
ATOM      4  H   UNL A   1      35.321  19.483  26.007  1.00  0.00     0.163 HD
ENDROOT
BRANCH   1   5
ATOM      5  C   UNL A   1      33.576  21.927  24.363  1.00  0.00     0.133 C 
ATOM      6  C   UNL A   1      32.434  21.591  23.384  1.00  0.00     0.024 C 
BRANCH   5   7
ATOM      7  C   UNL A   1      33.180  23.028  25.375  1.00  0.00     0.192 C 
ATOM      8  C   UNL A   1      34.401  23.887  25.745  1.00  0.00     0.076 C 
BRANCH   7   9
ATOM      9  N   UNL A   1      31.938  23.788  25.101  1.00  0.00    -0.334 N 
ATOM     10  C   UNL A   1      30.851  23.430  26.010  1.00  0.00     0.332 C 
ATOM     11  H   UNL A   1      31.756  23.429  24.165  1.00  0.00     0.348 HD
BRANCH   9  12
ATOM     12  C   UNL A   1      31.952  25.201  24.700  1.00  0.00     0.265 C 
BRANCH  12  13
ATOM     13  C   UNL A   1      31.927  25.479  23.201  1.00  0.00     0.049 C 
ATOM     14  C   UNL A   1      33.165  25.099  22.321  1.00  0.00     0.041 C 
ATOM     15  C   UNL A   1      32.075  26.894  22.580  1.00  0.00     0.041 C 
ATOM     16  C   UNL A   1      32.693  26.186  21.337  1.00  0.00     0.115 C 
BRANCH  16  17
ATOM     17  O   UNL A   1      31.780  25.750  20.305  1.00  0.00    -0.393 OA
ATOM     18  H   UNL A   1      31.060  26.392  20.218  1.00  0.00     0.210 HD
ENDBRANCH  16  17
ENDBRANCH  12  13
ENDBRANCH   9  12
ENDBRANCH   7   9
ENDBRANCH   5   7
ENDBRANCH   1   5
BRANCH   3  19
ATOM     19  C   UNL A   1      36.615  20.784  25.067  1.00  0.00     0.117 C 
BRANCH  19  20
ATOM     20  C   UNL A   1      37.763  19.811  24.939  1.00  0.00     0.042 C 
BRANCH  20  21
ATOM     21  C   UNL A   1      39.023  20.253  25.660  1.00  0.00     0.118 C 
BRANCH  21  22
ATOM     22  N   UNL A   1      40.032  19.202  25.828  1.00  0.00    -0.352 N 
ATOM     23  C   UNL A   1      41.376  19.215  26.127  1.00  0.00     0.251 C 
ATOM     24  H   UNL A   1      39.672  18.295  25.700  1.00  0.00     0.163 HD
ATOM     25  O   UNL A   1      41.998  18.153  26.114  1.00  0.00    -0.269 OA
BRANCH  23  26
ATOM     26  C   UNL A   1      42.101  20.474  26.410  1.00  0.00     0.039 A 
ATOM     27  C   UNL A   1      42.614  21.231  25.350  1.00  0.00     0.014 A 
ATOM     28  C   UNL A   1      42.278  20.928  27.711  1.00  0.00     0.014 A 
ATOM     29  C   UNL A   1      43.184  22.483  25.601  1.00  0.00     0.010 A 
ATOM     30  C   UNL A   1      42.675  22.235  27.942  1.00  0.00     0.010 A 
ATOM     31  C   UNL A   1      43.154  23.028  26.894  1.00  0.00    -0.014 A 
BRANCH  31  32
ATOM     32  C   UNL A   1      43.632  24.405  27.186  1.00  0.00     0.031 A 
ATOM     33  C   UNL A   1      42.656  25.471  27.620  1.00  0.00     0.074 A 
ATOM     34  C   UNL A   1      44.926  24.722  26.976  1.00  0.00     0.049 A 
ATOM     35  N   UNL A   1      42.866  26.747  27.833  1.00  0.00    -0.248 NA
ATOM     36  C   UNL A   1      41.249  25.067  27.790  1.00  0.00     0.031 C 
ATOM     37  C   UNL A   1      45.958  23.810  26.475  1.00  0.00     0.029 A 
ATOM     38  N   UNL A   1      45.595  25.906  27.158  1.00  0.00    -0.354 N 
ATOM     39  C   UNL A   1      41.620  27.290  28.125  1.00  0.00     0.074 A 
ATOM     40  C   UNL A   1      40.651  26.230  27.984  1.00  0.00     0.031 C 
ATOM     41  C   UNL A   1      47.137  24.451  26.441  1.00  0.00     0.029 A 
ATOM     42  C   UNL A   1      46.939  25.829  26.874  1.00  0.00     0.049 A 
ATOM     43  H   UNL A   1      45.156  26.732  27.462  1.00  0.00     0.167 HD
ATOM     44  C   UNL A   1      41.310  28.548  28.517  1.00  0.00     0.031 A 
ATOM     45  C   UNL A   1      47.904  26.762  26.959  1.00  0.00     0.031 A 
ATOM     46  C   UNL A   1      42.279  29.593  28.702  1.00  0.00     0.049 A 
ATOM     47  C   UNL A   1      47.544  28.140  27.441  1.00  0.00     0.074 A 
ATOM     48  C   UNL A   1      42.081  30.882  29.162  1.00  0.00     0.029 A 
ATOM     49  N   UNL A   1      43.634  29.459  28.447  1.00  0.00    -0.354 N 
ATOM     50  N   UNL A   1      46.370  28.614  27.783  1.00  0.00    -0.248 NA
ATOM     51  C   UNL A   1      48.645  29.103  27.565  1.00  0.00     0.031 C 
ATOM     52  C   UNL A   1      43.316  31.541  29.150  1.00  0.00     0.029 A 
ATOM     53  C   UNL A   1      44.285  30.646  28.729  1.00  0.00     0.049 A 
ATOM     54  H   UNL A   1      44.069  28.641  28.114  1.00  0.00     0.167 HD
ATOM     55  C   UNL A   1      46.594  29.925  28.179  1.00  0.00     0.074 A 
ATOM     56  C   UNL A   1      48.020  30.159  28.063  1.00  0.00     0.031 C 
ATOM     57  C   UNL A   1      45.703  30.857  28.596  1.00  0.00     0.031 A 
BRANCH  44  58
ATOM     58  C   UNL A   1      39.862  28.848  28.793  1.00  0.00    -0.014 A 
ATOM     59  C   UNL A   1      39.313  28.658  30.073  1.00  0.00     0.009 A 
ATOM     60  C   UNL A   1      39.038  29.344  27.771  1.00  0.00     0.009 A 
ATOM     61  C   UNL A   1      37.963  28.915  30.312  1.00  0.00     0.001 A 
ATOM     62  C   UNL A   1      37.694  29.631  28.022  1.00  0.00     0.001 A 
ATOM     63  C   UNL A   1      37.156  29.407  29.288  1.00  0.00     0.000 A 
ENDBRANCH  44  58
BRANCH  45  64
ATOM     64  C   UNL A   1      49.309  26.419  26.614  1.00  0.00    -0.014 A 
ATOM     65  C   UNL A   1      50.165  25.868  27.580  1.00  0.00     0.009 A 
ATOM     66  C   UNL A   1      49.804  26.646  25.320  1.00  0.00     0.009 A 
ATOM     67  C   UNL A   1      51.495  25.580  27.267  1.00  0.00     0.001 A 
ATOM     68  C   UNL A   1      51.126  26.328  25.002  1.00  0.00     0.001 A 
ATOM     69  C   UNL A   1      51.973  25.806  25.978  1.00  0.00     0.000 A 
ENDBRANCH  45  64
BRANCH  57  70
ATOM     70  C   UNL A   1      46.253  32.202  28.973  1.00  0.00    -0.014 A 
ATOM     71  C   UNL A   1      46.684  32.469  30.283  1.00  0.00     0.009 A 
ATOM     72  C   UNL A   1      46.363  33.206  28.000  1.00  0.00     0.009 A 
ATOM     73  C   UNL A   1      47.175  33.731  30.619  1.00  0.00     0.001 A 
ATOM     74  C   UNL A   1      46.883  34.458  28.332  1.00  0.00     0.001 A 
ATOM     75  C   UNL A   1      47.277  34.722  29.643  1.00  0.00     0.000 A 
ENDBRANCH  57  70
ENDBRANCH  31  32
ENDBRANCH  23  26
ENDBRANCH  21  22
ENDBRANCH  20  21
ENDBRANCH  19  20
ENDBRANCH   3  19
TORSDOF 15
ENDMDL
MODEL 3
REMARK VINA RESULT:      -9.9      2.264      7.952
REMARK SMILES C[C@H](C(=O)NCCCNC(=O)c1ccc(-c2c3nc(c(-c4ccccc4)c4ccc([nH]4)c(-c4ccccc4)c4nc(c(-c5ccccc5)c5ccc2[nH]5)C=C4)C=C3)cc1)[C@@H](C)[N@@H+](C)C[C@H]1C[C@H](O)C1
REMARK SMILES IDX 3 1 4 2 5 3 2 5 1 6 60 7 61 8 62 9 63 10 64 12 65 13 69 14
REMARK SMILES IDX 66 15 67 16 68 17 6 19 7 20 8 21 9 22 10 23 11 25 12 26
REMARK SMILES IDX 13 27 59 28 14 29 58 30 15 31 16 32 17 33 52 34 18 35 57 36
REMARK SMILES IDX 51 37 53 38 19 39 56 40 50 41 49 42 20 44 42 45 27 46 41 47
REMARK SMILES IDX 28 48 31 49 40 50 54 51 29 52 30 53 39 55 55 56 32 57 21 58
REMARK SMILES IDX 22 59 26 60 23 61 25 62 24 63 43 64 44 65 48 66 45 67 47 68
REMARK SMILES IDX 46 69 33 70 34 71 38 72 35 73 37 74 36 75
REMARK H PARENT 5 4 62 11 68 18 9 24 53 43 31 54
REMARK Flexibility Score: inf
ROOT
ATOM      1  C   UNL A   1      31.640  25.522  26.423  1.00  0.00     0.228 C 
ATOM      2  O   UNL A   1      31.323  24.508  27.065  1.00  0.00    -0.275 OA
ATOM      3  N   UNL A   1      31.086  26.684  26.885  1.00  0.00    -0.356 N 
ATOM      4  H   UNL A   1      30.294  26.551  27.454  1.00  0.00     0.163 HD
ENDROOT
BRANCH   1   5
ATOM      5  C   UNL A   1      32.513  25.341  25.144  1.00  0.00     0.133 C 
ATOM      6  C   UNL A   1      33.970  25.451  25.633  1.00  0.00     0.024 C 
BRANCH   5   7
ATOM      7  C   UNL A   1      32.277  24.085  24.274  1.00  0.00     0.192 C 
ATOM      8  C   UNL A   1      32.369  24.437  22.779  1.00  0.00     0.076 C 
BRANCH   7   9
ATOM      9  N   UNL A   1      32.980  22.842  24.669  1.00  0.00    -0.334 N 
ATOM     10  C   UNL A   1      32.071  21.832  25.210  1.00  0.00     0.332 C 
ATOM     11  H   UNL A   1      33.559  23.236  25.410  1.00  0.00     0.348 HD
BRANCH   9  12
ATOM     12  C   UNL A   1      34.105  22.294  23.900  1.00  0.00     0.265 C 
BRANCH  12  13
ATOM     13  C   UNL A   1      35.420  22.124  24.652  1.00  0.00     0.049 C 
ATOM     14  C   UNL A   1      36.778  22.330  23.898  1.00  0.00     0.041 C 
ATOM     15  C   UNL A   1      36.005  20.750  25.075  1.00  0.00     0.041 C 
ATOM     16  C   UNL A   1      37.410  21.414  24.962  1.00  0.00     0.115 C 
BRANCH  16  17
ATOM     17  O   UNL A   1      37.923  22.076  26.140  1.00  0.00    -0.393 OA
ATOM     18  H   UNL A   1      37.721  23.023  26.093  1.00  0.00     0.210 HD
ENDBRANCH  16  17
ENDBRANCH  12  13
ENDBRANCH   9  12
ENDBRANCH   7   9
ENDBRANCH   5   7
ENDBRANCH   1   5
BRANCH   3  19
ATOM     19  C   UNL A   1      31.449  28.080  26.693  1.00  0.00     0.117 C 
BRANCH  19  20
ATOM     20  C   UNL A   1      32.712  28.565  27.365  1.00  0.00     0.042 C 
BRANCH  20  21
ATOM     21  C   UNL A   1      33.386  29.716  26.643  1.00  0.00     0.118 C 
BRANCH  21  22
ATOM     22  N   UNL A   1      33.520  30.942  27.436  1.00  0.00    -0.352 N 
ATOM     23  C   UNL A   1      34.487  31.417  28.293  1.00  0.00     0.251 C 
ATOM     24  H   UNL A   1      32.756  31.554  27.336  1.00  0.00     0.163 HD
ATOM     25  O   UNL A   1      34.278  32.468  28.901  1.00  0.00    -0.269 OA
BRANCH  23  26
ATOM     26  C   UNL A   1      35.743  30.676  28.543  1.00  0.00     0.039 A 
ATOM     27  C   UNL A   1      36.859  30.911  27.731  1.00  0.00     0.014 A 
ATOM     28  C   UNL A   1      35.843  29.753  29.575  1.00  0.00     0.014 A 
ATOM     29  C   UNL A   1      38.085  30.313  28.041  1.00  0.00     0.010 A 
ATOM     30  C   UNL A   1      37.088  29.304  29.988  1.00  0.00     0.010 A 
ATOM     31  C   UNL A   1      38.227  29.559  29.217  1.00  0.00    -0.014 A 
BRANCH  31  32
ATOM     32  C   UNL A   1      39.537  29.011  29.655  1.00  0.00     0.031 A 
ATOM     33  C   UNL A   1      40.397  29.781  30.627  1.00  0.00     0.074 A 
ATOM     34  C   UNL A   1      39.995  27.864  29.112  1.00  0.00     0.049 A 
ATOM     35  N   UNL A   1      41.605  29.511  31.056  1.00  0.00    -0.248 NA
ATOM     36  C   UNL A   1      39.852  31.048  31.148  1.00  0.00     0.031 C 
ATOM     37  C   UNL A   1      39.305  27.063  28.098  1.00  0.00     0.029 A 
ATOM     38  N   UNL A   1      41.158  27.172  29.340  1.00  0.00    -0.354 N 
ATOM     39  C   UNL A   1      41.967  30.584  31.862  1.00  0.00     0.074 A 
ATOM     40  C   UNL A   1      40.891  31.544  31.800  1.00  0.00     0.031 C 
ATOM     41  C   UNL A   1      40.029  25.965  27.832  1.00  0.00     0.029 A 
ATOM     42  C   UNL A   1      41.255  26.004  28.621  1.00  0.00     0.049 A 
ATOM     43  H   UNL A   1      41.857  27.482  29.960  1.00  0.00     0.167 HD
ATOM     44  C   UNL A   1      43.076  30.743  32.622  1.00  0.00     0.031 A 
ATOM     45  C   UNL A   1      42.220  25.067  28.603  1.00  0.00     0.031 A 
ATOM     46  C   UNL A   1      44.127  29.768  32.721  1.00  0.00     0.049 A 
ATOM     47  C   UNL A   1      43.421  25.242  29.490  1.00  0.00     0.074 A 
ATOM     48  C   UNL A   1      45.260  29.797  33.514  1.00  0.00     0.029 A 
ATOM     49  N   UNL A   1      44.163  28.580  32.010  1.00  0.00    -0.354 N 
ATOM     50  N   UNL A   1      43.711  26.230  30.302  1.00  0.00    -0.248 NA
ATOM     51  C   UNL A   1      44.417  24.163  29.470  1.00  0.00     0.031 C 
ATOM     52  C   UNL A   1      46.002  28.639  33.253  1.00  0.00     0.029 A 
ATOM     53  C   UNL A   1      45.304  27.870  32.336  1.00  0.00     0.049 A 
ATOM     54  H   UNL A   1      43.477  28.283  31.368  1.00  0.00     0.167 HD
ATOM     55  C   UNL A   1      44.913  25.884  30.902  1.00  0.00     0.074 A 
ATOM     56  C   UNL A   1      45.281  24.583  30.382  1.00  0.00     0.031 C 
ATOM     57  C   UNL A   1      45.653  26.581  31.799  1.00  0.00     0.031 A 
BRANCH  44  58
ATOM     58  C   UNL A   1      43.189  32.011  33.422  1.00  0.00    -0.014 A 
ATOM     59  C   UNL A   1      42.673  32.094  34.727  1.00  0.00     0.009 A 
ATOM     60  C   UNL A   1      43.833  33.133  32.877  1.00  0.00     0.009 A 
ATOM     61  C   UNL A   1      42.761  33.283  35.451  1.00  0.00     0.001 A 
ATOM     62  C   UNL A   1      43.948  34.312  33.618  1.00  0.00     0.001 A 
ATOM     63  C   UNL A   1      43.403  34.390  34.898  1.00  0.00     0.000 A 
ENDBRANCH  44  58
BRANCH  45  64
ATOM     64  C   UNL A   1      42.077  23.862  27.744  1.00  0.00    -0.014 A 
ATOM     65  C   UNL A   1      42.594  23.853  26.439  1.00  0.00     0.009 A 
ATOM     66  C   UNL A   1      41.419  22.716  28.220  1.00  0.00     0.009 A 
ATOM     67  C   UNL A   1      42.428  22.736  25.618  1.00  0.00     0.001 A 
ATOM     68  C   UNL A   1      41.282  21.590  27.407  1.00  0.00     0.001 A 
ATOM     69  C   UNL A   1      41.776  21.604  26.103  1.00  0.00     0.000 A 
ENDBRANCH  45  64
BRANCH  57  70
ATOM     70  C   UNL A   1      46.919  25.935  32.283  1.00  0.00    -0.014 A 
ATOM     71  C   UNL A   1      46.929  25.130  33.433  1.00  0.00     0.009 A 
ATOM     72  C   UNL A   1      48.110  26.117  31.565  1.00  0.00     0.009 A 
ATOM     73  C   UNL A   1      48.119  24.553  33.877  1.00  0.00     0.001 A 
ATOM     74  C   UNL A   1      49.293  25.513  31.995  1.00  0.00     0.001 A 
ATOM     75  C   UNL A   1      49.298  24.742  33.157  1.00  0.00     0.000 A 
ENDBRANCH  57  70
ENDBRANCH  31  32
ENDBRANCH  23  26
ENDBRANCH  21  22
ENDBRANCH  20  21
ENDBRANCH  19  20
ENDBRANCH   3  19
TORSDOF 15
ENDMDL
