MODEL 1
REMARK VINA RESULT:     -11.4      0.000      0.000
REMARK SMILES CC[C@H](NC(=O)Cc1c(C)c2cc(Cl)c(OC)cc2oc1=O)C(=O)NCCCNC(=O)c1ccc(-c2c3nc(c(-c4ccccc4)c4ccc([nH]4)c(-c4ccccc4)c4nc(c(-c5ccccc5)c5ccc2[nH]5)C=C4)C=C3)cc1
REMARK SMILES IDX 26 1 25 2 23 3 24 4 3 6 2 7 1 8 4 9 5 10 6 12 7 13 8 14 9 15
REMARK SMILES IDX 21 16 10 17 11 18 20 19 22 20 12 21 19 22 13 23 18 24 14 25
REMARK SMILES IDX 15 26 16 27 17 28 27 29 28 30 29 31 30 32 31 34 32 35 33 36
REMARK SMILES IDX 79 37 34 38 78 39 35 40 36 41 37 42 72 43 38 44 77 45 71 46
REMARK SMILES IDX 73 47 39 48 76 49 70 50 69 51 40 53 62 54 47 55 61 56 48 57
REMARK SMILES IDX 51 58 60 59 74 60 49 61 50 62 59 64 75 65 52 66 41 67 42 68
REMARK SMILES IDX 46 69 43 70 45 71 44 72 63 73 64 74 68 75 65 76 67 77 66 78
REMARK SMILES IDX 53 79 54 80 58 81 55 82 57 83 56 84
REMARK H PARENT 25 5 4 11 29 33 73 52 51 63
REMARK Flexibility Score: inf
ROOT
ATOM      1  C   UNL A   1      36.111  21.016  25.295  1.00  0.00     0.117 C 
ENDROOT
BRANCH   1   2
ATOM      2  N   UNL A   1      35.033  20.043  25.226  1.00  0.00    -0.354 N 
ATOM      3  C   UNL A   1      33.695  20.221  25.024  1.00  0.00     0.242 C 
ATOM      4  O   UNL A   1      32.975  19.219  24.997  1.00  0.00    -0.273 OA
ATOM      5  H   UNL A   1      35.312  19.107  25.344  1.00  0.00     0.163 HD
BRANCH   3   6
ATOM      6  C   UNL A   1      33.102  21.620  24.781  1.00  0.00     0.171 C 
BRANCH   6   7
ATOM      7  C   UNL A   1      31.875  21.847  25.685  1.00  0.00     0.031 C 
ATOM      8  C   UNL A   1      31.038  23.066  25.329  1.00  0.00     0.006 C 
ENDBRANCH   6   7
BRANCH   6   9
ATOM      9  N   UNL A   1      32.852  21.809  23.356  1.00  0.00    -0.344 N 
ATOM     10  C   UNL A   1      33.286  22.802  22.528  1.00  0.00     0.225 C 
ATOM     11  H   UNL A   1      32.289  21.122  22.932  1.00  0.00     0.164 HD
ATOM     12  O   UNL A   1      32.978  22.725  21.335  1.00  0.00    -0.275 OA
BRANCH  10  13
ATOM     13  C   UNL A   1      34.242  23.895  23.020  1.00  0.00     0.143 C 
BRANCH  13  14
ATOM     14  C   UNL A   1      33.713  25.057  23.833  1.00  0.00     0.051 A 
ATOM     15  C   UNL A   1      32.759  25.899  23.370  1.00  0.00    -0.029 A 
ATOM     16  C   UNL A   1      34.295  25.245  25.191  1.00  0.00     0.340 A 
ATOM     17  C   UNL A   1      32.025  25.698  22.064  1.00  0.00     0.046 C 
ATOM     18  C   UNL A   1      32.412  27.102  24.153  1.00  0.00     0.023 A 
ATOM     19  O   UNL A   1      34.070  26.461  25.811  1.00  0.00    -0.422 OA
ATOM     20  O   UNL A   1      34.987  24.395  25.734  1.00  0.00    -0.246 OA
ATOM     21  C   UNL A   1      31.444  28.039  23.770  1.00  0.00     0.036 A 
ATOM     22  C   UNL A   1      33.124  27.370  25.317  1.00  0.00     0.142 A 
ATOM     23  C   UNL A   1      31.233  29.206  24.521  1.00  0.00     0.083 A 
ATOM     24  C   UNL A   1      32.938  28.533  26.072  1.00  0.00     0.095 A 
ATOM     25  Cl  UNL A   1      30.019  30.310  23.970  1.00  0.00    -0.080 Cl
ATOM     26  C   UNL A   1      31.992  29.474  25.670  1.00  0.00     0.141 A 
BRANCH  26  27
ATOM     27  O   UNL A   1      31.738  30.648  26.328  1.00  0.00    -0.495 OA
ATOM     28  C   UNL A   1      32.725  31.116  27.239  1.00  0.00     0.278 C 
ENDBRANCH  26  27
ENDBRANCH  13  14
ENDBRANCH  10  13
ENDBRANCH   6   9
ENDBRANCH   3   6
ENDBRANCH   1   2
BRANCH   1  29
ATOM     29  C   UNL A   1      37.429  20.471  24.770  1.00  0.00     0.042 C 
BRANCH  29  30
ATOM     30  C   UNL A   1      38.616  20.744  25.682  1.00  0.00     0.118 C 
BRANCH  30  31
ATOM     31  N   UNL A   1      39.624  19.689  25.648  1.00  0.00    -0.352 N 
ATOM     32  C   UNL A   1      40.962  19.723  25.961  1.00  0.00     0.251 C 
ATOM     33  H   UNL A   1      39.292  18.811  25.352  1.00  0.00     0.163 HD
ATOM     34  O   UNL A   1      41.671  18.752  25.714  1.00  0.00    -0.269 OA
BRANCH  32  35
ATOM     35  C   UNL A   1      41.557  20.938  26.558  1.00  0.00     0.039 A 
ATOM     36  C   UNL A   1      41.615  21.095  27.942  1.00  0.00     0.014 A 
ATOM     37  C   UNL A   1      42.045  21.945  25.719  1.00  0.00     0.014 A 
ATOM     38  C   UNL A   1      41.949  22.333  28.478  1.00  0.00     0.010 A 
ATOM     39  C   UNL A   1      42.488  23.152  26.269  1.00  0.00     0.010 A 
ATOM     40  C   UNL A   1      42.381  23.381  27.649  1.00  0.00    -0.014 A 
BRANCH  40  41
ATOM     41  C   UNL A   1      42.695  24.699  28.259  1.00  0.00     0.031 A 
ATOM     42  C   UNL A   1      44.119  25.105  28.536  1.00  0.00     0.074 A 
ATOM     43  C   UNL A   1      41.693  25.575  28.479  1.00  0.00     0.049 A 
ATOM     44  N   UNL A   1      44.574  26.249  28.983  1.00  0.00    -0.248 NA
ATOM     45  C   UNL A   1      45.170  24.105  28.284  1.00  0.00     0.031 C 
ATOM     46  C   UNL A   1      40.274  25.306  28.233  1.00  0.00     0.029 A 
ATOM     47  N   UNL A   1      41.716  26.879  28.906  1.00  0.00    -0.354 N 
ATOM     48  C   UNL A   1      45.952  26.099  29.085  1.00  0.00     0.074 A 
ATOM     49  C   UNL A   1      46.261  24.746  28.681  1.00  0.00     0.031 C 
ATOM     50  C   UNL A   1      39.576  26.434  28.428  1.00  0.00     0.029 A 
ATOM     51  C   UNL A   1      40.482  27.483  28.880  1.00  0.00     0.049 A 
ATOM     52  H   UNL A   1      42.535  27.336  29.200  1.00  0.00     0.167 HD
ATOM     53  C   UNL A   1      46.877  27.010  29.470  1.00  0.00     0.031 A 
ATOM     54  C   UNL A   1      40.114  28.743  29.182  1.00  0.00     0.031 A 
ATOM     55  C   UNL A   1      46.574  28.365  29.849  1.00  0.00     0.049 A 
ATOM     56  C   UNL A   1      41.158  29.725  29.629  1.00  0.00     0.074 A 
ATOM     57  C   UNL A   1      47.451  29.363  30.238  1.00  0.00     0.029 A 
ATOM     58  N   UNL A   1      45.302  28.914  29.876  1.00  0.00    -0.354 N 
ATOM     59  N   UNL A   1      42.455  29.562  29.721  1.00  0.00    -0.248 NA
ATOM     60  C   UNL A   1      40.687  31.062  30.016  1.00  0.00     0.031 C 
ATOM     61  C   UNL A   1      46.705  30.500  30.552  1.00  0.00     0.029 A 
ATOM     62  C   UNL A   1      45.370  30.232  30.296  1.00  0.00     0.049 A 
ATOM     63  H   UNL A   1      44.475  28.439  29.634  1.00  0.00     0.167 HD
ATOM     64  C   UNL A   1      42.959  30.779  30.160  1.00  0.00     0.074 A 
ATOM     65  C   UNL A   1      41.830  31.676  30.296  1.00  0.00     0.031 C 
ATOM     66  C   UNL A   1      44.242  31.117  30.428  1.00  0.00     0.031 A 
BRANCH  53  67
ATOM     67  C   UNL A   1      48.318  26.582  29.516  1.00  0.00    -0.014 A 
ATOM     68  C   UNL A   1      48.841  26.027  30.696  1.00  0.00     0.009 A 
ATOM     69  C   UNL A   1      49.183  26.820  28.436  1.00  0.00     0.009 A 
ATOM     70  C   UNL A   1      50.201  25.733  30.800  1.00  0.00     0.001 A 
ATOM     71  C   UNL A   1      50.540  26.500  28.534  1.00  0.00     0.001 A 
ATOM     72  C   UNL A   1      51.049  25.966  29.719  1.00  0.00     0.000 A 
ENDBRANCH  53  67
BRANCH  54  73
ATOM     73  C   UNL A   1      38.688  29.142  29.046  1.00  0.00    -0.014 A 
ATOM     74  C   UNL A   1      38.207  29.671  27.837  1.00  0.00     0.009 A 
ATOM     75  C   UNL A   1      37.814  29.041  30.138  1.00  0.00     0.009 A 
ATOM     76  C   UNL A   1      36.888  30.116  27.733  1.00  0.00     0.001 A 
ATOM     77  C   UNL A   1      36.486  29.458  30.021  1.00  0.00     0.001 A 
ATOM     78  C   UNL A   1      36.028  30.004  28.823  1.00  0.00     0.000 A 
ENDBRANCH  54  73
BRANCH  66  79
ATOM     79  C   UNL A   1      44.515  32.524  30.879  1.00  0.00    -0.014 A 
ATOM     80  C   UNL A   1      44.822  33.511  29.929  1.00  0.00     0.009 A 
ATOM     81  C   UNL A   1      44.562  32.851  32.242  1.00  0.00     0.009 A 
ATOM     82  C   UNL A   1      45.181  34.797  30.335  1.00  0.00     0.001 A 
ATOM     83  C   UNL A   1      44.894  34.147  32.645  1.00  0.00     0.001 A 
ATOM     84  C   UNL A   1      45.211  35.115  31.692  1.00  0.00     0.000 A 
ENDBRANCH  66  79
ENDBRANCH  40  41
ENDBRANCH  32  35
ENDBRANCH  30  31
ENDBRANCH  29  30
ENDBRANCH   1  29
TORSDOF 15
ENDMDL
MODEL 2
REMARK VINA RESULT:     -11.3      2.685      3.760
REMARK SMILES CC[C@H](NC(=O)Cc1c(C)c2cc(Cl)c(OC)cc2oc1=O)C(=O)NCCCNC(=O)c1ccc(-c2c3nc(c(-c4ccccc4)c4ccc([nH]4)c(-c4ccccc4)c4nc(c(-c5ccccc5)c5ccc2[nH]5)C=C4)C=C3)cc1
REMARK SMILES IDX 26 1 25 2 23 3 24 4 3 6 2 7 1 8 4 9 5 10 6 12 7 13 8 14 9 15
REMARK SMILES IDX 21 16 10 17 11 18 20 19 22 20 12 21 19 22 13 23 18 24 14 25
REMARK SMILES IDX 15 26 16 27 17 28 27 29 28 30 29 31 30 32 31 34 32 35 33 36
REMARK SMILES IDX 79 37 34 38 78 39 35 40 36 41 37 42 72 43 38 44 77 45 71 46
REMARK SMILES IDX 73 47 39 48 76 49 70 50 69 51 40 53 62 54 47 55 61 56 48 57
REMARK SMILES IDX 51 58 60 59 74 60 49 61 50 62 59 64 75 65 52 66 41 67 42 68
REMARK SMILES IDX 46 69 43 70 45 71 44 72 63 73 64 74 68 75 65 76 67 77 66 78
REMARK SMILES IDX 53 79 54 80 58 81 55 82 57 83 56 84
REMARK H PARENT 25 5 4 11 29 33 73 52 51 63
REMARK Flexibility Score: inf
ROOT
ATOM      1  C   UNL A   1      35.076  23.363  23.850  1.00  0.00     0.117 C 
ENDROOT
BRANCH   1   2
ATOM      2  N   UNL A   1      34.610  23.309  22.473  1.00  0.00    -0.354 N 
ATOM      3  C   UNL A   1      33.430  23.718  21.924  1.00  0.00     0.242 C 
ATOM      4  O   UNL A   1      33.274  23.571  20.709  1.00  0.00    -0.273 OA
ATOM      5  H   UNL A   1      35.247  22.914  21.836  1.00  0.00     0.163 HD
BRANCH   3   6
ATOM      6  C   UNL A   1      32.343  24.394  22.779  1.00  0.00     0.171 C 
BRANCH   6   7
ATOM      7  C   UNL A   1      31.330  23.349  23.284  1.00  0.00     0.031 C 
ATOM      8  C   UNL A   1      31.475  22.976  24.750  1.00  0.00     0.006 C 
ENDBRANCH   6   7
BRANCH   6   9
ATOM      9  N   UNL A   1      31.753  25.504  22.038  1.00  0.00    -0.344 N 
ATOM     10  C   UNL A   1      31.057  26.581  22.505  1.00  0.00     0.225 C 
ATOM     11  H   UNL A   1      31.874  25.472  21.062  1.00  0.00     0.164 HD
ATOM     12  O   UNL A   1      30.689  27.424  21.682  1.00  0.00    -0.275 OA
BRANCH  10  13
ATOM     13  C   UNL A   1      30.862  26.818  24.008  1.00  0.00     0.143 C 
BRANCH  13  14
ATOM     14  C   UNL A   1      31.591  27.952  24.698  1.00  0.00     0.051 A 
ATOM     15  C   UNL A   1      32.757  27.774  25.364  1.00  0.00    -0.029 A 
ATOM     16  C   UNL A   1      30.963  29.300  24.616  1.00  0.00     0.340 A 
ATOM     17  C   UNL A   1      33.523  26.471  25.380  1.00  0.00     0.046 C 
ATOM     18  C   UNL A   1      33.321  28.891  26.147  1.00  0.00     0.023 A 
ATOM     19  O   UNL A   1      31.427  30.265  25.491  1.00  0.00    -0.422 OA
ATOM     20  O   UNL A   1      30.043  29.552  23.851  1.00  0.00    -0.246 OA
ATOM     21  C   UNL A   1      34.517  28.819  26.873  1.00  0.00     0.036 A 
ATOM     22  C   UNL A   1      32.603  30.079  26.230  1.00  0.00     0.142 A 
ATOM     23  C   UNL A   1      34.944  29.895  27.668  1.00  0.00     0.083 A 
ATOM     24  C   UNL A   1      33.005  31.157  27.026  1.00  0.00     0.095 A 
ATOM     25  Cl  UNL A   1      36.432  29.714  28.535  1.00  0.00    -0.080 Cl
ATOM     26  C   UNL A   1      34.182  31.068  27.767  1.00  0.00     0.141 A 
BRANCH  26  27
ATOM     27  O   UNL A   1      34.659  32.057  28.585  1.00  0.00    -0.495 OA
ATOM     28  C   UNL A   1      35.602  32.967  28.032  1.00  0.00     0.278 C 
ENDBRANCH  26  27
ENDBRANCH  13  14
ENDBRANCH  10  13
ENDBRANCH   6   9
ENDBRANCH   3   6
ENDBRANCH   1   2
BRANCH   1  29
ATOM     29  C   UNL A   1      36.444  22.725  24.032  1.00  0.00     0.042 C 
BRANCH  29  30
ATOM     30  C   UNL A   1      36.828  22.497  25.486  1.00  0.00     0.118 C 
BRANCH  30  31
ATOM     31  N   UNL A   1      37.825  21.447  25.661  1.00  0.00    -0.352 N 
ATOM     32  C   UNL A   1      39.119  21.511  26.124  1.00  0.00     0.251 C 
ATOM     33  H   UNL A   1      37.524  20.545  25.405  1.00  0.00     0.163 HD
ATOM     34  O   UNL A   1      39.844  20.524  26.047  1.00  0.00    -0.269 OA
BRANCH  32  35
ATOM     35  C   UNL A   1      39.648  22.774  26.680  1.00  0.00     0.039 A 
ATOM     36  C   UNL A   1      39.154  24.003  26.249  1.00  0.00     0.014 A 
ATOM     37  C   UNL A   1      40.672  22.727  27.633  1.00  0.00     0.014 A 
ATOM     38  C   UNL A   1      39.823  25.171  26.596  1.00  0.00     0.010 A 
ATOM     39  C   UNL A   1      41.271  23.914  28.068  1.00  0.00     0.010 A 
ATOM     40  C   UNL A   1      40.896  25.142  27.503  1.00  0.00    -0.014 A 
BRANCH  40  41
ATOM     41  C   UNL A   1      41.606  26.408  27.819  1.00  0.00     0.031 A 
ATOM     42  C   UNL A   1      42.910  26.753  27.150  1.00  0.00     0.074 A 
ATOM     43  C   UNL A   1      41.022  27.297  28.649  1.00  0.00     0.049 A 
ATOM     44  N   UNL A   1      43.616  27.852  27.246  1.00  0.00    -0.248 NA
ATOM     45  C   UNL A   1      43.503  25.742  26.260  1.00  0.00     0.031 C 
ATOM     46  C   UNL A   1      39.749  27.087  29.344  1.00  0.00     0.029 A 
ATOM     47  N   UNL A   1      41.389  28.570  29.007  1.00  0.00    -0.354 N 
ATOM     48  C   UNL A   1      44.739  27.656  26.452  1.00  0.00     0.074 A 
ATOM     49  C   UNL A   1      44.640  26.323  25.901  1.00  0.00     0.031 C 
ATOM     50  C   UNL A   1      39.401  28.219  29.971  1.00  0.00     0.029 A 
ATOM     51  C   UNL A   1      40.454  29.211  29.784  1.00  0.00     0.049 A 
ATOM     52  H   UNL A   1      42.239  28.983  28.733  1.00  0.00     0.167 HD
ATOM     53  C   UNL A   1      45.756  28.513  26.196  1.00  0.00     0.031 A 
ATOM     54  C   UNL A   1      40.438  30.458  30.289  1.00  0.00     0.031 A 
ATOM     55  C   UNL A   1      45.845  29.849  26.723  1.00  0.00     0.049 A 
ATOM     56  C   UNL A   1      41.591  31.378  30.009  1.00  0.00     0.074 A 
ATOM     57  C   UNL A   1      46.832  30.794  26.504  1.00  0.00     0.029 A 
ATOM     58  N   UNL A   1      44.910  30.432  27.563  1.00  0.00    -0.354 N 
ATOM     59  N   UNL A   1      42.644  31.172  29.258  1.00  0.00    -0.248 NA
ATOM     60  C   UNL A   1      41.553  32.701  30.647  1.00  0.00     0.031 C 
ATOM     61  C   UNL A   1      46.523  31.930  27.253  1.00  0.00     0.029 A 
ATOM     62  C   UNL A   1      45.309  31.718  27.888  1.00  0.00     0.049 A 
ATOM     63  H   UNL A   1      44.086  29.998  27.882  1.00  0.00     0.167 HD
ATOM     64  C   UNL A   1      43.387  32.343  29.318  1.00  0.00     0.074 A 
ATOM     65  C   UNL A   1      42.653  33.262  30.164  1.00  0.00     0.031 C 
ATOM     66  C   UNL A   1      44.572  32.625  28.728  1.00  0.00     0.031 A 
BRANCH  53  67
ATOM     67  C   UNL A   1      46.876  28.040  25.309  1.00  0.00    -0.014 A 
ATOM     68  C   UNL A   1      46.775  28.201  23.917  1.00  0.00     0.009 A 
ATOM     69  C   UNL A   1      47.977  27.348  25.835  1.00  0.00     0.009 A 
ATOM     70  C   UNL A   1      47.746  27.665  23.069  1.00  0.00     0.001 A 
ATOM     71  C   UNL A   1      48.961  26.835  24.985  1.00  0.00     0.001 A 
ATOM     72  C   UNL A   1      48.839  26.986  23.604  1.00  0.00     0.000 A 
ENDBRANCH  53  67
BRANCH  54  73
ATOM     73  C   UNL A   1      39.271  30.907  31.094  1.00  0.00    -0.014 A 
ATOM     74  C   UNL A   1      39.144  30.527  32.440  1.00  0.00     0.009 A 
ATOM     75  C   UNL A   1      38.256  31.676  30.508  1.00  0.00     0.009 A 
ATOM     76  C   UNL A   1      38.011  30.884  33.174  1.00  0.00     0.001 A 
ATOM     77  C   UNL A   1      37.138  32.058  31.254  1.00  0.00     0.001 A 
ATOM     78  C   UNL A   1      37.013  31.654  32.582  1.00  0.00     0.000 A 
ENDBRANCH  54  73
BRANCH  66  79
ATOM     79  C   UNL A   1      45.157  33.992  28.950  1.00  0.00    -0.014 A 
ATOM     80  C   UNL A   1      44.878  35.023  28.039  1.00  0.00     0.009 A 
ATOM     81  C   UNL A   1      46.054  34.234  30.001  1.00  0.00     0.009 A 
ATOM     82  C   UNL A   1      45.494  36.268  28.170  1.00  0.00     0.001 A 
ATOM     83  C   UNL A   1      46.647  35.490  30.145  1.00  0.00     0.001 A 
ATOM     84  C   UNL A   1      46.373  36.503  29.225  1.00  0.00     0.000 A 
ENDBRANCH  66  79
ENDBRANCH  40  41
ENDBRANCH  32  35
ENDBRANCH  30  31
ENDBRANCH  29  30
ENDBRANCH   1  29
TORSDOF 15
ENDMDL
MODEL 3
REMARK VINA RESULT:     -10.8      4.766     10.158
REMARK SMILES CC[C@H](NC(=O)Cc1c(C)c2cc(Cl)c(OC)cc2oc1=O)C(=O)NCCCNC(=O)c1ccc(-c2c3nc(c(-c4ccccc4)c4ccc([nH]4)c(-c4ccccc4)c4nc(c(-c5ccccc5)c5ccc2[nH]5)C=C4)C=C3)cc1
REMARK SMILES IDX 26 1 25 2 23 3 24 4 3 6 2 7 1 8 4 9 5 10 6 12 7 13 8 14 9 15
REMARK SMILES IDX 21 16 10 17 11 18 20 19 22 20 12 21 19 22 13 23 18 24 14 25
REMARK SMILES IDX 15 26 16 27 17 28 27 29 28 30 29 31 30 32 31 34 32 35 33 36
REMARK SMILES IDX 79 37 34 38 78 39 35 40 36 41 37 42 72 43 38 44 77 45 71 46
REMARK SMILES IDX 73 47 39 48 76 49 70 50 69 51 40 53 62 54 47 55 61 56 48 57
REMARK SMILES IDX 51 58 60 59 74 60 49 61 50 62 59 64 75 65 52 66 41 67 42 68
REMARK SMILES IDX 46 69 43 70 45 71 44 72 63 73 64 74 68 75 65 76 67 77 66 78
REMARK SMILES IDX 53 79 54 80 58 81 55 82 57 83 56 84
REMARK H PARENT 25 5 4 11 29 33 73 52 51 63
REMARK Flexibility Score: inf
ROOT
ATOM      1  C   UNL A   1      43.813  24.203  27.678  1.00  0.00     0.117 C 
ENDROOT
BRANCH   1   2
ATOM      2  N   UNL A   1      45.262  24.099  27.731  1.00  0.00    -0.354 N 
ATOM      3  C   UNL A   1      46.190  24.181  26.734  1.00  0.00     0.242 C 
ATOM      4  O   UNL A   1      47.380  24.068  27.039  1.00  0.00    -0.273 OA
ATOM      5  H   UNL A   1      45.633  23.943  28.629  1.00  0.00     0.163 HD
BRANCH   3   6
ATOM      6  C   UNL A   1      45.776  24.463  25.278  1.00  0.00     0.171 C 
BRANCH   6   7
ATOM      7  C   UNL A   1      46.150  23.272  24.375  1.00  0.00     0.031 C 
ATOM      8  C   UNL A   1      44.973  22.599  23.687  1.00  0.00     0.006 C 
ENDBRANCH   6   7
BRANCH   6   9
ATOM      9  N   UNL A   1      46.323  25.746  24.850  1.00  0.00    -0.344 N 
ATOM     10  C   UNL A   1      45.891  27.008  25.141  1.00  0.00     0.225 C 
ATOM     11  H   UNL A   1      47.114  25.695  24.269  1.00  0.00     0.164 HD
ATOM     12  O   UNL A   1      46.548  27.952  24.694  1.00  0.00    -0.275 OA
BRANCH  10  13
ATOM     13  C   UNL A   1      44.725  27.252  26.105  1.00  0.00     0.143 C 
BRANCH  13  14
ATOM     14  C   UNL A   1      44.842  28.307  27.186  1.00  0.00     0.051 A 
ATOM     15  C   UNL A   1      43.958  29.325  27.312  1.00  0.00    -0.029 A 
ATOM     16  C   UNL A   1      45.992  28.182  28.123  1.00  0.00     0.340 A 
ATOM     17  C   UNL A   1      42.695  29.448  26.490  1.00  0.00     0.046 C 
ATOM     18  C   UNL A   1      44.228  30.403  28.284  1.00  0.00     0.023 A 
ATOM     19  O   UNL A   1      46.299  29.287  28.896  1.00  0.00    -0.422 OA
ATOM     20  O   UNL A   1      46.681  27.173  28.189  1.00  0.00    -0.246 OA
ATOM     21  C   UNL A   1      43.386  31.501  28.498  1.00  0.00     0.036 A 
ATOM     22  C   UNL A   1      45.421  30.375  28.999  1.00  0.00     0.142 A 
ATOM     23  C   UNL A   1      43.754  32.534  29.375  1.00  0.00     0.083 A 
ATOM     24  C   UNL A   1      45.812  31.399  29.868  1.00  0.00     0.095 A 
ATOM     25  Cl  UNL A   1      42.652  33.854  29.572  1.00  0.00    -0.080 Cl
ATOM     26  C   UNL A   1      44.981  32.502  30.054  1.00  0.00     0.141 A 
BRANCH  26  27
ATOM     27  O   UNL A   1      45.272  33.562  30.870  1.00  0.00    -0.495 OA
ATOM     28  C   UNL A   1      46.354  33.412  31.781  1.00  0.00     0.278 C 
ENDBRANCH  26  27
ENDBRANCH  13  14
ENDBRANCH  10  13
ENDBRANCH   6   9
ENDBRANCH   3   6
ENDBRANCH   1   2
BRANCH   1  29
ATOM     29  C   UNL A   1      43.147  22.911  27.233  1.00  0.00     0.042 C 
BRANCH  29  30
ATOM     30  C   UNL A   1      42.544  22.976  25.838  1.00  0.00     0.118 C 
BRANCH  30  31
ATOM     31  N   UNL A   1      41.175  22.476  25.777  1.00  0.00    -0.352 N 
ATOM     32  C   UNL A   1      40.015  22.980  26.316  1.00  0.00     0.251 C 
ATOM     33  H   UNL A   1      41.063  21.640  25.269  1.00  0.00     0.163 HD
ATOM     34  O   UNL A   1      38.984  22.316  26.276  1.00  0.00    -0.269 OA
BRANCH  32  35
ATOM     35  C   UNL A   1      40.014  24.302  26.977  1.00  0.00     0.039 A 
ATOM     36  C   UNL A   1      40.606  25.405  26.363  1.00  0.00     0.014 A 
ATOM     37  C   UNL A   1      39.432  24.437  28.242  1.00  0.00     0.014 A 
ATOM     38  C   UNL A   1      40.811  26.569  27.093  1.00  0.00     0.010 A 
ATOM     39  C   UNL A   1      39.541  25.648  28.932  1.00  0.00     0.010 A 
ATOM     40  C   UNL A   1      40.290  26.703  28.391  1.00  0.00    -0.014 A 
BRANCH  40  41
ATOM     41  C   UNL A   1      40.562  27.952  29.151  1.00  0.00     0.031 A 
ATOM     42  C   UNL A   1      39.550  29.066  29.197  1.00  0.00     0.074 A 
ATOM     43  C   UNL A   1      41.692  28.041  29.881  1.00  0.00     0.049 A 
ATOM     44  N   UNL A   1      39.590  30.182  29.881  1.00  0.00    -0.248 NA
ATOM     45  C   UNL A   1      38.338  28.916  28.375  1.00  0.00     0.031 C 
ATOM     46  C   UNL A   1      42.742  27.019  29.933  1.00  0.00     0.029 A 
ATOM     47  N   UNL A   1      42.124  29.006  30.755  1.00  0.00    -0.354 N 
ATOM     48  C   UNL A   1      38.428  30.872  29.555  1.00  0.00     0.074 A 
ATOM     49  C   UNL A   1      37.713  30.066  28.593  1.00  0.00     0.031 C 
ATOM     50  C   UNL A   1      43.648  27.370  30.856  1.00  0.00     0.029 A 
ATOM     51  C   UNL A   1      43.285  28.670  31.410  1.00  0.00     0.049 A 
ATOM     52  H   UNL A   1      41.649  29.855  30.901  1.00  0.00     0.167 HD
ATOM     53  C   UNL A   1      37.991  32.064  30.025  1.00  0.00     0.031 A 
ATOM     54  C   UNL A   1      43.984  29.328  32.354  1.00  0.00     0.031 A 
ATOM     55  C   UNL A   1      38.689  32.858  31.003  1.00  0.00     0.049 A 
ATOM     56  C   UNL A   1      43.488  30.660  32.838  1.00  0.00     0.074 A 
ATOM     57  C   UNL A   1      38.312  34.073  31.548  1.00  0.00     0.029 A 
ATOM     58  N   UNL A   1      39.898  32.512  31.586  1.00  0.00    -0.354 N 
ATOM     59  N   UNL A   1      42.389  31.295  32.515  1.00  0.00    -0.248 NA
ATOM     60  C   UNL A   1      44.330  31.365  33.814  1.00  0.00     0.031 C 
ATOM     61  C   UNL A   1      39.318  34.488  32.423  1.00  0.00     0.029 A 
ATOM     62  C   UNL A   1      40.290  33.502  32.471  1.00  0.00     0.049 A 
ATOM     63  H   UNL A   1      40.401  31.687  31.399  1.00  0.00     0.167 HD
ATOM     64  C   UNL A   1      42.397  32.467  33.260  1.00  0.00     0.074 A 
ATOM     65  C   UNL A   1      43.601  32.444  34.065  1.00  0.00     0.031 C 
ATOM     66  C   UNL A   1      41.488  33.470  33.269  1.00  0.00     0.031 A 
BRANCH  53  67
ATOM     67  C   UNL A   1      36.695  32.607  29.488  1.00  0.00    -0.014 A 
ATOM     68  C   UNL A   1      35.482  32.234  30.090  1.00  0.00     0.009 A 
ATOM     69  C   UNL A   1      36.663  33.400  28.330  1.00  0.00     0.009 A 
ATOM     70  C   UNL A   1      34.264  32.629  29.536  1.00  0.00     0.001 A 
ATOM     71  C   UNL A   1      35.442  33.817  27.793  1.00  0.00     0.001 A 
ATOM     72  C   UNL A   1      34.245  33.423  28.391  1.00  0.00     0.000 A 
ENDBRANCH  53  67
BRANCH  54  73
ATOM     73  C   UNL A   1      45.218  28.715  32.913  1.00  0.00    -0.014 A 
ATOM     74  C   UNL A   1      45.169  27.967  34.100  1.00  0.00     0.009 A 
ATOM     75  C   UNL A   1      46.457  28.915  32.288  1.00  0.00     0.009 A 
ATOM     76  C   UNL A   1      46.338  27.456  34.665  1.00  0.00     0.001 A 
ATOM     77  C   UNL A   1      47.622  28.375  32.839  1.00  0.00     0.001 A 
ATOM     78  C   UNL A   1      47.562  27.656  34.032  1.00  0.00     0.000 A 
ENDBRANCH  54  73
BRANCH  66  79
ATOM     79  C   UNL A   1      41.736  34.630  34.191  1.00  0.00    -0.014 A 
ATOM     80  C   UNL A   1      41.179  34.625  35.480  1.00  0.00     0.009 A 
ATOM     81  C   UNL A   1      42.438  35.764  33.757  1.00  0.00     0.009 A 
ATOM     82  C   UNL A   1      41.309  35.737  36.312  1.00  0.00     0.001 A 
ATOM     83  C   UNL A   1      42.592  36.865  34.603  1.00  0.00     0.001 A 
ATOM     84  C   UNL A   1      42.020  36.854  35.876  1.00  0.00     0.000 A 
ENDBRANCH  66  79
ENDBRANCH  40  41
ENDBRANCH  32  35
ENDBRANCH  30  31
ENDBRANCH  29  30
ENDBRANCH   1  29
TORSDOF 15
ENDMDL
