MODEL 1
REMARK VINA RESULT:     -12.2      0.000      0.000
REMARK SMILES COc1ccccc1-n1nnc(C(=O)NCCCNC(=O)c2ccc(-c3c4nc(c(-c5ccccc5)c5ccc([nH]5)c(-c5ccccc5)c5nc(c(-c6ccccc6)c6ccc3[nH]6)C=C5)C=C4)cc2)c1-c1ccc(Cl)cc1
REMARK SMILES IDX 17 1 16 2 15 3 13 4 14 5 12 7 9 8 10 9 70 10 11 11 8 12 3 13
REMARK SMILES IDX 4 14 5 15 7 16 6 17 2 18 1 19 71 20 72 21 77 22 73 23 76 24
REMARK SMILES IDX 74 25 75 26 18 27 19 28 20 29 21 31 22 32 23 33 69 34 24 35
REMARK SMILES IDX 68 36 25 37 26 38 27 39 62 40 28 41 67 42 61 43 63 44 29 45
REMARK SMILES IDX 66 46 60 47 59 48 30 50 52 51 37 52 51 53 38 54 41 55 50 56
REMARK SMILES IDX 64 57 39 58 40 59 49 61 65 62 42 63 31 64 32 65 36 66 33 67
REMARK SMILES IDX 35 68 34 69 53 70 54 71 58 72 55 73 57 74 56 75 43 76 44 77
REMARK SMILES IDX 48 78 45 79 47 80 46 81
REMARK H PARENT 15 6 19 30 63 49 41 60
REMARK Flexibility Score: inf
ROOT
ATOM      1  C   UNL A   1      33.591  29.226  27.214  1.00  0.00     0.042 C 
ENDROOT
BRANCH   1   2
ATOM      2  C   UNL A   1      33.131  28.070  26.332  1.00  0.00     0.118 C 
BRANCH   2   3
ATOM      3  N   UNL A   1      33.601  28.158  24.975  1.00  0.00    -0.351 N 
ATOM      4  C   UNL A   1      33.485  27.385  23.856  1.00  0.00     0.274 C 
ATOM      5  O   UNL A   1      33.955  27.920  22.846  1.00  0.00    -0.267 OA
ATOM      6  H   UNL A   1      34.134  28.970  24.816  1.00  0.00     0.163 HD
BRANCH   4   7
ATOM      7  C   UNL A   1      32.903  26.042  23.773  1.00  0.00     0.178 A 
ATOM      8  N   UNL A   1      32.145  23.989  23.773  1.00  0.00    -0.208 N 
ATOM      9  N   UNL A   1      31.208  24.743  23.183  1.00  0.00    -0.061 NA
ATOM     10  C   UNL A   1      33.307  24.726  24.016  1.00  0.00     0.108 A 
ATOM     11  N   UNL A   1      31.601  25.996  23.283  1.00  0.00    -0.124 NA
BRANCH   8  12
ATOM     12  C   UNL A   1      31.964  22.606  23.952  1.00  0.00     0.109 A 
ATOM     13  C   UNL A   1      31.901  22.051  25.236  1.00  0.00     0.144 A 
ATOM     14  C   UNL A   1      32.161  20.689  25.383  1.00  0.00     0.049 A 
ATOM     15  C   UNL A   1      32.422  19.890  24.267  1.00  0.00     0.004 A 
ATOM     16  C   UNL A   1      32.135  21.797  22.817  1.00  0.00     0.032 A 
ATOM     17  C   UNL A   1      32.382  20.437  22.985  1.00  0.00     0.003 A 
BRANCH  13  18
ATOM     18  O   UNL A   1      31.709  22.734  26.407  1.00  0.00    -0.494 OA
ATOM     19  C   UNL A   1      30.353  22.981  26.780  1.00  0.00     0.278 C 
ENDBRANCH  13  18
ENDBRANCH   8  12
BRANCH  10  20
ATOM     20  C   UNL A   1      34.559  24.032  24.320  1.00  0.00     0.003 A 
ATOM     21  C   UNL A   1      35.320  23.395  23.333  1.00  0.00     0.012 A 
ATOM     22  C   UNL A   1      35.053  24.063  25.638  1.00  0.00     0.012 A 
ATOM     23  C   UNL A   1      36.473  22.682  23.677  1.00  0.00     0.021 A 
ATOM     24  C   UNL A   1      36.215  23.366  25.980  1.00  0.00     0.021 A 
ATOM     25  C   UNL A   1      36.901  22.651  25.002  1.00  0.00     0.041 A 
ATOM     26  Cl  UNL A   1      38.241  21.675  25.447  1.00  0.00    -0.084 Cl
ENDBRANCH  10  20
ENDBRANCH   4   7
ENDBRANCH   2   3
ENDBRANCH   1   2
BRANCH   1  27
ATOM     27  C   UNL A   1      35.095  29.218  27.419  1.00  0.00     0.118 C 
BRANCH  27  28
ATOM     28  N   UNL A   1      35.553  30.024  28.558  1.00  0.00    -0.352 N 
ATOM     29  C   UNL A   1      36.731  29.880  29.275  1.00  0.00     0.251 C 
ATOM     30  H   UNL A   1      34.955  30.750  28.846  1.00  0.00     0.163 HD
ATOM     31  O   UNL A   1      36.883  30.384  30.383  1.00  0.00    -0.269 OA
BRANCH  29  32
ATOM     32  C   UNL A   1      37.805  29.089  28.658  1.00  0.00     0.039 A 
ATOM     33  C   UNL A   1      38.533  29.568  27.568  1.00  0.00     0.014 A 
ATOM     34  C   UNL A   1      38.208  27.961  29.360  1.00  0.00     0.014 A 
ATOM     35  C   UNL A   1      39.767  28.984  27.292  1.00  0.00     0.010 A 
ATOM     36  C   UNL A   1      39.506  27.545  29.226  1.00  0.00     0.010 A 
ATOM     37  C   UNL A   1      40.282  28.014  28.173  1.00  0.00    -0.014 A 
BRANCH  37  38
ATOM     38  C   UNL A   1      41.689  27.618  28.124  1.00  0.00     0.031 A 
ATOM     39  C   UNL A   1      41.941  26.381  27.339  1.00  0.00     0.074 A 
ATOM     40  C   UNL A   1      42.705  28.397  28.563  1.00  0.00     0.049 A 
ATOM     41  N   UNL A   1      42.164  25.201  27.811  1.00  0.00    -0.248 NA
ATOM     42  C   UNL A   1      41.746  26.406  25.878  1.00  0.00     0.031 C 
ATOM     43  C   UNL A   1      42.631  29.773  29.074  1.00  0.00     0.029 A 
ATOM     44  N   UNL A   1      44.047  28.162  28.551  1.00  0.00    -0.354 N 
ATOM     45  C   UNL A   1      42.403  24.389  26.708  1.00  0.00     0.074 A 
ATOM     46  C   UNL A   1      41.909  25.116  25.568  1.00  0.00     0.031 C 
ATOM     47  C   UNL A   1      43.864  30.325  29.094  1.00  0.00     0.029 A 
ATOM     48  C   UNL A   1      44.831  29.287  28.798  1.00  0.00     0.049 A 
ATOM     49  H   UNL A   1      44.432  27.270  28.382  1.00  0.00     0.167 HD
ATOM     50  C   UNL A   1      43.284  23.352  26.800  1.00  0.00     0.031 A 
ATOM     51  C   UNL A   1      46.182  29.365  28.794  1.00  0.00     0.031 A 
ATOM     52  C   UNL A   1      43.651  23.124  28.178  1.00  0.00     0.049 A 
ATOM     53  C   UNL A   1      46.692  27.997  29.011  1.00  0.00     0.074 A 
ATOM     54  C   UNL A   1      43.024  22.683  29.322  1.00  0.00     0.029 A 
ATOM     55  N   UNL A   1      44.774  23.812  28.566  1.00  0.00    -0.354 N 
ATOM     56  N   UNL A   1      46.540  27.354  30.132  1.00  0.00    -0.248 NA
ATOM     57  C   UNL A   1      47.052  27.178  27.863  1.00  0.00     0.031 C 
ATOM     58  C   UNL A   1      43.663  23.370  30.399  1.00  0.00     0.029 A 
ATOM     59  C   UNL A   1      44.705  24.147  29.888  1.00  0.00     0.049 A 
ATOM     60  H   UNL A   1      45.528  24.034  27.972  1.00  0.00     0.167 HD
ATOM     61  C   UNL A   1      46.317  26.047  29.745  1.00  0.00     0.074 A 
ATOM     62  C   UNL A   1      46.831  25.966  28.381  1.00  0.00     0.031 C 
ATOM     63  C   UNL A   1      45.455  25.254  30.447  1.00  0.00     0.031 A 
BRANCH  50  64
ATOM     64  C   UNL A   1      44.228  22.930  25.686  1.00  0.00    -0.014 A 
ATOM     65  C   UNL A   1      44.372  21.549  25.432  1.00  0.00     0.009 A 
ATOM     66  C   UNL A   1      45.190  23.773  25.102  1.00  0.00     0.009 A 
ATOM     67  C   UNL A   1      45.469  21.041  24.724  1.00  0.00     0.001 A 
ATOM     68  C   UNL A   1      46.268  23.271  24.365  1.00  0.00     0.001 A 
ATOM     69  C   UNL A   1      46.425  21.904  24.202  1.00  0.00     0.000 A 
ENDBRANCH  50  64
BRANCH  51  70
ATOM     70  C   UNL A   1      47.086  30.494  28.500  1.00  0.00    -0.014 A 
ATOM     71  C   UNL A   1      48.351  30.577  29.104  1.00  0.00     0.009 A 
ATOM     72  C   UNL A   1      46.828  31.330  27.399  1.00  0.00     0.009 A 
ATOM     73  C   UNL A   1      49.344  31.418  28.585  1.00  0.00     0.001 A 
ATOM     74  C   UNL A   1      47.819  32.171  26.882  1.00  0.00     0.001 A 
ATOM     75  C   UNL A   1      49.084  32.199  27.462  1.00  0.00     0.000 A 
ENDBRANCH  51  70
BRANCH  63  76
ATOM     76  C   UNL A   1      45.121  25.669  31.855  1.00  0.00    -0.014 A 
ATOM     77  C   UNL A   1      44.126  26.605  32.184  1.00  0.00     0.009 A 
ATOM     78  C   UNL A   1      45.783  25.004  32.898  1.00  0.00     0.009 A 
ATOM     79  C   UNL A   1      43.825  26.883  33.522  1.00  0.00     0.001 A 
ATOM     80  C   UNL A   1      45.465  25.262  34.230  1.00  0.00     0.001 A 
ATOM     81  C   UNL A   1      44.490  26.208  34.543  1.00  0.00     0.000 A 
ENDBRANCH  63  76
ENDBRANCH  37  38
ENDBRANCH  29  32
ENDBRANCH  27  28
ENDBRANCH   1  27
TORSDOF 13
ENDMDL
MODEL 2
REMARK VINA RESULT:     -12.1      1.862      5.980
REMARK SMILES COc1ccccc1-n1nnc(C(=O)NCCCNC(=O)c2ccc(-c3c4nc(c(-c5ccccc5)c5ccc([nH]5)c(-c5ccccc5)c5nc(c(-c6ccccc6)c6ccc3[nH]6)C=C5)C=C4)cc2)c1-c1ccc(Cl)cc1
REMARK SMILES IDX 17 1 16 2 15 3 13 4 14 5 12 7 9 8 10 9 70 10 11 11 8 12 3 13
REMARK SMILES IDX 4 14 5 15 7 16 6 17 2 18 1 19 71 20 72 21 77 22 73 23 76 24
REMARK SMILES IDX 74 25 75 26 18 27 19 28 20 29 21 31 22 32 23 33 69 34 24 35
REMARK SMILES IDX 68 36 25 37 26 38 27 39 62 40 28 41 67 42 61 43 63 44 29 45
REMARK SMILES IDX 66 46 60 47 59 48 30 50 52 51 37 52 51 53 38 54 41 55 50 56
REMARK SMILES IDX 64 57 39 58 40 59 49 61 65 62 42 63 31 64 32 65 36 66 33 67
REMARK SMILES IDX 35 68 34 69 53 70 54 71 58 72 55 73 57 74 56 75 43 76 44 77
REMARK SMILES IDX 48 78 45 79 47 80 46 81
REMARK H PARENT 15 6 19 30 63 49 41 60
REMARK Flexibility Score: inf
ROOT
ATOM      1  C   UNL A   1      34.272  28.363  26.332  1.00  0.00     0.042 C 
ENDROOT
BRANCH   1   2
ATOM      2  C   UNL A   1      33.322  28.819  25.230  1.00  0.00     0.118 C 
BRANCH   2   3
ATOM      3  N   UNL A   1      33.865  28.671  23.906  1.00  0.00    -0.351 N 
ATOM      4  C   UNL A   1      33.761  27.739  22.913  1.00  0.00     0.274 C 
ATOM      5  O   UNL A   1      34.313  28.086  21.862  1.00  0.00    -0.267 OA
ATOM      6  H   UNL A   1      34.451  29.421  23.655  1.00  0.00     0.163 HD
BRANCH   4   7
ATOM      7  C   UNL A   1      33.109  26.429  23.003  1.00  0.00     0.178 A 
ATOM      8  N   UNL A   1      32.237  24.441  23.272  1.00  0.00    -0.208 N 
ATOM      9  N   UNL A   1      31.371  25.141  22.526  1.00  0.00    -0.061 NA
ATOM     10  C   UNL A   1      33.426  25.148  23.462  1.00  0.00     0.108 A 
ATOM     11  N   UNL A   1      31.829  26.373  22.457  1.00  0.00    -0.124 NA
BRANCH   8  12
ATOM     12  C   UNL A   1      31.969  23.112  23.647  1.00  0.00     0.109 A 
ATOM     13  C   UNL A   1      31.706  22.783  24.982  1.00  0.00     0.144 A 
ATOM     14  C   UNL A   1      31.881  21.460  25.386  1.00  0.00     0.049 A 
ATOM     15  C   UNL A   1      32.255  20.478  24.464  1.00  0.00     0.004 A 
ATOM     16  C   UNL A   1      32.256  22.120  22.696  1.00  0.00     0.032 A 
ATOM     17  C   UNL A   1      32.416  20.802  23.117  1.00  0.00     0.003 A 
BRANCH  13  18
ATOM     18  O   UNL A   1      31.388  23.657  25.987  1.00  0.00    -0.494 OA
ATOM     19  C   UNL A   1      30.348  23.247  26.877  1.00  0.00     0.278 C 
ENDBRANCH  13  18
ENDBRANCH   8  12
BRANCH  10  20
ATOM     20  C   UNL A   1      34.622  24.448  23.933  1.00  0.00     0.003 A 
ATOM     21  C   UNL A   1      35.394  23.637  23.093  1.00  0.00     0.012 A 
ATOM     22  C   UNL A   1      35.052  24.649  25.258  1.00  0.00     0.012 A 
ATOM     23  C   UNL A   1      36.488  22.929  23.600  1.00  0.00     0.021 A 
ATOM     24  C   UNL A   1      36.156  23.956  25.762  1.00  0.00     0.021 A 
ATOM     25  C   UNL A   1      36.848  23.074  24.938  1.00  0.00     0.041 A 
ATOM     26  Cl  UNL A   1      38.110  22.111  25.594  1.00  0.00    -0.084 Cl
ENDBRANCH  10  20
ENDBRANCH   4   7
ENDBRANCH   2   3
ENDBRANCH   1   2
BRANCH   1  27
ATOM     27  C   UNL A   1      34.294  29.333  27.499  1.00  0.00     0.118 C 
BRANCH  27  28
ATOM     28  N   UNL A   1      34.663  30.707  27.134  1.00  0.00    -0.352 N 
ATOM     29  C   UNL A   1      35.560  31.542  27.783  1.00  0.00     0.251 C 
ATOM     30  H   UNL A   1      34.224  31.078  26.335  1.00  0.00     0.163 HD
ATOM     31  O   UNL A   1      35.573  32.753  27.596  1.00  0.00    -0.269 OA
BRANCH  29  32
ATOM     32  C   UNL A   1      36.506  30.918  28.720  1.00  0.00     0.039 A 
ATOM     33  C   UNL A   1      36.214  29.714  29.363  1.00  0.00     0.014 A 
ATOM     34  C   UNL A   1      37.784  31.462  28.743  1.00  0.00     0.014 A 
ATOM     35  C   UNL A   1      37.270  28.981  29.898  1.00  0.00     0.010 A 
ATOM     36  C   UNL A   1      38.830  30.640  29.067  1.00  0.00     0.010 A 
ATOM     37  C   UNL A   1      38.590  29.417  29.684  1.00  0.00    -0.014 A 
BRANCH  37  38
ATOM     38  C   UNL A   1      39.729  28.532  29.924  1.00  0.00     0.031 A 
ATOM     39  C   UNL A   1      40.136  28.446  31.352  1.00  0.00     0.074 A 
ATOM     40  C   UNL A   1      40.245  27.699  28.991  1.00  0.00     0.049 A 
ATOM     41  N   UNL A   1      41.143  29.036  31.902  1.00  0.00    -0.248 NA
ATOM     42  C   UNL A   1      39.236  27.791  32.317  1.00  0.00     0.031 C 
ATOM     43  C   UNL A   1      39.745  27.448  27.631  1.00  0.00     0.029 A 
ATOM     44  N   UNL A   1      41.275  26.813  29.091  1.00  0.00    -0.354 N 
ATOM     45  C   UNL A   1      41.158  28.609  33.226  1.00  0.00     0.074 A 
ATOM     46  C   UNL A   1      39.855  28.048  33.473  1.00  0.00     0.031 C 
ATOM     47  C   UNL A   1      40.310  26.327  27.132  1.00  0.00     0.029 A 
ATOM     48  C   UNL A   1      41.354  25.901  28.041  1.00  0.00     0.049 A 
ATOM     49  H   UNL A   1      41.912  26.817  29.843  1.00  0.00     0.167 HD
ATOM     50  C   UNL A   1      42.343  28.453  33.882  1.00  0.00     0.031 A 
ATOM     51  C   UNL A   1      42.232  24.880  27.903  1.00  0.00     0.031 A 
ATOM     52  C   UNL A   1      43.423  29.025  33.112  1.00  0.00     0.049 A 
ATOM     53  C   UNL A   1      43.400  25.201  28.745  1.00  0.00     0.074 A 
ATOM     54  C   UNL A   1      43.816  30.284  32.718  1.00  0.00     0.029 A 
ATOM     55  N   UNL A   1      44.033  28.125  32.273  1.00  0.00    -0.354 N 
ATOM     56  N   UNL A   1      44.209  26.188  28.487  1.00  0.00    -0.248 NA
ATOM     57  C   UNL A   1      43.477  24.666  30.096  1.00  0.00     0.031 C 
ATOM     58  C   UNL A   1      44.452  30.109  31.451  1.00  0.00     0.029 A 
ATOM     59  C   UNL A   1      44.495  28.747  31.148  1.00  0.00     0.049 A 
ATOM     60  H   UNL A   1      44.124  27.161  32.457  1.00  0.00     0.167 HD
ATOM     61  C   UNL A   1      44.535  26.693  29.731  1.00  0.00     0.074 A 
ATOM     62  C   UNL A   1      44.222  25.617  30.667  1.00  0.00     0.031 C 
ATOM     63  C   UNL A   1      44.721  28.033  29.907  1.00  0.00     0.031 A 
BRANCH  50  64
ATOM     64  C   UNL A   1      42.630  27.343  34.879  1.00  0.00    -0.014 A 
ATOM     65  C   UNL A   1      42.829  26.040  34.376  1.00  0.00     0.009 A 
ATOM     66  C   UNL A   1      42.411  27.448  36.264  1.00  0.00     0.009 A 
ATOM     67  C   UNL A   1      42.713  24.909  35.194  1.00  0.00     0.001 A 
ATOM     68  C   UNL A   1      42.328  26.322  37.090  1.00  0.00     0.001 A 
ATOM     69  C   UNL A   1      42.448  25.051  36.551  1.00  0.00     0.000 A 
ENDBRANCH  50  64
BRANCH  51  70
ATOM     70  C   UNL A   1      42.111  23.586  27.203  1.00  0.00    -0.014 A 
ATOM     71  C   UNL A   1      43.042  23.211  26.222  1.00  0.00     0.009 A 
ATOM     72  C   UNL A   1      41.255  22.592  27.711  1.00  0.00     0.009 A 
ATOM     73  C   UNL A   1      43.159  21.877  25.810  1.00  0.00     0.001 A 
ATOM     74  C   UNL A   1      41.371  21.260  27.299  1.00  0.00     0.001 A 
ATOM     75  C   UNL A   1      42.337  20.899  26.364  1.00  0.00     0.000 A 
ENDBRANCH  51  70
BRANCH  63  76
ATOM     76  C   UNL A   1      45.006  28.861  28.682  1.00  0.00    -0.014 A 
ATOM     77  C   UNL A   1      44.021  29.541  27.946  1.00  0.00     0.009 A 
ATOM     78  C   UNL A   1      46.350  29.036  28.319  1.00  0.00     0.009 A 
ATOM     79  C   UNL A   1      44.376  30.351  26.861  1.00  0.00     0.001 A 
ATOM     80  C   UNL A   1      46.705  29.862  27.254  1.00  0.00     0.001 A 
ATOM     81  C   UNL A   1      45.717  30.515  26.520  1.00  0.00     0.000 A 
ENDBRANCH  63  76
ENDBRANCH  37  38
ENDBRANCH  29  32
ENDBRANCH  27  28
ENDBRANCH   1  27
TORSDOF 13
ENDMDL
MODEL 3
REMARK VINA RESULT:     -12.0      2.764      7.091
REMARK SMILES COc1ccccc1-n1nnc(C(=O)NCCCNC(=O)c2ccc(-c3c4nc(c(-c5ccccc5)c5ccc([nH]5)c(-c5ccccc5)c5nc(c(-c6ccccc6)c6ccc3[nH]6)C=C5)C=C4)cc2)c1-c1ccc(Cl)cc1
REMARK SMILES IDX 17 1 16 2 15 3 13 4 14 5 12 7 9 8 10 9 70 10 11 11 8 12 3 13
REMARK SMILES IDX 4 14 5 15 7 16 6 17 2 18 1 19 71 20 72 21 77 22 73 23 76 24
REMARK SMILES IDX 74 25 75 26 18 27 19 28 20 29 21 31 22 32 23 33 69 34 24 35
REMARK SMILES IDX 68 36 25 37 26 38 27 39 62 40 28 41 67 42 61 43 63 44 29 45
REMARK SMILES IDX 66 46 60 47 59 48 30 50 52 51 37 52 51 53 38 54 41 55 50 56
REMARK SMILES IDX 64 57 39 58 40 59 49 61 65 62 42 63 31 64 32 65 36 66 33 67
REMARK SMILES IDX 35 68 34 69 53 70 54 71 58 72 55 73 57 74 56 75 43 76 44 77
REMARK SMILES IDX 48 78 45 79 47 80 46 81
REMARK H PARENT 15 6 19 30 63 49 41 60
REMARK Flexibility Score: inf
ROOT
ATOM      1  C   UNL A   1      37.007  21.985  24.830  1.00  0.00     0.042 C 
ENDROOT
BRANCH   1   2
ATOM      2  C   UNL A   1      36.256  23.232  25.283  1.00  0.00     0.118 C 
BRANCH   2   3
ATOM      3  N   UNL A   1      35.415  23.013  26.430  1.00  0.00    -0.351 N 
ATOM      4  C   UNL A   1      34.079  23.132  26.690  1.00  0.00     0.274 C 
ATOM      5  O   UNL A   1      33.763  22.705  27.806  1.00  0.00    -0.267 OA
ATOM      6  H   UNL A   1      35.923  22.703  27.213  1.00  0.00     0.163 HD
BRANCH   4   7
ATOM      7  C   UNL A   1      33.062  23.715  25.811  1.00  0.00     0.178 A 
ATOM      8  N   UNL A   1      31.636  24.731  24.498  1.00  0.00    -0.208 N 
ATOM      9  N   UNL A   1      31.401  23.417  24.374  1.00  0.00    -0.061 NA
ATOM     10  C   UNL A   1      32.559  24.985  25.515  1.00  0.00     0.108 A 
ATOM     11  N   UNL A   1      32.330  22.792  25.069  1.00  0.00    -0.124 NA
BRANCH   8  12
ATOM     12  C   UNL A   1      30.895  25.676  23.767  1.00  0.00     0.109 A 
ATOM     13  C   UNL A   1      31.522  26.519  22.842  1.00  0.00     0.144 A 
ATOM     14  C   UNL A   1      30.876  27.699  22.475  1.00  0.00     0.049 A 
ATOM     15  C   UNL A   1      29.608  28.002  22.978  1.00  0.00     0.004 A 
ATOM     16  C   UNL A   1      29.585  25.925  24.208  1.00  0.00     0.032 A 
ATOM     17  C   UNL A   1      28.952  27.105  23.821  1.00  0.00     0.003 A 
BRANCH  13  18
ATOM     18  O   UNL A   1      32.779  26.361  22.321  1.00  0.00    -0.494 OA
ATOM     19  C   UNL A   1      32.907  25.420  21.254  1.00  0.00     0.278 C 
ENDBRANCH  13  18
ENDBRANCH   8  12
BRANCH  10  20
ATOM     20  C   UNL A   1      32.694  26.339  26.054  1.00  0.00     0.003 A 
ATOM     21  C   UNL A   1      31.727  26.911  26.890  1.00  0.00     0.012 A 
ATOM     22  C   UNL A   1      33.866  27.069  25.781  1.00  0.00     0.012 A 
ATOM     23  C   UNL A   1      31.859  28.233  27.325  1.00  0.00     0.021 A 
ATOM     24  C   UNL A   1      34.008  28.384  26.230  1.00  0.00     0.021 A 
ATOM     25  C   UNL A   1      32.987  28.970  26.973  1.00  0.00     0.041 A 
ATOM     26  Cl  UNL A   1      33.092  30.630  27.399  1.00  0.00    -0.084 Cl
ENDBRANCH  10  20
ENDBRANCH   4   7
ENDBRANCH   2   3
ENDBRANCH   1   2
BRANCH   1  27
ATOM     27  C   UNL A   1      38.313  21.806  25.581  1.00  0.00     0.118 C 
BRANCH  27  28
ATOM     28  N   UNL A   1      38.801  20.421  25.625  1.00  0.00    -0.352 N 
ATOM     29  C   UNL A   1      40.091  19.987  25.886  1.00  0.00     0.251 C 
ATOM     30  H   UNL A   1      38.133  19.720  25.449  1.00  0.00     0.163 HD
ATOM     31  O   UNL A   1      40.467  18.856  25.599  1.00  0.00    -0.269 OA
BRANCH  29  32
ATOM     32  C   UNL A   1      41.009  20.943  26.522  1.00  0.00     0.039 A 
ATOM     33  C   UNL A   1      41.750  21.858  25.773  1.00  0.00     0.014 A 
ATOM     34  C   UNL A   1      40.918  21.043  27.904  1.00  0.00     0.014 A 
ATOM     35  C   UNL A   1      42.269  22.974  26.422  1.00  0.00     0.010 A 
ATOM     36  C   UNL A   1      41.233  22.241  28.488  1.00  0.00     0.010 A 
ATOM     37  C   UNL A   1      41.946  23.197  27.774  1.00  0.00    -0.014 A 
BRANCH  37  38
ATOM     38  C   UNL A   1      42.177  24.497  28.403  1.00  0.00     0.031 A 
ATOM     39  C   UNL A   1      41.126  25.507  28.107  1.00  0.00     0.074 A 
ATOM     40  C   UNL A   1      43.130  24.721  29.337  1.00  0.00     0.049 A 
ATOM     41  N   UNL A   1      41.211  26.482  27.266  1.00  0.00    -0.248 NA
ATOM     42  C   UNL A   1      39.772  25.317  28.657  1.00  0.00     0.031 C 
ATOM     43  C   UNL A   1      44.035  23.742  29.956  1.00  0.00     0.029 A 
ATOM     44  N   UNL A   1      43.430  25.865  30.015  1.00  0.00    -0.354 N 
ATOM     45  C   UNL A   1      40.017  27.187  27.380  1.00  0.00     0.074 A 
ATOM     46  C   UNL A   1      39.103  26.307  28.060  1.00  0.00     0.031 C 
ATOM     47  C   UNL A   1      44.600  24.271  31.064  1.00  0.00     0.029 A 
ATOM     48  C   UNL A   1      44.263  25.679  31.116  1.00  0.00     0.049 A 
ATOM     49  H   UNL A   1      43.087  26.749  29.748  1.00  0.00     0.167 HD
ATOM     50  C   UNL A   1      40.003  28.539  27.208  1.00  0.00     0.031 A 
ATOM     51  C   UNL A   1      44.679  26.617  31.999  1.00  0.00     0.031 A 
ATOM     52  C   UNL A   1      41.264  28.991  26.667  1.00  0.00     0.049 A 
ATOM     53  C   UNL A   1      44.555  27.925  31.327  1.00  0.00     0.074 A 
ATOM     54  C   UNL A   1      41.953  28.855  25.484  1.00  0.00     0.029 A 
ATOM     55  N   UNL A   1      42.172  29.355  27.631  1.00  0.00    -0.354 N 
ATOM     56  N   UNL A   1      45.294  28.274  30.314  1.00  0.00    -0.248 NA
ATOM     57  C   UNL A   1      43.355  28.722  31.531  1.00  0.00     0.031 C 
ATOM     58  C   UNL A   1      43.336  28.879  25.840  1.00  0.00     0.029 A 
ATOM     59  C   UNL A   1      43.448  29.104  27.213  1.00  0.00     0.049 A 
ATOM     60  H   UNL A   1      41.936  29.744  28.504  1.00  0.00     0.167 HD
ATOM     61  C   UNL A   1      44.437  28.991  29.502  1.00  0.00     0.074 A 
ATOM     62  C   UNL A   1      43.340  29.395  30.376  1.00  0.00     0.031 C 
ATOM     63  C   UNL A   1      44.543  28.913  28.143  1.00  0.00     0.031 A 
BRANCH  50  64
ATOM     64  C   UNL A   1      39.138  29.496  28.012  1.00  0.00    -0.014 A 
ATOM     65  C   UNL A   1      39.554  29.819  29.321  1.00  0.00     0.009 A 
ATOM     66  C   UNL A   1      37.816  29.839  27.678  1.00  0.00     0.009 A 
ATOM     67  C   UNL A   1      38.669  30.357  30.264  1.00  0.00     0.001 A 
ATOM     68  C   UNL A   1      36.938  30.407  28.608  1.00  0.00     0.001 A 
ATOM     69  C   UNL A   1      37.355  30.638  29.909  1.00  0.00     0.000 A 
ENDBRANCH  50  64
BRANCH  51  70
ATOM     70  C   UNL A   1      45.065  26.506  33.419  1.00  0.00    -0.014 A 
ATOM     71  C   UNL A   1      44.088  26.447  34.426  1.00  0.00     0.009 A 
ATOM     72  C   UNL A   1      46.383  26.156  33.762  1.00  0.00     0.009 A 
ATOM     73  C   UNL A   1      44.405  25.992  35.713  1.00  0.00     0.001 A 
ATOM     74  C   UNL A   1      46.700  25.702  35.047  1.00  0.00     0.001 A 
ATOM     75  C   UNL A   1      45.705  25.600  36.017  1.00  0.00     0.000 A 
ENDBRANCH  51  70
BRANCH  63  76
ATOM     76  C   UNL A   1      45.847  28.415  27.576  1.00  0.00    -0.014 A 
ATOM     77  C   UNL A   1      46.109  27.068  27.275  1.00  0.00     0.009 A 
ATOM     78  C   UNL A   1      46.814  29.374  27.243  1.00  0.00     0.009 A 
ATOM     79  C   UNL A   1      47.320  26.694  26.680  1.00  0.00     0.001 A 
ATOM     80  C   UNL A   1      48.009  29.005  26.628  1.00  0.00     0.001 A 
ATOM     81  C   UNL A   1      48.266  27.663  26.353  1.00  0.00     0.000 A 
ENDBRANCH  63  76
ENDBRANCH  37  38
ENDBRANCH  29  32
ENDBRANCH  27  28
ENDBRANCH   1  27
TORSDOF 13
ENDMDL
