MODEL 1
REMARK VINA RESULT:     -13.2      0.000      0.000
REMARK SMILES CN1C(=O)C[C@@H](C(=O)NCCCNC(=O)c2ccc(-c3c4nc(c(-c5ccccc5)c5ccc([nH]5)c(-c5ccccc5)c5nc(c(-c6ccccc6)c6ccc3[nH]6)C=C5)C=C4)cc2)C12CCN(C(=O)c1cccc3ccccc13)CC2
REMARK SMILES IDX 11 1 10 2 9 3 7 4 8 5 6 7 1 8 2 9 3 10 64 11 4 12 5 13 65 14
REMARK SMILES IDX 81 15 66 16 80 17 67 18 68 19 69 20 70 21 71 22 79 23 72 24
REMARK SMILES IDX 74 25 78 26 73 27 75 28 77 29 76 30 12 31 13 32 14 33 15 35
REMARK SMILES IDX 16 36 17 37 63 38 18 39 62 40 19 41 20 42 21 43 56 44 22 45
REMARK SMILES IDX 61 46 55 47 57 48 23 49 60 50 54 51 53 52 24 54 46 55 31 56
REMARK SMILES IDX 45 57 32 58 35 59 44 60 58 61 33 62 34 63 43 65 59 66 36 67
REMARK SMILES IDX 25 68 26 69 30 70 27 71 29 72 28 73 47 74 48 75 52 76 49 77
REMARK SMILES IDX 51 78 50 79 37 80 38 81 42 82 39 83 41 84 40 85
REMARK H PARENT 9 6 13 34 57 53 35 64
REMARK Flexibility Score: inf
ROOT
ATOM      1  C   UNL A   1      31.031  31.558  26.027  1.00  0.00     0.042 C 
ENDROOT
BRANCH   1   2
ATOM      2  C   UNL A   1      31.172  30.180  25.377  1.00  0.00     0.117 C 
BRANCH   2   3
ATOM      3  N   UNL A   1      32.497  29.901  24.835  1.00  0.00    -0.356 N 
ATOM      4  C   UNL A   1      32.962  29.330  23.697  1.00  0.00     0.226 C 
ATOM      5  O   UNL A   1      34.192  29.343  23.560  1.00  0.00    -0.275 OA
ATOM      6  H   UNL A   1      33.221  30.193  25.436  1.00  0.00     0.163 HD
BRANCH   4   7
ATOM      7  C   UNL A   1      32.117  28.641  22.624  1.00  0.00     0.113 C 
ATOM      8  C   UNL A   1      29.102  26.882  23.959  1.00  0.00     0.147 C 
ATOM      9  N   UNL A   1      30.085  27.697  23.271  1.00  0.00    -0.339 N 
ATOM     10  C   UNL A   1      29.747  28.918  22.697  1.00  0.00     0.223 C 
ATOM     11  C   UNL A   1      31.470  27.287  22.995  1.00  0.00     0.058 C 
ATOM     12  O   UNL A   1      28.650  29.446  22.700  1.00  0.00    -0.275 OA
ATOM     13  C   UNL A   1      30.987  29.526  22.103  1.00  0.00     0.116 C 
ATOM     14  C   UNL A   1      32.188  26.570  24.159  1.00  0.00     0.051 C 
ATOM     15  C   UNL A   1      31.435  26.307  21.781  1.00  0.00     0.051 C 
ATOM     16  C   UNL A   1      33.572  26.054  23.758  1.00  0.00     0.122 C 
ATOM     17  C   UNL A   1      32.770  25.623  21.488  1.00  0.00     0.122 C 
ATOM     18  N   UNL A   1      33.390  25.085  22.699  1.00  0.00    -0.338 N 
ATOM     19  C   UNL A   1      33.731  23.737  22.753  1.00  0.00     0.254 C 
ATOM     20  O   UNL A   1      33.383  22.943  21.878  1.00  0.00    -0.269 OA
BRANCH  19  21
ATOM     21  C   UNL A   1      34.654  23.194  23.789  1.00  0.00     0.047 A 
ATOM     22  C   UNL A   1      35.923  22.862  23.280  1.00  0.00     0.014 A 
ATOM     23  C   UNL A   1      34.277  22.801  25.106  1.00  0.00    -0.006 A 
ATOM     24  C   UNL A   1      36.806  22.091  24.026  1.00  0.00     0.001 A 
ATOM     25  C   UNL A   1      35.185  21.988  25.837  1.00  0.00    -0.018 A 
ATOM     26  C   UNL A   1      33.069  23.147  25.756  1.00  0.00     0.009 A 
ATOM     27  C   UNL A   1      36.423  21.629  25.281  1.00  0.00     0.009 A 
ATOM     28  C   UNL A   1      34.853  21.527  27.122  1.00  0.00     0.009 A 
ATOM     29  C   UNL A   1      32.795  22.761  27.073  1.00  0.00     0.001 A 
ATOM     30  C   UNL A   1      33.676  21.929  27.746  1.00  0.00     0.001 A 
ENDBRANCH  19  21
ENDBRANCH   4   7
ENDBRANCH   2   3
ENDBRANCH   1   2
BRANCH   1  31
ATOM     31  C   UNL A   1      32.227  31.963  26.879  1.00  0.00     0.118 C 
BRANCH  31  32
ATOM     32  N   UNL A   1      32.160  33.371  27.233  1.00  0.00    -0.352 N 
ATOM     33  C   UNL A   1      32.919  34.075  28.136  1.00  0.00     0.251 C 
ATOM     34  H   UNL A   1      31.474  33.895  26.760  1.00  0.00     0.163 HD
ATOM     35  O   UNL A   1      32.515  35.152  28.564  1.00  0.00    -0.269 OA
BRANCH  33  36
ATOM     36  C   UNL A   1      34.222  33.542  28.594  1.00  0.00     0.039 A 
ATOM     37  C   UNL A   1      35.378  33.855  27.872  1.00  0.00     0.014 A 
ATOM     38  C   UNL A   1      34.299  32.691  29.698  1.00  0.00     0.014 A 
ATOM     39  C   UNL A   1      36.613  33.347  28.286  1.00  0.00     0.010 A 
ATOM     40  C   UNL A   1      35.539  32.257  30.160  1.00  0.00     0.010 A 
ATOM     41  C   UNL A   1      36.708  32.565  29.449  1.00  0.00    -0.014 A 
BRANCH  41  42
ATOM     42  C   UNL A   1      38.013  32.037  29.923  1.00  0.00     0.031 A 
ATOM     43  C   UNL A   1      38.525  30.715  29.410  1.00  0.00     0.074 A 
ATOM     44  C   UNL A   1      38.710  32.711  30.858  1.00  0.00     0.049 A 
ATOM     45  N   UNL A   1      39.600  30.055  29.758  1.00  0.00    -0.248 NA
ATOM     46  C   UNL A   1      37.706  30.033  28.393  1.00  0.00     0.031 C 
ATOM     47  C   UNL A   1      38.308  33.984  31.464  1.00  0.00     0.029 A 
ATOM     48  N   UNL A   1      39.903  32.417  31.470  1.00  0.00    -0.354 N 
ATOM     49  C   UNL A   1      39.573  28.875  29.023  1.00  0.00     0.074 A 
ATOM     50  C   UNL A   1      38.353  28.885  28.248  1.00  0.00     0.031 C 
ATOM     51  C   UNL A   1      39.250  34.371  32.339  1.00  0.00     0.029 A 
ATOM     52  C   UNL A   1      40.298  33.359  32.391  1.00  0.00     0.049 A 
ATOM     53  H   UNL A   1      40.426  31.608  31.269  1.00  0.00     0.167 HD
ATOM     54  C   UNL A   1      40.492  27.882  28.979  1.00  0.00     0.031 A 
ATOM     55  C   UNL A   1      41.377  33.396  33.195  1.00  0.00     0.031 A 
ATOM     56  C   UNL A   1      41.718  27.881  29.731  1.00  0.00     0.049 A 
ATOM     57  C   UNL A   1      42.377  32.273  33.133  1.00  0.00     0.074 A 
ATOM     58  C   UNL A   1      42.743  26.952  29.708  1.00  0.00     0.029 A 
ATOM     59  N   UNL A   1      42.085  28.860  30.641  1.00  0.00    -0.354 N 
ATOM     60  N   UNL A   1      42.370  31.200  32.380  1.00  0.00    -0.248 NA
ATOM     61  C   UNL A   1      43.540  32.374  34.026  1.00  0.00     0.031 C 
ATOM     62  C   UNL A   1      43.703  27.338  30.646  1.00  0.00     0.029 A 
ATOM     63  C   UNL A   1      43.308  28.541  31.206  1.00  0.00     0.049 A 
ATOM     64  H   UNL A   1      41.555  29.662  30.854  1.00  0.00     0.167 HD
ATOM     65  C   UNL A   1      43.540  30.516  32.683  1.00  0.00     0.074 A 
ATOM     66  C   UNL A   1      44.240  31.304  33.676  1.00  0.00     0.031 C 
ATOM     67  C   UNL A   1      43.994  29.340  32.187  1.00  0.00     0.031 A 
BRANCH  54  68
ATOM     68  C   UNL A   1      40.207  26.703  28.088  1.00  0.00    -0.014 A 
ATOM     69  C   UNL A   1      40.687  26.653  26.769  1.00  0.00     0.009 A 
ATOM     70  C   UNL A   1      39.498  25.602  28.594  1.00  0.00     0.009 A 
ATOM     71  C   UNL A   1      40.435  25.538  25.966  1.00  0.00     0.001 A 
ATOM     72  C   UNL A   1      39.273  24.477  27.799  1.00  0.00     0.001 A 
ATOM     73  C   UNL A   1      39.735  24.449  26.483  1.00  0.00     0.000 A 
ENDBRANCH  54  68
BRANCH  55  74
ATOM     74  C   UNL A   1      41.579  34.535  34.130  1.00  0.00    -0.014 A 
ATOM     75  C   UNL A   1      41.049  34.496  35.430  1.00  0.00     0.009 A 
ATOM     76  C   UNL A   1      42.277  35.681  33.719  1.00  0.00     0.009 A 
ATOM     77  C   UNL A   1      41.183  35.594  36.283  1.00  0.00     0.001 A 
ATOM     78  C   UNL A   1      42.439  36.764  34.587  1.00  0.00     0.001 A 
ATOM     79  C   UNL A   1      41.880  36.725  35.862  1.00  0.00     0.000 A 
ENDBRANCH  55  74
BRANCH  67  80
ATOM     80  C   UNL A   1      45.331  28.856  32.676  1.00  0.00    -0.014 A 
ATOM     81  C   UNL A   1      45.448  28.083  33.841  1.00  0.00     0.009 A 
ATOM     82  C   UNL A   1      46.485  29.142  31.929  1.00  0.00     0.009 A 
ATOM     83  C   UNL A   1      46.700  27.636  34.267  1.00  0.00     0.001 A 
ATOM     84  C   UNL A   1      47.731  28.667  32.340  1.00  0.00     0.001 A 
ATOM     85  C   UNL A   1      47.839  27.923  33.513  1.00  0.00     0.000 A 
ENDBRANCH  67  80
ENDBRANCH  41  42
ENDBRANCH  33  36
ENDBRANCH  31  32
ENDBRANCH   1  31
TORSDOF 11
ENDMDL
MODEL 2
REMARK VINA RESULT:     -13.2      3.286      8.909
REMARK SMILES CN1C(=O)C[C@@H](C(=O)NCCCNC(=O)c2ccc(-c3c4nc(c(-c5ccccc5)c5ccc([nH]5)c(-c5ccccc5)c5nc(c(-c6ccccc6)c6ccc3[nH]6)C=C5)C=C4)cc2)C12CCN(C(=O)c1cccc3ccccc13)CC2
REMARK SMILES IDX 11 1 10 2 9 3 7 4 8 5 6 7 1 8 2 9 3 10 64 11 4 12 5 13 65 14
REMARK SMILES IDX 81 15 66 16 80 17 67 18 68 19 69 20 70 21 71 22 79 23 72 24
REMARK SMILES IDX 74 25 78 26 73 27 75 28 77 29 76 30 12 31 13 32 14 33 15 35
REMARK SMILES IDX 16 36 17 37 63 38 18 39 62 40 19 41 20 42 21 43 56 44 22 45
REMARK SMILES IDX 61 46 55 47 57 48 23 49 60 50 54 51 53 52 24 54 46 55 31 56
REMARK SMILES IDX 45 57 32 58 35 59 44 60 58 61 33 62 34 63 43 65 59 66 36 67
REMARK SMILES IDX 25 68 26 69 30 70 27 71 29 72 28 73 47 74 48 75 52 76 49 77
REMARK SMILES IDX 51 78 50 79 37 80 38 81 42 82 39 83 41 84 40 85
REMARK H PARENT 9 6 13 34 57 53 35 64
REMARK Flexibility Score: inf
ROOT
ATOM      1  C   UNL A   1      37.217  19.504  24.958  1.00  0.00     0.042 C 
ENDROOT
BRANCH   1   2
ATOM      2  C   UNL A   1      35.975  20.395  24.906  1.00  0.00     0.117 C 
BRANCH   2   3
ATOM      3  N   UNL A   1      35.728  21.161  26.123  1.00  0.00    -0.356 N 
ATOM      4  C   UNL A   1      34.631  21.450  26.864  1.00  0.00     0.226 C 
ATOM      5  O   UNL A   1      34.844  22.086  27.904  1.00  0.00    -0.275 OA
ATOM      6  H   UNL A   1      36.550  21.562  26.490  1.00  0.00     0.163 HD
BRANCH   4   7
ATOM      7  C   UNL A   1      33.184  21.111  26.501  1.00  0.00     0.113 C 
ATOM      8  C   UNL A   1      32.474  21.205  22.833  1.00  0.00     0.147 C 
ATOM      9  N   UNL A   1      32.643  20.905  24.242  1.00  0.00    -0.339 N 
ATOM     10  C   UNL A   1      32.793  19.599  24.697  1.00  0.00     0.223 C 
ATOM     11  C   UNL A   1      32.549  21.892  25.328  1.00  0.00     0.058 C 
ATOM     12  O   UNL A   1      32.812  18.588  24.017  1.00  0.00    -0.275 OA
ATOM     13  C   UNL A   1      32.985  19.631  26.187  1.00  0.00     0.116 C 
ATOM     14  C   UNL A   1      33.243  23.243  25.050  1.00  0.00     0.051 C 
ATOM     15  C   UNL A   1      31.034  22.176  25.571  1.00  0.00     0.051 C 
ATOM     16  C   UNL A   1      32.990  24.265  26.161  1.00  0.00     0.122 C 
ATOM     17  C   UNL A   1      30.758  23.335  26.530  1.00  0.00     0.122 C 
ATOM     18  N   UNL A   1      31.566  24.513  26.214  1.00  0.00    -0.338 N 
ATOM     19  C   UNL A   1      30.937  25.732  25.982  1.00  0.00     0.254 C 
ATOM     20  O   UNL A   1      29.713  25.821  25.872  1.00  0.00    -0.269 OA
BRANCH  19  21
ATOM     21  C   UNL A   1      31.681  27.022  25.992  1.00  0.00     0.047 A 
ATOM     22  C   UNL A   1      31.412  27.808  27.128  1.00  0.00     0.014 A 
ATOM     23  C   UNL A   1      32.403  27.568  24.891  1.00  0.00    -0.006 A 
ATOM     24  C   UNL A   1      31.790  29.144  27.172  1.00  0.00     0.001 A 
ATOM     25  C   UNL A   1      32.752  28.944  24.947  1.00  0.00    -0.018 A 
ATOM     26  C   UNL A   1      32.806  26.857  23.735  1.00  0.00     0.009 A 
ATOM     27  C   UNL A   1      32.424  29.715  26.073  1.00  0.00     0.009 A 
ATOM     28  C   UNL A   1      33.422  29.554  23.873  1.00  0.00     0.009 A 
ATOM     29  C   UNL A   1      33.558  27.455  22.718  1.00  0.00     0.001 A 
ATOM     30  C   UNL A   1      33.843  28.810  22.775  1.00  0.00     0.001 A 
ENDBRANCH  19  21
ENDBRANCH   4   7
ENDBRANCH   2   3
ENDBRANCH   1   2
BRANCH   1  31
ATOM     31  C   UNL A   1      38.477  20.230  25.412  1.00  0.00     0.118 C 
BRANCH  31  32
ATOM     32  N   UNL A   1      39.559  19.291  25.660  1.00  0.00    -0.352 N 
ATOM     33  C   UNL A   1      40.868  19.543  25.987  1.00  0.00     0.251 C 
ATOM     34  H   UNL A   1      39.318  18.339  25.581  1.00  0.00     0.163 HD
ATOM     35  O   UNL A   1      41.716  18.671  25.822  1.00  0.00    -0.269 OA
BRANCH  33  36
ATOM     36  C   UNL A   1      41.261  20.859  26.539  1.00  0.00     0.039 A 
ATOM     37  C   UNL A   1      41.134  21.088  27.912  1.00  0.00     0.014 A 
ATOM     38  C   UNL A   1      41.702  21.884  25.700  1.00  0.00     0.014 A 
ATOM     39  C   UNL A   1      41.489  22.330  28.444  1.00  0.00     0.010 A 
ATOM     40  C   UNL A   1      42.136  23.091  26.241  1.00  0.00     0.010 A 
ATOM     41  C   UNL A   1      42.018  23.335  27.617  1.00  0.00    -0.014 A 
BRANCH  41  42
ATOM     42  C   UNL A   1      42.427  24.653  28.165  1.00  0.00     0.031 A 
ATOM     43  C   UNL A   1      41.401  25.740  28.364  1.00  0.00     0.074 A 
ATOM     44  C   UNL A   1      43.726  24.898  28.425  1.00  0.00     0.049 A 
ATOM     45  N   UNL A   1      41.574  26.976  28.758  1.00  0.00    -0.248 NA
ATOM     46  C   UNL A   1      40.002  25.402  28.052  1.00  0.00     0.031 C 
ATOM     47  C   UNL A   1      44.823  23.944  28.242  1.00  0.00     0.029 A 
ATOM     48  N   UNL A   1      44.347  26.029  28.896  1.00  0.00    -0.354 N 
ATOM     49  C   UNL A   1      40.315  27.565  28.719  1.00  0.00     0.074 A 
ATOM     50  C   UNL A   1      39.397  26.569  28.216  1.00  0.00     0.031 C 
ATOM     51  C   UNL A   1      45.976  24.521  28.620  1.00  0.00     0.029 A 
ATOM     52  C   UNL A   1      45.709  25.895  29.029  1.00  0.00     0.049 A 
ATOM     53  H   UNL A   1      43.862  26.857  29.115  1.00  0.00     0.167 HD
ATOM     54  C   UNL A   1      39.951  28.815  29.089  1.00  0.00     0.031 A 
ATOM     55  C   UNL A   1      46.639  26.784  29.426  1.00  0.00     0.031 A 
ATOM     56  C   UNL A   1      40.860  29.799  29.612  1.00  0.00     0.049 A 
ATOM     57  C   UNL A   1      46.207  28.170  29.821  1.00  0.00     0.074 A 
ATOM     58  C   UNL A   1      40.578  31.073  30.074  1.00  0.00     0.029 A 
ATOM     59  N   UNL A   1      42.228  29.619  29.744  1.00  0.00    -0.354 N 
ATOM     60  N   UNL A   1      45.002  28.686  29.845  1.00  0.00    -0.248 NA
ATOM     61  C   UNL A   1      47.266  29.093  30.257  1.00  0.00     0.031 C 
ATOM     62  C   UNL A   1      41.782  31.684  30.432  1.00  0.00     0.029 A 
ATOM     63  C   UNL A   1      42.806  30.769  30.253  1.00  0.00     0.049 A 
ATOM     64  H   UNL A   1      42.715  28.796  29.509  1.00  0.00     0.167 HD
ATOM     65  C   UNL A   1      45.153  29.980  30.327  1.00  0.00     0.074 A 
ATOM     66  C   UNL A   1      46.564  30.163  30.600  1.00  0.00     0.031 C 
ATOM     67  C   UNL A   1      44.210  30.932  30.525  1.00  0.00     0.031 A 
BRANCH  54  68
ATOM     68  C   UNL A   1      38.504  29.197  28.939  1.00  0.00    -0.014 A 
ATOM     69  C   UNL A   1      37.612  29.116  30.020  1.00  0.00     0.009 A 
ATOM     70  C   UNL A   1      38.039  29.698  27.713  1.00  0.00     0.009 A 
ATOM     71  C   UNL A   1      36.277  29.499  29.868  1.00  0.00     0.001 A 
ATOM     72  C   UNL A   1      36.712  30.110  27.572  1.00  0.00     0.001 A 
ATOM     73  C   UNL A   1      35.831  30.002  28.647  1.00  0.00     0.000 A 
ENDBRANCH  54  68
BRANCH  55  74
ATOM     74  C   UNL A   1      48.075  26.398  29.475  1.00  0.00    -0.014 A 
ATOM     75  C   UNL A   1      48.902  26.577  28.355  1.00  0.00     0.009 A 
ATOM     76  C   UNL A   1      48.620  25.821  30.632  1.00  0.00     0.009 A 
ATOM     77  C   UNL A   1      50.232  26.153  28.382  1.00  0.00     0.001 A 
ATOM     78  C   UNL A   1      49.959  25.428  30.667  1.00  0.00     0.001 A 
ATOM     79  C   UNL A   1      50.761  25.582  29.538  1.00  0.00     0.000 A 
ENDBRANCH  55  74
BRANCH  67  80
ATOM     80  C   UNL A   1      44.665  32.243  31.104  1.00  0.00    -0.014 A 
ATOM     81  C   UNL A   1      45.034  33.318  30.281  1.00  0.00     0.009 A 
ATOM     82  C   UNL A   1      44.678  32.416  32.498  1.00  0.00     0.009 A 
ATOM     83  C   UNL A   1      45.442  34.528  30.845  1.00  0.00     0.001 A 
ATOM     84  C   UNL A   1      45.056  33.637  33.057  1.00  0.00     0.001 A 
ATOM     85  C   UNL A   1      45.446  34.688  32.231  1.00  0.00     0.000 A 
ENDBRANCH  67  80
ENDBRANCH  41  42
ENDBRANCH  33  36
ENDBRANCH  31  32
ENDBRANCH   1  31
TORSDOF 11
ENDMDL
MODEL 3
REMARK VINA RESULT:     -13.2      0.335      5.761
REMARK SMILES CN1C(=O)C[C@@H](C(=O)NCCCNC(=O)c2ccc(-c3c4nc(c(-c5ccccc5)c5ccc([nH]5)c(-c5ccccc5)c5nc(c(-c6ccccc6)c6ccc3[nH]6)C=C5)C=C4)cc2)C12CCN(C(=O)c1cccc3ccccc13)CC2
REMARK SMILES IDX 11 1 10 2 9 3 7 4 8 5 6 7 1 8 2 9 3 10 64 11 4 12 5 13 65 14
REMARK SMILES IDX 81 15 66 16 80 17 67 18 68 19 69 20 70 21 71 22 79 23 72 24
REMARK SMILES IDX 74 25 78 26 73 27 75 28 77 29 76 30 12 31 13 32 14 33 15 35
REMARK SMILES IDX 16 36 17 37 63 38 18 39 62 40 19 41 20 42 21 43 56 44 22 45
REMARK SMILES IDX 61 46 55 47 57 48 23 49 60 50 54 51 53 52 24 54 46 55 31 56
REMARK SMILES IDX 45 57 32 58 35 59 44 60 58 61 33 62 34 63 43 65 59 66 36 67
REMARK SMILES IDX 25 68 26 69 30 70 27 71 29 72 28 73 47 74 48 75 52 76 49 77
REMARK SMILES IDX 51 78 50 79 37 80 38 81 42 82 39 83 41 84 40 85
REMARK H PARENT 9 6 13 34 57 53 35 64
REMARK Flexibility Score: inf
ROOT
ATOM      1  C   UNL A   1      31.027  31.807  26.069  1.00  0.00     0.042 C 
ENDROOT
BRANCH   1   2
ATOM      2  C   UNL A   1      31.087  30.422  25.422  1.00  0.00     0.117 C 
BRANCH   2   3
ATOM      3  N   UNL A   1      32.424  29.996  25.027  1.00  0.00    -0.356 N 
ATOM      4  C   UNL A   1      32.942  29.344  23.958  1.00  0.00     0.226 C 
ATOM      5  O   UNL A   1      34.175  29.232  23.949  1.00  0.00    -0.275 OA
ATOM      6  H   UNL A   1      33.110  30.239  25.691  1.00  0.00     0.163 HD
BRANCH   4   7
ATOM      7  C   UNL A   1      32.144  28.701  22.822  1.00  0.00     0.113 C 
ATOM      8  C   UNL A   1      29.127  26.814  23.960  1.00  0.00     0.147 C 
ATOM      9  N   UNL A   1      30.113  27.684  23.350  1.00  0.00    -0.339 N 
ATOM     10  C   UNL A   1      29.768  28.930  22.836  1.00  0.00     0.223 C 
ATOM     11  C   UNL A   1      31.514  27.317  23.096  1.00  0.00     0.058 C 
ATOM     12  O   UNL A   1      28.661  29.436  22.834  1.00  0.00    -0.275 OA
ATOM     13  C   UNL A   1      31.013  29.593  22.316  1.00  0.00     0.116 C 
ATOM     14  C   UNL A   1      32.210  26.548  24.240  1.00  0.00     0.051 C 
ATOM     15  C   UNL A   1      31.535  26.407  21.828  1.00  0.00     0.051 C 
ATOM     16  C   UNL A   1      33.616  26.081  23.853  1.00  0.00     0.122 C 
ATOM     17  C   UNL A   1      32.893  25.765  21.539  1.00  0.00     0.122 C 
ATOM     18  N   UNL A   1      33.485  25.170  22.736  1.00  0.00    -0.338 N 
ATOM     19  C   UNL A   1      33.852  23.829  22.725  1.00  0.00     0.254 C 
ATOM     20  O   UNL A   1      33.547  23.079  21.796  1.00  0.00    -0.269 OA
BRANCH  19  21
ATOM     21  C   UNL A   1      34.754  23.245  23.757  1.00  0.00     0.047 A 
ATOM     22  C   UNL A   1      36.024  22.905  23.255  1.00  0.00     0.014 A 
ATOM     23  C   UNL A   1      34.355  22.824  25.059  1.00  0.00    -0.006 A 
ATOM     24  C   UNL A   1      36.885  22.101  23.991  1.00  0.00     0.001 A 
ATOM     25  C   UNL A   1      35.242  21.978  25.780  1.00  0.00    -0.018 A 
ATOM     26  C   UNL A   1      33.145  23.172  25.704  1.00  0.00     0.009 A 
ATOM     27  C   UNL A   1      36.480  21.614  25.229  1.00  0.00     0.009 A 
ATOM     28  C   UNL A   1      34.886  21.490  27.048  1.00  0.00     0.009 A 
ATOM     29  C   UNL A   1      32.849  22.757  27.007  1.00  0.00     0.001 A 
ATOM     30  C   UNL A   1      33.708  21.894  27.669  1.00  0.00     0.001 A 
ENDBRANCH  19  21
ENDBRANCH   4   7
ENDBRANCH   2   3
ENDBRANCH   1   2
BRANCH   1  31
ATOM     31  C   UNL A   1      32.251  32.147  26.911  1.00  0.00     0.118 C 
BRANCH  31  32
ATOM     32  N   UNL A   1      32.234  33.544  27.313  1.00  0.00    -0.352 N 
ATOM     33  C   UNL A   1      33.016  34.189  28.238  1.00  0.00     0.251 C 
ATOM     34  H   UNL A   1      31.567  34.108  26.857  1.00  0.00     0.163 HD
ATOM     35  O   UNL A   1      32.651  35.266  28.702  1.00  0.00    -0.269 OA
BRANCH  33  36
ATOM     36  C   UNL A   1      34.299  33.595  28.678  1.00  0.00     0.039 A 
ATOM     37  C   UNL A   1      34.347  32.896  29.887  1.00  0.00     0.014 A 
ATOM     38  C   UNL A   1      35.464  33.771  27.928  1.00  0.00     0.014 A 
ATOM     39  C   UNL A   1      35.554  32.341  30.321  1.00  0.00     0.010 A 
ATOM     40  C   UNL A   1      36.645  33.145  28.317  1.00  0.00     0.010 A 
ATOM     41  C   UNL A   1      36.709  32.438  29.526  1.00  0.00    -0.014 A 
BRANCH  41  42
ATOM     42  C   UNL A   1      37.996  31.833  29.953  1.00  0.00     0.031 A 
ATOM     43  C   UNL A   1      38.915  32.587  30.880  1.00  0.00     0.074 A 
ATOM     44  C   UNL A   1      38.371  30.635  29.462  1.00  0.00     0.049 A 
ATOM     45  N   UNL A   1      40.109  32.260  31.305  1.00  0.00    -0.248 NA
ATOM     46  C   UNL A   1      38.442  33.892  31.372  1.00  0.00     0.031 C 
ATOM     47  C   UNL A   1      37.590  29.818  28.529  1.00  0.00     0.029 A 
ATOM     48  N   UNL A   1      39.508  29.897  29.674  1.00  0.00    -0.354 N 
ATOM     49  C   UNL A   1      40.536  33.325  32.091  1.00  0.00     0.074 A 
ATOM     50  C   UNL A   1      39.497  34.329  32.044  1.00  0.00     0.031 C 
ATOM     51  C   UNL A   1      38.260  28.683  28.271  1.00  0.00     0.029 A 
ATOM     52  C   UNL A   1      39.532  28.709  28.982  1.00  0.00     0.049 A 
ATOM     53  H   UNL A   1      40.238  30.191  30.266  1.00  0.00     0.167 HD
ATOM     54  C   UNL A   1      41.679  33.448  32.805  1.00  0.00     0.031 A 
ATOM     55  C   UNL A   1      40.479  27.754  28.919  1.00  0.00     0.031 A 
ATOM     56  C   UNL A   1      42.702  32.440  32.871  1.00  0.00     0.049 A 
ATOM     57  C   UNL A   1      41.745  27.922  29.714  1.00  0.00     0.074 A 
ATOM     58  C   UNL A   1      43.868  32.444  33.616  1.00  0.00     0.029 A 
ATOM     59  N   UNL A   1      42.682  31.247  32.166  1.00  0.00    -0.354 N 
ATOM     60  N   UNL A   1      42.099  28.904  30.508  1.00  0.00    -0.248 NA
ATOM     61  C   UNL A   1      42.737  26.841  29.614  1.00  0.00     0.031 C 
ATOM     62  C   UNL A   1      44.581  31.280  33.318  1.00  0.00     0.029 A 
ATOM     63  C   UNL A   1      43.828  30.521  32.438  1.00  0.00     0.049 A 
ATOM     64  H   UNL A   1      41.959  30.960  31.562  1.00  0.00     0.167 HD
ATOM     65  C   UNL A   1      43.337  28.545  31.025  1.00  0.00     0.074 A 
ATOM     66  C   UNL A   1      43.664  27.249  30.470  1.00  0.00     0.031 C 
ATOM     67  C   UNL A   1      44.134  29.229  31.882  1.00  0.00     0.031 A 
BRANCH  54  68
ATOM     68  C   UNL A   1      41.890  34.724  33.574  1.00  0.00    -0.014 A 
ATOM     69  C   UNL A   1      41.322  34.913  34.844  1.00  0.00     0.009 A 
ATOM     70  C   UNL A   1      42.717  35.728  33.045  1.00  0.00     0.009 A 
ATOM     71  C   UNL A   1      41.551  36.093  35.554  1.00  0.00     0.001 A 
ATOM     72  C   UNL A   1      42.969  36.894  33.770  1.00  0.00     0.001 A 
ATOM     73  C   UNL A   1      42.379  37.079  35.020  1.00  0.00     0.000 A 
ENDBRANCH  54  68
BRANCH  55  74
ATOM     74  C   UNL A   1      40.273  26.547  28.073  1.00  0.00    -0.014 A 
ATOM     75  C   UNL A   1      40.808  26.482  26.777  1.00  0.00     0.009 A 
ATOM     76  C   UNL A   1      39.517  25.464  28.548  1.00  0.00     0.009 A 
ATOM     77  C   UNL A   1      40.557  25.376  25.962  1.00  0.00     0.001 A 
ATOM     78  C   UNL A   1      39.297  24.345  27.743  1.00  0.00     0.001 A 
ATOM     79  C   UNL A   1      39.805  24.307  26.446  1.00  0.00     0.000 A 
ENDBRANCH  55  74
BRANCH  67  80
ATOM     80  C   UNL A   1      45.416  28.568  32.307  1.00  0.00    -0.014 A 
ATOM     81  C   UNL A   1      46.617  28.790  31.617  1.00  0.00     0.009 A 
ATOM     82  C   UNL A   1      45.426  27.746  33.445  1.00  0.00     0.009 A 
ATOM     83  C   UNL A   1      47.796  28.173  32.040  1.00  0.00     0.001 A 
ATOM     84  C   UNL A   1      46.612  27.156  33.883  1.00  0.00     0.001 A 
ATOM     85  C   UNL A   1      47.793  27.362  33.175  1.00  0.00     0.000 A 
ENDBRANCH  67  80
ENDBRANCH  41  42
ENDBRANCH  33  36
ENDBRANCH  31  32
ENDBRANCH   1  31
TORSDOF 11
ENDMDL
