MODEL 1
REMARK VINA RESULT:     -11.0      0.000      0.000
REMARK SMILES CC(C)(C)c1nnsc1C(=O)N[C@](C)(C(=O)NCCCNC(=O)c1ccc(-c2c3nc(c(-c4ccccc4)c4ccc([nH]4)c(-c4ccccc4)c4nc(c(-c5ccccc5)c5ccc2[nH]5)C=C4)C=C3)cc1)C(F)(F)F
REMARK SMILES IDX 18 1 17 2 15 3 16 4 13 6 14 7 12 8 10 9 11 10 9 12 5 13 6 14
REMARK SMILES IDX 7 15 8 16 2 17 1 18 3 19 4 20 72 21 73 22 74 23 75 24 19 25
REMARK SMILES IDX 20 26 21 27 22 28 23 30 24 31 25 32 71 33 26 34 70 35 27 36
REMARK SMILES IDX 28 37 29 38 64 39 30 40 69 41 63 42 65 43 31 44 68 45 62 46
REMARK SMILES IDX 61 47 32 49 54 50 39 51 53 52 40 53 43 54 52 55 66 56 41 57
REMARK SMILES IDX 42 58 51 60 67 61 44 62 33 63 34 64 38 65 35 66 37 67 36 68
REMARK SMILES IDX 55 69 56 70 60 71 57 72 59 73 58 74 45 75 46 76 50 77 47 78
REMARK SMILES IDX 49 79 48 80
REMARK H PARENT 17 5 12 11 21 29 65 48 43 59
REMARK Flexibility Score: inf
ROOT
ATOM      1  C   UNL A   1      34.084  27.739  24.681  1.00  0.00     0.117 C 
ENDROOT
BRANCH   1   2
ATOM      2  N   UNL A   1      33.989  25.940  23.559  1.00  0.00    -0.354 N 
ATOM      3  C   UNL A   1      33.465  24.649  23.209  1.00  0.00     0.254 C 
ATOM      4  O   UNL A   1      34.185  24.027  22.414  1.00  0.00    -0.272 OA
ATOM      5  H   UNL A   1      34.717  26.058  22.908  1.00  0.00     0.163 HD
BRANCH   3   6
ATOM      6  C   UNL A   1      32.174  23.916  23.854  1.00  0.00     0.212 C 
ATOM      7  C   UNL A   1      31.914  22.410  23.613  1.00  0.00     0.056 C 
BRANCH   6   8
ATOM      8  N   UNL A   1      32.206  23.983  25.325  1.00  0.00    -0.330 N 
ATOM      9  C   UNL A   1      32.512  22.819  25.987  1.00  0.00     0.266 C 
ATOM     10  O   UNL A   1      32.158  22.603  27.136  1.00  0.00    -0.268 OA
ATOM     11  H   UNL A   1      32.019  24.819  25.809  1.00  0.00     0.165 HD
BRANCH   9  12
ATOM     12  C   UNL A   1      33.498  22.073  25.259  1.00  0.00     0.137 A 
ATOM     13  C   UNL A   1      35.224  21.979  24.838  1.00  0.00     0.094 A 
ATOM     14  N   UNL A   1      35.716  20.202  24.491  1.00  0.00    -0.142 NA
ATOM     15  N   UNL A   1      34.527  19.031  24.727  1.00  0.00    -0.090 NA
ATOM     16  S   UNL A   1      32.533  19.939  25.398  1.00  0.00    -0.006 S 
BRANCH  13  17
ATOM     17  C   UNL A   1      36.530  22.820  25.039  1.00  0.00     0.008 C 
ATOM     18  C   UNL A   1      37.061  23.341  23.673  1.00  0.00     0.018 C 
ATOM     19  C   UNL A   1      37.640  22.133  25.843  1.00  0.00     0.018 C 
ATOM     20  C   UNL A   1      36.211  24.150  25.788  1.00  0.00     0.018 C 
ENDBRANCH  13  17
ENDBRANCH   9  12
ENDBRANCH   6   8
BRANCH   6  21
ATOM     21  C   UNL A   1      30.958  24.601  23.188  1.00  0.00     0.420 C 
ATOM     22  F   UNL A   1      31.272  25.122  21.977  1.00  0.00    -0.168 F 
ATOM     23  F   UNL A   1      29.987  23.673  22.956  1.00  0.00    -0.168 F 
ATOM     24  F   UNL A   1      30.395  25.563  23.942  1.00  0.00    -0.168 F 
ENDBRANCH   6  21
ENDBRANCH   3   6
ENDBRANCH   1   2
BRANCH   1  25
ATOM     25  C   UNL A   1      33.146  28.309  25.937  1.00  0.00     0.042 C 
BRANCH  25  26
ATOM     26  C   UNL A   1      33.851  28.638  27.251  1.00  0.00     0.118 C 
BRANCH  26  27
ATOM     27  N   UNL A   1      33.756  30.050  27.606  1.00  0.00    -0.352 N 
ATOM     28  C   UNL A   1      34.611  30.849  28.325  1.00  0.00     0.251 C 
ATOM     29  H   UNL A   1      32.948  30.505  27.276  1.00  0.00     0.163 HD
ATOM     30  O   UNL A   1      34.236  31.938  28.749  1.00  0.00    -0.269 OA
BRANCH  28  31
ATOM     31  C   UNL A   1      35.992  30.395  28.586  1.00  0.00     0.039 A 
ATOM     32  C   UNL A   1      36.311  29.799  29.809  1.00  0.00     0.014 A 
ATOM     33  C   UNL A   1      36.979  30.581  27.617  1.00  0.00     0.014 A 
ATOM     34  C   UNL A   1      37.607  29.325  30.027  1.00  0.00     0.010 A 
ATOM     35  C   UNL A   1      38.233  30.017  27.791  1.00  0.00     0.010 A 
ATOM     36  C   UNL A   1      38.565  29.398  29.004  1.00  0.00    -0.014 A 
BRANCH  36  37
ATOM     37  C   UNL A   1      39.940  28.872  29.176  1.00  0.00     0.031 A 
ATOM     38  C   UNL A   1      41.018  29.783  29.700  1.00  0.00     0.074 A 
ATOM     39  C   UNL A   1      40.233  27.620  28.774  1.00  0.00     0.049 A 
ATOM     40  N   UNL A   1      42.305  29.569  29.802  1.00  0.00    -0.248 NA
ATOM     41  C   UNL A   1      40.600  31.131  30.124  1.00  0.00     0.031 C 
ATOM     42  C   UNL A   1      39.284  26.667  28.196  1.00  0.00     0.029 A 
ATOM     43  N   UNL A   1      41.423  26.939  28.781  1.00  0.00    -0.354 N 
ATOM     44  C   UNL A   1      42.847  30.760  30.268  1.00  0.00     0.074 A 
ATOM     45  C   UNL A   1      41.764  31.711  30.371  1.00  0.00     0.031 C 
ATOM     46  C   UNL A   1      39.922  25.514  27.932  1.00  0.00     0.029 A 
ATOM     47  C   UNL A   1      41.329  25.660  28.288  1.00  0.00     0.049 A 
ATOM     48  H   UNL A   1      42.266  27.329  29.109  1.00  0.00     0.167 HD
ATOM     49  C   UNL A   1      44.128  31.031  30.610  1.00  0.00     0.031 A 
ATOM     50  C   UNL A   1      42.274  24.713  28.143  1.00  0.00     0.031 A 
ATOM     51  C   UNL A   1      45.192  30.068  30.544  1.00  0.00     0.049 A 
ATOM     52  C   UNL A   1      43.681  25.025  28.571  1.00  0.00     0.074 A 
ATOM     53  C   UNL A   1      46.517  30.216  30.913  1.00  0.00     0.029 A 
ATOM     54  N   UNL A   1      45.040  28.766  30.095  1.00  0.00    -0.354 N 
ATOM     55  N   UNL A   1      44.168  26.141  29.060  1.00  0.00    -0.248 NA
ATOM     56  C   UNL A   1      44.666  23.941  28.445  1.00  0.00     0.031 C 
ATOM     57  C   UNL A   1      47.173  29.007  30.664  1.00  0.00     0.029 A 
ATOM     58  C   UNL A   1      46.247  28.097  30.179  1.00  0.00     0.049 A 
ATOM     59  H   UNL A   1      44.199  28.375  29.765  1.00  0.00     0.167 HD
ATOM     60  C   UNL A   1      45.505  25.886  29.324  1.00  0.00     0.074 A 
ATOM     61  C   UNL A   1      45.750  24.504  28.960  1.00  0.00     0.031 C 
ATOM     62  C   UNL A   1      46.453  26.719  29.821  1.00  0.00     0.031 A 
BRANCH  49  63
ATOM     63  C   UNL A   1      44.433  32.417  31.104  1.00  0.00    -0.014 A 
ATOM     64  C   UNL A   1      44.853  33.422  30.218  1.00  0.00     0.009 A 
ATOM     65  C   UNL A   1      44.283  32.730  32.463  1.00  0.00     0.009 A 
ATOM     66  C   UNL A   1      45.155  34.702  30.689  1.00  0.00     0.001 A 
ATOM     67  C   UNL A   1      44.559  34.019  32.927  1.00  0.00     0.001 A 
ATOM     68  C   UNL A   1      45.003  35.000  32.042  1.00  0.00     0.000 A 
ENDBRANCH  49  63
BRANCH  50  69
ATOM     69  C   UNL A   1      41.923  23.376  27.598  1.00  0.00    -0.014 A 
ATOM     70  C   UNL A   1      42.039  23.118  26.223  1.00  0.00     0.009 A 
ATOM     71  C   UNL A   1      41.459  22.355  28.442  1.00  0.00     0.009 A 
ATOM     72  C   UNL A   1      41.662  21.879  25.698  1.00  0.00     0.001 A 
ATOM     73  C   UNL A   1      41.110  21.107  27.918  1.00  0.00     0.001 A 
ATOM     74  C   UNL A   1      41.201  20.875  26.547  1.00  0.00     0.000 A 
ENDBRANCH  50  69
BRANCH  62  75
ATOM     75  C   UNL A   1      47.822  26.143  30.034  1.00  0.00    -0.014 A 
ATOM     76  C   UNL A   1      48.736  26.037  28.975  1.00  0.00     0.009 A 
ATOM     77  C   UNL A   1      48.214  25.748  31.321  1.00  0.00     0.009 A 
ATOM     78  C   UNL A   1      50.011  25.517  29.199  1.00  0.00     0.001 A 
ATOM     79  C   UNL A   1      49.498  25.253  31.546  1.00  0.00     0.001 A 
ATOM     80  C   UNL A   1      50.393  25.130  30.484  1.00  0.00     0.000 A 
ENDBRANCH  62  75
ENDBRANCH  36  37
ENDBRANCH  28  31
ENDBRANCH  26  27
ENDBRANCH  25  26
ENDBRANCH   1  25
TORSDOF 14
ENDMDL
MODEL 2
REMARK VINA RESULT:     -11.0      2.529      7.739
REMARK SMILES CC(C)(C)c1nnsc1C(=O)N[C@](C)(C(=O)NCCCNC(=O)c1ccc(-c2c3nc(c(-c4ccccc4)c4ccc([nH]4)c(-c4ccccc4)c4nc(c(-c5ccccc5)c5ccc2[nH]5)C=C4)C=C3)cc1)C(F)(F)F
REMARK SMILES IDX 18 1 17 2 15 3 16 4 13 6 14 7 12 8 10 9 11 10 9 12 5 13 6 14
REMARK SMILES IDX 7 15 8 16 2 17 1 18 3 19 4 20 72 21 73 22 74 23 75 24 19 25
REMARK SMILES IDX 20 26 21 27 22 28 23 30 24 31 25 32 71 33 26 34 70 35 27 36
REMARK SMILES IDX 28 37 29 38 64 39 30 40 69 41 63 42 65 43 31 44 68 45 62 46
REMARK SMILES IDX 61 47 32 49 54 50 39 51 53 52 40 53 43 54 52 55 66 56 41 57
REMARK SMILES IDX 42 58 51 60 67 61 44 62 33 63 34 64 38 65 35 66 37 67 36 68
REMARK SMILES IDX 55 69 56 70 60 71 57 72 59 73 58 74 45 75 46 76 50 77 47 78
REMARK SMILES IDX 49 79 48 80
REMARK H PARENT 17 5 12 11 21 29 65 48 43 59
REMARK Flexibility Score: inf
ROOT
ATOM      1  C   UNL A   1      34.807  23.384  26.344  1.00  0.00     0.117 C 
ENDROOT
BRANCH   1   2
ATOM      2  N   UNL A   1      32.898  24.310  26.305  1.00  0.00    -0.354 N 
ATOM      3  C   UNL A   1      31.753  24.909  25.678  1.00  0.00     0.254 C 
ATOM      4  O   UNL A   1      30.990  25.465  26.480  1.00  0.00    -0.272 OA
ATOM      5  H   UNL A   1      32.664  24.351  27.260  1.00  0.00     0.163 HD
BRANCH   3   6
ATOM      6  C   UNL A   1      31.479  25.051  24.088  1.00  0.00     0.212 C 
ATOM      7  C   UNL A   1      30.398  26.021  23.554  1.00  0.00     0.056 C 
BRANCH   6   8
ATOM      8  N   UNL A   1      32.681  25.525  23.383  1.00  0.00    -0.330 N 
ATOM      9  C   UNL A   1      32.641  26.807  22.890  1.00  0.00     0.266 C 
ATOM     10  O   UNL A   1      33.328  27.172  21.949  1.00  0.00    -0.268 OA
ATOM     11  H   UNL A   1      33.474  24.953  23.271  1.00  0.00     0.165 HD
BRANCH   9  12
ATOM     12  C   UNL A   1      31.923  27.666  23.788  1.00  0.00     0.137 A 
ATOM     13  C   UNL A   1      32.016  28.553  25.327  1.00  0.00     0.094 A 
ATOM     14  N   UNL A   1      30.881  30.047  25.289  1.00  0.00    -0.142 NA
ATOM     15  N   UNL A   1      30.080  30.348  23.838  1.00  0.00    -0.090 NA
ATOM     16  S   UNL A   1      30.566  28.784  22.235  1.00  0.00    -0.006 S 
BRANCH  13  17
ATOM     17  C   UNL A   1      33.005  28.719  26.531  1.00  0.00     0.008 C 
ATOM     18  C   UNL A   1      32.330  28.270  27.858  1.00  0.00     0.018 C 
ATOM     19  C   UNL A   1      33.647  30.103  26.672  1.00  0.00     0.018 C 
ATOM     20  C   UNL A   1      34.182  27.703  26.412  1.00  0.00     0.018 C 
ENDBRANCH  13  17
ENDBRANCH   9  12
ENDBRANCH   6   8
BRANCH   6  21
ATOM     21  C   UNL A   1      30.960  23.662  23.652  1.00  0.00     0.420 C 
ATOM     22  F   UNL A   1      31.911  22.949  22.999  1.00  0.00    -0.168 F 
ATOM     23  F   UNL A   1      30.637  22.931  24.756  1.00  0.00    -0.168 F 
ATOM     24  F   UNL A   1      29.853  23.710  22.887  1.00  0.00    -0.168 F 
ENDBRANCH   6  21
ENDBRANCH   3   6
ENDBRANCH   1   2
BRANCH   1  25
ATOM     25  C   UNL A   1      36.339  23.998  26.097  1.00  0.00     0.042 C 
BRANCH  25  26
ATOM     26  C   UNL A   1      37.163  23.399  24.959  1.00  0.00     0.118 C 
BRANCH  26  27
ATOM     27  N   UNL A   1      38.182  22.467  25.428  1.00  0.00    -0.352 N 
ATOM     28  C   UNL A   1      39.366  22.696  26.086  1.00  0.00     0.251 C 
ATOM     29  H   UNL A   1      37.991  21.520  25.244  1.00  0.00     0.163 HD
ATOM     30  O   UNL A   1      40.217  21.816  26.160  1.00  0.00    -0.269 OA
BRANCH  28  31
ATOM     31  C   UNL A   1      39.613  24.011  26.712  1.00  0.00     0.039 A 
ATOM     32  C   UNL A   1      39.246  24.229  28.043  1.00  0.00     0.014 A 
ATOM     33  C   UNL A   1      40.191  25.039  25.966  1.00  0.00     0.014 A 
ATOM     34  C   UNL A   1      39.530  25.458  28.643  1.00  0.00     0.010 A 
ATOM     35  C   UNL A   1      40.568  26.218  26.590  1.00  0.00     0.010 A 
ATOM     36  C   UNL A   1      40.227  26.446  27.930  1.00  0.00    -0.014 A 
BRANCH  36  37
ATOM     37  C   UNL A   1      40.585  27.749  28.538  1.00  0.00     0.031 A 
ATOM     38  C   UNL A   1      41.969  27.947  29.098  1.00  0.00     0.074 A 
ATOM     39  C   UNL A   1      39.647  28.706  28.672  1.00  0.00     0.049 A 
ATOM     40  N   UNL A   1      42.448  28.951  29.786  1.00  0.00    -0.248 NA
ATOM     41  C   UNL A   1      42.930  26.847  28.896  1.00  0.00     0.031 C 
ATOM     42  C   UNL A   1      38.257  28.605  28.222  1.00  0.00     0.029 A 
ATOM     43  N   UNL A   1      39.722  29.953  29.238  1.00  0.00    -0.354 N 
ATOM     44  C   UNL A   1      43.746  28.590  30.122  1.00  0.00     0.074 A 
ATOM     45  C   UNL A   1      43.963  27.253  29.619  1.00  0.00     0.031 C 
ATOM     46  C   UNL A   1      37.618  29.753  28.502  1.00  0.00     0.029 A 
ATOM     47  C   UNL A   1      38.542  30.655  29.182  1.00  0.00     0.049 A 
ATOM     48  H   UNL A   1      40.543  30.312  29.645  1.00  0.00     0.167 HD
ATOM     49  C   UNL A   1      44.688  29.318  30.766  1.00  0.00     0.031 A 
ATOM     50  C   UNL A   1      38.243  31.888  29.629  1.00  0.00     0.031 A 
ATOM     51  C   UNL A   1      44.480  30.662  31.228  1.00  0.00     0.049 A 
ATOM     52  C   UNL A   1      39.320  32.694  30.303  1.00  0.00     0.074 A 
ATOM     53  C   UNL A   1      45.377  31.513  31.847  1.00  0.00     0.029 A 
ATOM     54  N   UNL A   1      43.288  31.357  31.098  1.00  0.00    -0.354 N 
ATOM     55  N   UNL A   1      40.560  32.357  30.567  1.00  0.00    -0.248 NA
ATOM     56  C   UNL A   1      38.961  34.055  30.724  1.00  0.00     0.031 C 
ATOM     57  C   UNL A   1      44.719  32.718  32.113  1.00  0.00     0.029 A 
ATOM     58  C   UNL A   1      43.426  32.629  31.623  1.00  0.00     0.049 A 
ATOM     59  H   UNL A   1      42.465  30.999  30.692  1.00  0.00     0.167 HD
ATOM     60  C   UNL A   1      41.136  33.471  31.159  1.00  0.00     0.074 A 
ATOM     61  C   UNL A   1      40.116  34.500  31.198  1.00  0.00     0.031 C 
ATOM     62  C   UNL A   1      42.395  33.633  31.634  1.00  0.00     0.031 A 
BRANCH  49  63
ATOM     63  C   UNL A   1      46.028  28.675  30.985  1.00  0.00    -0.014 A 
ATOM     64  C   UNL A   1      46.258  27.844  32.094  1.00  0.00     0.009 A 
ATOM     65  C   UNL A   1      47.069  28.884  30.068  1.00  0.00     0.009 A 
ATOM     66  C   UNL A   1      47.513  27.269  32.301  1.00  0.00     0.001 A 
ATOM     67  C   UNL A   1      48.315  28.284  30.262  1.00  0.00     0.001 A 
ATOM     68  C   UNL A   1      48.539  27.485  31.383  1.00  0.00     0.000 A 
ENDBRANCH  49  63
BRANCH  50  69
ATOM     69  C   UNL A   1      36.883  32.452  29.431  1.00  0.00    -0.014 A 
ATOM     70  C   UNL A   1      35.917  32.348  30.446  1.00  0.00     0.009 A 
ATOM     71  C   UNL A   1      36.534  33.084  28.228  1.00  0.00     0.009 A 
ATOM     72  C   UNL A   1      34.622  32.831  30.246  1.00  0.00     0.001 A 
ATOM     73  C   UNL A   1      35.246  33.592  28.042  1.00  0.00     0.001 A 
ATOM     74  C   UNL A   1      34.289  33.455  29.045  1.00  0.00     0.000 A 
ENDBRANCH  50  69
BRANCH  62  75
ATOM     75  C   UNL A   1      42.745  34.979  32.194  1.00  0.00    -0.014 A 
ATOM     76  C   UNL A   1      42.417  35.321  33.515  1.00  0.00     0.009 A 
ATOM     77  C   UNL A   1      43.453  35.896  31.404  1.00  0.00     0.009 A 
ATOM     78  C   UNL A   1      42.769  36.572  34.023  1.00  0.00     0.001 A 
ATOM     79  C   UNL A   1      43.825  37.136  31.924  1.00  0.00     0.001 A 
ATOM     80  C   UNL A   1      43.476  37.475  33.230  1.00  0.00     0.000 A 
ENDBRANCH  62  75
ENDBRANCH  36  37
ENDBRANCH  28  31
ENDBRANCH  26  27
ENDBRANCH  25  26
ENDBRANCH   1  25
TORSDOF 14
ENDMDL
MODEL 3
REMARK VINA RESULT:     -10.8      2.512      7.318
REMARK SMILES CC(C)(C)c1nnsc1C(=O)N[C@](C)(C(=O)NCCCNC(=O)c1ccc(-c2c3nc(c(-c4ccccc4)c4ccc([nH]4)c(-c4ccccc4)c4nc(c(-c5ccccc5)c5ccc2[nH]5)C=C4)C=C3)cc1)C(F)(F)F
REMARK SMILES IDX 18 1 17 2 15 3 16 4 13 6 14 7 12 8 10 9 11 10 9 12 5 13 6 14
REMARK SMILES IDX 7 15 8 16 2 17 1 18 3 19 4 20 72 21 73 22 74 23 75 24 19 25
REMARK SMILES IDX 20 26 21 27 22 28 23 30 24 31 25 32 71 33 26 34 70 35 27 36
REMARK SMILES IDX 28 37 29 38 64 39 30 40 69 41 63 42 65 43 31 44 68 45 62 46
REMARK SMILES IDX 61 47 32 49 54 50 39 51 53 52 40 53 43 54 52 55 66 56 41 57
REMARK SMILES IDX 42 58 51 60 67 61 44 62 33 63 34 64 38 65 35 66 37 67 36 68
REMARK SMILES IDX 55 69 56 70 60 71 57 72 59 73 58 74 45 75 46 76 50 77 47 78
REMARK SMILES IDX 49 79 48 80
REMARK H PARENT 17 5 12 11 21 29 65 48 43 59
REMARK Flexibility Score: inf
ROOT
ATOM      1  C   UNL A   1      36.301  23.097  23.367  1.00  0.00     0.117 C 
ENDROOT
BRANCH   1   2
ATOM      2  N   UNL A   1      34.209  23.051  23.013  1.00  0.00    -0.354 N 
ATOM      3  C   UNL A   1      32.905  23.625  22.832  1.00  0.00     0.254 C 
ATOM      4  O   UNL A   1      31.993  22.786  22.845  1.00  0.00    -0.272 OA
ATOM      5  H   UNL A   1      34.033  22.087  22.915  1.00  0.00     0.163 HD
BRANCH   3   6
ATOM      6  C   UNL A   1      32.536  25.201  22.780  1.00  0.00     0.212 C 
ATOM      7  C   UNL A   1      31.124  25.698  23.172  1.00  0.00     0.056 C 
BRANCH   6   8
ATOM      8  N   UNL A   1      33.391  25.976  23.694  1.00  0.00    -0.330 N 
ATOM      9  C   UNL A   1      32.904  26.188  24.961  1.00  0.00     0.266 C 
ATOM     10  O   UNL A   1      33.255  27.132  25.652  1.00  0.00    -0.268 OA
ATOM     11  H   UNL A   1      34.268  26.325  23.413  1.00  0.00     0.165 HD
BRANCH   9  12
ATOM     12  C   UNL A   1      32.186  25.034  25.420  1.00  0.00     0.137 A 
ATOM     13  C   UNL A   1      32.341  23.465  26.245  1.00  0.00     0.094 A 
ATOM     14  N   UNL A   1      30.735  23.020  27.109  1.00  0.00    -0.142 NA
ATOM     15  N   UNL A   1      29.506  24.170  27.054  1.00  0.00    -0.090 NA
ATOM     16  S   UNL A   1      30.111  26.035  25.868  1.00  0.00    -0.006 S 
BRANCH  13  17
ATOM     17  C   UNL A   1      33.472  22.537  26.804  1.00  0.00     0.008 C 
ATOM     18  C   UNL A   1      33.638  21.276  25.909  1.00  0.00     0.018 C 
ATOM     19  C   UNL A   1      33.344  22.158  28.284  1.00  0.00     0.018 C 
ATOM     20  C   UNL A   1      34.864  23.224  26.650  1.00  0.00     0.018 C 
ENDBRANCH  13  17
ENDBRANCH   9  12
ENDBRANCH   6   8
BRANCH   6  21
ATOM     21  C   UNL A   1      32.648  25.584  21.286  1.00  0.00     0.420 C 
ATOM     22  F   UNL A   1      32.946  24.512  20.511  1.00  0.00    -0.168 F 
ATOM     23  F   UNL A   1      31.443  26.042  20.844  1.00  0.00    -0.168 F 
ATOM     24  F   UNL A   1      33.542  26.559  21.040  1.00  0.00    -0.168 F 
ENDBRANCH   6  21
ENDBRANCH   3   6
ENDBRANCH   1   2
BRANCH   1  25
ATOM     25  C   UNL A   1      37.292  22.096  24.261  1.00  0.00     0.042 C 
BRANCH  25  26
ATOM     26  C   UNL A   1      38.095  22.730  25.396  1.00  0.00     0.118 C 
BRANCH  26  27
ATOM     27  N   UNL A   1      39.202  21.890  25.843  1.00  0.00    -0.352 N 
ATOM     28  C   UNL A   1      40.424  22.230  26.368  1.00  0.00     0.251 C 
ATOM     29  H   UNL A   1      39.047  20.922  25.753  1.00  0.00     0.163 HD
ATOM     30  O   UNL A   1      41.326  21.401  26.434  1.00  0.00    -0.269 OA
BRANCH  28  31
ATOM     31  C   UNL A   1      40.652  23.603  26.862  1.00  0.00     0.039 A 
ATOM     32  C   UNL A   1      41.073  23.810  28.178  1.00  0.00     0.014 A 
ATOM     33  C   UNL A   1      40.425  24.692  26.018  1.00  0.00     0.014 A 
ATOM     34  C   UNL A   1      41.336  25.109  28.621  1.00  0.00     0.010 A 
ATOM     35  C   UNL A   1      40.787  25.967  26.423  1.00  0.00     0.010 A 
ATOM     36  C   UNL A   1      41.230  26.191  27.734  1.00  0.00    -0.014 A 
BRANCH  36  37
ATOM     37  C   UNL A   1      41.538  27.581  28.148  1.00  0.00     0.031 A 
ATOM     38  C   UNL A   1      42.971  28.041  28.178  1.00  0.00     0.074 A 
ATOM     39  C   UNL A   1      40.549  28.384  28.583  1.00  0.00     0.049 A 
ATOM     40  N   UNL A   1      43.470  29.163  28.630  1.00  0.00    -0.248 NA
ATOM     41  C   UNL A   1      43.983  27.096  27.673  1.00  0.00     0.031 C 
ATOM     42  C   UNL A   1      39.130  28.026  28.656  1.00  0.00     0.029 A 
ATOM     43  N   UNL A   1      40.590  29.670  29.060  1.00  0.00    -0.354 N 
ATOM     44  C   UNL A   1      44.847  29.042  28.494  1.00  0.00     0.074 A 
ATOM     45  C   UNL A   1      45.112  27.719  27.975  1.00  0.00     0.031 C 
ATOM     46  C   UNL A   1      38.433  29.077  29.119  1.00  0.00     0.029 A 
ATOM     47  C   UNL A   1      39.358  30.167  29.410  1.00  0.00     0.049 A 
ATOM     48  H   UNL A   1      41.423  30.186  29.143  1.00  0.00     0.167 HD
ATOM     49  C   UNL A   1      45.807  29.961  28.748  1.00  0.00     0.031 A 
ATOM     50  C   UNL A   1      39.017  31.370  29.907  1.00  0.00     0.031 A 
ATOM     51  C   UNL A   1      45.535  31.288  29.224  1.00  0.00     0.049 A 
ATOM     52  C   UNL A   1      40.098  32.389  30.139  1.00  0.00     0.074 A 
ATOM     53  C   UNL A   1      46.424  32.320  29.468  1.00  0.00     0.029 A 
ATOM     54  N   UNL A   1      44.268  31.772  29.509  1.00  0.00    -0.354 N 
ATOM     55  N   UNL A   1      41.392  32.277  29.955  1.00  0.00    -0.248 NA
ATOM     56  C   UNL A   1      39.670  33.706  30.630  1.00  0.00     0.031 C 
ATOM     57  C   UNL A   1      45.695  33.422  29.923  1.00  0.00     0.029 A 
ATOM     58  C   UNL A   1      44.349  33.088  29.924  1.00  0.00     0.049 A 
ATOM     59  H   UNL A   1      43.434  31.255  29.427  1.00  0.00     0.167 HD
ATOM     60  C   UNL A   1      41.929  33.514  30.281  1.00  0.00     0.074 A 
ATOM     61  C   UNL A   1      40.819  34.368  30.656  1.00  0.00     0.031 C 
ATOM     62  C   UNL A   1      43.225  33.913  30.277  1.00  0.00     0.031 A 
BRANCH  49  63
ATOM     63  C   UNL A   1      47.233  29.560  28.493  1.00  0.00    -0.014 A 
ATOM     64  C   UNL A   1      48.008  28.968  29.503  1.00  0.00     0.009 A 
ATOM     65  C   UNL A   1      47.806  29.758  27.227  1.00  0.00     0.009 A 
ATOM     66  C   UNL A   1      49.338  28.618  29.263  1.00  0.00     0.001 A 
ATOM     67  C   UNL A   1      49.128  29.380  26.982  1.00  0.00     0.001 A 
ATOM     68  C   UNL A   1      49.896  28.820  28.002  1.00  0.00     0.000 A 
ENDBRANCH  49  63
BRANCH  50  69
ATOM     69  C   UNL A   1      37.595  31.692  30.190  1.00  0.00    -0.014 A 
ATOM     70  C   UNL A   1      37.056  31.462  31.467  1.00  0.00     0.009 A 
ATOM     71  C   UNL A   1      36.763  32.217  29.189  1.00  0.00     0.009 A 
ATOM     72  C   UNL A   1      35.707  31.715  31.724  1.00  0.00     0.001 A 
ATOM     73  C   UNL A   1      35.420  32.496  29.458  1.00  0.00     0.001 A 
ATOM     74  C   UNL A   1      34.891  32.234  30.720  1.00  0.00     0.000 A 
ENDBRANCH  50  69
BRANCH  62  75
ATOM     75  C   UNL A   1      43.500  35.340  30.648  1.00  0.00    -0.014 A 
ATOM     76  C   UNL A   1      43.745  35.706  31.980  1.00  0.00     0.009 A 
ATOM     77  C   UNL A   1      43.562  36.317  29.645  1.00  0.00     0.009 A 
ATOM     78  C   UNL A   1      44.018  37.037  32.302  1.00  0.00     0.001 A 
ATOM     79  C   UNL A   1      43.861  37.641  29.967  1.00  0.00     0.001 A 
ATOM     80  C   UNL A   1      44.081  38.001  31.296  1.00  0.00     0.000 A 
ENDBRANCH  62  75
ENDBRANCH  36  37
ENDBRANCH  28  31
ENDBRANCH  26  27
ENDBRANCH  25  26
ENDBRANCH   1  25
TORSDOF 14
ENDMDL
