MODEL 1
REMARK VINA RESULT:     -11.4      0.000      0.000
REMARK SMILES O=C(NCCCNC(=O)c1ccc(F)cc1-c1ccc(F)c(Cl)c1)c1ccc(-c2c3nc(c(-c4ccccc4)c4ccc([nH]4)c(-c4ccccc4)c4nc(c(-c5ccccc5)c5ccc2[nH]5)C=C4)C=C3)cc1
REMARK SMILES IDX 4 1 3 2 1 3 2 4 25 6 26 7 72 8 27 9 71 10 28 11 29 12 30 13
REMARK SMILES IDX 65 14 31 15 70 16 64 17 66 18 32 19 69 20 63 21 62 22 33 24
REMARK SMILES IDX 55 25 40 26 54 27 41 28 44 29 53 30 67 31 42 32 43 33 52 35
REMARK SMILES IDX 68 36 45 37 34 38 35 39 39 40 36 41 38 42 37 43 56 44 57 45
REMARK SMILES IDX 61 46 58 47 60 48 59 49 46 50 47 51 51 52 48 53 50 54 49 55
REMARK SMILES IDX 5 56 6 57 7 58 8 59 9 61 10 62 11 63 16 64 12 65 15 66 13 67
REMARK SMILES IDX 14 68 17 69 18 70 24 71 19 72 22 73 20 74 23 75 21 76
REMARK H PARENT 3 5 66 23 44 34 7 60
REMARK Flexibility Score: inf
ROOT
ATOM      1  C   UNL A   1      33.577  28.422  27.427  1.00  0.00     0.118 C 
ENDROOT
BRANCH   1   2
ATOM      2  N   UNL A   1      33.503  29.866  27.614  1.00  0.00    -0.352 N 
ATOM      3  O   UNL A   1      34.084  31.910  28.352  1.00  0.00    -0.269 OA
ATOM      4  C   UNL A   1      34.424  30.754  28.117  1.00  0.00     0.251 C 
ATOM      5  H   UNL A   1      32.652  30.273  27.333  1.00  0.00     0.163 HD
BRANCH   4   6
ATOM      6  C   UNL A   1      35.811  30.325  28.396  1.00  0.00     0.039 A 
ATOM      7  C   UNL A   1      36.807  30.447  27.429  1.00  0.00     0.014 A 
ATOM      8  C   UNL A   1      36.129  29.822  29.662  1.00  0.00     0.014 A 
ATOM      9  C   UNL A   1      38.068  29.913  27.659  1.00  0.00     0.010 A 
ATOM     10  C   UNL A   1      37.431  29.387  29.933  1.00  0.00     0.010 A 
ATOM     11  C   UNL A   1      38.403  29.399  28.922  1.00  0.00    -0.014 A 
BRANCH  11  12
ATOM     12  C   UNL A   1      39.799  28.960  29.174  1.00  0.00     0.031 A 
ATOM     13  C   UNL A   1      40.782  29.841  29.890  1.00  0.00     0.074 A 
ATOM     14  C   UNL A   1      40.164  27.727  28.772  1.00  0.00     0.049 A 
ATOM     15  N   UNL A   1      42.026  29.590  30.214  1.00  0.00    -0.248 NA
ATOM     16  C   UNL A   1      40.317  31.179  30.291  1.00  0.00     0.031 C 
ATOM     17  C   UNL A   1      39.299  26.779  28.062  1.00  0.00     0.029 A 
ATOM     18  N   UNL A   1      41.346  27.047  28.920  1.00  0.00    -0.354 N 
ATOM     19  C   UNL A   1      42.497  30.738  30.839  1.00  0.00     0.074 A 
ATOM     20  C   UNL A   1      41.415  31.698  30.825  1.00  0.00     0.031 C 
ATOM     21  C   UNL A   1      39.958  25.625  27.889  1.00  0.00     0.029 A 
ATOM     22  C   UNL A   1      41.313  25.774  28.404  1.00  0.00     0.049 A 
ATOM     23  H   UNL A   1      42.140  27.433  29.354  1.00  0.00     0.167 HD
ATOM     24  C   UNL A   1      43.720  30.968  31.376  1.00  0.00     0.031 A 
ATOM     25  C   UNL A   1      42.271  24.834  28.331  1.00  0.00     0.031 A 
ATOM     26  C   UNL A   1      44.797  30.010  31.380  1.00  0.00     0.049 A 
ATOM     27  C   UNL A   1      43.628  25.134  28.893  1.00  0.00     0.074 A 
ATOM     28  C   UNL A   1      46.063  30.140  31.926  1.00  0.00     0.029 A 
ATOM     29  N   UNL A   1      44.739  28.750  30.804  1.00  0.00    -0.354 N 
ATOM     30  N   UNL A   1      44.044  26.212  29.513  1.00  0.00    -0.248 NA
ATOM     31  C   UNL A   1      44.648  24.087  28.746  1.00  0.00     0.031 C 
ATOM     32  C   UNL A   1      46.789  28.982  31.629  1.00  0.00     0.029 A 
ATOM     33  C   UNL A   1      45.956  28.105  30.955  1.00  0.00     0.049 A 
ATOM     34  H   UNL A   1      43.950  28.370  30.355  1.00  0.00     0.167 HD
ATOM     35  C   UNL A   1      45.368  25.966  29.846  1.00  0.00     0.074 A 
ATOM     36  C   UNL A   1      45.677  24.629  29.381  1.00  0.00     0.031 C 
ATOM     37  C   UNL A   1      46.250  26.776  30.480  1.00  0.00     0.031 A 
BRANCH  24  38
ATOM     38  C   UNL A   1      43.974  32.323  31.979  1.00  0.00    -0.014 A 
ATOM     39  C   UNL A   1      43.725  32.580  33.336  1.00  0.00     0.009 A 
ATOM     40  C   UNL A   1      44.521  33.346  31.185  1.00  0.00     0.009 A 
ATOM     41  C   UNL A   1      43.987  33.842  33.878  1.00  0.00     0.001 A 
ATOM     42  C   UNL A   1      44.809  34.595  31.736  1.00  0.00     0.001 A 
ATOM     43  C   UNL A   1      44.534  34.846  33.079  1.00  0.00     0.000 A 
ENDBRANCH  24  38
BRANCH  25  44
ATOM     44  C   UNL A   1      41.979  23.530  27.681  1.00  0.00    -0.014 A 
ATOM     45  C   UNL A   1      42.279  23.322  26.326  1.00  0.00     0.009 A 
ATOM     46  C   UNL A   1      41.405  22.482  28.418  1.00  0.00     0.009 A 
ATOM     47  C   UNL A   1      41.989  22.098  25.720  1.00  0.00     0.001 A 
ATOM     48  C   UNL A   1      41.148  21.249  27.818  1.00  0.00     0.001 A 
ATOM     49  C   UNL A   1      41.430  21.061  26.467  1.00  0.00     0.000 A 
ENDBRANCH  25  44
BRANCH  37  50
ATOM     50  C   UNL A   1      47.622  26.221  30.736  1.00  0.00    -0.014 A 
ATOM     51  C   UNL A   1      48.612  26.230  29.740  1.00  0.00     0.009 A 
ATOM     52  C   UNL A   1      47.938  25.705  32.002  1.00  0.00     0.009 A 
ATOM     53  C   UNL A   1      49.876  25.696  29.996  1.00  0.00     0.001 A 
ATOM     54  C   UNL A   1      49.211  25.202  32.266  1.00  0.00     0.001 A 
ATOM     55  C   UNL A   1      50.176  25.188  31.260  1.00  0.00     0.000 A 
ENDBRANCH  37  50
ENDBRANCH  11  12
ENDBRANCH   4   6
ENDBRANCH   1   2
BRANCH   1  56
ATOM     56  C   UNL A   1      34.050  28.028  26.036  1.00  0.00     0.042 C 
BRANCH  56  57
ATOM     57  C   UNL A   1      33.672  29.024  24.952  1.00  0.00     0.118 C 
BRANCH  57  58
ATOM     58  N   UNL A   1      34.043  28.572  23.617  1.00  0.00    -0.352 N 
ATOM     59  C   UNL A   1      33.327  27.852  22.693  1.00  0.00     0.251 C 
ATOM     60  H   UNL A   1      34.953  28.821  23.333  1.00  0.00     0.163 HD
ATOM     61  O   UNL A   1      33.853  27.524  21.633  1.00  0.00    -0.269 OA
BRANCH  59  62
ATOM     62  C   UNL A   1      31.921  27.486  22.980  1.00  0.00     0.047 A 
ATOM     63  C   UNL A   1      30.934  28.463  22.749  1.00  0.00     0.017 A 
ATOM     64  C   UNL A   1      31.567  26.193  23.425  1.00  0.00    -0.003 A 
ATOM     65  C   UNL A   1      29.604  28.207  23.066  1.00  0.00     0.040 A 
ATOM     66  C   UNL A   1      30.212  25.962  23.733  1.00  0.00     0.048 A 
ATOM     67  C   UNL A   1      29.258  26.963  23.568  1.00  0.00     0.123 A 
ATOM     68  F   UNL A   1      27.982  26.716  23.889  1.00  0.00    -0.207 F 
BRANCH  64  69
ATOM     69  C   UNL A   1      32.521  25.075  23.540  1.00  0.00    -0.016 A 
ATOM     70  C   UNL A   1      32.847  24.256  22.445  1.00  0.00     0.012 A 
ATOM     71  C   UNL A   1      33.135  24.807  24.779  1.00  0.00     0.032 A 
ATOM     72  C   UNL A   1      33.750  23.197  22.588  1.00  0.00     0.041 A 
ATOM     73  C   UNL A   1      34.040  23.752  24.919  1.00  0.00     0.077 A 
ATOM     74  C   UNL A   1      34.340  22.951  23.824  1.00  0.00     0.141 A 
ATOM     75  Cl  UNL A   1      34.774  23.463  26.450  1.00  0.00    -0.081 Cl
ATOM     76  F   UNL A   1      35.205  21.933  23.934  1.00  0.00    -0.205 F 
ENDBRANCH  64  69
ENDBRANCH  59  62
ENDBRANCH  57  58
ENDBRANCH  56  57
ENDBRANCH   1  56
TORSDOF 11
ENDMDL
MODEL 2
REMARK VINA RESULT:     -11.3      1.251      1.615
REMARK SMILES O=C(NCCCNC(=O)c1ccc(F)cc1-c1ccc(F)c(Cl)c1)c1ccc(-c2c3nc(c(-c4ccccc4)c4ccc([nH]4)c(-c4ccccc4)c4nc(c(-c5ccccc5)c5ccc2[nH]5)C=C4)C=C3)cc1
REMARK SMILES IDX 4 1 3 2 1 3 2 4 25 6 26 7 72 8 27 9 71 10 28 11 29 12 30 13
REMARK SMILES IDX 65 14 31 15 70 16 64 17 66 18 32 19 69 20 63 21 62 22 33 24
REMARK SMILES IDX 55 25 40 26 54 27 41 28 44 29 53 30 67 31 42 32 43 33 52 35
REMARK SMILES IDX 68 36 45 37 34 38 35 39 39 40 36 41 38 42 37 43 56 44 57 45
REMARK SMILES IDX 61 46 58 47 60 48 59 49 46 50 47 51 51 52 48 53 50 54 49 55
REMARK SMILES IDX 5 56 6 57 7 58 8 59 9 61 10 62 11 63 16 64 12 65 15 66 13 67
REMARK SMILES IDX 14 68 17 69 18 70 24 71 19 72 22 73 20 74 23 75 21 76
REMARK H PARENT 3 5 66 23 44 34 7 60
REMARK Flexibility Score: inf
ROOT
ATOM      1  C   UNL A   1      33.790  28.567  27.283  1.00  0.00     0.118 C 
ENDROOT
BRANCH   1   2
ATOM      2  N   UNL A   1      33.683  29.963  27.689  1.00  0.00    -0.352 N 
ATOM      3  O   UNL A   1      34.214  31.881  28.737  1.00  0.00    -0.269 OA
ATOM      4  C   UNL A   1      34.581  30.782  28.330  1.00  0.00     0.251 C 
ATOM      5  H   UNL A   1      32.825  30.390  27.466  1.00  0.00     0.163 HD
BRANCH   4   6
ATOM      6  C   UNL A   1      35.975  30.344  28.554  1.00  0.00     0.039 A 
ATOM      7  C   UNL A   1      36.951  30.536  27.577  1.00  0.00     0.014 A 
ATOM      8  C   UNL A   1      36.322  29.761  29.778  1.00  0.00     0.014 A 
ATOM      9  C   UNL A   1      38.219  29.996  27.748  1.00  0.00     0.010 A 
ATOM     10  C   UNL A   1      37.631  29.318  29.994  1.00  0.00     0.010 A 
ATOM     11  C   UNL A   1      38.582  29.403  28.967  1.00  0.00    -0.014 A 
BRANCH  11  12
ATOM     12  C   UNL A   1      39.985  28.956  29.162  1.00  0.00     0.031 A 
ATOM     13  C   UNL A   1      41.005  29.841  29.820  1.00  0.00     0.074 A 
ATOM     14  C   UNL A   1      40.323  27.714  28.762  1.00  0.00     0.049 A 
ATOM     15  N   UNL A   1      42.261  29.584  30.091  1.00  0.00    -0.248 NA
ATOM     16  C   UNL A   1      40.568  31.187  30.222  1.00  0.00     0.031 C 
ATOM     17  C   UNL A   1      39.420  26.763  28.106  1.00  0.00     0.029 A 
ATOM     18  N   UNL A   1      41.505  27.029  28.867  1.00  0.00    -0.354 N 
ATOM     19  C   UNL A   1      42.768  30.738  30.677  1.00  0.00     0.074 A 
ATOM     20  C   UNL A   1      41.693  31.706  30.697  1.00  0.00     0.031 C 
ATOM     21  C   UNL A   1      40.063  25.602  27.921  1.00  0.00     0.029 A 
ATOM     22  C   UNL A   1      41.441  25.748  28.372  1.00  0.00     0.049 A 
ATOM     23  H   UNL A   1      42.321  27.415  29.259  1.00  0.00     0.167 HD
ATOM     24  C   UNL A   1      44.015  30.967  31.154  1.00  0.00     0.031 A 
ATOM     25  C   UNL A   1      42.388  24.800  28.270  1.00  0.00     0.031 A 
ATOM     26  C   UNL A   1      45.085  30.001  31.124  1.00  0.00     0.049 A 
ATOM     27  C   UNL A   1      43.772  25.098  28.765  1.00  0.00     0.074 A 
ATOM     28  C   UNL A   1      46.375  30.129  31.610  1.00  0.00     0.029 A 
ATOM     29  N   UNL A   1      44.992  28.733  30.571  1.00  0.00    -0.354 N 
ATOM     30  N   UNL A   1      44.222  26.182  29.350  1.00  0.00    -0.248 NA
ATOM     31  C   UNL A   1      44.776  24.041  28.588  1.00  0.00     0.031 C 
ATOM     32  C   UNL A   1      47.079  28.962  31.298  1.00  0.00     0.029 A 
ATOM     33  C   UNL A   1      46.210  28.081  30.676  1.00  0.00     0.049 A 
ATOM     34  H   UNL A   1      44.181  28.353  30.163  1.00  0.00     0.167 HD
ATOM     35  C   UNL A   1      45.559  25.931  29.627  1.00  0.00     0.074 A 
ATOM     36  C   UNL A   1      45.837  24.585  29.168  1.00  0.00     0.031 C 
ATOM     37  C   UNL A   1      46.473  26.744  30.208  1.00  0.00     0.031 A 
BRANCH  24  38
ATOM     38  C   UNL A   1      44.306  32.329  31.725  1.00  0.00    -0.014 A 
ATOM     39  C   UNL A   1      44.132  32.604  33.090  1.00  0.00     0.009 A 
ATOM     40  C   UNL A   1      44.811  33.339  30.889  1.00  0.00     0.009 A 
ATOM     41  C   UNL A   1      44.427  33.871  33.601  1.00  0.00     0.001 A 
ATOM     42  C   UNL A   1      45.132  34.595  31.408  1.00  0.00     0.001 A 
ATOM     43  C   UNL A   1      44.932  34.863  32.760  1.00  0.00     0.000 A 
ENDBRANCH  24  38
BRANCH  25  44
ATOM     44  C   UNL A   1      42.058  23.489  27.653  1.00  0.00    -0.014 A 
ATOM     45  C   UNL A   1      41.460  22.471  28.410  1.00  0.00     0.009 A 
ATOM     46  C   UNL A   1      42.332  23.255  26.295  1.00  0.00     0.009 A 
ATOM     47  C   UNL A   1      41.165  21.238  27.824  1.00  0.00     0.001 A 
ATOM     48  C   UNL A   1      42.004  22.034  25.705  1.00  0.00     0.001 A 
ATOM     49  C   UNL A   1      41.430  21.023  26.472  1.00  0.00     0.000 A 
ENDBRANCH  25  44
BRANCH  37  50
ATOM     50  C   UNL A   1      47.852  26.182  30.409  1.00  0.00    -0.014 A 
ATOM     51  C   UNL A   1      48.786  26.143  29.362  1.00  0.00     0.009 A 
ATOM     52  C   UNL A   1      48.230  25.708  31.675  1.00  0.00     0.009 A 
ATOM     53  C   UNL A   1      50.057  25.605  29.570  1.00  0.00     0.001 A 
ATOM     54  C   UNL A   1      49.512  25.200  31.888  1.00  0.00     0.001 A 
ATOM     55  C   UNL A   1      50.420  25.138  30.833  1.00  0.00     0.000 A 
ENDBRANCH  37  50
ENDBRANCH  11  12
ENDBRANCH   4   6
ENDBRANCH   1   2
BRANCH   1  56
ATOM     56  C   UNL A   1      32.563  28.070  26.536  1.00  0.00     0.042 C 
BRANCH  56  57
ATOM     57  C   UNL A   1      32.205  28.903  25.316  1.00  0.00     0.118 C 
BRANCH  57  58
ATOM     58  N   UNL A   1      32.609  28.275  24.066  1.00  0.00    -0.352 N 
ATOM     59  C   UNL A   1      31.848  27.759  23.045  1.00  0.00     0.251 C 
ATOM     60  H   UNL A   1      33.582  28.207  23.932  1.00  0.00     0.163 HD
ATOM     61  O   UNL A   1      32.396  27.216  22.089  1.00  0.00    -0.269 OA
BRANCH  59  62
ATOM     62  C   UNL A   1      30.373  27.872  23.102  1.00  0.00     0.047 A 
ATOM     63  C   UNL A   1      29.778  28.969  22.450  1.00  0.00     0.017 A 
ATOM     64  C   UNL A   1      29.579  26.897  23.745  1.00  0.00    -0.003 A 
ATOM     65  C   UNL A   1      28.404  29.171  22.526  1.00  0.00     0.040 A 
ATOM     66  C   UNL A   1      28.190  27.126  23.802  1.00  0.00     0.048 A 
ATOM     67  C   UNL A   1      27.625  28.256  23.215  1.00  0.00     0.123 A 
ATOM     68  F   UNL A   1      26.304  28.453  23.305  1.00  0.00    -0.207 F 
BRANCH  64  69
ATOM     69  C   UNL A   1      30.115  25.645  24.312  1.00  0.00    -0.016 A 
ATOM     70  C   UNL A   1      30.168  25.417  25.698  1.00  0.00     0.012 A 
ATOM     71  C   UNL A   1      30.590  24.637  23.452  1.00  0.00     0.032 A 
ATOM     72  C   UNL A   1      30.690  24.223  26.206  1.00  0.00     0.041 A 
ATOM     73  C   UNL A   1      31.107  23.444  23.960  1.00  0.00     0.077 A 
ATOM     74  C   UNL A   1      31.157  23.243  25.335  1.00  0.00     0.141 A 
ATOM     75  Cl  UNL A   1      31.672  22.233  22.873  1.00  0.00    -0.081 Cl
ATOM     76  F   UNL A   1      31.648  22.106  25.846  1.00  0.00    -0.205 F 
ENDBRANCH  64  69
ENDBRANCH  59  62
ENDBRANCH  57  58
ENDBRANCH  56  57
ENDBRANCH   1  56
TORSDOF 11
ENDMDL
MODEL 3
REMARK VINA RESULT:     -11.3      1.301      6.214
REMARK SMILES O=C(NCCCNC(=O)c1ccc(F)cc1-c1ccc(F)c(Cl)c1)c1ccc(-c2c3nc(c(-c4ccccc4)c4ccc([nH]4)c(-c4ccccc4)c4nc(c(-c5ccccc5)c5ccc2[nH]5)C=C4)C=C3)cc1
REMARK SMILES IDX 4 1 3 2 1 3 2 4 25 6 26 7 72 8 27 9 71 10 28 11 29 12 30 13
REMARK SMILES IDX 65 14 31 15 70 16 64 17 66 18 32 19 69 20 63 21 62 22 33 24
REMARK SMILES IDX 55 25 40 26 54 27 41 28 44 29 53 30 67 31 42 32 43 33 52 35
REMARK SMILES IDX 68 36 45 37 34 38 35 39 39 40 36 41 38 42 37 43 56 44 57 45
REMARK SMILES IDX 61 46 58 47 60 48 59 49 46 50 47 51 51 52 48 53 50 54 49 55
REMARK SMILES IDX 5 56 6 57 7 58 8 59 9 61 10 62 11 63 16 64 12 65 15 66 13 67
REMARK SMILES IDX 14 68 17 69 18 70 24 71 19 72 22 73 20 74 23 75 21 76
REMARK H PARENT 3 5 66 23 44 34 7 60
REMARK Flexibility Score: inf
ROOT
ATOM      1  C   UNL A   1      33.771  28.556  27.332  1.00  0.00     0.118 C 
ENDROOT
BRANCH   1   2
ATOM      2  N   UNL A   1      33.704  29.961  27.714  1.00  0.00    -0.352 N 
ATOM      3  O   UNL A   1      34.295  31.882  28.723  1.00  0.00    -0.269 OA
ATOM      4  C   UNL A   1      34.629  30.768  28.332  1.00  0.00     0.251 C 
ATOM      5  H   UNL A   1      32.854  30.406  27.493  1.00  0.00     0.163 HD
BRANCH   4   6
ATOM      6  C   UNL A   1      36.014  30.298  28.548  1.00  0.00     0.039 A 
ATOM      7  C   UNL A   1      36.982  30.442  27.554  1.00  0.00     0.014 A 
ATOM      8  C   UNL A   1      36.361  29.735  29.780  1.00  0.00     0.014 A 
ATOM      9  C   UNL A   1      38.238  29.872  27.721  1.00  0.00     0.010 A 
ATOM     10  C   UNL A   1      37.661  29.262  29.990  1.00  0.00     0.010 A 
ATOM     11  C   UNL A   1      38.601  29.297  28.950  1.00  0.00    -0.014 A 
BRANCH  11  12
ATOM     12  C   UNL A   1      39.994  28.819  29.137  1.00  0.00     0.031 A 
ATOM     13  C   UNL A   1      40.415  27.442  28.709  1.00  0.00     0.074 A 
ATOM     14  C   UNL A   1      40.894  29.665  29.677  1.00  0.00     0.049 A 
ATOM     15  N   UNL A   1      41.600  26.888  28.776  1.00  0.00    -0.248 NA
ATOM     16  C   UNL A   1      39.377  26.569  28.139  1.00  0.00     0.031 C 
ATOM     17  C   UNL A   1      40.604  31.027  30.135  1.00  0.00     0.029 A 
ATOM     18  N   UNL A   1      42.237  29.517  29.908  1.00  0.00    -0.354 N 
ATOM     19  C   UNL A   1      41.449  25.601  28.275  1.00  0.00     0.074 A 
ATOM     20  C   UNL A   1      40.051  25.445  27.933  1.00  0.00     0.031 C 
ATOM     21  C   UNL A   1      41.742  31.608  30.539  1.00  0.00     0.029 A 
ATOM     22  C   UNL A   1      42.827  30.639  30.441  1.00  0.00     0.049 A 
ATOM     23  H   UNL A   1      42.732  28.689  29.713  1.00  0.00     0.167 HD
ATOM     24  C   UNL A   1      42.390  24.640  28.114  1.00  0.00     0.031 A 
ATOM     25  C   UNL A   1      44.094  30.862  30.828  1.00  0.00     0.031 A 
ATOM     26  C   UNL A   1      43.779  24.798  28.464  1.00  0.00     0.049 A 
ATOM     27  C   UNL A   1      45.104  29.764  30.681  1.00  0.00     0.074 A 
ATOM     28  C   UNL A   1      44.814  23.891  28.310  1.00  0.00     0.029 A 
ATOM     29  N   UNL A   1      44.326  25.932  29.044  1.00  0.00    -0.354 N 
ATOM     30  N   UNL A   1      44.950  28.566  30.170  1.00  0.00    -0.248 NA
ATOM     31  C   UNL A   1      46.462  30.048  31.161  1.00  0.00     0.031 C 
ATOM     32  C   UNL A   1      45.974  24.455  28.853  1.00  0.00     0.029 A 
ATOM     33  C   UNL A   1      45.676  25.737  29.283  1.00  0.00     0.049 A 
ATOM     34  H   UNL A   1      43.827  26.754  29.256  1.00  0.00     0.167 HD
ATOM     35  C   UNL A   1      46.196  27.960  30.251  1.00  0.00     0.074 A 
ATOM     36  C   UNL A   1      47.097  28.931  30.837  1.00  0.00     0.031 C 
ATOM     37  C   UNL A   1      46.559  26.710  29.874  1.00  0.00     0.031 A 
BRANCH  24  38
ATOM     38  C   UNL A   1      41.944  23.312  27.561  1.00  0.00    -0.014 A 
ATOM     39  C   UNL A   1      41.999  23.035  26.186  1.00  0.00     0.009 A 
ATOM     40  C   UNL A   1      41.511  22.304  28.439  1.00  0.00     0.009 A 
ATOM     41  C   UNL A   1      41.598  21.788  25.699  1.00  0.00     0.001 A 
ATOM     42  C   UNL A   1      41.140  21.050  27.951  1.00  0.00     0.001 A 
ATOM     43  C   UNL A   1      41.174  20.795  26.582  1.00  0.00     0.000 A 
ENDBRANCH  24  38
BRANCH  25  44
ATOM     44  C   UNL A   1      44.468  32.176  31.413  1.00  0.00    -0.014 A 
ATOM     45  C   UNL A   1      44.930  33.219  30.596  1.00  0.00     0.009 A 
ATOM     46  C   UNL A   1      44.352  32.396  32.795  1.00  0.00     0.009 A 
ATOM     47  C   UNL A   1      45.291  34.447  31.157  1.00  0.00     0.001 A 
ATOM     48  C   UNL A   1      44.681  33.635  33.347  1.00  0.00     0.001 A 
ATOM     49  C   UNL A   1      45.160  34.655  32.529  1.00  0.00     0.000 A 
ENDBRANCH  25  44
BRANCH  37  50
ATOM     50  C   UNL A   1      48.003  26.338  30.056  1.00  0.00    -0.014 A 
ATOM     51  C   UNL A   1      48.946  26.543  29.036  1.00  0.00     0.009 A 
ATOM     52  C   UNL A   1      48.431  25.796  31.278  1.00  0.00     0.009 A 
ATOM     53  C   UNL A   1      50.279  26.176  29.223  1.00  0.00     0.001 A 
ATOM     54  C   UNL A   1      49.771  25.460  31.474  1.00  0.00     0.001 A 
ATOM     55  C   UNL A   1      50.691  25.640  30.444  1.00  0.00     0.000 A 
ENDBRANCH  37  50
ENDBRANCH  11  12
ENDBRANCH   4   6
ENDBRANCH   1   2
BRANCH   1  56
ATOM     56  C   UNL A   1      32.590  28.116  26.480  1.00  0.00     0.042 C 
BRANCH  56  57
ATOM     57  C   UNL A   1      32.391  28.949  25.224  1.00  0.00     0.118 C 
BRANCH  57  58
ATOM     58  N   UNL A   1      32.784  28.244  24.011  1.00  0.00    -0.352 N 
ATOM     59  C   UNL A   1      32.014  27.695  23.015  1.00  0.00     0.251 C 
ATOM     60  H   UNL A   1      33.755  28.142  23.887  1.00  0.00     0.163 HD
ATOM     61  O   UNL A   1      32.551  27.088  22.093  1.00  0.00    -0.269 OA
BRANCH  59  62
ATOM     62  C   UNL A   1      30.542  27.852  23.057  1.00  0.00     0.047 A 
ATOM     63  C   UNL A   1      29.986  28.961  22.390  1.00  0.00     0.017 A 
ATOM     64  C   UNL A   1      29.713  26.906  23.699  1.00  0.00    -0.003 A 
ATOM     65  C   UNL A   1      28.618  29.205  22.452  1.00  0.00     0.040 A 
ATOM     66  C   UNL A   1      28.331  27.177  23.741  1.00  0.00     0.048 A 
ATOM     67  C   UNL A   1      27.805  28.318  23.139  1.00  0.00     0.123 A 
ATOM     68  F   UNL A   1      26.490  28.555  23.215  1.00  0.00    -0.207 F 
BRANCH  64  69
ATOM     69  C   UNL A   1      30.206  25.644  24.281  1.00  0.00    -0.016 A 
ATOM     70  C   UNL A   1      30.236  25.424  25.669  1.00  0.00     0.012 A 
ATOM     71  C   UNL A   1      30.664  24.617  23.433  1.00  0.00     0.032 A 
ATOM     72  C   UNL A   1      30.718  24.219  26.192  1.00  0.00     0.041 A 
ATOM     73  C   UNL A   1      31.141  23.413  23.956  1.00  0.00     0.077 A 
ATOM     74  C   UNL A   1      31.168  23.221  25.333  1.00  0.00     0.141 A 
ATOM     75  Cl  UNL A   1      31.685  22.180  22.884  1.00  0.00    -0.081 Cl
ATOM     76  F   UNL A   1      31.621  22.074  25.858  1.00  0.00    -0.205 F 
ENDBRANCH  64  69
ENDBRANCH  59  62
ENDBRANCH  57  58
ENDBRANCH  56  57
ENDBRANCH   1  56
TORSDOF 11
ENDMDL
