MODEL 1
REMARK VINA RESULT:     -10.8      0.000      0.000
REMARK SMILES C[NH+](C)[C@@H]1CC[N@@H+](Cc2ccc(C(=O)NCCCNC(=O)c3ccc(-c4c5nc(c(-c6ccccc6)c6ccc([nH]6)c(-c6ccccc6)c6nc(c(-c7ccccc7)c7ccc4[nH]7)C=C6)C=C5)cc3)cn2)C1
REMARK SMILES IDX 16 1 15 2 13 3 14 4 12 6 9 7 10 8 71 9 11 10 70 11 8 12 7 13
REMARK SMILES IDX 4 14 5 15 72 16 6 17 2 19 1 20 3 21 17 23 18 24 19 25 20 26
REMARK SMILES IDX 21 28 22 29 23 30 69 31 24 32 68 33 25 34 26 35 27 36 62 37
REMARK SMILES IDX 28 38 67 39 61 40 63 41 29 42 66 43 60 44 59 45 30 47 52 48
REMARK SMILES IDX 37 49 51 50 38 51 41 52 50 53 64 54 39 55 40 56 49 58 65 59
REMARK SMILES IDX 42 60 31 61 32 62 36 63 33 64 35 65 34 66 53 67 54 68 58 69
REMARK SMILES IDX 55 70 57 71 56 72 43 73 44 74 48 75 45 76 47 77 46 78
REMARK H PARENT 15 5 7 18 2 22 19 27 63 46 41 57
REMARK Flexibility Score: inf
ROOT
ATOM      1  C   UNL A   1      36.377  20.326  24.995  1.00  0.00     0.118 C 
ENDROOT
BRANCH   1   2
ATOM      2  N   UNL A   1      35.283  19.380  24.849  1.00  0.00    -0.352 N 
ATOM      3  C   UNL A   1      33.936  19.520  25.069  1.00  0.00     0.252 C 
ATOM      4  O   UNL A   1      33.184  18.602  24.748  1.00  0.00    -0.269 OA
ATOM      5  H   UNL A   1      35.555  18.487  24.538  1.00  0.00     0.163 HD
BRANCH   3   6
ATOM      6  C   UNL A   1      33.360  20.760  25.621  1.00  0.00     0.058 A 
ATOM      7  C   UNL A   1      32.274  23.176  26.387  1.00  0.00     0.095 A 
ATOM      8  C   UNL A   1      33.066  22.468  27.291  1.00  0.00     0.030 A 
ATOM      9  N   UNL A   1      31.952  22.675  25.167  1.00  0.00    -0.255 NA
ATOM     10  C   UNL A   1      33.613  21.246  26.901  1.00  0.00     0.017 A 
ATOM     11  C   UNL A   1      32.485  21.477  24.819  1.00  0.00     0.125 A 
BRANCH   7  12
ATOM     12  C   UNL A   1      31.817  24.589  26.708  1.00  0.00     0.319 C 
BRANCH  12  13
ATOM     13  N   UNL A   1      32.001  25.624  25.672  1.00  0.00    -0.325 N 
ATOM     14  C   UNL A   1      32.061  27.853  26.594  1.00  0.00     0.245 C 
ATOM     15  C   UNL A   1      33.499  27.432  26.270  1.00  0.00     0.132 C 
ATOM     16  C   UNL A   1      31.189  26.836  25.831  1.00  0.00     0.328 C 
ATOM     17  C   UNL A   1      33.384  26.095  25.541  1.00  0.00     0.269 C 
ATOM     18  H   UNL A   1      31.697  25.112  24.844  1.00  0.00     0.348 HD
BRANCH  14  19
ATOM     19  N   UNL A   1      31.698  29.277  26.450  1.00  0.00    -0.333 N 
ATOM     20  C   UNL A   1      32.639  30.138  27.170  1.00  0.00     0.332 C 
ATOM     21  C   UNL A   1      31.567  29.728  25.065  1.00  0.00     0.332 C 
ATOM     22  H   UNL A   1      30.771  29.355  26.866  1.00  0.00     0.348 HD
ENDBRANCH  14  19
ENDBRANCH  12  13
ENDBRANCH   7  12
ENDBRANCH   3   6
ENDBRANCH   1   2
BRANCH   1  23
ATOM     23  C   UNL A   1      37.733  19.658  24.781  1.00  0.00     0.042 C 
BRANCH  23  24
ATOM     24  C   UNL A   1      38.835  20.193  25.691  1.00  0.00     0.118 C 
BRANCH  24  25
ATOM     25  N   UNL A   1      39.979  19.297  25.766  1.00  0.00    -0.352 N 
ATOM     26  C   UNL A   1      41.292  19.562  26.069  1.00  0.00     0.251 C 
ATOM     27  H   UNL A   1      39.781  18.352  25.570  1.00  0.00     0.163 HD
ATOM     28  O   UNL A   1      42.143  18.696  25.885  1.00  0.00    -0.269 OA
BRANCH  26  29
ATOM     29  C   UNL A   1      41.698  20.886  26.594  1.00  0.00     0.039 A 
ATOM     30  C   UNL A   1      42.198  21.839  25.701  1.00  0.00     0.014 A 
ATOM     31  C   UNL A   1      41.628  21.180  27.958  1.00  0.00     0.014 A 
ATOM     32  C   UNL A   1      42.563  23.106  26.166  1.00  0.00     0.010 A 
ATOM     33  C   UNL A   1      41.924  22.465  28.409  1.00  0.00     0.010 A 
ATOM     34  C   UNL A   1      42.396  23.441  27.518  1.00  0.00    -0.014 A 
BRANCH  34  35
ATOM     35  C   UNL A   1      42.698  24.805  28.020  1.00  0.00     0.031 A 
ATOM     36  C   UNL A   1      44.098  25.176  28.422  1.00  0.00     0.074 A 
ATOM     37  C   UNL A   1      41.696  25.692  28.179  1.00  0.00     0.049 A 
ATOM     38  N   UNL A   1      44.539  26.291  28.949  1.00  0.00    -0.248 NA
ATOM     39  C   UNL A   1      45.137  24.151  28.229  1.00  0.00     0.031 C 
ATOM     40  C   UNL A   1      40.288  25.449  27.855  1.00  0.00     0.029 A 
ATOM     41  N   UNL A   1      41.709  26.976  28.664  1.00  0.00    -0.354 N 
ATOM     42  C   UNL A   1      45.896  26.096  29.167  1.00  0.00     0.074 A 
ATOM     43  C   UNL A   1      46.198  24.740  28.759  1.00  0.00     0.031 C 
ATOM     44  C   UNL A   1      39.579  26.556  28.125  1.00  0.00     0.029 A 
ATOM     45  C   UNL A   1      40.470  27.569  28.679  1.00  0.00     0.049 A 
ATOM     46  H   UNL A   1      42.527  27.429  28.971  1.00  0.00     0.167 HD
ATOM     47  C   UNL A   1      46.815  26.968  29.648  1.00  0.00     0.031 A 
ATOM     48  C   UNL A   1      40.090  28.790  29.102  1.00  0.00     0.031 A 
ATOM     49  C   UNL A   1      46.517  28.317  30.051  1.00  0.00     0.049 A 
ATOM     50  C   UNL A   1      41.120  29.730  29.661  1.00  0.00     0.074 A 
ATOM     51  C   UNL A   1      47.387  29.296  30.500  1.00  0.00     0.029 A 
ATOM     52  N   UNL A   1      45.248  28.876  30.059  1.00  0.00    -0.354 N 
ATOM     53  N   UNL A   1      42.410  29.550  29.804  1.00  0.00    -0.248 NA
ATOM     54  C   UNL A   1      40.640  31.044  30.110  1.00  0.00     0.031 C 
ATOM     55  C   UNL A   1      46.637  30.430  30.830  1.00  0.00     0.029 A 
ATOM     56  C   UNL A   1      45.308  30.176  30.532  1.00  0.00     0.049 A 
ATOM     57  H   UNL A   1      44.426  28.417  29.771  1.00  0.00     0.167 HD
ATOM     58  C   UNL A   1      42.901  30.736  30.335  1.00  0.00     0.074 A 
ATOM     59  C   UNL A   1      41.771  31.632  30.475  1.00  0.00     0.031 C 
ATOM     60  C   UNL A   1      44.174  31.054  30.673  1.00  0.00     0.031 A 
BRANCH  47  61
ATOM     61  C   UNL A   1      48.231  26.476  29.776  1.00  0.00    -0.014 A 
ATOM     62  C   UNL A   1      48.675  25.830  30.943  1.00  0.00     0.009 A 
ATOM     63  C   UNL A   1      49.129  26.644  28.712  1.00  0.00     0.009 A 
ATOM     64  C   UNL A   1      50.001  25.406  31.056  1.00  0.00     0.001 A 
ATOM     65  C   UNL A   1      50.446  26.191  28.816  1.00  0.00     0.001 A 
ATOM     66  C   UNL A   1      50.883  25.583  29.991  1.00  0.00     0.000 A 
ENDBRANCH  47  61
BRANCH  48  67
ATOM     67  C   UNL A   1      38.666  29.199  28.996  1.00  0.00    -0.014 A 
ATOM     68  C   UNL A   1      37.811  29.083  30.103  1.00  0.00     0.009 A 
ATOM     69  C   UNL A   1      38.155  29.717  27.796  1.00  0.00     0.009 A 
ATOM     70  C   UNL A   1      36.470  29.460  30.005  1.00  0.00     0.001 A 
ATOM     71  C   UNL A   1      36.819  30.117  27.709  1.00  0.00     0.001 A 
ATOM     72  C   UNL A   1      35.977  29.982  28.810  1.00  0.00     0.000 A 
ENDBRANCH  48  67
BRANCH  60  73
ATOM     73  C   UNL A   1      44.418  32.439  31.202  1.00  0.00    -0.014 A 
ATOM     74  C   UNL A   1      44.383  32.710  32.578  1.00  0.00     0.009 A 
ATOM     75  C   UNL A   1      44.727  33.478  30.310  1.00  0.00     0.009 A 
ATOM     76  C   UNL A   1      44.622  34.004  33.048  1.00  0.00     0.001 A 
ATOM     77  C   UNL A   1      44.993  34.763  30.785  1.00  0.00     0.001 A 
ATOM     78  C   UNL A   1      44.933  35.026  32.153  1.00  0.00     0.000 A 
ENDBRANCH  60  73
ENDBRANCH  34  35
ENDBRANCH  26  29
ENDBRANCH  24  25
ENDBRANCH  23  24
ENDBRANCH   1  23
TORSDOF 13
ENDMDL
MODEL 2
REMARK VINA RESULT:     -10.7      0.520      6.036
REMARK SMILES C[NH+](C)[C@@H]1CC[N@@H+](Cc2ccc(C(=O)NCCCNC(=O)c3ccc(-c4c5nc(c(-c6ccccc6)c6ccc([nH]6)c(-c6ccccc6)c6nc(c(-c7ccccc7)c7ccc4[nH]7)C=C6)C=C5)cc3)cn2)C1
REMARK SMILES IDX 16 1 15 2 13 3 14 4 12 6 9 7 10 8 71 9 11 10 70 11 8 12 7 13
REMARK SMILES IDX 4 14 5 15 72 16 6 17 2 19 1 20 3 21 17 23 18 24 19 25 20 26
REMARK SMILES IDX 21 28 22 29 23 30 69 31 24 32 68 33 25 34 26 35 27 36 62 37
REMARK SMILES IDX 28 38 67 39 61 40 63 41 29 42 66 43 60 44 59 45 30 47 52 48
REMARK SMILES IDX 37 49 51 50 38 51 41 52 50 53 64 54 39 55 40 56 49 58 65 59
REMARK SMILES IDX 42 60 31 61 32 62 36 63 33 64 35 65 34 66 53 67 54 68 58 69
REMARK SMILES IDX 55 70 57 71 56 72 43 73 44 74 48 75 45 76 47 77 46 78
REMARK H PARENT 15 5 7 18 2 22 19 27 63 46 41 57
REMARK Flexibility Score: inf
ROOT
ATOM      1  C   UNL A   1      36.272  20.533  25.002  1.00  0.00     0.118 C 
ENDROOT
BRANCH   1   2
ATOM      2  N   UNL A   1      35.248  19.502  24.991  1.00  0.00    -0.352 N 
ATOM      3  C   UNL A   1      33.906  19.563  25.270  1.00  0.00     0.252 C 
ATOM      4  O   UNL A   1      33.212  18.570  25.064  1.00  0.00    -0.269 OA
ATOM      5  H   UNL A   1      35.573  18.608  24.740  1.00  0.00     0.163 HD
BRANCH   3   6
ATOM      6  C   UNL A   1      33.263  20.801  25.749  1.00  0.00     0.058 A 
ATOM      7  C   UNL A   1      32.022  23.183  26.371  1.00  0.00     0.095 A 
ATOM      8  C   UNL A   1      32.948  22.644  27.264  1.00  0.00     0.030 A 
ATOM      9  N   UNL A   1      31.650  22.531  25.240  1.00  0.00    -0.255 NA
ATOM     10  C   UNL A   1      33.573  21.439  26.947  1.00  0.00     0.017 A 
ATOM     11  C   UNL A   1      32.262  21.353  24.964  1.00  0.00     0.125 A 
BRANCH   7  12
ATOM     12  C   UNL A   1      31.463  24.577  26.594  1.00  0.00     0.319 C 
BRANCH  12  13
ATOM     13  N   UNL A   1      31.718  25.596  25.556  1.00  0.00    -0.325 N 
ATOM     14  C   UNL A   1      32.009  27.806  26.480  1.00  0.00     0.245 C 
ATOM     15  C   UNL A   1      33.393  27.253  26.121  1.00  0.00     0.132 C 
ATOM     16  C   UNL A   1      31.027  26.878  25.736  1.00  0.00     0.328 C 
ATOM     17  C   UNL A   1      33.135  25.935  25.392  1.00  0.00     0.269 C 
ATOM     18  H   UNL A   1      31.347  25.118  24.734  1.00  0.00     0.348 HD
BRANCH  14  19
ATOM     19  N   UNL A   1      31.777  29.257  26.348  1.00  0.00    -0.333 N 
ATOM     20  C   UNL A   1      32.926  30.022  26.838  1.00  0.00     0.332 C 
ATOM     21  C   UNL A   1      31.429  29.690  24.996  1.00  0.00     0.332 C 
ATOM     22  H   UNL A   1      30.963  29.448  26.930  1.00  0.00     0.348 HD
ENDBRANCH  14  19
ENDBRANCH  12  13
ENDBRANCH   7  12
ENDBRANCH   3   6
ENDBRANCH   1   2
BRANCH   1  23
ATOM     23  C   UNL A   1      37.655  19.958  24.704  1.00  0.00     0.042 C 
BRANCH  23  24
ATOM     24  C   UNL A   1      38.726  20.375  25.707  1.00  0.00     0.118 C 
BRANCH  24  25
ATOM     25  N   UNL A   1      39.805  19.404  25.807  1.00  0.00    -0.352 N 
ATOM     26  C   UNL A   1      41.130  19.581  26.120  1.00  0.00     0.251 C 
ATOM     27  H   UNL A   1      39.544  18.472  25.621  1.00  0.00     0.163 HD
ATOM     28  O   UNL A   1      41.920  18.656  25.956  1.00  0.00    -0.269 OA
BRANCH  26  29
ATOM     29  C   UNL A   1      41.621  20.881  26.632  1.00  0.00     0.039 A 
ATOM     30  C   UNL A   1      42.094  21.828  25.718  1.00  0.00     0.014 A 
ATOM     31  C   UNL A   1      41.657  21.158  28.001  1.00  0.00     0.014 A 
ATOM     32  C   UNL A   1      42.540  23.073  26.171  1.00  0.00     0.010 A 
ATOM     33  C   UNL A   1      42.032  22.424  28.445  1.00  0.00     0.010 A 
ATOM     34  C   UNL A   1      42.479  23.394  27.536  1.00  0.00    -0.014 A 
BRANCH  34  35
ATOM     35  C   UNL A   1      42.867  24.739  28.031  1.00  0.00     0.031 A 
ATOM     36  C   UNL A   1      41.821  25.795  28.267  1.00  0.00     0.074 A 
ATOM     37  C   UNL A   1      44.170  25.034  28.204  1.00  0.00     0.049 A 
ATOM     38  N   UNL A   1      41.976  27.044  28.627  1.00  0.00    -0.248 NA
ATOM     39  C   UNL A   1      40.421  25.401  28.046  1.00  0.00     0.031 C 
ATOM     40  C   UNL A   1      45.285  24.110  27.983  1.00  0.00     0.029 A 
ATOM     41  N   UNL A   1      44.777  26.200  28.598  1.00  0.00    -0.354 N 
ATOM     42  C   UNL A   1      40.699  27.589  28.657  1.00  0.00     0.074 A 
ATOM     43  C   UNL A   1      39.786  26.549  28.234  1.00  0.00     0.031 C 
ATOM     44  C   UNL A   1      46.437  24.737  28.270  1.00  0.00     0.029 A 
ATOM     45  C   UNL A   1      46.147  26.115  28.652  1.00  0.00     0.049 A 
ATOM     46  H   UNL A   1      44.279  27.019  28.821  1.00  0.00     0.167 HD
ATOM     47  C   UNL A   1      40.315  28.838  29.019  1.00  0.00     0.031 A 
ATOM     48  C   UNL A   1      47.070  27.044  28.965  1.00  0.00     0.031 A 
ATOM     49  C   UNL A   1      41.221  29.872  29.442  1.00  0.00     0.049 A 
ATOM     50  C   UNL A   1      46.624  28.431  29.333  1.00  0.00     0.074 A 
ATOM     51  C   UNL A   1      40.925  31.152  29.881  1.00  0.00     0.029 A 
ATOM     52  N   UNL A   1      42.601  29.747  29.475  1.00  0.00    -0.354 N 
ATOM     53  N   UNL A   1      45.407  28.911  29.415  1.00  0.00    -0.248 NA
ATOM     54  C   UNL A   1      47.679  29.399  29.659  1.00  0.00     0.031 C 
ATOM     55  C   UNL A   1      42.131  31.819  30.128  1.00  0.00     0.029 A 
ATOM     56  C   UNL A   1      43.173  30.935  29.898  1.00  0.00     0.049 A 
ATOM     57  H   UNL A   1      43.101  28.934  29.233  1.00  0.00     0.167 HD
ATOM     58  C   UNL A   1      45.549  30.231  29.826  1.00  0.00     0.074 A 
ATOM     59  C   UNL A   1      46.969  30.469  29.989  1.00  0.00     0.031 C 
ATOM     60  C   UNL A   1      44.588  31.160  30.050  1.00  0.00     0.031 A 
BRANCH  47  61
ATOM     61  C   UNL A   1      38.845  29.152  28.956  1.00  0.00    -0.014 A 
ATOM     62  C   UNL A   1      38.030  29.059  30.096  1.00  0.00     0.009 A 
ATOM     63  C   UNL A   1      38.270  29.564  27.744  1.00  0.00     0.009 A 
ATOM     64  C   UNL A   1      36.662  29.327  30.012  1.00  0.00     0.001 A 
ATOM     65  C   UNL A   1      36.907  29.862  27.670  1.00  0.00     0.001 A 
ATOM     66  C   UNL A   1      36.103  29.731  28.801  1.00  0.00     0.000 A 
ENDBRANCH  47  61
BRANCH  48  67
ATOM     67  C   UNL A   1      48.511  26.686  28.960  1.00  0.00    -0.014 A 
ATOM     68  C   UNL A   1      49.125  26.205  30.127  1.00  0.00     0.009 A 
ATOM     69  C   UNL A   1      49.278  26.810  27.791  1.00  0.00     0.009 A 
ATOM     70  C   UNL A   1      50.482  25.874  30.128  1.00  0.00     0.001 A 
ATOM     71  C   UNL A   1      50.629  26.453  27.789  1.00  0.00     0.001 A 
ATOM     72  C   UNL A   1      51.231  25.993  28.958  1.00  0.00     0.000 A 
ENDBRANCH  48  67
BRANCH  60  73
ATOM     73  C   UNL A   1      45.039  32.512  30.523  1.00  0.00    -0.014 A 
ATOM     74  C   UNL A   1      45.309  33.549  29.618  1.00  0.00     0.009 A 
ATOM     75  C   UNL A   1      45.156  32.763  31.900  1.00  0.00     0.009 A 
ATOM     76  C   UNL A   1      45.718  34.802  30.081  1.00  0.00     0.001 A 
ATOM     77  C   UNL A   1      45.537  34.024  32.360  1.00  0.00     0.001 A 
ATOM     78  C   UNL A   1      45.826  35.040  31.450  1.00  0.00     0.000 A 
ENDBRANCH  60  73
ENDBRANCH  34  35
ENDBRANCH  26  29
ENDBRANCH  24  25
ENDBRANCH  23  24
ENDBRANCH   1  23
TORSDOF 13
ENDMDL
MODEL 3
REMARK VINA RESULT:     -10.7      1.368      6.255
REMARK SMILES C[NH+](C)[C@@H]1CC[N@@H+](Cc2ccc(C(=O)NCCCNC(=O)c3ccc(-c4c5nc(c(-c6ccccc6)c6ccc([nH]6)c(-c6ccccc6)c6nc(c(-c7ccccc7)c7ccc4[nH]7)C=C6)C=C5)cc3)cn2)C1
REMARK SMILES IDX 16 1 15 2 13 3 14 4 12 6 9 7 10 8 71 9 11 10 70 11 8 12 7 13
REMARK SMILES IDX 4 14 5 15 72 16 6 17 2 19 1 20 3 21 17 23 18 24 19 25 20 26
REMARK SMILES IDX 21 28 22 29 23 30 69 31 24 32 68 33 25 34 26 35 27 36 62 37
REMARK SMILES IDX 28 38 67 39 61 40 63 41 29 42 66 43 60 44 59 45 30 47 52 48
REMARK SMILES IDX 37 49 51 50 38 51 41 52 50 53 64 54 39 55 40 56 49 58 65 59
REMARK SMILES IDX 42 60 31 61 32 62 36 63 33 64 35 65 34 66 53 67 54 68 58 69
REMARK SMILES IDX 55 70 57 71 56 72 43 73 44 74 48 75 45 76 47 77 46 78
REMARK H PARENT 15 5 7 18 2 22 19 27 63 46 41 57
REMARK Flexibility Score: inf
ROOT
ATOM      1  C   UNL A   1      36.438  20.710  24.997  1.00  0.00     0.118 C 
ENDROOT
BRANCH   1   2
ATOM      2  N   UNL A   1      35.228  19.912  25.102  1.00  0.00    -0.352 N 
ATOM      3  C   UNL A   1      33.904  20.271  25.045  1.00  0.00     0.252 C 
ATOM      4  O   UNL A   1      33.050  19.388  25.031  1.00  0.00    -0.269 OA
ATOM      5  H   UNL A   1      35.384  18.950  25.237  1.00  0.00     0.163 HD
BRANCH   3   6
ATOM      6  C   UNL A   1      33.482  21.680  24.937  1.00  0.00     0.058 A 
ATOM      7  C   UNL A   1      32.757  24.297  24.459  1.00  0.00     0.095 A 
ATOM      8  C   UNL A   1      33.193  23.933  25.733  1.00  0.00     0.030 A 
ATOM      9  N   UNL A   1      32.599  23.386  23.465  1.00  0.00    -0.255 NA
ATOM     10  C   UNL A   1      33.558  22.609  25.971  1.00  0.00     0.017 A 
ATOM     11  C   UNL A   1      32.946  22.102  23.729  1.00  0.00     0.125 A 
BRANCH   7  12
ATOM     12  C   UNL A   1      32.529  25.758  24.113  1.00  0.00     0.319 C 
BRANCH  12  13
ATOM     13  N   UNL A   1      31.494  26.491  24.870  1.00  0.00    -0.325 N 
ATOM     14  C   UNL A   1      29.989  27.711  23.432  1.00  0.00     0.245 C 
ATOM     15  C   UNL A   1      29.274  26.440  23.903  1.00  0.00     0.132 C 
ATOM     16  C   UNL A   1      31.191  27.845  24.388  1.00  0.00     0.328 C 
ATOM     17  C   UNL A   1      30.203  25.800  24.933  1.00  0.00     0.269 C 
ATOM     18  H   UNL A   1      31.939  26.545  25.786  1.00  0.00     0.348 HD
BRANCH  14  19
ATOM     19  N   UNL A   1      29.182  28.927  23.208  1.00  0.00    -0.333 N 
ATOM     20  C   UNL A   1      29.750  29.748  22.136  1.00  0.00     0.332 C 
ATOM     21  C   UNL A   1      27.767  28.671  22.946  1.00  0.00     0.332 C 
ATOM     22  H   UNL A   1      29.224  29.436  24.090  1.00  0.00     0.348 HD
ENDBRANCH  14  19
ENDBRANCH  12  13
ENDBRANCH   7  12
ENDBRANCH   3   6
ENDBRANCH   1   2
BRANCH   1  23
ATOM     23  C   UNL A   1      37.684  19.834  24.894  1.00  0.00     0.042 C 
BRANCH  23  24
ATOM     24  C   UNL A   1      38.850  20.317  25.752  1.00  0.00     0.118 C 
BRANCH  24  25
ATOM     25  N   UNL A   1      39.920  19.334  25.841  1.00  0.00    -0.352 N 
ATOM     26  C   UNL A   1      41.256  19.503  26.112  1.00  0.00     0.251 C 
ATOM     27  H   UNL A   1      39.643  18.403  25.682  1.00  0.00     0.163 HD
ATOM     28  O   UNL A   1      42.030  18.565  25.946  1.00  0.00    -0.269 OA
BRANCH  26  29
ATOM     29  C   UNL A   1      41.776  20.807  26.583  1.00  0.00     0.039 A 
ATOM     30  C   UNL A   1      42.215  21.737  25.635  1.00  0.00     0.014 A 
ATOM     31  C   UNL A   1      41.872  21.104  27.945  1.00  0.00     0.014 A 
ATOM     32  C   UNL A   1      42.686  22.986  26.050  1.00  0.00     0.010 A 
ATOM     33  C   UNL A   1      42.274  22.374  28.353  1.00  0.00     0.010 A 
ATOM     34  C   UNL A   1      42.686  23.328  27.410  1.00  0.00    -0.014 A 
BRANCH  34  35
ATOM     35  C   UNL A   1      43.103  24.678  27.869  1.00  0.00     0.031 A 
ATOM     36  C   UNL A   1      42.073  25.733  28.163  1.00  0.00     0.074 A 
ATOM     37  C   UNL A   1      44.414  24.975  27.954  1.00  0.00     0.049 A 
ATOM     38  N   UNL A   1      42.248  26.986  28.501  1.00  0.00    -0.248 NA
ATOM     39  C   UNL A   1      40.662  25.336  28.037  1.00  0.00     0.031 C 
ATOM     40  C   UNL A   1      45.514  24.052  27.668  1.00  0.00     0.029 A 
ATOM     41  N   UNL A   1      45.043  26.146  28.297  1.00  0.00    -0.354 N 
ATOM     42  C   UNL A   1      40.975  27.529  28.610  1.00  0.00     0.074 A 
ATOM     43  C   UNL A   1      40.039  26.484  28.256  1.00  0.00     0.031 C 
ATOM     44  C   UNL A   1      46.681  24.682  27.874  1.00  0.00     0.029 A 
ATOM     45  C   UNL A   1      46.414  26.063  28.263  1.00  0.00     0.049 A 
ATOM     46  H   UNL A   1      44.559  26.966  28.545  1.00  0.00     0.167 HD
ATOM     47  C   UNL A   1      40.612  28.780  28.986  1.00  0.00     0.031 A 
ATOM     48  C   UNL A   1      47.353  26.996  28.507  1.00  0.00     0.031 A 
ATOM     49  C   UNL A   1      41.542  29.820  29.340  1.00  0.00     0.049 A 
ATOM     50  C   UNL A   1      46.929  28.385  28.892  1.00  0.00     0.074 A 
ATOM     51  C   UNL A   1      41.273  31.103  29.786  1.00  0.00     0.029 A 
ATOM     52  N   UNL A   1      42.922  29.697  29.284  1.00  0.00    -0.354 N 
ATOM     53  N   UNL A   1      45.720  28.865  29.048  1.00  0.00    -0.248 NA
ATOM     54  C   UNL A   1      48.002  29.358  29.140  1.00  0.00     0.031 C 
ATOM     55  C   UNL A   1      42.491  31.773  29.949  1.00  0.00     0.029 A 
ATOM     56  C   UNL A   1      43.518  30.890  29.659  1.00  0.00     0.049 A 
ATOM     57  H   UNL A   1      43.407  28.883  29.017  1.00  0.00     0.167 HD
ATOM     58  C   UNL A   1      45.885  30.188  29.438  1.00  0.00     0.074 A 
ATOM     59  C   UNL A   1      47.312  30.430  29.506  1.00  0.00     0.031 C 
ATOM     60  C   UNL A   1      44.940  31.117  29.716  1.00  0.00     0.031 A 
BRANCH  47  61
ATOM     61  C   UNL A   1      39.141  29.092  29.015  1.00  0.00    -0.014 A 
ATOM     62  C   UNL A   1      38.483  29.609  27.886  1.00  0.00     0.009 A 
ATOM     63  C   UNL A   1      38.398  28.849  30.180  1.00  0.00     0.009 A 
ATOM     64  C   UNL A   1      37.122  29.919  27.940  1.00  0.00     0.001 A 
ATOM     65  C   UNL A   1      37.031  29.131  30.221  1.00  0.00     0.001 A 
ATOM     66  C   UNL A   1      36.397  29.677  29.106  1.00  0.00     0.000 A 
ENDBRANCH  47  61
BRANCH  48  67
ATOM     67  C   UNL A   1      48.792  26.640  28.412  1.00  0.00    -0.014 A 
ATOM     68  C   UNL A   1      49.494  26.219  29.551  1.00  0.00     0.009 A 
ATOM     69  C   UNL A   1      49.469  26.707  27.184  1.00  0.00     0.009 A 
ATOM     70  C   UNL A   1      50.849  25.890  29.467  1.00  0.00     0.001 A 
ATOM     71  C   UNL A   1      50.817  26.352  27.097  1.00  0.00     0.001 A 
ATOM     72  C   UNL A   1      51.508  25.951  28.239  1.00  0.00     0.000 A 
ENDBRANCH  48  67
BRANCH  60  73
ATOM     73  C   UNL A   1      45.417  32.475  30.148  1.00  0.00    -0.014 A 
ATOM     74  C   UNL A   1      45.622  33.506  29.218  1.00  0.00     0.009 A 
ATOM     75  C   UNL A   1      45.627  32.736  31.512  1.00  0.00     0.009 A 
ATOM     76  C   UNL A   1      46.058  34.763  29.643  1.00  0.00     0.001 A 
ATOM     77  C   UNL A   1      46.035  34.001  31.935  1.00  0.00     0.001 A 
ATOM     78  C   UNL A   1      46.258  35.011  31.000  1.00  0.00     0.000 A 
ENDBRANCH  60  73
ENDBRANCH  34  35
ENDBRANCH  26  29
ENDBRANCH  24  25
ENDBRANCH  23  24
ENDBRANCH   1  23
TORSDOF 13
ENDMDL
