MODEL 1
REMARK VINA RESULT:     -11.5      0.000      0.000
REMARK SMILES CCc1[nH]nc(-n2cccc2)c1C(=O)NCCCNC(=O)c1ccc(-c2c3nc(c(-c4ccccc4)c4ccc([nH]4)c(-c4ccccc4)c4nc(c(-c5ccccc5)c5ccc2[nH]5)C=C4)C=C3)cc1
REMARK SMILES IDX 17 1 16 2 15 3 13 4 14 5 12 7 3 8 4 9 5 10 6 12 2 13 1 14
REMARK SMILES IDX 7 15 8 16 11 17 9 18 10 19 18 20 19 21 20 22 21 24 22 25
REMARK SMILES IDX 23 26 69 27 24 28 68 29 25 30 26 31 27 32 62 33 28 34 67 35
REMARK SMILES IDX 61 36 63 37 29 38 66 39 60 40 59 41 30 43 52 44 37 45 51 46
REMARK SMILES IDX 38 47 41 48 50 49 64 50 39 51 40 52 49 54 65 55 42 56 31 57
REMARK SMILES IDX 32 58 36 59 33 60 35 61 34 62 53 63 54 64 58 65 55 66 57 67
REMARK SMILES IDX 56 68 43 69 44 70 48 71 45 72 47 73 46 74
REMARK H PARENT 15 6 4 11 19 23 63 42 41 53
REMARK Flexibility Score: inf
ROOT
ATOM      1  C   UNL A   1      37.828  19.717  25.014  1.00  0.00     0.042 C 
ENDROOT
BRANCH   1   2
ATOM      2  C   UNL A   1      36.822  20.805  24.634  1.00  0.00     0.118 C 
BRANCH   2   3
ATOM      3  N   UNL A   1      35.866  21.024  25.683  1.00  0.00    -0.352 N 
ATOM      4  C   UNL A   1      34.506  21.003  25.779  1.00  0.00     0.256 C 
ATOM      5  O   UNL A   1      34.145  21.104  26.955  1.00  0.00    -0.269 OA
ATOM      6  H   UNL A   1      36.297  21.244  26.540  1.00  0.00     0.163 HD
BRANCH   4   7
ATOM      7  C   UNL A   1      33.534  20.837  24.686  1.00  0.00     0.105 A 
ATOM      8  C   UNL A   1      32.841  21.716  23.831  1.00  0.00     0.050 A 
ATOM      9  N   UNL A   1      32.151  20.923  22.948  1.00  0.00    -0.280 N 
ATOM     10  N   UNL A   1      32.370  19.622  23.082  1.00  0.00    -0.156 NA
ATOM     11  H   UNL A   1      31.541  21.291  22.268  1.00  0.00     0.190 HD
ATOM     12  C   UNL A   1      33.119  19.548  24.185  1.00  0.00     0.171 A 
BRANCH   8  13
ATOM     13  C   UNL A   1      32.725  23.200  23.691  1.00  0.00     0.053 C 
ATOM     14  C   UNL A   1      32.863  23.788  22.294  1.00  0.00     0.011 C 
ENDBRANCH   8  13
BRANCH  12  15
ATOM     15  N   UNL A   1      33.414  18.226  24.653  1.00  0.00    -0.307 N 
ATOM     16  C   UNL A   1      34.557  17.481  24.438  1.00  0.00     0.093 A 
ATOM     17  C   UNL A   1      32.598  17.480  25.488  1.00  0.00     0.093 A 
ATOM     18  C   UNL A   1      34.404  16.238  25.011  1.00  0.00     0.020 A 
ATOM     19  C   UNL A   1      33.152  16.231  25.662  1.00  0.00     0.020 A 
ENDBRANCH  12  15
ENDBRANCH   4   7
ENDBRANCH   2   3
ENDBRANCH   1   2
BRANCH   1  20
ATOM     20  C   UNL A   1      38.978  20.270  25.836  1.00  0.00     0.118 C 
BRANCH  20  21
ATOM     21  N   UNL A   1      40.015  19.255  25.963  1.00  0.00    -0.352 N 
ATOM     22  C   UNL A   1      41.369  19.390  26.110  1.00  0.00     0.251 C 
ATOM     23  H   UNL A   1      39.691  18.325  25.939  1.00  0.00     0.163 HD
ATOM     24  O   UNL A   1      42.103  18.440  25.895  1.00  0.00    -0.269 OA
BRANCH  22  25
ATOM     25  C   UNL A   1      41.935  20.689  26.500  1.00  0.00     0.039 A 
ATOM     26  C   UNL A   1      42.352  21.553  25.483  1.00  0.00     0.014 A 
ATOM     27  C   UNL A   1      42.092  21.027  27.848  1.00  0.00     0.014 A 
ATOM     28  C   UNL A   1      42.869  22.792  25.822  1.00  0.00     0.010 A 
ATOM     29  C   UNL A   1      42.552  22.284  28.190  1.00  0.00     0.010 A 
ATOM     30  C   UNL A   1      42.940  23.157  27.173  1.00  0.00    -0.014 A 
BRANCH  30  31
ATOM     31  C   UNL A   1      43.342  24.531  27.510  1.00  0.00     0.031 A 
ATOM     32  C   UNL A   1      42.116  25.440  27.678  1.00  0.00     0.074 A 
ATOM     33  C   UNL A   1      44.691  24.751  27.554  1.00  0.00     0.049 A 
ATOM     34  N   UNL A   1      41.979  26.699  27.412  1.00  0.00    -0.248 NA
ATOM     35  C   UNL A   1      40.823  24.851  28.133  1.00  0.00     0.031 C 
ATOM     36  C   UNL A   1      45.722  23.691  27.422  1.00  0.00     0.029 A 
ATOM     37  N   UNL A   1      45.479  25.869  27.711  1.00  0.00    -0.354 N 
ATOM     38  C   UNL A   1      40.676  27.091  27.794  1.00  0.00     0.074 A 
ATOM     39  C   UNL A   1      39.979  25.888  28.136  1.00  0.00     0.031 C 
ATOM     40  C   UNL A   1      46.965  24.218  27.417  1.00  0.00     0.029 A 
ATOM     41  C   UNL A   1      46.871  25.658  27.530  1.00  0.00     0.049 A 
ATOM     42  H   UNL A   1      45.104  26.751  27.934  1.00  0.00     0.167 HD
ATOM     43  C   UNL A   1      40.310  28.402  27.929  1.00  0.00     0.031 A 
ATOM     44  C   UNL A   1      47.873  26.581  27.406  1.00  0.00     0.031 A 
ATOM     45  C   UNL A   1      41.397  29.243  27.557  1.00  0.00     0.049 A 
ATOM     46  C   UNL A   1      47.235  27.888  27.612  1.00  0.00     0.074 A 
ATOM     47  C   UNL A   1      41.970  29.530  26.345  1.00  0.00     0.029 A 
ATOM     48  N   UNL A   1      42.275  29.569  28.563  1.00  0.00    -0.354 N 
ATOM     49  N   UNL A   1      46.828  28.342  28.756  1.00  0.00    -0.248 NA
ATOM     50  C   UNL A   1      46.922  28.716  26.441  1.00  0.00     0.031 C 
ATOM     51  C   UNL A   1      43.349  29.503  26.641  1.00  0.00     0.029 A 
ATOM     52  C   UNL A   1      43.535  29.477  28.029  1.00  0.00     0.049 A 
ATOM     53  H   UNL A   1      42.044  29.821  29.486  1.00  0.00     0.167 HD
ATOM     54  C   UNL A   1      45.880  29.260  28.380  1.00  0.00     0.074 A 
ATOM     55  C   UNL A   1      46.221  29.676  27.036  1.00  0.00     0.031 C 
ATOM     56  C   UNL A   1      44.634  29.198  28.921  1.00  0.00     0.031 A 
BRANCH  43  57
ATOM     57  C   UNL A   1      39.150  29.065  28.620  1.00  0.00    -0.014 A 
ATOM     58  C   UNL A   1      38.991  28.808  30.007  1.00  0.00     0.009 A 
ATOM     59  C   UNL A   1      38.060  29.623  27.948  1.00  0.00     0.009 A 
ATOM     60  C   UNL A   1      37.763  28.962  30.654  1.00  0.00     0.001 A 
ATOM     61  C   UNL A   1      36.835  29.816  28.608  1.00  0.00     0.001 A 
ATOM     62  C   UNL A   1      36.676  29.447  29.944  1.00  0.00     0.000 A 
ENDBRANCH  43  57
BRANCH  44  63
ATOM     63  C   UNL A   1      49.322  26.603  27.000  1.00  0.00    -0.014 A 
ATOM     64  C   UNL A   1      50.420  26.677  27.859  1.00  0.00     0.009 A 
ATOM     65  C   UNL A   1      49.636  26.479  25.618  1.00  0.00     0.009 A 
ATOM     66  C   UNL A   1      51.737  26.528  27.372  1.00  0.00     0.001 A 
ATOM     67  C   UNL A   1      50.931  26.286  25.134  1.00  0.00     0.001 A 
ATOM     68  C   UNL A   1      51.990  26.294  26.021  1.00  0.00     0.000 A 
ENDBRANCH  44  63
BRANCH  56  69
ATOM     69  C   UNL A   1      44.540  28.441  30.244  1.00  0.00    -0.014 A 
ATOM     70  C   UNL A   1      44.005  27.141  30.270  1.00  0.00     0.009 A 
ATOM     71  C   UNL A   1      44.830  29.028  31.489  1.00  0.00     0.009 A 
ATOM     72  C   UNL A   1      43.729  26.481  31.476  1.00  0.00     0.001 A 
ATOM     73  C   UNL A   1      44.561  28.369  32.701  1.00  0.00     0.001 A 
ATOM     74  C   UNL A   1      44.001  27.096  32.693  1.00  0.00     0.000 A 
ENDBRANCH  56  69
ENDBRANCH  30  31
ENDBRANCH  22  25
ENDBRANCH  20  21
ENDBRANCH   1  20
TORSDOF 12
ENDMDL
MODEL 2
REMARK VINA RESULT:     -11.4      6.166     11.174
REMARK SMILES CCc1[nH]nc(-n2cccc2)c1C(=O)NCCCNC(=O)c1ccc(-c2c3nc(c(-c4ccccc4)c4ccc([nH]4)c(-c4ccccc4)c4nc(c(-c5ccccc5)c5ccc2[nH]5)C=C4)C=C3)cc1
REMARK SMILES IDX 17 1 16 2 15 3 13 4 14 5 12 7 3 8 4 9 5 10 6 12 2 13 1 14
REMARK SMILES IDX 7 15 8 16 11 17 9 18 10 19 18 20 19 21 20 22 21 24 22 25
REMARK SMILES IDX 23 26 69 27 24 28 68 29 25 30 26 31 27 32 62 33 28 34 67 35
REMARK SMILES IDX 61 36 63 37 29 38 66 39 60 40 59 41 30 43 52 44 37 45 51 46
REMARK SMILES IDX 38 47 41 48 50 49 64 50 39 51 40 52 49 54 65 55 42 56 31 57
REMARK SMILES IDX 32 58 36 59 33 60 35 61 34 62 53 63 54 64 58 65 55 66 57 67
REMARK SMILES IDX 56 68 43 69 44 70 48 71 45 72 47 73 46 74
REMARK H PARENT 15 6 4 11 19 23 63 42 41 53
REMARK Flexibility Score: inf
ROOT
ATOM      1  C   UNL A   1      31.365  31.528  26.135  1.00  0.00     0.042 C 
ENDROOT
BRANCH   1   2
ATOM      2  C   UNL A   1      31.444  30.015  25.920  1.00  0.00     0.118 C 
BRANCH   2   3
ATOM      3  N   UNL A   1      31.867  29.697  24.585  1.00  0.00    -0.352 N 
ATOM      4  C   UNL A   1      31.298  29.093  23.503  1.00  0.00     0.256 C 
ATOM      5  O   UNL A   1      32.022  29.195  22.509  1.00  0.00    -0.269 OA
ATOM      6  H   UNL A   1      32.791  29.985  24.408  1.00  0.00     0.163 HD
BRANCH   4   7
ATOM      7  C   UNL A   1      29.986  28.429  23.435  1.00  0.00     0.105 A 
ATOM      8  C   UNL A   1      29.501  27.149  23.768  1.00  0.00     0.050 A 
ATOM      9  N   UNL A   1      28.145  27.190  23.560  1.00  0.00    -0.280 N 
ATOM     10  N   UNL A   1      27.674  28.375  23.197  1.00  0.00    -0.156 NA
ATOM     11  H   UNL A   1      27.567  26.401  23.671  1.00  0.00     0.190 HD
ATOM     12  C   UNL A   1      28.779  29.104  23.020  1.00  0.00     0.171 A 
BRANCH   8  13
ATOM     13  C   UNL A   1      30.104  25.876  24.269  1.00  0.00     0.053 C 
ATOM     14  C   UNL A   1      31.211  25.983  25.309  1.00  0.00     0.011 C 
ENDBRANCH   8  13
BRANCH  12  15
ATOM     15  N   UNL A   1      28.581  30.423  22.497  1.00  0.00    -0.307 N 
ATOM     16  C   UNL A   1      28.250  30.787  21.206  1.00  0.00     0.093 A 
ATOM     17  C   UNL A   1      28.621  31.588  23.245  1.00  0.00     0.093 A 
ATOM     18  C   UNL A   1      28.218  32.161  21.114  1.00  0.00     0.020 A 
ATOM     19  C   UNL A   1      28.472  32.670  22.406  1.00  0.00     0.020 A 
ENDBRANCH  12  15
ENDBRANCH   4   7
ENDBRANCH   2   3
ENDBRANCH   1   2
BRANCH   1  20
ATOM     20  C   UNL A   1      32.465  32.028  27.054  1.00  0.00     0.118 C 
BRANCH  20  21
ATOM     21  N   UNL A   1      32.293  33.456  27.281  1.00  0.00    -0.352 N 
ATOM     22  C   UNL A   1      32.905  34.287  28.181  1.00  0.00     0.251 C 
ATOM     23  H   UNL A   1      31.634  33.894  26.696  1.00  0.00     0.163 HD
ATOM     24  O   UNL A   1      32.420  35.378  28.431  1.00  0.00    -0.269 OA
BRANCH  22  25
ATOM     25  C   UNL A   1      34.131  33.847  28.864  1.00  0.00     0.039 A 
ATOM     26  C   UNL A   1      33.994  33.093  30.032  1.00  0.00     0.014 A 
ATOM     27  C   UNL A   1      35.391  34.214  28.380  1.00  0.00     0.014 A 
ATOM     28  C   UNL A   1      35.133  32.648  30.683  1.00  0.00     0.010 A 
ATOM     29  C   UNL A   1      36.529  33.724  28.992  1.00  0.00     0.010 A 
ATOM     30  C   UNL A   1      36.391  32.945  30.142  1.00  0.00    -0.014 A 
BRANCH  30  31
ATOM     31  C   UNL A   1      37.581  32.336  30.753  1.00  0.00     0.031 A 
ATOM     32  C   UNL A   1      37.925  31.000  30.080  1.00  0.00     0.074 A 
ATOM     33  C   UNL A   1      38.111  33.021  31.811  1.00  0.00     0.049 A 
ATOM     34  N   UNL A   1      38.449  29.931  30.586  1.00  0.00    -0.248 NA
ATOM     35  C   UNL A   1      37.563  30.785  28.649  1.00  0.00     0.031 C 
ATOM     36  C   UNL A   1      37.650  34.357  32.266  1.00  0.00     0.029 A 
ATOM     37  N   UNL A   1      39.116  32.767  32.717  1.00  0.00    -0.354 N 
ATOM     38  C   UNL A   1      38.621  28.988  29.546  1.00  0.00     0.074 A 
ATOM     39  C   UNL A   1      37.964  29.534  28.398  1.00  0.00     0.031 C 
ATOM     40  C   UNL A   1      38.299  34.743  33.384  1.00  0.00     0.029 A 
ATOM     41  C   UNL A   1      39.228  33.705  33.776  1.00  0.00     0.049 A 
ATOM     42  H   UNL A   1      39.714  31.989  32.636  1.00  0.00     0.167 HD
ATOM     43  C   UNL A   1      39.415  27.882  29.677  1.00  0.00     0.031 A 
ATOM     44  C   UNL A   1      39.962  33.620  34.927  1.00  0.00     0.031 A 
ATOM     45  C   UNL A   1      39.936  27.821  31.001  1.00  0.00     0.049 A 
ATOM     46  C   UNL A   1      40.734  32.376  34.815  1.00  0.00     0.074 A 
ATOM     47  C   UNL A   1      39.355  27.545  32.211  1.00  0.00     0.029 A 
ATOM     48  N   UNL A   1      41.124  28.480  31.209  1.00  0.00    -0.354 N 
ATOM     49  N   UNL A   1      41.757  32.206  34.036  1.00  0.00    -0.248 NA
ATOM     50  C   UNL A   1      40.271  31.188  35.541  1.00  0.00     0.031 C 
ATOM     51  C   UNL A   1      39.933  28.511  33.061  1.00  0.00     0.029 A 
ATOM     52  C   UNL A   1      41.008  29.130  32.411  1.00  0.00     0.049 A 
ATOM     53  H   UNL A   1      41.907  28.483  30.612  1.00  0.00     0.167 HD
ATOM     54  C   UNL A   1      41.773  30.843  33.877  1.00  0.00     0.074 A 
ATOM     55  C   UNL A   1      41.108  30.285  35.036  1.00  0.00     0.031 C 
ATOM     56  C   UNL A   1      41.805  30.313  32.626  1.00  0.00     0.031 A 
BRANCH  43  57
ATOM     57  C   UNL A   1      40.021  26.944  28.669  1.00  0.00    -0.014 A 
ATOM     58  C   UNL A   1      40.851  27.516  27.671  1.00  0.00     0.009 A 
ATOM     59  C   UNL A   1      39.567  25.641  28.450  1.00  0.00     0.009 A 
ATOM     60  C   UNL A   1      41.094  26.878  26.453  1.00  0.00     0.001 A 
ATOM     61  C   UNL A   1      39.845  24.982  27.241  1.00  0.00     0.001 A 
ATOM     62  C   UNL A   1      40.570  25.615  26.231  1.00  0.00     0.000 A 
ENDBRANCH  43  57
BRANCH  44  63
ATOM     63  C   UNL A   1      40.062  34.349  36.240  1.00  0.00    -0.014 A 
ATOM     64  C   UNL A   1      40.998  35.331  36.571  1.00  0.00     0.009 A 
ATOM     65  C   UNL A   1      39.086  34.076  37.238  1.00  0.00     0.009 A 
ATOM     66  C   UNL A   1      40.893  36.060  37.776  1.00  0.00     0.001 A 
ATOM     67  C   UNL A   1      38.949  34.822  38.410  1.00  0.00     0.001 A 
ATOM     68  C   UNL A   1      39.850  35.834  38.674  1.00  0.00     0.000 A 
ENDBRANCH  44  63
BRANCH  56  69
ATOM     69  C   UNL A   1      42.315  31.255  31.537  1.00  0.00    -0.014 A 
ATOM     70  C   UNL A   1      43.689  31.537  31.442  1.00  0.00     0.009 A 
ATOM     71  C   UNL A   1      41.462  31.987  30.691  1.00  0.00     0.009 A 
ATOM     72  C   UNL A   1      44.181  32.530  30.583  1.00  0.00     0.001 A 
ATOM     73  C   UNL A   1      41.949  32.981  29.825  1.00  0.00     0.001 A 
ATOM     74  C   UNL A   1      43.311  33.257  29.778  1.00  0.00     0.000 A 
ENDBRANCH  56  69
ENDBRANCH  30  31
ENDBRANCH  22  25
ENDBRANCH  20  21
ENDBRANCH   1  20
TORSDOF 12
ENDMDL
MODEL 3
REMARK VINA RESULT:     -11.3      5.286     10.328
REMARK SMILES CCc1[nH]nc(-n2cccc2)c1C(=O)NCCCNC(=O)c1ccc(-c2c3nc(c(-c4ccccc4)c4ccc([nH]4)c(-c4ccccc4)c4nc(c(-c5ccccc5)c5ccc2[nH]5)C=C4)C=C3)cc1
REMARK SMILES IDX 17 1 16 2 15 3 13 4 14 5 12 7 3 8 4 9 5 10 6 12 2 13 1 14
REMARK SMILES IDX 7 15 8 16 11 17 9 18 10 19 18 20 19 21 20 22 21 24 22 25
REMARK SMILES IDX 23 26 69 27 24 28 68 29 25 30 26 31 27 32 62 33 28 34 67 35
REMARK SMILES IDX 61 36 63 37 29 38 66 39 60 40 59 41 30 43 52 44 37 45 51 46
REMARK SMILES IDX 38 47 41 48 50 49 64 50 39 51 40 52 49 54 65 55 42 56 31 57
REMARK SMILES IDX 32 58 36 59 33 60 35 61 34 62 53 63 54 64 58 65 55 66 57 67
REMARK SMILES IDX 56 68 43 69 44 70 48 71 45 72 47 73 46 74
REMARK H PARENT 15 6 4 11 19 23 63 42 41 53
REMARK Flexibility Score: inf
ROOT
ATOM      1  C   UNL A   1      38.482  32.733  31.177  1.00  0.00     0.042 C 
ENDROOT
BRANCH   1   2
ATOM      2  C   UNL A   1      37.312  33.680  30.905  1.00  0.00     0.118 C 
BRANCH   2   3
ATOM      3  N   UNL A   1      36.102  33.208  31.517  1.00  0.00    -0.352 N 
ATOM      4  C   UNL A   1      34.792  33.131  31.148  1.00  0.00     0.256 C 
ATOM      5  O   UNL A   1      34.138  32.487  31.974  1.00  0.00    -0.269 OA
ATOM      6  H   UNL A   1      36.256  32.853  32.422  1.00  0.00     0.163 HD
BRANCH   4   7
ATOM      7  C   UNL A   1      34.172  33.673  29.928  1.00  0.00     0.105 A 
ATOM      8  C   UNL A   1      34.062  33.238  28.592  1.00  0.00     0.050 A 
ATOM      9  N   UNL A   1      33.265  34.157  27.958  1.00  0.00    -0.280 N 
ATOM     10  N   UNL A   1      32.778  35.108  28.744  1.00  0.00    -0.156 NA
ATOM     11  H   UNL A   1      33.069  34.115  26.994  1.00  0.00     0.190 HD
ATOM     12  C   UNL A   1      33.394  34.889  29.909  1.00  0.00     0.171 A 
BRANCH   8  13
ATOM     13  C   UNL A   1      34.579  32.080  27.801  1.00  0.00     0.053 C 
ATOM     14  C   UNL A   1      33.636  30.906  27.575  1.00  0.00     0.011 C 
ENDBRANCH   8  13
BRANCH  12  15
ATOM     15  N   UNL A   1      33.151  35.858  30.936  1.00  0.00    -0.307 N 
ATOM     16  C   UNL A   1      33.522  37.188  30.958  1.00  0.00     0.093 A 
ATOM     17  C   UNL A   1      32.415  35.626  32.087  1.00  0.00     0.093 A 
ATOM     18  C   UNL A   1      33.147  37.745  32.161  1.00  0.00     0.020 A 
ATOM     19  C   UNL A   1      32.460  36.748  32.884  1.00  0.00     0.020 A 
ENDBRANCH  12  15
ENDBRANCH   4   7
ENDBRANCH   2   3
ENDBRANCH   1   2
BRANCH   1  20
ATOM     20  C   UNL A   1      38.793  31.856  29.978  1.00  0.00     0.118 C 
BRANCH  20  21
ATOM     21  N   UNL A   1      37.687  30.936  29.751  1.00  0.00    -0.352 N 
ATOM     22  C   UNL A   1      37.652  29.746  29.076  1.00  0.00     0.251 C 
ATOM     23  H   UNL A   1      36.828  31.214  30.145  1.00  0.00     0.163 HD
ATOM     24  O   UNL A   1      36.583  29.271  28.733  1.00  0.00    -0.269 OA
BRANCH  22  25
ATOM     25  C   UNL A   1      38.908  29.058  28.744  1.00  0.00     0.039 A 
ATOM     26  C   UNL A   1      39.353  29.111  27.421  1.00  0.00     0.014 A 
ATOM     27  C   UNL A   1      39.609  28.337  29.717  1.00  0.00     0.014 A 
ATOM     28  C   UNL A   1      40.545  28.490  27.085  1.00  0.00     0.010 A 
ATOM     29  C   UNL A   1      40.826  27.765  29.401  1.00  0.00     0.010 A 
ATOM     30  C   UNL A   1      41.285  27.845  28.085  1.00  0.00    -0.014 A 
BRANCH  30  31
ATOM     31  C   UNL A   1      42.619  27.328  27.748  1.00  0.00     0.031 A 
ATOM     32  C   UNL A   1      43.625  28.473  27.564  1.00  0.00     0.074 A 
ATOM     33  C   UNL A   1      42.703  25.969  27.611  1.00  0.00     0.049 A 
ATOM     34  N   UNL A   1      44.645  28.556  26.773  1.00  0.00    -0.248 NA
ATOM     35  C   UNL A   1      43.427  29.750  28.309  1.00  0.00     0.031 C 
ATOM     36  C   UNL A   1      41.597  25.023  27.906  1.00  0.00     0.029 A 
ATOM     37  N   UNL A   1      43.692  25.102  27.206  1.00  0.00    -0.354 N 
ATOM     38  C   UNL A   1      45.292  29.790  27.015  1.00  0.00     0.074 A 
ATOM     39  C   UNL A   1      44.437  30.523  27.898  1.00  0.00     0.031 C 
ATOM     40  C   UNL A   1      41.943  23.757  27.594  1.00  0.00     0.029 A 
ATOM     41  C   UNL A   1      43.287  23.749  27.057  1.00  0.00     0.049 A 
ATOM     42  H   UNL A   1      44.614  25.398  27.032  1.00  0.00     0.167 HD
ATOM     43  C   UNL A   1      46.558  30.059  26.571  1.00  0.00     0.031 A 
ATOM     44  C   UNL A   1      43.958  22.709  26.475  1.00  0.00     0.031 A 
ATOM     45  C   UNL A   1      47.037  28.963  25.799  1.00  0.00     0.049 A 
ATOM     46  C   UNL A   1      45.278  23.241  26.113  1.00  0.00     0.074 A 
ATOM     47  C   UNL A   1      46.704  28.492  24.556  1.00  0.00     0.029 A 
ATOM     48  N   UNL A   1      47.684  27.973  26.500  1.00  0.00    -0.354 N 
ATOM     49  N   UNL A   1      46.227  23.508  26.955  1.00  0.00    -0.248 NA
ATOM     50  C   UNL A   1      45.532  23.614  24.716  1.00  0.00     0.031 C 
ATOM     51  C   UNL A   1      46.675  27.095  24.751  1.00  0.00     0.029 A 
ATOM     52  C   UNL A   1      47.244  26.778  25.991  1.00  0.00     0.049 A 
ATOM     53  H   UNL A   1      48.338  28.098  27.225  1.00  0.00     0.167 HD
ATOM     54  C   UNL A   1      46.974  24.429  26.265  1.00  0.00     0.074 A 
ATOM     55  C   UNL A   1      46.720  24.194  24.859  1.00  0.00     0.031 C 
ATOM     56  C   UNL A   1      47.279  25.618  26.848  1.00  0.00     0.031 A 
BRANCH  43  57
ATOM     57  C   UNL A   1      47.567  31.104  26.960  1.00  0.00    -0.014 A 
ATOM     58  C   UNL A   1      47.285  32.445  26.590  1.00  0.00     0.009 A 
ATOM     59  C   UNL A   1      48.878  30.813  27.346  1.00  0.00     0.009 A 
ATOM     60  C   UNL A   1      48.289  33.408  26.471  1.00  0.00     0.001 A 
ATOM     61  C   UNL A   1      49.881  31.792  27.266  1.00  0.00     0.001 A 
ATOM     62  C   UNL A   1      49.595  33.072  26.789  1.00  0.00     0.000 A 
ENDBRANCH  43  57
BRANCH  44  63
ATOM     63  C   UNL A   1      43.657  21.307  26.018  1.00  0.00    -0.014 A 
ATOM     64  C   UNL A   1      44.485  20.496  25.239  1.00  0.00     0.009 A 
ATOM     65  C   UNL A   1      42.446  20.702  26.454  1.00  0.00     0.009 A 
ATOM     66  C   UNL A   1      44.167  19.140  25.007  1.00  0.00     0.001 A 
ATOM     67  C   UNL A   1      42.146  19.351  26.268  1.00  0.00     0.001 A 
ATOM     68  C   UNL A   1      43.022  18.559  25.552  1.00  0.00     0.000 A 
ENDBRANCH  44  63
BRANCH  56  69
ATOM     69  C   UNL A   1      47.194  25.632  28.373  1.00  0.00    -0.014 A 
ATOM     70  C   UNL A   1      45.989  25.983  29.005  1.00  0.00     0.009 A 
ATOM     71  C   UNL A   1      48.313  25.449  29.207  1.00  0.00     0.009 A 
ATOM     72  C   UNL A   1      45.914  26.188  30.390  1.00  0.00     0.001 A 
ATOM     73  C   UNL A   1      48.242  25.647  30.597  1.00  0.00     0.001 A 
ATOM     74  C   UNL A   1      47.041  26.026  31.187  1.00  0.00     0.000 A 
ENDBRANCH  56  69
ENDBRANCH  30  31
ENDBRANCH  22  25
ENDBRANCH  20  21
ENDBRANCH   1  20
TORSDOF 12
ENDMDL
