MODEL 1
REMARK VINA RESULT:     -11.7      0.000      0.000
REMARK SMILES Cc1ccc(N(CC(=O)NCCCNC(=O)c2ccc(-c3c4nc(c(-c5ccccc5)c5ccc([nH]5)c(-c5ccccc5)c5nc(c(-c6ccccc6)c6ccc3[nH]6)C=C5)C=C4)cc2)C(=O)C[C@H]2C[NH2+]CCO2)cc1
REMARK SMILES IDX 11 1 10 2 8 3 9 4 7 6 6 7 5 8 1 9 2 10 3 11 75 12 4 13 74 14
REMARK SMILES IDX 65 15 66 16 67 17 68 18 69 19 73 20 70 21 72 22 71 23 12 26
REMARK SMILES IDX 13 27 14 28 15 29 16 31 17 32 18 33 64 34 19 35 63 36 20 37
REMARK SMILES IDX 21 38 22 39 57 40 23 41 62 42 56 43 58 44 24 45 61 46 55 47
REMARK SMILES IDX 54 48 25 50 47 51 32 52 46 53 33 54 36 55 45 56 59 57 34 58
REMARK SMILES IDX 35 59 44 61 60 62 37 63 26 64 27 65 31 66 28 67 30 68 29 69
REMARK SMILES IDX 48 70 49 71 53 72 50 73 52 74 51 75 38 76 39 77 43 78 40 79
REMARK SMILES IDX 42 80 41 81
REMARK H PARENT 10 5 70 24 70 25 14 30 58 49 36 60
REMARK Flexibility Score: inf
ROOT
ATOM      1  C   UNL A   1      32.174  29.669  25.652  1.00  0.00     0.117 C 
ENDROOT
BRANCH   1   2
ATOM      2  N   UNL A   1      33.110  29.671  24.542  1.00  0.00    -0.354 N 
ATOM      3  C   UNL A   1      33.697  28.615  23.907  1.00  0.00     0.240 C 
ATOM      4  O   UNL A   1      34.599  28.864  23.103  1.00  0.00    -0.273 OA
ATOM      5  H   UNL A   1      33.356  30.560  24.199  1.00  0.00     0.163 HD
BRANCH   3   6
ATOM      6  C   UNL A   1      33.257  27.172  24.197  1.00  0.00     0.225 C 
BRANCH   6   7
ATOM      7  N   UNL A   1      32.321  26.610  23.194  1.00  0.00    -0.303 N 
BRANCH   7   8
ATOM      8  C   UNL A   1      30.929  27.054  23.195  1.00  0.00     0.044 A 
ATOM      9  C   UNL A   1      26.821  28.524  23.345  1.00  0.00     0.044 C 
ATOM     10  C   UNL A   1      28.224  27.999  23.272  1.00  0.00    -0.051 A 
ATOM     11  C   UNL A   1      29.205  28.697  22.574  1.00  0.00     0.005 A 
ATOM     12  C   UNL A   1      28.584  26.815  23.906  1.00  0.00     0.005 A 
ATOM     13  C   UNL A   1      30.527  28.224  22.525  1.00  0.00     0.026 A 
ATOM     14  C   UNL A   1      29.910  26.354  23.863  1.00  0.00     0.026 A 
ENDBRANCH   7   8
BRANCH   7  15
ATOM     15  C   UNL A   1      32.786  25.683  22.244  1.00  0.00     0.230 C 
ATOM     16  O   UNL A   1      33.569  25.953  21.327  1.00  0.00    -0.274 OA
BRANCH  15  17
ATOM     17  C   UNL A   1      32.418  24.219  22.394  1.00  0.00     0.138 C 
BRANCH  17  18
ATOM     18  C   UNL A   1      33.610  23.303  22.710  1.00  0.00     0.182 C 
ATOM     19  C   UNL A   1      34.651  23.849  23.714  1.00  0.00     0.293 C 
ATOM     20  O   UNL A   1      33.217  21.949  22.995  1.00  0.00    -0.366 OA
ATOM     21  N   UNL A   1      34.307  23.637  25.126  1.00  0.00    -0.342 N 
ATOM     22  C   UNL A   1      32.977  21.657  24.374  1.00  0.00     0.222 C 
ATOM     23  C   UNL A   1      34.032  22.213  25.333  1.00  0.00     0.289 C 
ATOM     24  H   UNL A   1      33.481  24.185  25.365  1.00  0.00     0.346 HD
ATOM     25  H   UNL A   1      35.082  23.932  25.722  1.00  0.00     0.346 HD
ENDBRANCH  17  18
ENDBRANCH  15  17
ENDBRANCH   7  15
ENDBRANCH   6   7
ENDBRANCH   3   6
ENDBRANCH   1   2
BRANCH   1  26
ATOM     26  C   UNL A   1      32.574  30.679  26.720  1.00  0.00     0.042 C 
BRANCH  26  27
ATOM     27  C   UNL A   1      33.760  30.239  27.552  1.00  0.00     0.118 C 
BRANCH  27  28
ATOM     28  N   UNL A   1      34.356  31.289  28.363  1.00  0.00    -0.352 N 
ATOM     29  C   UNL A   1      35.569  31.278  29.041  1.00  0.00     0.251 C 
ATOM     30  H   UNL A   1      33.830  32.118  28.441  1.00  0.00     0.163 HD
ATOM     31  O   UNL A   1      35.914  32.228  29.705  1.00  0.00    -0.269 OA
BRANCH  29  32
ATOM     32  C   UNL A   1      36.494  30.136  28.810  1.00  0.00     0.039 A 
ATOM     33  C   UNL A   1      36.783  29.319  29.906  1.00  0.00     0.014 A 
ATOM     34  C   UNL A   1      37.254  30.052  27.646  1.00  0.00     0.014 A 
ATOM     35  C   UNL A   1      37.989  28.628  29.935  1.00  0.00     0.010 A 
ATOM     36  C   UNL A   1      38.501  29.469  27.719  1.00  0.00     0.010 A 
ATOM     37  C   UNL A   1      38.893  28.816  28.891  1.00  0.00    -0.014 A 
BRANCH  37  38
ATOM     38  C   UNL A   1      40.296  28.437  28.982  1.00  0.00     0.031 A 
ATOM     39  C   UNL A   1      40.743  27.152  28.418  1.00  0.00     0.074 A 
ATOM     40  C   UNL A   1      41.185  29.269  29.567  1.00  0.00     0.049 A 
ATOM     41  N   UNL A   1      41.766  26.490  28.842  1.00  0.00    -0.248 NA
ATOM     42  C   UNL A   1      40.010  26.469  27.358  1.00  0.00     0.031 C 
ATOM     43  C   UNL A   1      42.642  29.172  29.548  1.00  0.00     0.029 A 
ATOM     44  N   UNL A   1      40.916  30.274  30.495  1.00  0.00    -0.354 N 
ATOM     45  C   UNL A   1      41.990  25.467  27.951  1.00  0.00     0.074 A 
ATOM     46  C   UNL A   1      40.824  25.444  27.099  1.00  0.00     0.031 C 
ATOM     47  C   UNL A   1      43.137  29.886  30.571  1.00  0.00     0.029 A 
ATOM     48  C   UNL A   1      42.013  30.346  31.371  1.00  0.00     0.049 A 
ATOM     49  H   UNL A   1      40.106  30.831  30.531  1.00  0.00     0.167 HD
ATOM     50  C   UNL A   1      43.200  24.842  27.936  1.00  0.00     0.031 A 
ATOM     51  C   UNL A   1      41.861  30.105  32.706  1.00  0.00     0.031 A 
ATOM     52  C   UNL A   1      44.076  25.333  28.998  1.00  0.00     0.049 A 
ATOM     53  C   UNL A   1      42.633  28.900  33.195  1.00  0.00     0.074 A 
ATOM     54  C   UNL A   1      45.100  26.264  29.011  1.00  0.00     0.029 A 
ATOM     55  N   UNL A   1      43.738  25.097  30.325  1.00  0.00    -0.354 N 
ATOM     56  N   UNL A   1      43.106  27.970  32.411  1.00  0.00    -0.248 NA
ATOM     57  C   UNL A   1      42.898  28.625  34.606  1.00  0.00     0.031 C 
ATOM     58  C   UNL A   1      45.321  26.652  30.359  1.00  0.00     0.029 A 
ATOM     59  C   UNL A   1      44.457  25.928  31.161  1.00  0.00     0.049 A 
ATOM     60  H   UNL A   1      43.079  24.430  30.627  1.00  0.00     0.167 HD
ATOM     61  C   UNL A   1      43.702  26.995  33.166  1.00  0.00     0.074 A 
ATOM     62  C   UNL A   1      43.558  27.455  34.534  1.00  0.00     0.031 C 
ATOM     63  C   UNL A   1      44.254  25.881  32.602  1.00  0.00     0.031 A 
BRANCH  50  64
ATOM     64  C   UNL A   1      43.684  24.019  26.765  1.00  0.00    -0.014 A 
ATOM     65  C   UNL A   1      43.475  22.628  26.763  1.00  0.00     0.009 A 
ATOM     66  C   UNL A   1      44.405  24.533  25.675  1.00  0.00     0.009 A 
ATOM     67  C   UNL A   1      44.042  21.792  25.792  1.00  0.00     0.001 A 
ATOM     68  C   UNL A   1      45.015  23.701  24.724  1.00  0.00     0.001 A 
ATOM     69  C   UNL A   1      44.842  22.327  24.790  1.00  0.00     0.000 A 
ENDBRANCH  50  64
BRANCH  51  70
ATOM     70  C   UNL A   1      40.542  30.538  33.243  1.00  0.00    -0.014 A 
ATOM     71  C   UNL A   1      40.240  31.915  33.245  1.00  0.00     0.009 A 
ATOM     72  C   UNL A   1      39.490  29.622  33.384  1.00  0.00     0.009 A 
ATOM     73  C   UNL A   1      38.913  32.358  33.271  1.00  0.00     0.001 A 
ATOM     74  C   UNL A   1      38.162  30.071  33.414  1.00  0.00     0.001 A 
ATOM     75  C   UNL A   1      37.874  31.433  33.321  1.00  0.00     0.000 A 
ENDBRANCH  51  70
BRANCH  63  76
ATOM     76  C   UNL A   1      44.719  24.659  33.350  1.00  0.00    -0.014 A 
ATOM     77  C   UNL A   1      43.968  23.482  33.474  1.00  0.00     0.009 A 
ATOM     78  C   UNL A   1      46.045  24.622  33.836  1.00  0.00     0.009 A 
ATOM     79  C   UNL A   1      44.501  22.342  34.091  1.00  0.00     0.001 A 
ATOM     80  C   UNL A   1      46.594  23.475  34.412  1.00  0.00     0.001 A 
ATOM     81  C   UNL A   1      45.816  22.335  34.549  1.00  0.00     0.000 A 
ENDBRANCH  63  76
ENDBRANCH  37  38
ENDBRANCH  29  32
ENDBRANCH  27  28
ENDBRANCH  26  27
ENDBRANCH   1  26
TORSDOF 15
ENDMDL
MODEL 2
REMARK VINA RESULT:     -11.6      1.677      3.636
REMARK SMILES Cc1ccc(N(CC(=O)NCCCNC(=O)c2ccc(-c3c4nc(c(-c5ccccc5)c5ccc([nH]5)c(-c5ccccc5)c5nc(c(-c6ccccc6)c6ccc3[nH]6)C=C5)C=C4)cc2)C(=O)C[C@H]2C[NH2+]CCO2)cc1
REMARK SMILES IDX 11 1 10 2 8 3 9 4 7 6 6 7 5 8 1 9 2 10 3 11 75 12 4 13 74 14
REMARK SMILES IDX 65 15 66 16 67 17 68 18 69 19 73 20 70 21 72 22 71 23 12 26
REMARK SMILES IDX 13 27 14 28 15 29 16 31 17 32 18 33 64 34 19 35 63 36 20 37
REMARK SMILES IDX 21 38 22 39 57 40 23 41 62 42 56 43 58 44 24 45 61 46 55 47
REMARK SMILES IDX 54 48 25 50 47 51 32 52 46 53 33 54 36 55 45 56 59 57 34 58
REMARK SMILES IDX 35 59 44 61 60 62 37 63 26 64 27 65 31 66 28 67 30 68 29 69
REMARK SMILES IDX 48 70 49 71 53 72 50 73 52 74 51 75 38 76 39 77 43 78 40 79
REMARK SMILES IDX 42 80 41 81
REMARK H PARENT 10 5 70 24 70 25 14 30 58 49 36 60
REMARK Flexibility Score: inf
ROOT
ATOM      1  C   UNL A   1      32.209  30.026  25.381  1.00  0.00     0.117 C 
ENDROOT
BRANCH   1   2
ATOM      2  N   UNL A   1      33.184  29.027  24.984  1.00  0.00    -0.354 N 
ATOM      3  C   UNL A   1      33.107  28.093  23.991  1.00  0.00     0.240 C 
ATOM      4  O   UNL A   1      33.987  27.229  23.951  1.00  0.00    -0.273 OA
ATOM      5  H   UNL A   1      34.019  29.021  25.504  1.00  0.00     0.163 HD
BRANCH   3   6
ATOM      6  C   UNL A   1      31.958  28.114  22.972  1.00  0.00     0.225 C 
BRANCH   6   7
ATOM      7  N   UNL A   1      30.715  27.458  23.445  1.00  0.00    -0.303 N 
BRANCH   7   8
ATOM      8  C   UNL A   1      30.793  26.113  24.007  1.00  0.00     0.044 A 
ATOM      9  C   UNL A   1      31.223  22.133  25.751  1.00  0.00     0.044 C 
ATOM     10  C   UNL A   1      31.047  23.493  25.143  1.00  0.00    -0.051 A 
ATOM     11  C   UNL A   1      30.786  24.599  25.947  1.00  0.00     0.005 A 
ATOM     12  C   UNL A   1      31.152  23.688  23.770  1.00  0.00     0.005 A 
ATOM     13  C   UNL A   1      30.647  25.879  25.386  1.00  0.00     0.026 A 
ATOM     14  C   UNL A   1      31.024  24.972  23.217  1.00  0.00     0.026 A 
ENDBRANCH   7   8
BRANCH   7  15
ATOM     15  C   UNL A   1      29.489  28.145  23.372  1.00  0.00     0.230 C 
ATOM     16  O   UNL A   1      28.380  27.610  23.464  1.00  0.00    -0.274 OA
BRANCH  15  17
ATOM     17  C   UNL A   1      29.492  29.660  23.297  1.00  0.00     0.138 C 
BRANCH  17  18
ATOM     18  C   UNL A   1      28.154  30.266  22.847  1.00  0.00     0.182 C 
ATOM     19  C   UNL A   1      27.800  31.658  23.419  1.00  0.00     0.293 C 
ATOM     20  O   UNL A   1      27.948  30.178  21.425  1.00  0.00    -0.366 OA
ATOM     21  N   UNL A   1      28.387  32.787  22.685  1.00  0.00    -0.342 N 
ATOM     22  C   UNL A   1      28.401  31.305  20.670  1.00  0.00     0.222 C 
ATOM     23  C   UNL A   1      28.028  32.663  21.270  1.00  0.00     0.289 C 
ATOM     24  H   UNL A   1      29.401  32.773  22.785  1.00  0.00     0.346 HD
ATOM     25  H   UNL A   1      28.031  33.668  23.059  1.00  0.00     0.346 HD
ENDBRANCH  17  18
ENDBRANCH  15  17
ENDBRANCH   7  15
ENDBRANCH   6   7
ENDBRANCH   3   6
ENDBRANCH   1   2
BRANCH   1  26
ATOM     26  C   UNL A   1      32.324  30.358  26.864  1.00  0.00     0.042 C 
BRANCH  26  27
ATOM     27  C   UNL A   1      33.693  30.067  27.442  1.00  0.00     0.118 C 
BRANCH  27  28
ATOM     28  N   UNL A   1      34.286  31.169  28.183  1.00  0.00    -0.352 N 
ATOM     29  C   UNL A   1      35.507  31.211  28.846  1.00  0.00     0.251 C 
ATOM     30  H   UNL A   1      33.752  31.996  28.218  1.00  0.00     0.163 HD
ATOM     31  O   UNL A   1      35.848  32.202  29.449  1.00  0.00    -0.269 OA
BRANCH  29  32
ATOM     32  C   UNL A   1      36.442  30.068  28.672  1.00  0.00     0.039 A 
ATOM     33  C   UNL A   1      36.755  29.323  29.813  1.00  0.00     0.014 A 
ATOM     34  C   UNL A   1      37.186  29.921  27.505  1.00  0.00     0.014 A 
ATOM     35  C   UNL A   1      37.970  28.649  29.867  1.00  0.00     0.010 A 
ATOM     36  C   UNL A   1      38.441  29.357  27.596  1.00  0.00     0.010 A 
ATOM     37  C   UNL A   1      38.857  28.782  28.800  1.00  0.00    -0.014 A 
BRANCH  37  38
ATOM     38  C   UNL A   1      40.266  28.425  28.894  1.00  0.00     0.031 A 
ATOM     39  C   UNL A   1      40.738  27.158  28.309  1.00  0.00     0.074 A 
ATOM     40  C   UNL A   1      41.136  29.259  29.501  1.00  0.00     0.049 A 
ATOM     41  N   UNL A   1      41.769  26.505  28.727  1.00  0.00    -0.248 NA
ATOM     42  C   UNL A   1      40.024  26.484  27.230  1.00  0.00     0.031 C 
ATOM     43  C   UNL A   1      42.594  29.187  29.491  1.00  0.00     0.029 A 
ATOM     44  N   UNL A   1      40.844  30.241  30.447  1.00  0.00    -0.354 N 
ATOM     45  C   UNL A   1      42.017  25.503  27.818  1.00  0.00     0.074 A 
ATOM     46  C   UNL A   1      40.857  25.478  26.957  1.00  0.00     0.031 C 
ATOM     47  C   UNL A   1      43.071  29.889  30.532  1.00  0.00     0.029 A 
ATOM     48  C   UNL A   1      41.933  30.314  31.332  1.00  0.00     0.049 A 
ATOM     49  H   UNL A   1      40.025  30.784  30.488  1.00  0.00     0.167 HD
ATOM     50  C   UNL A   1      43.237  24.900  27.800  1.00  0.00     0.031 A 
ATOM     51  C   UNL A   1      41.776  30.046  32.661  1.00  0.00     0.031 A 
ATOM     52  C   UNL A   1      44.097  25.384  28.877  1.00  0.00     0.049 A 
ATOM     53  C   UNL A   1      42.565  28.843  33.132  1.00  0.00     0.074 A 
ATOM     54  C   UNL A   1      45.106  26.332  28.916  1.00  0.00     0.029 A 
ATOM     55  N   UNL A   1      43.753  25.116  30.197  1.00  0.00    -0.354 N 
ATOM     56  N   UNL A   1      43.059  27.937  32.334  1.00  0.00    -0.248 NA
ATOM     57  C   UNL A   1      42.824  28.546  34.540  1.00  0.00     0.031 C 
ATOM     58  C   UNL A   1      45.310  26.697  30.273  1.00  0.00     0.029 A 
ATOM     59  C   UNL A   1      44.453  25.943  31.055  1.00  0.00     0.049 A 
ATOM     60  H   UNL A   1      43.104  24.433  30.482  1.00  0.00     0.167 HD
ATOM     61  C   UNL A   1      43.666  26.958  33.074  1.00  0.00     0.074 A 
ATOM     62  C   UNL A   1      43.504  27.388  34.450  1.00  0.00     0.031 C 
ATOM     63  C   UNL A   1      44.240  25.864  32.493  1.00  0.00     0.031 A 
BRANCH  50  64
ATOM     64  C   UNL A   1      43.743  24.108  26.617  1.00  0.00    -0.014 A 
ATOM     65  C   UNL A   1      43.199  22.838  26.349  1.00  0.00     0.009 A 
ATOM     66  C   UNL A   1      44.788  24.518  25.773  1.00  0.00     0.009 A 
ATOM     67  C   UNL A   1      43.738  21.989  25.373  1.00  0.00     0.001 A 
ATOM     68  C   UNL A   1      45.363  23.659  24.824  1.00  0.00     0.001 A 
ATOM     69  C   UNL A   1      44.843  22.388  24.633  1.00  0.00     0.000 A 
ENDBRANCH  50  64
BRANCH  51  70
ATOM     70  C   UNL A   1      40.446  30.445  33.197  1.00  0.00    -0.014 A 
ATOM     71  C   UNL A   1      40.142  31.820  33.274  1.00  0.00     0.009 A 
ATOM     72  C   UNL A   1      39.393  29.523  33.262  1.00  0.00     0.009 A 
ATOM     73  C   UNL A   1      38.815  32.260  33.300  1.00  0.00     0.001 A 
ATOM     74  C   UNL A   1      38.064  29.969  33.293  1.00  0.00     0.001 A 
ATOM     75  C   UNL A   1      37.776  31.333  33.275  1.00  0.00     0.000 A 
ENDBRANCH  51  70
BRANCH  63  76
ATOM     76  C   UNL A   1      44.721  24.636  33.220  1.00  0.00    -0.014 A 
ATOM     77  C   UNL A   1      46.038  24.453  33.664  1.00  0.00     0.009 A 
ATOM     78  C   UNL A   1      43.774  23.666  33.618  1.00  0.00     0.009 A 
ATOM     79  C   UNL A   1      46.398  23.335  34.430  1.00  0.00     0.001 A 
ATOM     80  C   UNL A   1      44.120  22.574  34.417  1.00  0.00     0.001 A 
ATOM     81  C   UNL A   1      45.438  22.403  34.814  1.00  0.00     0.000 A 
ENDBRANCH  63  76
ENDBRANCH  37  38
ENDBRANCH  29  32
ENDBRANCH  27  28
ENDBRANCH  26  27
ENDBRANCH   1  26
TORSDOF 15
ENDMDL
MODEL 3
REMARK VINA RESULT:     -11.6      3.067      8.495
REMARK SMILES Cc1ccc(N(CC(=O)NCCCNC(=O)c2ccc(-c3c4nc(c(-c5ccccc5)c5ccc([nH]5)c(-c5ccccc5)c5nc(c(-c6ccccc6)c6ccc3[nH]6)C=C5)C=C4)cc2)C(=O)C[C@H]2C[NH2+]CCO2)cc1
REMARK SMILES IDX 11 1 10 2 8 3 9 4 7 6 6 7 5 8 1 9 2 10 3 11 75 12 4 13 74 14
REMARK SMILES IDX 65 15 66 16 67 17 68 18 69 19 73 20 70 21 72 22 71 23 12 26
REMARK SMILES IDX 13 27 14 28 15 29 16 31 17 32 18 33 64 34 19 35 63 36 20 37
REMARK SMILES IDX 21 38 22 39 57 40 23 41 62 42 56 43 58 44 24 45 61 46 55 47
REMARK SMILES IDX 54 48 25 50 47 51 32 52 46 53 33 54 36 55 45 56 59 57 34 58
REMARK SMILES IDX 35 59 44 61 60 62 37 63 26 64 27 65 31 66 28 67 30 68 29 69
REMARK SMILES IDX 48 70 49 71 53 72 50 73 52 74 51 75 38 76 39 77 43 78 40 79
REMARK SMILES IDX 42 80 41 81
REMARK H PARENT 10 5 70 24 70 25 14 30 58 49 36 60
REMARK Flexibility Score: inf
ROOT
ATOM      1  C   UNL A   1      38.253  23.123  26.103  1.00  0.00     0.117 C 
ENDROOT
BRANCH   1   2
ATOM      2  N   UNL A   1      37.480  23.611  24.975  1.00  0.00    -0.354 N 
ATOM      3  C   UNL A   1      36.125  23.699  24.830  1.00  0.00     0.240 C 
ATOM      4  O   UNL A   1      35.689  23.980  23.712  1.00  0.00    -0.273 OA
ATOM      5  H   UNL A   1      38.008  23.923  24.205  1.00  0.00     0.163 HD
BRANCH   3   6
ATOM      6  C   UNL A   1      35.184  23.441  26.017  1.00  0.00     0.225 C 
BRANCH   6   7
ATOM      7  N   UNL A   1      33.759  23.293  25.640  1.00  0.00    -0.303 N 
BRANCH   7   8
ATOM      8  C   UNL A   1      33.323  22.065  24.978  1.00  0.00     0.044 A 
ATOM      9  C   UNL A   1      32.219  18.371  22.932  1.00  0.00     0.044 C 
ATOM     10  C   UNL A   1      32.570  19.643  23.644  1.00  0.00    -0.051 A 
ATOM     11  C   UNL A   1      33.227  19.609  24.870  1.00  0.00     0.005 A 
ATOM     12  C   UNL A   1      32.261  20.884  23.097  1.00  0.00     0.005 A 
ATOM     13  C   UNL A   1      33.581  20.798  25.529  1.00  0.00     0.026 A 
ATOM     14  C   UNL A   1      32.629  22.068  23.755  1.00  0.00     0.026 A 
ENDBRANCH   7   8
BRANCH   7  15
ATOM     15  C   UNL A   1      32.843  24.316  25.946  1.00  0.00     0.230 C 
ATOM     16  O   UNL A   1      31.968  24.237  26.814  1.00  0.00    -0.274 OA
BRANCH  15  17
ATOM     17  C   UNL A   1      32.986  25.666  25.267  1.00  0.00     0.138 C 
BRANCH  17  18
ATOM     18  C   UNL A   1      32.567  26.855  26.145  1.00  0.00     0.182 C 
ATOM     19  C   UNL A   1      33.674  27.870  26.506  1.00  0.00     0.293 C 
ATOM     20  O   UNL A   1      31.356  27.487  25.691  1.00  0.00    -0.366 OA
ATOM     21  N   UNL A   1      33.914  28.901  25.487  1.00  0.00    -0.342 N 
ATOM     22  C   UNL A   1      31.537  28.574  24.780  1.00  0.00     0.222 C 
ATOM     23  C   UNL A   1      32.641  29.557  25.176  1.00  0.00     0.289 C 
ATOM     24  H   UNL A   1      34.293  28.469  24.644  1.00  0.00     0.346 HD
ATOM     25  H   UNL A   1      34.584  29.587  25.836  1.00  0.00     0.346 HD
ENDBRANCH  17  18
ENDBRANCH  15  17
ENDBRANCH   7  15
ENDBRANCH   6   7
ENDBRANCH   3   6
ENDBRANCH   1   2
BRANCH   1  26
ATOM     26  C   UNL A   1      38.845  21.748  25.819  1.00  0.00     0.042 C 
BRANCH  26  27
ATOM     27  C   UNL A   1      40.058  21.427  26.667  1.00  0.00     0.118 C 
BRANCH  27  28
ATOM     28  N   UNL A   1      41.018  20.533  26.041  1.00  0.00    -0.352 N 
ATOM     29  C   UNL A   1      42.403  20.636  26.002  1.00  0.00     0.251 C 
ATOM     30  H   UNL A   1      40.635  19.749  25.584  1.00  0.00     0.163 HD
ATOM     31  O   UNL A   1      43.068  19.820  25.407  1.00  0.00    -0.269 OA
BRANCH  29  32
ATOM     32  C   UNL A   1      43.054  21.687  26.830  1.00  0.00     0.039 A 
ATOM     33  C   UNL A   1      42.837  21.633  28.210  1.00  0.00     0.014 A 
ATOM     34  C   UNL A   1      43.608  22.822  26.245  1.00  0.00     0.014 A 
ATOM     35  C   UNL A   1      42.915  22.807  28.952  1.00  0.00     0.010 A 
ATOM     36  C   UNL A   1      43.570  24.006  26.949  1.00  0.00     0.010 A 
ATOM     37  C   UNL A   1      43.156  24.006  28.284  1.00  0.00    -0.014 A 
BRANCH  37  38
ATOM     38  C   UNL A   1      42.913  25.309  28.886  1.00  0.00     0.031 A 
ATOM     39  C   UNL A   1      41.722  26.083  28.496  1.00  0.00     0.074 A 
ATOM     40  C   UNL A   1      43.768  25.798  29.810  1.00  0.00     0.049 A 
ATOM     41  N   UNL A   1      41.644  27.370  28.543  1.00  0.00    -0.248 NA
ATOM     42  C   UNL A   1      40.529  25.452  27.943  1.00  0.00     0.031 C 
ATOM     43  C   UNL A   1      43.575  26.956  30.678  1.00  0.00     0.029 A 
ATOM     44  N   UNL A   1      45.105  25.447  29.992  1.00  0.00    -0.354 N 
ATOM     45  C   UNL A   1      40.333  27.711  28.307  1.00  0.00     0.074 A 
ATOM     46  C   UNL A   1      39.701  26.494  27.855  1.00  0.00     0.031 C 
ATOM     47  C   UNL A   1      44.774  27.376  31.115  1.00  0.00     0.029 A 
ATOM     48  C   UNL A   1      45.789  26.595  30.425  1.00  0.00     0.049 A 
ATOM     49  H   UNL A   1      45.498  24.557  29.843  1.00  0.00     0.167 HD
ATOM     50  C   UNL A   1      39.888  28.949  28.657  1.00  0.00     0.031 A 
ATOM     51  C   UNL A   1      46.806  27.126  29.687  1.00  0.00     0.031 A 
ATOM     52  C   UNL A   1      40.969  29.789  29.169  1.00  0.00     0.049 A 
ATOM     53  C   UNL A   1      46.520  28.523  29.180  1.00  0.00     0.074 A 
ATOM     54  C   UNL A   1      41.381  30.106  30.453  1.00  0.00     0.029 A 
ATOM     55  N   UNL A   1      41.997  30.172  28.317  1.00  0.00    -0.354 N 
ATOM     56  N   UNL A   1      45.327  29.049  29.127  1.00  0.00    -0.248 NA
ATOM     57  C   UNL A   1      47.548  29.421  28.655  1.00  0.00     0.031 C 
ATOM     58  C   UNL A   1      42.706  30.608  30.374  1.00  0.00     0.029 A 
ATOM     59  C   UNL A   1      43.080  30.630  29.043  1.00  0.00     0.049 A 
ATOM     60  H   UNL A   1      41.960  30.125  27.334  1.00  0.00     0.167 HD
ATOM     61  C   UNL A   1      45.402  30.298  28.571  1.00  0.00     0.074 A 
ATOM     62  C   UNL A   1      46.815  30.493  28.302  1.00  0.00     0.031 C 
ATOM     63  C   UNL A   1      44.292  31.066  28.364  1.00  0.00     0.031 A 
BRANCH  50  64
ATOM     64  C   UNL A   1      38.422  29.278  28.824  1.00  0.00    -0.014 A 
ATOM     65  C   UNL A   1      37.681  29.717  27.712  1.00  0.00     0.009 A 
ATOM     66  C   UNL A   1      37.732  29.241  30.046  1.00  0.00     0.009 A 
ATOM     67  C   UNL A   1      36.368  30.193  27.835  1.00  0.00     0.001 A 
ATOM     68  C   UNL A   1      36.436  29.757  30.188  1.00  0.00     0.001 A 
ATOM     69  C   UNL A   1      35.757  30.244  29.081  1.00  0.00     0.000 A 
ENDBRANCH  50  64
BRANCH  51  70
ATOM     70  C   UNL A   1      47.602  26.108  28.948  1.00  0.00    -0.014 A 
ATOM     71  C   UNL A   1      47.330  25.910  27.579  1.00  0.00     0.009 A 
ATOM     72  C   UNL A   1      48.818  25.637  29.463  1.00  0.00     0.009 A 
ATOM     73  C   UNL A   1      48.295  25.362  26.728  1.00  0.00     0.001 A 
ATOM     74  C   UNL A   1      49.780  25.082  28.607  1.00  0.00     0.001 A 
ATOM     75  C   UNL A   1      49.532  24.979  27.239  1.00  0.00     0.000 A 
ENDBRANCH  51  70
BRANCH  63  76
ATOM     76  C   UNL A   1      44.243  32.338  27.559  1.00  0.00    -0.014 A 
ATOM     77  C   UNL A   1      44.326  32.383  26.160  1.00  0.00     0.009 A 
ATOM     78  C   UNL A   1      43.949  33.551  28.220  1.00  0.00     0.009 A 
ATOM     79  C   UNL A   1      44.166  33.589  25.462  1.00  0.00     0.001 A 
ATOM     80  C   UNL A   1      43.746  34.745  27.525  1.00  0.00     0.001 A 
ATOM     81  C   UNL A   1      43.866  34.765  26.143  1.00  0.00     0.000 A 
ENDBRANCH  63  76
ENDBRANCH  37  38
ENDBRANCH  29  32
ENDBRANCH  27  28
ENDBRANCH  26  27
ENDBRANCH   1  26
TORSDOF 15
ENDMDL
