MODEL 1
REMARK VINA RESULT:      -9.4      0.000      0.000
REMARK SMILES COc1cc(C)cc2c1O[C@H](C(F)(F)F)C(C(=O)NCCCNC(=O)c1ccc(-c3c4nc(c(-c5ccccc5)c5ccc([nH]5)c(-c5ccccc5)c5nc(c(-c6ccccc6)c6ccc3[nH]6)C=C5)C=C4)cc1)=C2
REMARK SMILES IDX 21 1 20 2 19 3 17 4 18 5 16 7 3 8 4 9 9 10 5 11 8 12 10 13
REMARK SMILES IDX 6 14 7 15 74 16 11 17 2 18 1 19 12 20 13 21 14 22 15 23
REMARK SMILES IDX 22 24 23 25 24 26 25 28 26 29 27 30 73 31 28 32 72 33 29 34
REMARK SMILES IDX 30 35 31 36 66 37 32 38 71 39 65 40 67 41 33 42 70 43 64 44
REMARK SMILES IDX 63 45 34 47 56 48 41 49 55 50 42 51 45 52 54 53 68 54 43 55
REMARK SMILES IDX 44 56 53 58 69 59 46 60 35 61 36 62 40 63 37 64 39 65 38 66
REMARK SMILES IDX 57 67 58 68 62 69 59 70 61 71 60 72 47 73 48 74 52 75 49 76
REMARK SMILES IDX 51 77 50 78
REMARK H PARENT 19 6 23 27 67 46 45 57
REMARK Flexibility Score: inf
ROOT
ATOM      1  C   UNL A   1      33.800  34.722  32.381  1.00  0.00     0.042 C 
ENDROOT
BRANCH   1   2
ATOM      2  C   UNL A   1      35.243  34.743  32.858  1.00  0.00     0.118 C 
BRANCH   2   3
ATOM      3  N   UNL A   1      35.342  34.526  34.293  1.00  0.00    -0.352 N 
ATOM      4  C   UNL A   1      36.085  33.769  35.134  1.00  0.00     0.251 C 
ATOM      5  O   UNL A   1      35.806  33.892  36.331  1.00  0.00    -0.270 OA
ATOM      6  H   UNL A   1      34.693  35.079  34.787  1.00  0.00     0.163 HD
BRANCH   4   7
ATOM      7  C   UNL A   1      37.172  32.837  34.720  1.00  0.00     0.067 C 
ATOM      8  C   UNL A   1      40.157  30.230  33.347  1.00  0.00     0.161 A 
ATOM      9  C   UNL A   1      39.802  29.085  32.633  1.00  0.00     0.054 A 
ATOM     10  C   UNL A   1      39.170  31.138  33.740  1.00  0.00     0.169 A 
ATOM     11  C   UNL A   1      38.465  28.864  32.273  1.00  0.00    -0.047 A 
ATOM     12  C   UNL A   1      37.833  30.924  33.404  1.00  0.00     0.021 A 
ATOM     13  O   UNL A   1      39.571  32.265  34.408  1.00  0.00    -0.471 OA
ATOM     14  C   UNL A   1      38.068  27.637  31.507  1.00  0.00     0.044 C 
ATOM     15  C   UNL A   1      37.484  29.789  32.664  1.00  0.00     0.015 A 
ATOM     16  C   UNL A   1      36.827  31.896  33.821  1.00  0.00     0.025 C 
ATOM     17  C   UNL A   1      38.573  32.878  35.261  1.00  0.00     0.314 C 
BRANCH   8  18
ATOM     18  O   UNL A   1      41.439  30.455  33.780  1.00  0.00    -0.493 OA
ATOM     19  C   UNL A   1      41.857  29.532  34.779  1.00  0.00     0.278 C 
ENDBRANCH   8  18
BRANCH  17  20
ATOM     20  C   UNL A   1      38.690  32.297  36.684  1.00  0.00     0.429 C 
ATOM     21  F   UNL A   1      38.497  33.270  37.609  1.00  0.00    -0.167 F 
ATOM     22  F   UNL A   1      37.754  31.348  36.932  1.00  0.00    -0.167 F 
ATOM     23  F   UNL A   1      39.891  31.730  36.928  1.00  0.00    -0.167 F 
ENDBRANCH  17  20
ENDBRANCH   4   7
ENDBRANCH   2   3
ENDBRANCH   1   2
BRANCH   1  24
ATOM     24  C   UNL A   1      33.543  35.739  31.276  1.00  0.00     0.118 C 
BRANCH  24  25
ATOM     25  N   UNL A   1      32.805  35.160  30.155  1.00  0.00    -0.352 N 
ATOM     26  C   UNL A   1      33.227  34.350  29.129  1.00  0.00     0.251 C 
ATOM     27  H   UNL A   1      31.847  35.389  30.131  1.00  0.00     0.163 HD
ATOM     28  O   UNL A   1      32.496  34.159  28.161  1.00  0.00    -0.269 OA
BRANCH  26  29
ATOM     29  C   UNL A   1      34.563  33.725  29.180  1.00  0.00     0.039 A 
ATOM     30  C   UNL A   1      34.779  32.593  29.963  1.00  0.00     0.014 A 
ATOM     31  C   UNL A   1      35.613  34.274  28.437  1.00  0.00     0.014 A 
ATOM     32  C   UNL A   1      36.073  32.141  30.172  1.00  0.00     0.010 A 
ATOM     33  C   UNL A   1      36.899  33.739  28.556  1.00  0.00     0.010 A 
ATOM     34  C   UNL A   1      37.149  32.703  29.467  1.00  0.00    -0.014 A 
BRANCH  34  35
ATOM     35  C   UNL A   1      38.517  32.178  29.709  1.00  0.00     0.031 A 
ATOM     36  C   UNL A   1      39.478  32.910  30.605  1.00  0.00     0.074 A 
ATOM     37  C   UNL A   1      38.856  30.983  29.187  1.00  0.00     0.049 A 
ATOM     38  N   UNL A   1      40.686  32.562  30.971  1.00  0.00    -0.248 NA
ATOM     39  C   UNL A   1      39.032  34.197  31.165  1.00  0.00     0.031 C 
ATOM     40  C   UNL A   1      37.992  30.165  28.330  1.00  0.00     0.029 A 
ATOM     41  N   UNL A   1      39.986  30.222  29.339  1.00  0.00    -0.354 N 
ATOM     42  C   UNL A   1      41.148  33.588  31.785  1.00  0.00     0.074 A 
ATOM     43  C   UNL A   1      40.106  34.589  31.837  1.00  0.00     0.031 C 
ATOM     44  C   UNL A   1      38.584  28.983  28.112  1.00  0.00     0.029 A 
ATOM     45  C   UNL A   1      39.902  28.990  28.736  1.00  0.00     0.049 A 
ATOM     46  H   UNL A   1      40.781  30.528  29.834  1.00  0.00     0.167 HD
ATOM     47  C   UNL A   1      42.330  33.681  32.440  1.00  0.00     0.031 A 
ATOM     48  C   UNL A   1      40.785  27.976  28.680  1.00  0.00     0.031 A 
ATOM     49  C   UNL A   1      43.361  32.679  32.389  1.00  0.00     0.049 A 
ATOM     50  C   UNL A   1      42.112  28.131  29.362  1.00  0.00     0.074 A 
ATOM     51  C   UNL A   1      44.598  32.687  33.010  1.00  0.00     0.029 A 
ATOM     52  N   UNL A   1      43.274  31.489  31.683  1.00  0.00    -0.354 N 
ATOM     53  N   UNL A   1      42.542  29.121  30.106  1.00  0.00    -0.248 NA
ATOM     54  C   UNL A   1      43.078  27.039  29.189  1.00  0.00     0.031 C 
ATOM     55  C   UNL A   1      45.282  31.528  32.635  1.00  0.00     0.029 A 
ATOM     56  C   UNL A   1      44.445  30.765  31.835  1.00  0.00     0.049 A 
ATOM     57  H   UNL A   1      42.497  31.201  31.153  1.00  0.00     0.167 HD
ATOM     58  C   UNL A   1      43.827  28.770  30.496  1.00  0.00     0.074 A 
ATOM     59  C   UNL A   1      44.096  27.465  29.926  1.00  0.00     0.031 C 
ATOM     60  C   UNL A   1      44.703  29.472  31.254  1.00  0.00     0.031 A 
BRANCH  47  61
ATOM     61  C   UNL A   1      42.585  34.917  33.260  1.00  0.00    -0.014 A 
ATOM     62  C   UNL A   1      42.117  34.985  34.583  1.00  0.00     0.009 A 
ATOM     63  C   UNL A   1      43.218  36.041  32.706  1.00  0.00     0.009 A 
ATOM     64  C   UNL A   1      42.268  36.156  35.330  1.00  0.00     0.001 A 
ATOM     65  C   UNL A   1      43.393  37.200  33.466  1.00  0.00     0.001 A 
ATOM     66  C   UNL A   1      42.911  37.259  34.773  1.00  0.00     0.000 A 
ENDBRANCH  47  61
BRANCH  48  67
ATOM     67  C   UNL A   1      40.419  26.732  27.955  1.00  0.00    -0.014 A 
ATOM     68  C   UNL A   1      39.689  25.718  28.598  1.00  0.00     0.009 A 
ATOM     69  C   UNL A   1      40.863  26.517  26.643  1.00  0.00     0.009 A 
ATOM     70  C   UNL A   1      39.446  24.502  27.959  1.00  0.00     0.001 A 
ATOM     71  C   UNL A   1      40.592  25.310  25.993  1.00  0.00     0.001 A 
ATOM     72  C   UNL A   1      39.895  24.299  26.655  1.00  0.00     0.000 A 
ENDBRANCH  48  67
BRANCH  60  73
ATOM     73  C   UNL A   1      46.043  28.849  31.526  1.00  0.00    -0.014 A 
ATOM     74  C   UNL A   1      47.103  29.053  30.628  1.00  0.00     0.009 A 
ATOM     75  C   UNL A   1      46.228  27.981  32.613  1.00  0.00     0.009 A 
ATOM     76  C   UNL A   1      48.317  28.391  30.804  1.00  0.00     0.001 A 
ATOM     77  C   UNL A   1      47.455  27.342  32.802  1.00  0.00     0.001 A 
ATOM     78  C   UNL A   1      48.494  27.539  31.894  1.00  0.00     0.000 A 
ENDBRANCH  60  73
ENDBRANCH  34  35
ENDBRANCH  26  29
ENDBRANCH  24  25
ENDBRANCH   1  24
TORSDOF 12
ENDMDL
MODEL 2
REMARK VINA RESULT:      -9.2      6.414     11.636
REMARK SMILES COc1cc(C)cc2c1O[C@H](C(F)(F)F)C(C(=O)NCCCNC(=O)c1ccc(-c3c4nc(c(-c5ccccc5)c5ccc([nH]5)c(-c5ccccc5)c5nc(c(-c6ccccc6)c6ccc3[nH]6)C=C5)C=C4)cc1)=C2
REMARK SMILES IDX 21 1 20 2 19 3 17 4 18 5 16 7 3 8 4 9 9 10 5 11 8 12 10 13
REMARK SMILES IDX 6 14 7 15 74 16 11 17 2 18 1 19 12 20 13 21 14 22 15 23
REMARK SMILES IDX 22 24 23 25 24 26 25 28 26 29 27 30 73 31 28 32 72 33 29 34
REMARK SMILES IDX 30 35 31 36 66 37 32 38 71 39 65 40 67 41 33 42 70 43 64 44
REMARK SMILES IDX 63 45 34 47 56 48 41 49 55 50 42 51 45 52 54 53 68 54 43 55
REMARK SMILES IDX 44 56 53 58 69 59 46 60 35 61 36 62 40 63 37 64 39 65 38 66
REMARK SMILES IDX 57 67 58 68 62 69 59 70 61 71 60 72 47 73 48 74 52 75 49 76
REMARK SMILES IDX 51 77 50 78
REMARK H PARENT 19 6 23 27 67 46 45 57
REMARK Flexibility Score: inf
ROOT
ATOM      1  C   UNL A   1      37.901  19.603  25.011  1.00  0.00     0.042 C 
ENDROOT
BRANCH   1   2
ATOM      2  C   UNL A   1      36.952  20.735  24.650  1.00  0.00     0.118 C 
BRANCH   2   3
ATOM      3  N   UNL A   1      35.948  20.949  25.681  1.00  0.00    -0.352 N 
ATOM      4  C   UNL A   1      34.952  21.831  25.929  1.00  0.00     0.251 C 
ATOM      5  O   UNL A   1      34.334  21.638  26.981  1.00  0.00    -0.270 OA
ATOM      6  H   UNL A   1      36.010  20.269  26.391  1.00  0.00     0.163 HD
BRANCH   4   7
ATOM      7  C   UNL A   1      34.572  22.970  25.046  1.00  0.00     0.067 C 
ATOM      8  C   UNL A   1      33.650  26.300  22.669  1.00  0.00     0.161 A 
ATOM      9  C   UNL A   1      33.264  27.497  23.274  1.00  0.00     0.054 A 
ATOM     10  C   UNL A   1      34.030  25.213  23.460  1.00  0.00     0.169 A 
ATOM     11  C   UNL A   1      33.296  27.625  24.669  1.00  0.00    -0.047 A 
ATOM     12  C   UNL A   1      34.050  25.319  24.852  1.00  0.00     0.021 A 
ATOM     13  O   UNL A   1      34.434  24.070  22.822  1.00  0.00    -0.471 OA
ATOM     14  C   UNL A   1      32.883  28.906  25.333  1.00  0.00     0.044 C 
ATOM     15  C   UNL A   1      33.690  26.529  25.453  1.00  0.00     0.015 A 
ATOM     16  C   UNL A   1      34.462  24.169  25.650  1.00  0.00     0.025 C 
ATOM     17  C   UNL A   1      34.287  22.843  23.576  1.00  0.00     0.314 C 
BRANCH   8  18
ATOM     18  O   UNL A   1      33.570  26.105  21.314  1.00  0.00    -0.493 OA
ATOM     19  C   UNL A   1      32.245  25.839  20.869  1.00  0.00     0.278 C 
ENDBRANCH   8  18
BRANCH  17  20
ATOM     20  C   UNL A   1      32.908  22.221  23.278  1.00  0.00     0.429 C 
ATOM     21  F   UNL A   1      32.583  22.397  21.973  1.00  0.00    -0.167 F 
ATOM     22  F   UNL A   1      32.889  20.883  23.496  1.00  0.00    -0.167 F 
ATOM     23  F   UNL A   1      31.915  22.749  24.024  1.00  0.00    -0.167 F 
ENDBRANCH  17  20
ENDBRANCH   4   7
ENDBRANCH   2   3
ENDBRANCH   1   2
BRANCH   1  24
ATOM     24  C   UNL A   1      39.142  20.103  25.742  1.00  0.00     0.118 C 
BRANCH  24  25
ATOM     25  N   UNL A   1      40.193  19.088  25.801  1.00  0.00    -0.352 N 
ATOM     26  C   UNL A   1      41.550  19.214  25.961  1.00  0.00     0.251 C 
ATOM     27  H   UNL A   1      39.873  18.161  25.712  1.00  0.00     0.163 HD
ATOM     28  O   UNL A   1      42.283  18.250  25.756  1.00  0.00    -0.269 OA
BRANCH  26  29
ATOM     29  C   UNL A   1      42.132  20.510  26.361  1.00  0.00     0.039 A 
ATOM     30  C   UNL A   1      42.276  20.830  27.709  1.00  0.00     0.014 A 
ATOM     31  C   UNL A   1      42.541  21.418  25.378  1.00  0.00     0.014 A 
ATOM     32  C   UNL A   1      42.622  22.122  28.074  1.00  0.00     0.010 A 
ATOM     33  C   UNL A   1      43.006  22.681  25.753  1.00  0.00     0.010 A 
ATOM     34  C   UNL A   1      42.997  23.063  27.103  1.00  0.00    -0.014 A 
BRANCH  34  35
ATOM     35  C   UNL A   1      43.377  24.431  27.538  1.00  0.00     0.031 A 
ATOM     36  C   UNL A   1      44.799  24.909  27.433  1.00  0.00     0.074 A 
ATOM     37  C   UNL A   1      42.408  25.276  27.942  1.00  0.00     0.049 A 
ATOM     38  N   UNL A   1      45.291  26.090  27.711  1.00  0.00    -0.248 NA
ATOM     39  C   UNL A   1      45.802  23.942  26.955  1.00  0.00     0.031 C 
ATOM     40  C   UNL A   1      40.987  24.934  28.051  1.00  0.00     0.029 A 
ATOM     41  N   UNL A   1      42.456  26.603  28.284  1.00  0.00    -0.354 N 
ATOM     42  C   UNL A   1      46.654  26.004  27.460  1.00  0.00     0.074 A 
ATOM     43  C   UNL A   1      46.922  24.647  27.038  1.00  0.00     0.031 C 
ATOM     44  C   UNL A   1      40.290  26.041  28.341  1.00  0.00     0.029 A 
ATOM     45  C   UNL A   1      41.219  27.151  28.525  1.00  0.00     0.049 A 
ATOM     46  H   UNL A   1      43.295  27.114  28.350  1.00  0.00     0.167 HD
ATOM     47  C   UNL A   1      47.595  26.972  27.561  1.00  0.00     0.031 A 
ATOM     48  C   UNL A   1      40.863  28.404  28.864  1.00  0.00     0.031 A 
ATOM     49  C   UNL A   1      47.321  28.322  27.977  1.00  0.00     0.049 A 
ATOM     50  C   UNL A   1      41.933  29.442  29.031  1.00  0.00     0.074 A 
ATOM     51  C   UNL A   1      48.211  29.374  28.121  1.00  0.00     0.029 A 
ATOM     52  N   UNL A   1      46.067  28.809  28.309  1.00  0.00    -0.354 N 
ATOM     53  N   UNL A   1      43.221  29.335  28.815  1.00  0.00    -0.248 NA
ATOM     54  C   UNL A   1      41.504  30.767  29.498  1.00  0.00     0.031 C 
ATOM     55  C   UNL A   1      47.503  30.482  28.593  1.00  0.00     0.029 A 
ATOM     56  C   UNL A   1      46.162  30.141  28.679  1.00  0.00     0.049 A 
ATOM     57  H   UNL A   1      45.233  28.288  28.286  1.00  0.00     0.167 HD
ATOM     58  C   UNL A   1      43.759  30.579  29.113  1.00  0.00     0.074 A 
ATOM     59  C   UNL A   1      42.653  31.431  29.501  1.00  0.00     0.031 C 
ATOM     60  C   UNL A   1      45.054  30.974  29.073  1.00  0.00     0.031 A 
BRANCH  47  61
ATOM     61  C   UNL A   1      49.018  26.609  27.232  1.00  0.00    -0.014 A 
ATOM     62  C   UNL A   1      49.471  26.694  25.905  1.00  0.00     0.009 A 
ATOM     63  C   UNL A   1      49.888  26.110  28.214  1.00  0.00     0.009 A 
ATOM     64  C   UNL A   1      50.760  26.278  25.566  1.00  0.00     0.001 A 
ATOM     65  C   UNL A   1      51.188  25.723  27.877  1.00  0.00     0.001 A 
ATOM     66  C   UNL A   1      51.619  25.798  26.553  1.00  0.00     0.000 A 
ENDBRANCH  47  61
BRANCH  48  67
ATOM     67  C   UNL A   1      39.425  28.725  29.054  1.00  0.00    -0.014 A 
ATOM     68  C   UNL A   1      38.668  29.264  28.000  1.00  0.00     0.009 A 
ATOM     69  C   UNL A   1      38.821  28.569  30.309  1.00  0.00     0.009 A 
ATOM     70  C   UNL A   1      37.351  29.676  28.209  1.00  0.00     0.001 A 
ATOM     71  C   UNL A   1      37.493  28.953  30.509  1.00  0.00     0.001 A 
ATOM     72  C   UNL A   1      36.763  29.518  29.463  1.00  0.00     0.000 A 
ENDBRANCH  48  67
BRANCH  60  73
ATOM     73  C   UNL A   1      45.361  32.396  29.450  1.00  0.00    -0.014 A 
ATOM     74  C   UNL A   1      45.414  33.386  28.456  1.00  0.00     0.009 A 
ATOM     75  C   UNL A   1      45.695  32.736  30.770  1.00  0.00     0.009 A 
ATOM     76  C   UNL A   1      45.810  34.685  28.771  1.00  0.00     0.001 A 
ATOM     77  C   UNL A   1      46.062  34.045  31.088  1.00  0.00     0.001 A 
ATOM     78  C   UNL A   1      46.129  35.015  30.088  1.00  0.00     0.000 A 
ENDBRANCH  60  73
ENDBRANCH  34  35
ENDBRANCH  26  29
ENDBRANCH  24  25
ENDBRANCH   1  24
TORSDOF 12
ENDMDL
MODEL 3
REMARK VINA RESULT:      -9.2      5.174      7.445
REMARK SMILES COc1cc(C)cc2c1O[C@H](C(F)(F)F)C(C(=O)NCCCNC(=O)c1ccc(-c3c4nc(c(-c5ccccc5)c5ccc([nH]5)c(-c5ccccc5)c5nc(c(-c6ccccc6)c6ccc3[nH]6)C=C5)C=C4)cc1)=C2
REMARK SMILES IDX 21 1 20 2 19 3 17 4 18 5 16 7 3 8 4 9 9 10 5 11 8 12 10 13
REMARK SMILES IDX 6 14 7 15 74 16 11 17 2 18 1 19 12 20 13 21 14 22 15 23
REMARK SMILES IDX 22 24 23 25 24 26 25 28 26 29 27 30 73 31 28 32 72 33 29 34
REMARK SMILES IDX 30 35 31 36 66 37 32 38 71 39 65 40 67 41 33 42 70 43 64 44
REMARK SMILES IDX 63 45 34 47 56 48 41 49 55 50 42 51 45 52 54 53 68 54 43 55
REMARK SMILES IDX 44 56 53 58 69 59 46 60 35 61 36 62 40 63 37 64 39 65 38 66
REMARK SMILES IDX 57 67 58 68 62 69 59 70 61 71 60 72 47 73 48 74 52 75 49 76
REMARK SMILES IDX 51 77 50 78
REMARK H PARENT 19 6 23 27 67 46 45 57
REMARK Flexibility Score: inf
ROOT
ATOM      1  C   UNL A   1      31.549  32.128  26.599  1.00  0.00     0.042 C 
ENDROOT
BRANCH   1   2
ATOM      2  C   UNL A   1      31.700  30.618  26.510  1.00  0.00     0.118 C 
BRANCH   2   3
ATOM      3  N   UNL A   1      32.334  30.211  25.266  1.00  0.00    -0.352 N 
ATOM      4  C   UNL A   1      32.683  29.050  24.662  1.00  0.00     0.251 C 
ATOM      5  O   UNL A   1      33.243  29.178  23.569  1.00  0.00    -0.270 OA
ATOM      6  H   UNL A   1      32.576  30.989  24.713  1.00  0.00     0.163 HD
BRANCH   4   7
ATOM      7  C   UNL A   1      32.440  27.687  25.215  1.00  0.00     0.067 C 
ATOM      8  C   UNL A   1      31.941  23.873  26.886  1.00  0.00     0.161 A 
ATOM      9  C   UNL A   1      32.969  22.933  26.786  1.00  0.00     0.054 A 
ATOM     10  C   UNL A   1      32.134  25.167  26.396  1.00  0.00     0.169 A 
ATOM     11  C   UNL A   1      34.205  23.295  26.233  1.00  0.00    -0.047 A 
ATOM     12  C   UNL A   1      33.353  25.538  25.828  1.00  0.00     0.021 A 
ATOM     13  O   UNL A   1      31.111  26.065  26.549  1.00  0.00    -0.471 OA
ATOM     14  C   UNL A   1      35.317  22.294  26.117  1.00  0.00     0.044 C 
ATOM     15  C   UNL A   1      34.390  24.602  25.754  1.00  0.00     0.015 A 
ATOM     16  C   UNL A   1      33.527  26.901  25.335  1.00  0.00     0.025 C 
ATOM     17  C   UNL A   1      31.087  27.158  25.599  1.00  0.00     0.314 C 
BRANCH   8  18
ATOM     18  O   UNL A   1      30.695  23.548  27.356  1.00  0.00    -0.493 OA
ATOM     19  C   UNL A   1      30.049  22.552  26.571  1.00  0.00     0.278 C 
ENDBRANCH   8  18
BRANCH  17  20
ATOM     20  C   UNL A   1      30.223  26.763  24.385  1.00  0.00     0.429 C 
ATOM     21  F   UNL A   1      29.244  25.904  24.762  1.00  0.00    -0.167 F 
ATOM     22  F   UNL A   1      29.598  27.829  23.829  1.00  0.00    -0.167 F 
ATOM     23  F   UNL A   1      30.932  26.172  23.399  1.00  0.00    -0.167 F 
ENDBRANCH  17  20
ENDBRANCH   4   7
ENDBRANCH   2   3
ENDBRANCH   1   2
BRANCH   1  24
ATOM     24  C   UNL A   1      32.750  32.789  27.263  1.00  0.00     0.118 C 
BRANCH  24  25
ATOM     25  N   UNL A   1      32.488  34.184  27.614  1.00  0.00    -0.352 N 
ATOM     26  C   UNL A   1      33.029  34.976  28.597  1.00  0.00     0.251 C 
ATOM     27  H   UNL A   1      31.812  34.628  27.053  1.00  0.00     0.163 HD
ATOM     28  O   UNL A   1      32.508  36.054  28.870  1.00  0.00    -0.269 OA
BRANCH  26  29
ATOM     29  C   UNL A   1      34.224  34.527  29.337  1.00  0.00     0.039 A 
ATOM     30  C   UNL A   1      35.495  34.699  28.791  1.00  0.00     0.014 A 
ATOM     31  C   UNL A   1      34.077  33.926  30.591  1.00  0.00     0.014 A 
ATOM     32  C   UNL A   1      36.586  34.088  29.389  1.00  0.00     0.010 A 
ATOM     33  C   UNL A   1      35.198  33.417  31.252  1.00  0.00     0.010 A 
ATOM     34  C   UNL A   1      36.455  33.445  30.629  1.00  0.00    -0.014 A 
BRANCH  34  35
ATOM     35  C   UNL A   1      37.653  32.817  31.242  1.00  0.00     0.031 A 
ATOM     36  C   UNL A   1      38.131  33.235  32.606  1.00  0.00     0.074 A 
ATOM     37  C   UNL A   1      38.254  31.797  30.598  1.00  0.00     0.049 A 
ATOM     38  N   UNL A   1      39.121  32.750  33.313  1.00  0.00    -0.248 NA
ATOM     39  C   UNL A   1      37.410  34.336  33.266  1.00  0.00     0.031 C 
ATOM     40  C   UNL A   1      37.857  31.283  29.285  1.00  0.00     0.029 A 
ATOM     41  N   UNL A   1      39.286  30.978  30.976  1.00  0.00    -0.354 N 
ATOM     42  C   UNL A   1      39.152  33.494  34.485  1.00  0.00     0.074 A 
ATOM     43  C   UNL A   1      38.104  34.485  34.386  1.00  0.00     0.031 C 
ATOM     44  C   UNL A   1      38.570  30.183  29.011  1.00  0.00     0.029 A 
ATOM     45  C   UNL A   1      39.534  29.964  30.083  1.00  0.00     0.049 A 
ATOM     46  H   UNL A   1      39.800  31.103  31.807  1.00  0.00     0.167 HD
ATOM     47  C   UNL A   1      39.973  33.354  35.553  1.00  0.00     0.031 A 
ATOM     48  C   UNL A   1      40.439  28.968  30.112  1.00  0.00     0.031 A 
ATOM     49  C   UNL A   1      41.011  32.363  35.649  1.00  0.00     0.049 A 
ATOM     50  C   UNL A   1      41.379  28.874  31.278  1.00  0.00     0.074 A 
ATOM     51  C   UNL A   1      41.902  32.149  36.686  1.00  0.00     0.029 A 
ATOM     52  N   UNL A   1      41.294  31.417  34.675  1.00  0.00    -0.354 N 
ATOM     53  N   UNL A   1      41.410  29.604  32.367  1.00  0.00    -0.248 NA
ATOM     54  C   UNL A   1      42.411  27.833  31.216  1.00  0.00     0.031 C 
ATOM     55  C   UNL A   1      42.760  31.110  36.318  1.00  0.00     0.029 A 
ATOM     56  C   UNL A   1      42.360  30.630  35.080  1.00  0.00     0.049 A 
ATOM     57  H   UNL A   1      40.809  31.318  33.825  1.00  0.00     0.167 HD
ATOM     58  C   UNL A   1      42.461  29.107  33.124  1.00  0.00     0.074 A 
ATOM     59  C   UNL A   1      43.025  27.998  32.381  1.00  0.00     0.031 C 
ATOM     60  C   UNL A   1      42.918  29.537  34.325  1.00  0.00     0.031 A 
BRANCH  47  61
ATOM     61  C   UNL A   1      39.797  34.306  36.706  1.00  0.00    -0.014 A 
ATOM     62  C   UNL A   1      40.421  35.565  36.673  1.00  0.00     0.009 A 
ATOM     63  C   UNL A   1      39.083  33.934  37.856  1.00  0.00     0.009 A 
ATOM     64  C   UNL A   1      40.341  36.425  37.770  1.00  0.00     0.001 A 
ATOM     65  C   UNL A   1      38.981  34.810  38.939  1.00  0.00     0.001 A 
ATOM     66  C   UNL A   1      39.617  36.050  38.899  1.00  0.00     0.000 A 
ENDBRANCH  47  61
BRANCH  48  67
ATOM     67  C   UNL A   1      40.477  27.986  28.997  1.00  0.00    -0.014 A 
ATOM     68  C   UNL A   1      41.199  28.265  27.824  1.00  0.00     0.009 A 
ATOM     69  C   UNL A   1      39.730  26.803  29.067  1.00  0.00     0.009 A 
ATOM     70  C   UNL A   1      41.141  27.399  26.731  1.00  0.00     0.001 A 
ATOM     71  C   UNL A   1      39.698  25.921  27.983  1.00  0.00     0.001 A 
ATOM     72  C   UNL A   1      40.392  26.226  26.812  1.00  0.00     0.000 A 
ENDBRANCH  48  67
BRANCH  60  73
ATOM     73  C   UNL A   1      44.086  28.808  34.928  1.00  0.00    -0.014 A 
ATOM     74  C   UNL A   1      43.860  27.731  35.800  1.00  0.00     0.009 A 
ATOM     75  C   UNL A   1      45.400  29.248  34.714  1.00  0.00     0.009 A 
ATOM     76  C   UNL A   1      44.926  27.118  36.457  1.00  0.00     0.001 A 
ATOM     77  C   UNL A   1      46.468  28.612  35.350  1.00  0.00     0.001 A 
ATOM     78  C   UNL A   1      46.230  27.556  36.229  1.00  0.00     0.000 A 
ENDBRANCH  60  73
ENDBRANCH  34  35
ENDBRANCH  26  29
ENDBRANCH  24  25
ENDBRANCH   1  24
TORSDOF 12
ENDMDL
