MODEL 1
REMARK VINA RESULT:     -13.9      0.000      0.000
REMARK SMILES Cc1ccccc1[C@@H]1[NH2+][C@@H](C(=O)NCCCNC(=O)c2ccc(-c3c4nc(c(-c5ccccc5)c5ccc([nH]5)c(-c5ccccc5)c5nc(c(-c6ccccc6)c6ccc3[nH]6)C=C5)C=C4)cc2)CC2=c3ccccc3=N[C@@H]21
REMARK SMILES IDX 15 1 14 2 13 3 11 4 12 5 10 7 8 8 9 9 77 10 69 13 76 14
REMARK SMILES IDX 68 15 70 16 75 17 71 18 74 19 72 20 73 21 7 22 1 23 2 24
REMARK SMILES IDX 3 25 4 26 6 27 5 28 16 29 17 30 18 31 19 33 20 34 21 35
REMARK SMILES IDX 67 36 22 37 66 38 23 39 24 40 25 41 60 42 26 43 65 44 59 45
REMARK SMILES IDX 61 46 27 47 64 48 58 49 57 50 28 52 50 53 35 54 49 55 36 56
REMARK SMILES IDX 39 57 48 58 62 59 37 60 38 61 47 63 63 64 40 65 29 66 30 67
REMARK SMILES IDX 34 68 31 69 33 70 32 71 51 72 52 73 56 74 53 75 55 76 54 77
REMARK SMILES IDX 41 78 42 79 46 80 43 81 45 82 44 83
REMARK H PARENT 13 6 9 11 9 12 17 32 61 51 39 62
REMARK Flexibility Score: inf
ROOT
ATOM      1  C   UNL A   1      39.526  22.127  26.125  1.00  0.00     0.042 C 
ENDROOT
BRANCH   1   2
ATOM      2  C   UNL A   1      38.056  22.189  25.632  1.00  0.00     0.118 C 
BRANCH   2   3
ATOM      3  N   UNL A   1      37.578  22.419  24.255  1.00  0.00    -0.351 N 
ATOM      4  C   UNL A   1      36.291  22.581  23.737  1.00  0.00     0.278 C 
ATOM      5  O   UNL A   1      36.076  23.321  22.782  1.00  0.00    -0.268 OA
ATOM      6  H   UNL A   1      38.294  22.468  23.582  1.00  0.00     0.163 HD
BRANCH   4   7
ATOM      7  C   UNL A   1      35.245  21.683  24.367  1.00  0.00     0.277 C 
ATOM      8  C   UNL A   1      33.124  22.708  25.218  1.00  0.00     0.243 C 
ATOM      9  N   UNL A   1      33.982  22.370  24.057  1.00  0.00    -0.327 N 
ATOM     10  C   UNL A   1      32.638  21.295  25.734  1.00  0.00     0.196 C 
ATOM     11  H   UNL A   1      34.210  23.239  23.575  1.00  0.00     0.347 HD
ATOM     12  H   UNL A   1      33.439  21.711  23.499  1.00  0.00     0.347 HD
ATOM     13  C   UNL A   1      33.898  20.392  25.846  1.00  0.00    -0.024 C 
ATOM     14  N   UNL A   1      31.803  20.584  24.706  1.00  0.00    -0.270 NA
ATOM     15  C   UNL A   1      35.254  21.120  25.801  1.00  0.00     0.109 C 
ATOM     16  C   UNL A   1      33.734  19.244  25.167  1.00  0.00     0.002 A 
ATOM     17  C   UNL A   1      32.465  19.494  24.444  1.00  0.00     0.066 A 
ATOM     18  C   UNL A   1      34.709  18.328  24.627  1.00  0.00     0.010 A 
ATOM     19  C   UNL A   1      32.154  18.558  23.331  1.00  0.00     0.028 A 
ATOM     20  C   UNL A   1      34.413  17.616  23.528  1.00  0.00     0.001 A 
ATOM     21  C   UNL A   1      33.103  17.704  22.907  1.00  0.00     0.002 A 
BRANCH   8  22
ATOM     22  C   UNL A   1      32.249  23.908  24.797  1.00  0.00     0.015 A 
ATOM     23  C   UNL A   1      33.904  25.724  25.540  1.00  0.00     0.045 C 
ATOM     24  C   UNL A   1      32.675  25.253  24.821  1.00  0.00    -0.042 A 
ATOM     25  C   UNL A   1      32.030  26.212  23.996  1.00  0.00     0.004 A 
ATOM     26  C   UNL A   1      31.001  25.860  23.132  1.00  0.00     0.000 A 
ATOM     27  C   UNL A   1      31.124  23.626  23.987  1.00  0.00     0.010 A 
ATOM     28  C   UNL A   1      30.567  24.556  23.127  1.00  0.00     0.001 A 
ENDBRANCH   8  22
ENDBRANCH   4   7
ENDBRANCH   2   3
ENDBRANCH   1   2
BRANCH   1  29
ATOM     29  C   UNL A   1      40.092  20.810  26.688  1.00  0.00     0.118 C 
BRANCH  29  30
ATOM     30  N   UNL A   1      41.134  20.251  25.803  1.00  0.00    -0.352 N 
ATOM     31  C   UNL A   1      42.496  20.496  25.754  1.00  0.00     0.251 C 
ATOM     32  H   UNL A   1      40.807  19.599  25.141  1.00  0.00     0.163 HD
ATOM     33  O   UNL A   1      43.226  19.806  25.068  1.00  0.00    -0.269 OA
BRANCH  31  34
ATOM     34  C   UNL A   1      43.067  21.549  26.617  1.00  0.00     0.039 A 
ATOM     35  C   UNL A   1      42.720  21.559  27.974  1.00  0.00     0.014 A 
ATOM     36  C   UNL A   1      43.817  22.580  26.063  1.00  0.00     0.014 A 
ATOM     37  C   UNL A   1      42.888  22.730  28.710  1.00  0.00     0.010 A 
ATOM     38  C   UNL A   1      43.979  23.746  26.791  1.00  0.00     0.010 A 
ATOM     39  C   UNL A   1      43.410  23.854  28.068  1.00  0.00    -0.014 A 
BRANCH  39  40
ATOM     40  C   UNL A   1      43.102  25.206  28.523  1.00  0.00     0.031 A 
ATOM     41  C   UNL A   1      41.905  25.949  28.118  1.00  0.00     0.074 A 
ATOM     42  C   UNL A   1      43.896  25.748  29.474  1.00  0.00     0.049 A 
ATOM     43  N   UNL A   1      41.837  27.240  28.115  1.00  0.00    -0.248 NA
ATOM     44  C   UNL A   1      40.682  25.294  27.684  1.00  0.00     0.031 C 
ATOM     45  C   UNL A   1      43.615  26.907  30.322  1.00  0.00     0.029 A 
ATOM     46  N   UNL A   1      45.200  25.396  29.816  1.00  0.00    -0.354 N 
ATOM     47  C   UNL A   1      40.506  27.564  28.040  1.00  0.00     0.074 A 
ATOM     48  C   UNL A   1      39.845  26.337  27.641  1.00  0.00     0.031 C 
ATOM     49  C   UNL A   1      44.759  27.312  30.893  1.00  0.00     0.029 A 
ATOM     50  C   UNL A   1      45.832  26.564  30.264  1.00  0.00     0.049 A 
ATOM     51  H   UNL A   1      45.602  24.500  29.754  1.00  0.00     0.167 HD
ATOM     52  C   UNL A   1      40.068  28.773  28.497  1.00  0.00     0.031 A 
ATOM     53  C   UNL A   1      46.910  27.107  29.629  1.00  0.00     0.031 A 
ATOM     54  C   UNL A   1      41.143  29.598  29.065  1.00  0.00     0.049 A 
ATOM     55  C   UNL A   1      46.649  28.515  29.124  1.00  0.00     0.074 A 
ATOM     56  C   UNL A   1      41.471  29.993  30.354  1.00  0.00     0.029 A 
ATOM     57  N   UNL A   1      42.238  29.940  28.281  1.00  0.00    -0.354 N 
ATOM     58  N   UNL A   1      45.509  29.138  29.228  1.00  0.00    -0.248 NA
ATOM     59  C   UNL A   1      47.619  29.281  28.348  1.00  0.00     0.031 C 
ATOM     60  C   UNL A   1      42.759  30.599  30.330  1.00  0.00     0.029 A 
ATOM     61  C   UNL A   1      43.214  30.581  29.025  1.00  0.00     0.049 A 
ATOM     62  H   UNL A   1      42.310  29.752  27.317  1.00  0.00     0.167 HD
ATOM     63  C   UNL A   1      45.534  30.298  28.500  1.00  0.00     0.074 A 
ATOM     64  C   UNL A   1      46.888  30.346  27.974  1.00  0.00     0.031 C 
ATOM     65  C   UNL A   1      44.416  31.074  28.356  1.00  0.00     0.031 A 
BRANCH  52  66
ATOM     66  C   UNL A   1      38.598  29.079  28.688  1.00  0.00    -0.014 A 
ATOM     67  C   UNL A   1      37.833  29.594  27.625  1.00  0.00     0.009 A 
ATOM     68  C   UNL A   1      37.912  28.897  29.902  1.00  0.00     0.009 A 
ATOM     69  C   UNL A   1      36.507  30.015  27.796  1.00  0.00     0.001 A 
ATOM     70  C   UNL A   1      36.602  29.359  30.096  1.00  0.00     0.001 A 
ATOM     71  C   UNL A   1      35.903  29.933  29.043  1.00  0.00     0.000 A 
ENDBRANCH  52  66
BRANCH  53  72
ATOM     72  C   UNL A   1      47.742  26.093  28.917  1.00  0.00    -0.014 A 
ATOM     73  C   UNL A   1      47.455  25.832  27.560  1.00  0.00     0.009 A 
ATOM     74  C   UNL A   1      49.001  25.731  29.417  1.00  0.00     0.009 A 
ATOM     75  C   UNL A   1      48.440  25.333  26.704  1.00  0.00     0.001 A 
ATOM     76  C   UNL A   1      49.978  25.214  28.558  1.00  0.00     0.001 A 
ATOM     77  C   UNL A   1      49.709  25.049  27.199  1.00  0.00     0.000 A 
ENDBRANCH  53  72
BRANCH  65  78
ATOM     78  C   UNL A   1      44.302  32.346  27.541  1.00  0.00    -0.014 A 
ATOM     79  C   UNL A   1      44.196  33.634  28.074  1.00  0.00     0.009 A 
ATOM     80  C   UNL A   1      44.236  32.256  26.129  1.00  0.00     0.009 A 
ATOM     81  C   UNL A   1      44.133  34.769  27.250  1.00  0.00     0.001 A 
ATOM     82  C   UNL A   1      44.153  33.377  25.302  1.00  0.00     0.001 A 
ATOM     83  C   UNL A   1      44.124  34.642  25.865  1.00  0.00     0.000 A 
ENDBRANCH  65  78
ENDBRANCH  39  40
ENDBRANCH  31  34
ENDBRANCH  29  30
ENDBRANCH   1  29
TORSDOF 11
ENDMDL
MODEL 2
REMARK VINA RESULT:     -13.8      1.162      3.283
REMARK SMILES Cc1ccccc1[C@@H]1[NH2+][C@@H](C(=O)NCCCNC(=O)c2ccc(-c3c4nc(c(-c5ccccc5)c5ccc([nH]5)c(-c5ccccc5)c5nc(c(-c6ccccc6)c6ccc3[nH]6)C=C5)C=C4)cc2)CC2=c3ccccc3=N[C@@H]21
REMARK SMILES IDX 15 1 14 2 13 3 11 4 12 5 10 7 8 8 9 9 77 10 69 13 76 14
REMARK SMILES IDX 68 15 70 16 75 17 71 18 74 19 72 20 73 21 7 22 1 23 2 24
REMARK SMILES IDX 3 25 4 26 6 27 5 28 16 29 17 30 18 31 19 33 20 34 21 35
REMARK SMILES IDX 67 36 22 37 66 38 23 39 24 40 25 41 60 42 26 43 65 44 59 45
REMARK SMILES IDX 61 46 27 47 64 48 58 49 57 50 28 52 50 53 35 54 49 55 36 56
REMARK SMILES IDX 39 57 48 58 62 59 37 60 38 61 47 63 63 64 40 65 29 66 30 67
REMARK SMILES IDX 34 68 31 69 33 70 32 71 51 72 52 73 56 74 53 75 55 76 54 77
REMARK SMILES IDX 41 78 42 79 46 80 43 81 45 82 44 83
REMARK H PARENT 13 6 9 11 9 12 17 32 61 51 39 62
REMARK Flexibility Score: inf
ROOT
ATOM      1  C   UNL A   1      38.189  21.445  25.389  1.00  0.00     0.042 C 
ENDROOT
BRANCH   1   2
ATOM      2  C   UNL A   1      37.112  22.560  25.448  1.00  0.00     0.118 C 
BRANCH   2   3
ATOM      3  N   UNL A   1      36.299  22.966  26.611  1.00  0.00    -0.351 N 
ATOM      4  C   UNL A   1      34.917  23.068  26.785  1.00  0.00     0.278 C 
ATOM      5  O   UNL A   1      34.389  22.827  27.866  1.00  0.00    -0.268 OA
ATOM      6  H   UNL A   1      36.825  23.207  27.407  1.00  0.00     0.163 HD
BRANCH   4   7
ATOM      7  C   UNL A   1      34.173  23.614  25.581  1.00  0.00     0.277 C 
ATOM      8  C   UNL A   1      33.337  22.012  23.847  1.00  0.00     0.243 C 
ATOM      9  N   UNL A   1      33.248  22.524  25.235  1.00  0.00    -0.327 N 
ATOM     10  C   UNL A   1      32.798  23.219  22.979  1.00  0.00     0.196 C 
ATOM     11  H   UNL A   1      33.434  21.745  25.867  1.00  0.00     0.347 HD
ATOM     12  H   UNL A   1      32.312  22.919  25.322  1.00  0.00     0.347 HD
ATOM     13  C   UNL A   1      33.543  24.495  23.461  1.00  0.00    -0.024 C 
ATOM     14  N   UNL A   1      31.360  23.529  23.290  1.00  0.00    -0.270 NA
ATOM     15  C   UNL A   1      34.795  24.257  24.327  1.00  0.00     0.109 C 
ATOM     16  C   UNL A   1      32.676  25.467  23.793  1.00  0.00     0.002 A 
ATOM     17  C   UNL A   1      31.379  24.753  23.733  1.00  0.00     0.066 A 
ATOM     18  C   UNL A   1      32.837  26.610  24.659  1.00  0.00     0.010 A 
ATOM     19  C   UNL A   1      30.226  25.443  24.372  1.00  0.00     0.028 A 
ATOM     20  C   UNL A   1      31.775  27.094  25.321  1.00  0.00     0.001 A 
ATOM     21  C   UNL A   1      30.451  26.528  25.134  1.00  0.00     0.002 A 
BRANCH   8  22
ATOM     22  C   UNL A   1      32.812  20.560  23.869  1.00  0.00     0.015 A 
ATOM     23  C   UNL A   1      31.853  20.584  21.488  1.00  0.00     0.045 C 
ATOM     24  C   UNL A   1      32.273  19.890  22.749  1.00  0.00    -0.042 A 
ATOM     25  C   UNL A   1      32.267  18.471  22.712  1.00  0.00     0.004 A 
ATOM     26  C   UNL A   1      32.810  17.710  23.738  1.00  0.00     0.000 A 
ATOM     27  C   UNL A   1      33.246  19.739  24.935  1.00  0.00     0.010 A 
ATOM     28  C   UNL A   1      33.311  18.360  24.841  1.00  0.00     0.001 A 
ENDBRANCH   8  22
ENDBRANCH   4   7
ENDBRANCH   2   3
ENDBRANCH   1   2
BRANCH   1  29
ATOM     29  C   UNL A   1      39.514  21.617  26.155  1.00  0.00     0.118 C 
BRANCH  29  30
ATOM     30  N   UNL A   1      40.478  20.555  25.805  1.00  0.00    -0.352 N 
ATOM     31  C   UNL A   1      41.822  20.424  26.114  1.00  0.00     0.251 C 
ATOM     32  H   UNL A   1      40.106  19.821  25.264  1.00  0.00     0.163 HD
ATOM     33  O   UNL A   1      42.414  19.387  25.885  1.00  0.00    -0.269 OA
BRANCH  31  34
ATOM     34  C   UNL A   1      42.508  21.530  26.812  1.00  0.00     0.039 A 
ATOM     35  C   UNL A   1      42.425  21.590  28.209  1.00  0.00     0.014 A 
ATOM     36  C   UNL A   1      43.100  22.558  26.087  1.00  0.00     0.014 A 
ATOM     37  C   UNL A   1      42.687  22.796  28.855  1.00  0.00     0.010 A 
ATOM     38  C   UNL A   1      43.355  23.758  26.726  1.00  0.00     0.010 A 
ATOM     39  C   UNL A   1      43.036  23.905  28.083  1.00  0.00    -0.014 A 
BRANCH  39  40
ATOM     40  C   UNL A   1      42.770  25.267  28.538  1.00  0.00     0.031 A 
ATOM     41  C   UNL A   1      41.589  26.040  28.147  1.00  0.00     0.074 A 
ATOM     42  C   UNL A   1      43.590  25.789  29.478  1.00  0.00     0.049 A 
ATOM     43  N   UNL A   1      41.556  27.333  28.140  1.00  0.00    -0.248 NA
ATOM     44  C   UNL A   1      40.343  25.419  27.729  1.00  0.00     0.031 C 
ATOM     45  C   UNL A   1      43.352  26.957  30.326  1.00  0.00     0.029 A 
ATOM     46  N   UNL A   1      44.889  25.403  29.805  1.00  0.00    -0.354 N 
ATOM     47  C   UNL A   1      40.234  27.693  28.080  1.00  0.00     0.074 A 
ATOM     48  C   UNL A   1      39.535  26.484  27.693  1.00  0.00     0.031 C 
ATOM     49  C   UNL A   1      44.514  27.332  30.882  1.00  0.00     0.029 A 
ATOM     50  C   UNL A   1      45.558  26.554  30.242  1.00  0.00     0.049 A 
ATOM     51  H   UNL A   1      45.265  24.496  29.740  1.00  0.00     0.167 HD
ATOM     52  C   UNL A   1      39.835  28.915  28.540  1.00  0.00     0.031 A 
ATOM     53  C   UNL A   1      46.642  27.065  29.592  1.00  0.00     0.031 A 
ATOM     54  C   UNL A   1      40.939  29.712  29.092  1.00  0.00     0.049 A 
ATOM     55  C   UNL A   1      46.413  28.479  29.087  1.00  0.00     0.074 A 
ATOM     56  C   UNL A   1      41.293  30.100  30.376  1.00  0.00     0.029 A 
ATOM     57  N   UNL A   1      42.032  30.022  28.293  1.00  0.00    -0.354 N 
ATOM     58  N   UNL A   1      45.292  29.133  29.203  1.00  0.00    -0.248 NA
ATOM     59  C   UNL A   1      47.394  29.216  28.296  1.00  0.00     0.031 C 
ATOM     60  C   UNL A   1      42.597  30.671  30.334  1.00  0.00     0.029 A 
ATOM     61  C   UNL A   1      43.035  30.638  29.024  1.00  0.00     0.049 A 
ATOM     62  H   UNL A   1      42.088  29.829  27.330  1.00  0.00     0.167 HD
ATOM     63  C   UNL A   1      45.340  30.290  28.471  1.00  0.00     0.074 A 
ATOM     64  C   UNL A   1      46.687  30.299  27.928  1.00  0.00     0.031 C 
ATOM     65  C   UNL A   1      44.241  31.095  28.339  1.00  0.00     0.031 A 
BRANCH  52  66
ATOM     66  C   UNL A   1      38.376  29.261  28.747  1.00  0.00    -0.014 A 
ATOM     67  C   UNL A   1      37.596  29.736  27.677  1.00  0.00     0.009 A 
ATOM     68  C   UNL A   1      37.715  29.157  29.985  1.00  0.00     0.009 A 
ATOM     69  C   UNL A   1      36.284  30.194  27.856  1.00  0.00     0.001 A 
ATOM     70  C   UNL A   1      36.420  29.656  30.184  1.00  0.00     0.001 A 
ATOM     71  C   UNL A   1      35.708  30.189  29.119  1.00  0.00     0.000 A 
ENDBRANCH  52  66
BRANCH  53  72
ATOM     72  C   UNL A   1      47.437  26.027  28.873  1.00  0.00    -0.014 A 
ATOM     73  C   UNL A   1      47.161  25.807  27.506  1.00  0.00     0.009 A 
ATOM     74  C   UNL A   1      48.669  25.595  29.386  1.00  0.00     0.009 A 
ATOM     75  C   UNL A   1      48.136  25.279  26.656  1.00  0.00     0.001 A 
ATOM     76  C   UNL A   1      49.634  25.050  28.532  1.00  0.00     0.001 A 
ATOM     77  C   UNL A   1      49.381  24.925  27.166  1.00  0.00     0.000 A 
ENDBRANCH  53  72
BRANCH  65  78
ATOM     78  C   UNL A   1      44.152  32.368  27.521  1.00  0.00    -0.014 A 
ATOM     79  C   UNL A   1      44.304  32.442  26.133  1.00  0.00     0.009 A 
ATOM     80  C   UNL A   1      43.957  33.602  28.187  1.00  0.00     0.009 A 
ATOM     81  C   UNL A   1      44.169  33.657  25.442  1.00  0.00     0.001 A 
ATOM     82  C   UNL A   1      43.840  34.818  27.510  1.00  0.00     0.001 A 
ATOM     83  C   UNL A   1      43.925  34.842  26.128  1.00  0.00     0.000 A 
ENDBRANCH  65  78
ENDBRANCH  39  40
ENDBRANCH  31  34
ENDBRANCH  29  30
ENDBRANCH   1  29
TORSDOF 11
ENDMDL
MODEL 3
REMARK VINA RESULT:     -13.8      3.492      7.742
REMARK SMILES Cc1ccccc1[C@@H]1[NH2+][C@@H](C(=O)NCCCNC(=O)c2ccc(-c3c4nc(c(-c5ccccc5)c5ccc([nH]5)c(-c5ccccc5)c5nc(c(-c6ccccc6)c6ccc3[nH]6)C=C5)C=C4)cc2)CC2=c3ccccc3=N[C@@H]21
REMARK SMILES IDX 15 1 14 2 13 3 11 4 12 5 10 7 8 8 9 9 77 10 69 13 76 14
REMARK SMILES IDX 68 15 70 16 75 17 71 18 74 19 72 20 73 21 7 22 1 23 2 24
REMARK SMILES IDX 3 25 4 26 6 27 5 28 16 29 17 30 18 31 19 33 20 34 21 35
REMARK SMILES IDX 67 36 22 37 66 38 23 39 24 40 25 41 60 42 26 43 65 44 59 45
REMARK SMILES IDX 61 46 27 47 64 48 58 49 57 50 28 52 50 53 35 54 49 55 36 56
REMARK SMILES IDX 39 57 48 58 62 59 37 60 38 61 47 63 63 64 40 65 29 66 30 67
REMARK SMILES IDX 34 68 31 69 33 70 32 71 51 72 52 73 56 74 53 75 55 76 54 77
REMARK SMILES IDX 41 78 42 79 46 80 43 81 45 82 44 83
REMARK H PARENT 13 6 9 11 9 12 17 32 61 51 39 62
REMARK Flexibility Score: inf
ROOT
ATOM      1  C   UNL A   1      38.536  24.098  26.604  1.00  0.00     0.042 C 
ENDROOT
BRANCH   1   2
ATOM      2  C   UNL A   1      37.320  23.598  25.779  1.00  0.00     0.118 C 
BRANCH   2   3
ATOM      3  N   UNL A   1      37.312  23.136  24.378  1.00  0.00    -0.351 N 
ATOM      4  C   UNL A   1      36.279  22.663  23.564  1.00  0.00     0.278 C 
ATOM      5  O   UNL A   1      36.263  22.886  22.358  1.00  0.00    -0.268 OA
ATOM      6  H   UNL A   1      38.191  23.166  23.937  1.00  0.00     0.163 HD
BRANCH   4   7
ATOM      7  C   UNL A   1      35.281  21.769  24.274  1.00  0.00     0.277 C 
ATOM      8  C   UNL A   1      33.206  22.794  25.231  1.00  0.00     0.243 C 
ATOM      9  N   UNL A   1      33.995  22.439  24.028  1.00  0.00    -0.327 N 
ATOM     10  C   UNL A   1      32.765  21.388  25.805  1.00  0.00     0.196 C 
ATOM     11  H   UNL A   1      34.185  23.300  23.515  1.00  0.00     0.347 HD
ATOM     12  H   UNL A   1      33.427  21.764  23.517  1.00  0.00     0.347 HD
ATOM     13  C   UNL A   1      34.039  20.499  25.858  1.00  0.00    -0.024 C 
ATOM     14  N   UNL A   1      31.877  20.648  24.843  1.00  0.00    -0.270 NA
ATOM     15  C   UNL A   1      35.382  21.238  25.717  1.00  0.00     0.109 C 
ATOM     16  C   UNL A   1      33.846  19.335  25.214  1.00  0.00     0.002 A 
ATOM     17  C   UNL A   1      32.533  19.559  24.564  1.00  0.00     0.066 A 
ATOM     18  C   UNL A   1      34.796  18.416  24.635  1.00  0.00     0.010 A 
ATOM     19  C   UNL A   1      32.165  18.597  23.491  1.00  0.00     0.028 A 
ATOM     20  C   UNL A   1      34.441  17.679  23.571  1.00  0.00     0.001 A 
ATOM     21  C   UNL A   1      33.095  17.743  23.029  1.00  0.00     0.002 A 
BRANCH   8  22
ATOM     22  C   UNL A   1      32.295  23.977  24.839  1.00  0.00     0.015 A 
ATOM     23  C   UNL A   1      33.994  25.821  25.388  1.00  0.00     0.045 C 
ATOM     24  C   UNL A   1      32.715  25.324  24.783  1.00  0.00    -0.042 A 
ATOM     25  C   UNL A   1      32.003  26.252  23.979  1.00  0.00     0.004 A 
ATOM     26  C   UNL A   1      30.912  25.869  23.211  1.00  0.00     0.000 A 
ATOM     27  C   UNL A   1      31.111  23.666  24.130  1.00  0.00     0.010 A 
ATOM     28  C   UNL A   1      30.484  24.564  23.285  1.00  0.00     0.001 A 
ENDBRANCH   8  22
ENDBRANCH   4   7
ENDBRANCH   2   3
ENDBRANCH   1   2
BRANCH   1  29
ATOM     29  C   UNL A   1      39.560  23.086  27.150  1.00  0.00     0.118 C 
BRANCH  29  30
ATOM     30  N   UNL A   1      40.497  22.648  26.096  1.00  0.00    -0.352 N 
ATOM     31  C   UNL A   1      41.871  22.793  26.000  1.00  0.00     0.251 C 
ATOM     32  H   UNL A   1      40.078  22.177  25.340  1.00  0.00     0.163 HD
ATOM     33  O   UNL A   1      42.498  22.210  25.136  1.00  0.00    -0.269 OA
BRANCH  31  34
ATOM     34  C   UNL A   1      42.581  23.594  27.017  1.00  0.00     0.039 A 
ATOM     35  C   UNL A   1      42.766  24.962  26.779  1.00  0.00     0.014 A 
ATOM     36  C   UNL A   1      43.172  22.973  28.112  1.00  0.00     0.014 A 
ATOM     37  C   UNL A   1      43.757  25.646  27.479  1.00  0.00     0.010 A 
ATOM     38  C   UNL A   1      44.161  23.649  28.803  1.00  0.00     0.010 A 
ATOM     39  C   UNL A   1      44.528  24.942  28.405  1.00  0.00    -0.014 A 
BRANCH  39  40
ATOM     40  C   UNL A   1      45.887  25.358  28.741  1.00  0.00     0.031 A 
ATOM     41  C   UNL A   1      47.059  25.055  27.916  1.00  0.00     0.074 A 
ATOM     42  C   UNL A   1      46.050  26.182  29.801  1.00  0.00     0.049 A 
ATOM     43  N   UNL A   1      48.262  24.991  28.386  1.00  0.00    -0.248 NA
ATOM     44  C   UNL A   1      46.972  24.798  26.488  1.00  0.00     0.031 C 
ATOM     45  C   UNL A   1      47.221  26.995  30.131  1.00  0.00     0.029 A 
ATOM     46  N   UNL A   1      45.188  26.391  30.876  1.00  0.00    -0.354 N 
ATOM     47  C   UNL A   1      49.109  25.052  27.309  1.00  0.00     0.074 A 
ATOM     48  C   UNL A   1      48.268  24.796  26.157  1.00  0.00     0.031 C 
ATOM     49  C   UNL A   1      47.114  27.410  31.403  1.00  0.00     0.029 A 
ATOM     50  C   UNL A   1      45.988  26.702  31.984  1.00  0.00     0.049 A 
ATOM     51  H   UNL A   1      44.206  26.330  30.862  1.00  0.00     0.167 HD
ATOM     52  C   UNL A   1      50.391  25.493  27.470  1.00  0.00     0.031 A 
ATOM     53  C   UNL A   1      46.034  25.920  33.100  1.00  0.00     0.031 A 
ATOM     54  C   UNL A   1      50.696  25.889  28.851  1.00  0.00     0.049 A 
ATOM     55  C   UNL A   1      47.423  25.375  33.381  1.00  0.00     0.074 A 
ATOM     56  C   UNL A   1      50.919  27.110  29.472  1.00  0.00     0.029 A 
ATOM     57  N   UNL A   1      50.552  24.968  29.881  1.00  0.00    -0.354 N 
ATOM     58  N   UNL A   1      48.463  25.576  32.622  1.00  0.00    -0.248 NA
ATOM     59  C   UNL A   1      47.717  24.454  34.475  1.00  0.00     0.031 C 
ATOM     60  C   UNL A   1      50.935  26.907  30.881  1.00  0.00     0.029 A 
ATOM     61  C   UNL A   1      50.730  25.562  31.120  1.00  0.00     0.049 A 
ATOM     62  H   UNL A   1      50.350  24.014  29.748  1.00  0.00     0.167 HD
ATOM     63  C   UNL A   1      49.508  24.790  33.031  1.00  0.00     0.074 A 
ATOM     64  C   UNL A   1      48.989  24.111  34.206  1.00  0.00     0.031 C 
ATOM     65  C   UNL A   1      50.678  24.735  32.323  1.00  0.00     0.031 A 
BRANCH  52  66
ATOM     66  C   UNL A   1      51.280  25.833  26.293  1.00  0.00    -0.014 A 
ATOM     67  C   UNL A   1      50.998  26.950  25.486  1.00  0.00     0.009 A 
ATOM     68  C   UNL A   1      52.406  25.078  25.919  1.00  0.00     0.009 A 
ATOM     69  C   UNL A   1      51.715  27.222  24.312  1.00  0.00     0.001 A 
ATOM     70  C   UNL A   1      53.098  25.313  24.722  1.00  0.00     0.001 A 
ATOM     71  C   UNL A   1      52.742  26.380  23.910  1.00  0.00     0.000 A 
ENDBRANCH  52  66
BRANCH  53  72
ATOM     72  C   UNL A   1      44.766  25.172  33.343  1.00  0.00    -0.014 A 
ATOM     73  C   UNL A   1      44.675  23.846  32.869  1.00  0.00     0.009 A 
ATOM     74  C   UNL A   1      43.879  25.586  34.348  1.00  0.00     0.009 A 
ATOM     75  C   UNL A   1      43.803  22.931  33.465  1.00  0.00     0.001 A 
ATOM     76  C   UNL A   1      42.996  24.670  34.929  1.00  0.00     0.001 A 
ATOM     77  C   UNL A   1      42.983  23.338  34.512  1.00  0.00     0.000 A 
ENDBRANCH  53  72
BRANCH  65  78
ATOM     78  C   UNL A   1      51.883  23.872  32.642  1.00  0.00    -0.014 A 
ATOM     79  C   UNL A   1      51.867  22.477  32.740  1.00  0.00     0.009 A 
ATOM     80  C   UNL A   1      53.122  24.496  32.924  1.00  0.00     0.009 A 
ATOM     81  C   UNL A   1      53.036  21.745  33.002  1.00  0.00     0.001 A 
ATOM     82  C   UNL A   1      54.285  23.777  33.204  1.00  0.00     0.001 A 
ATOM     83  C   UNL A   1      54.247  22.393  33.221  1.00  0.00     0.000 A 
ENDBRANCH  65  78
ENDBRANCH  39  40
ENDBRANCH  31  34
ENDBRANCH  29  30
ENDBRANCH   1  29
TORSDOF 11
ENDMDL
