MODEL 1
REMARK VINA RESULT:     -11.7      0.000      0.000
REMARK SMILES Cc1ccc(NC(=O)C[N@H+]2CCC[C@@H](C(=O)NCCCNC(=O)c3ccc(-c4c5nc(c(-c6ccccc6)c6ccc([nH]6)c(-c6ccccc6)c6nc(c(-c7ccccc7)c7ccc4[nH]7)C=C6)C=C5)cc3)C2)cc1F
REMARK SMILES IDX 18 1 17 2 15 3 16 4 14 6 10 7 11 8 72 9 12 11 13 12 9 13
REMARK SMILES IDX 7 14 6 15 8 17 5 18 1 19 2 20 3 21 74 22 4 23 73 24 75 25
REMARK SMILES IDX 19 26 20 27 21 28 22 29 23 31 24 32 25 33 71 34 26 35 70 36
REMARK SMILES IDX 27 37 28 38 29 39 64 40 30 41 69 42 63 43 65 44 31 45 68 46
REMARK SMILES IDX 62 47 61 48 32 50 54 51 39 52 53 53 40 54 43 55 52 56 66 57
REMARK SMILES IDX 41 58 42 59 51 61 67 62 44 63 33 64 34 65 38 66 35 67 37 68
REMARK SMILES IDX 36 69 55 70 56 71 60 72 57 73 59 74 58 75 45 76 46 77 50 78
REMARK SMILES IDX 47 79 49 80 48 81
REMARK H PARENT 17 5 10 10 6 16 21 30 65 49 43 60
REMARK Flexibility Score: inf
ROOT
ATOM      1  C   UNL A   1      31.422  29.679  25.482  1.00  0.00     0.117 C 
ENDROOT
BRANCH   1   2
ATOM      2  N   UNL A   1      30.986  29.630  24.096  1.00  0.00    -0.356 N 
ATOM      3  C   UNL A   1      31.159  28.635  23.171  1.00  0.00     0.228 C 
ATOM      4  O   UNL A   1      30.629  28.775  22.069  1.00  0.00    -0.275 OA
ATOM      5  H   UNL A   1      30.499  30.424  23.777  1.00  0.00     0.163 HD
BRANCH   3   6
ATOM      6  C   UNL A   1      31.978  27.403  23.537  1.00  0.00     0.133 C 
ATOM      7  N   UNL A   1      31.817  25.083  24.396  1.00  0.00    -0.326 N 
ATOM      8  C   UNL A   1      32.709  24.602  23.322  1.00  0.00     0.262 C 
ATOM      9  C   UNL A   1      31.045  26.247  23.930  1.00  0.00     0.276 C 
ATOM     10  H   UNL A   1      32.347  25.432  25.194  1.00  0.00     0.348 HD
ATOM     11  C   UNL A   1      33.647  25.697  22.807  1.00  0.00     0.062 C 
ATOM     12  C   UNL A   1      32.881  26.948  22.388  1.00  0.00     0.025 C 
BRANCH   7  13
ATOM     13  C   UNL A   1      31.021  23.944  24.938  1.00  0.00     0.363 C 
BRANCH  13  14
ATOM     14  C   UNL A   1      31.273  23.555  26.389  1.00  0.00     0.279 C 
ATOM     15  N   UNL A   1      32.440  23.023  26.853  1.00  0.00    -0.321 N 
ATOM     16  H   UNL A   1      32.404  22.816  27.815  1.00  0.00     0.170 HD
ATOM     17  O   UNL A   1      30.386  23.747  27.233  1.00  0.00    -0.268 OA
BRANCH  15  18
ATOM     18  C   UNL A   1      33.682  22.702  26.279  1.00  0.00     0.044 A 
ATOM     19  C   UNL A   1      37.403  21.245  24.624  1.00  0.00     0.047 C 
ATOM     20  C   UNL A   1      36.099  21.747  25.159  1.00  0.00    -0.015 A 
ATOM     21  C   UNL A   1      34.910  21.046  24.964  1.00  0.00     0.008 A 
ATOM     22  C   UNL A   1      36.055  22.932  25.892  1.00  0.00     0.128 A 
ATOM     23  C   UNL A   1      33.714  21.527  25.508  1.00  0.00     0.026 A 
ATOM     24  C   UNL A   1      34.867  23.410  26.449  1.00  0.00     0.065 A 
ATOM     25  F   UNL A   1      37.184  23.627  26.096  1.00  0.00    -0.207 F 
ENDBRANCH  15  18
ENDBRANCH  13  14
ENDBRANCH   7  13
ENDBRANCH   3   6
ENDBRANCH   1   2
BRANCH   1  26
ATOM     26  C   UNL A   1      32.928  29.854  25.633  1.00  0.00     0.042 C 
BRANCH  26  27
ATOM     27  C   UNL A   1      33.475  29.547  27.024  1.00  0.00     0.118 C 
BRANCH  27  28
ATOM     28  N   UNL A   1      33.688  30.729  27.855  1.00  0.00    -0.352 N 
ATOM     29  C   UNL A   1      34.746  31.138  28.632  1.00  0.00     0.251 C 
ATOM     30  H   UNL A   1      32.926  31.353  27.860  1.00  0.00     0.163 HD
ATOM     31  O   UNL A   1      34.620  32.149  29.323  1.00  0.00    -0.269 OA
BRANCH  29  32
ATOM     32  C   UNL A   1      36.009  30.367  28.706  1.00  0.00     0.039 A 
ATOM     33  C   UNL A   1      36.820  30.290  27.565  1.00  0.00     0.014 A 
ATOM     34  C   UNL A   1      36.402  29.707  29.868  1.00  0.00     0.014 A 
ATOM     35  C   UNL A   1      38.071  29.665  27.629  1.00  0.00     0.010 A 
ATOM     36  C   UNL A   1      37.680  29.157  29.957  1.00  0.00     0.010 A 
ATOM     37  C   UNL A   1      38.539  29.151  28.846  1.00  0.00    -0.014 A 
BRANCH  37  38
ATOM     38  C   UNL A   1      39.924  28.639  29.018  1.00  0.00     0.031 A 
ATOM     39  C   UNL A   1      41.040  29.585  29.360  1.00  0.00     0.074 A 
ATOM     40  C   UNL A   1      40.203  27.352  28.729  1.00  0.00     0.049 A 
ATOM     41  N   UNL A   1      42.334  29.387  29.325  1.00  0.00    -0.248 NA
ATOM     42  C   UNL A   1      40.650  30.945  29.766  1.00  0.00     0.031 C 
ATOM     43  C   UNL A   1      39.220  26.328  28.368  1.00  0.00     0.029 A 
ATOM     44  N   UNL A   1      41.406  26.693  28.660  1.00  0.00    -0.354 N 
ATOM     45  C   UNL A   1      42.911  30.603  29.668  1.00  0.00     0.074 A 
ATOM     46  C   UNL A   1      41.829  31.540  29.877  1.00  0.00     0.031 C 
ATOM     47  C   UNL A   1      39.857  25.173  28.118  1.00  0.00     0.029 A 
ATOM     48  C   UNL A   1      41.296  25.388  28.241  1.00  0.00     0.049 A 
ATOM     49  H   UNL A   1      42.266  27.115  28.889  1.00  0.00     0.167 HD
ATOM     50  C   UNL A   1      44.223  30.910  29.802  1.00  0.00     0.031 A 
ATOM     51  C   UNL A   1      42.242  24.476  27.950  1.00  0.00     0.031 A 
ATOM     52  C   UNL A   1      45.300  29.975  29.609  1.00  0.00     0.049 A 
ATOM     53  C   UNL A   1      43.692  24.853  28.064  1.00  0.00     0.074 A 
ATOM     54  C   UNL A   1      46.658  30.176  29.785  1.00  0.00     0.029 A 
ATOM     55  N   UNL A   1      45.140  28.662  29.195  1.00  0.00    -0.354 N 
ATOM     56  N   UNL A   1      44.221  25.993  28.432  1.00  0.00    -0.248 NA
ATOM     57  C   UNL A   1      44.675  23.816  27.716  1.00  0.00     0.031 C 
ATOM     58  C   UNL A   1      47.324  29.000  29.425  1.00  0.00     0.029 A 
ATOM     59  C   UNL A   1      46.377  28.052  29.078  1.00  0.00     0.049 A 
ATOM     60  H   UNL A   1      44.276  28.229  29.010  1.00  0.00     0.167 HD
ATOM     61  C   UNL A   1      45.597  25.806  28.381  1.00  0.00     0.074 A 
ATOM     62  C   UNL A   1      45.820  24.439  27.961  1.00  0.00     0.031 C 
ATOM     63  C   UNL A   1      46.586  26.690  28.656  1.00  0.00     0.031 A 
BRANCH  50  64
ATOM     64  C   UNL A   1      44.572  32.329  30.158  1.00  0.00    -0.014 A 
ATOM     65  C   UNL A   1      44.733  32.726  31.496  1.00  0.00     0.009 A 
ATOM     66  C   UNL A   1      44.781  33.272  29.140  1.00  0.00     0.009 A 
ATOM     67  C   UNL A   1      45.061  34.047  31.806  1.00  0.00     0.001 A 
ATOM     68  C   UNL A   1      45.136  34.585  29.452  1.00  0.00     0.001 A 
ATOM     69  C   UNL A   1      45.266  34.974  30.785  1.00  0.00     0.000 A 
ENDBRANCH  50  64
BRANCH  51  70
ATOM     70  C   UNL A   1      41.849  23.114  27.499  1.00  0.00    -0.014 A 
ATOM     71  C   UNL A   1      41.786  22.812  26.130  1.00  0.00     0.009 A 
ATOM     72  C   UNL A   1      41.530  22.113  28.431  1.00  0.00     0.009 A 
ATOM     73  C   UNL A   1      41.392  21.542  25.703  1.00  0.00     0.001 A 
ATOM     74  C   UNL A   1      41.164  20.836  28.001  1.00  0.00     0.001 A 
ATOM     75  C   UNL A   1      41.086  20.554  26.638  1.00  0.00     0.000 A 
ENDBRANCH  51  70
BRANCH  63  76
ATOM     76  C   UNL A   1      48.001  26.201  28.539  1.00  0.00    -0.014 A 
ATOM     77  C   UNL A   1      48.688  25.693  29.651  1.00  0.00     0.009 A 
ATOM     78  C   UNL A   1      48.633  26.195  27.285  1.00  0.00     0.009 A 
ATOM     79  C   UNL A   1      49.991  25.210  29.513  1.00  0.00     0.001 A 
ATOM     80  C   UNL A   1      49.924  25.687  27.146  1.00  0.00     0.001 A 
ATOM     81  C   UNL A   1      50.605  25.200  28.262  1.00  0.00     0.000 A 
ENDBRANCH  63  76
ENDBRANCH  37  38
ENDBRANCH  29  32
ENDBRANCH  27  28
ENDBRANCH  26  27
ENDBRANCH   1  26
TORSDOF 13
ENDMDL
MODEL 2
REMARK VINA RESULT:     -11.5      2.475      7.491
REMARK SMILES Cc1ccc(NC(=O)C[N@H+]2CCC[C@@H](C(=O)NCCCNC(=O)c3ccc(-c4c5nc(c(-c6ccccc6)c6ccc([nH]6)c(-c6ccccc6)c6nc(c(-c7ccccc7)c7ccc4[nH]7)C=C6)C=C5)cc3)C2)cc1F
REMARK SMILES IDX 18 1 17 2 15 3 16 4 14 6 10 7 11 8 72 9 12 11 13 12 9 13
REMARK SMILES IDX 7 14 6 15 8 17 5 18 1 19 2 20 3 21 74 22 4 23 73 24 75 25
REMARK SMILES IDX 19 26 20 27 21 28 22 29 23 31 24 32 25 33 71 34 26 35 70 36
REMARK SMILES IDX 27 37 28 38 29 39 64 40 30 41 69 42 63 43 65 44 31 45 68 46
REMARK SMILES IDX 62 47 61 48 32 50 54 51 39 52 53 53 40 54 43 55 52 56 66 57
REMARK SMILES IDX 41 58 42 59 51 61 67 62 44 63 33 64 34 65 38 66 35 67 37 68
REMARK SMILES IDX 36 69 55 70 56 71 60 72 57 73 59 74 58 75 45 76 46 77 50 78
REMARK SMILES IDX 47 79 49 80 48 81
REMARK H PARENT 17 5 10 10 6 16 21 30 65 49 43 60
REMARK Flexibility Score: inf
ROOT
ATOM      1  C   UNL A   1      37.690  21.794  24.997  1.00  0.00     0.117 C 
ENDROOT
BRANCH   1   2
ATOM      2  N   UNL A   1      37.026  22.499  23.913  1.00  0.00    -0.356 N 
ATOM      3  C   UNL A   1      35.687  22.697  23.705  1.00  0.00     0.228 C 
ATOM      4  O   UNL A   1      35.350  23.402  22.753  1.00  0.00    -0.275 OA
ATOM      5  H   UNL A   1      37.621  22.888  23.233  1.00  0.00     0.163 HD
BRANCH   3   6
ATOM      6  C   UNL A   1      34.677  22.058  24.651  1.00  0.00     0.133 C 
ATOM      7  N   UNL A   1      32.329  22.175  25.438  1.00  0.00    -0.326 N 
ATOM      8  C   UNL A   1      32.181  20.714  25.277  1.00  0.00     0.262 C 
ATOM      9  C   UNL A   1      33.294  22.698  24.456  1.00  0.00     0.276 C 
ATOM     10  H   UNL A   1      32.734  22.412  26.343  1.00  0.00     0.348 HD
ATOM     11  C   UNL A   1      33.517  19.975  25.390  1.00  0.00     0.062 C 
ATOM     12  C   UNL A   1      34.563  20.547  24.438  1.00  0.00     0.025 C 
BRANCH   7  13
ATOM     13  C   UNL A   1      30.985  22.819  25.443  1.00  0.00     0.363 C 
BRANCH  13  14
ATOM     14  C   UNL A   1      30.633  23.673  26.655  1.00  0.00     0.279 C 
ATOM     15  N   UNL A   1      30.920  25.001  26.771  1.00  0.00    -0.321 N 
ATOM     16  H   UNL A   1      30.634  25.375  27.636  1.00  0.00     0.170 HD
ATOM     17  O   UNL A   1      30.020  23.160  27.602  1.00  0.00    -0.268 OA
BRANCH  15  18
ATOM     18  C   UNL A   1      31.529  25.962  25.945  1.00  0.00     0.044 A 
ATOM     19  C   UNL A   1      33.742  28.963  23.755  1.00  0.00     0.047 C 
ATOM     20  C   UNL A   1      32.997  27.896  24.493  1.00  0.00    -0.015 A 
ATOM     21  C   UNL A   1      33.662  26.890  25.193  1.00  0.00     0.008 A 
ATOM     22  C   UNL A   1      31.603  27.902  24.509  1.00  0.00     0.128 A 
ATOM     23  C   UNL A   1      32.933  25.928  25.900  1.00  0.00     0.026 A 
ATOM     24  C   UNL A   1      30.870  26.953  25.224  1.00  0.00     0.065 A 
ATOM     25  F   UNL A   1      30.937  28.858  23.845  1.00  0.00    -0.207 F 
ENDBRANCH  15  18
ENDBRANCH  13  14
ENDBRANCH   7  13
ENDBRANCH   3   6
ENDBRANCH   1   2
BRANCH   1  26
ATOM     26  C   UNL A   1      38.164  20.400  24.606  1.00  0.00     0.042 C 
BRANCH  26  27
ATOM     27  C   UNL A   1      38.511  19.485  25.778  1.00  0.00     0.118 C 
BRANCH  27  28
ATOM     28  N   UNL A   1      39.841  18.889  25.695  1.00  0.00    -0.352 N 
ATOM     29  C   UNL A   1      41.096  19.378  25.973  1.00  0.00     0.251 C 
ATOM     30  H   UNL A   1      39.840  17.956  25.377  1.00  0.00     0.163 HD
ATOM     31  O   UNL A   1      42.076  18.681  25.713  1.00  0.00    -0.269 OA
BRANCH  29  32
ATOM     32  C   UNL A   1      41.303  20.739  26.522  1.00  0.00     0.039 A 
ATOM     33  C   UNL A   1      41.320  20.910  27.913  1.00  0.00     0.014 A 
ATOM     34  C   UNL A   1      41.463  21.849  25.695  1.00  0.00     0.014 A 
ATOM     35  C   UNL A   1      41.623  22.160  28.466  1.00  0.00     0.010 A 
ATOM     36  C   UNL A   1      41.845  23.073  26.242  1.00  0.00     0.010 A 
ATOM     37  C   UNL A   1      41.953  23.237  27.632  1.00  0.00    -0.014 A 
BRANCH  37  38
ATOM     38  C   UNL A   1      42.455  24.533  28.161  1.00  0.00     0.031 A 
ATOM     39  C   UNL A   1      41.494  25.647  28.464  1.00  0.00     0.074 A 
ATOM     40  C   UNL A   1      43.783  24.756  28.234  1.00  0.00     0.049 A 
ATOM     41  N   UNL A   1      41.740  26.911  28.705  1.00  0.00    -0.248 NA
ATOM     42  C   UNL A   1      40.063  25.301  28.465  1.00  0.00     0.031 C 
ATOM     43  C   UNL A   1      44.829  23.769  27.955  1.00  0.00     0.029 A 
ATOM     44  N   UNL A   1      44.481  25.901  28.535  1.00  0.00    -0.354 N 
ATOM     45  C   UNL A   1      40.498  27.515  28.850  1.00  0.00     0.074 A 
ATOM     46  C   UNL A   1      39.500  26.488  28.640  1.00  0.00     0.031 C 
ATOM     47  C   UNL A   1      46.031  24.349  28.098  1.00  0.00     0.029 A 
ATOM     48  C   UNL A   1      45.843  25.761  28.419  1.00  0.00     0.049 A 
ATOM     49  H   UNL A   1      44.046  26.741  28.806  1.00  0.00     0.167 HD
ATOM     50  C   UNL A   1      40.213  28.808  29.138  1.00  0.00     0.031 A 
ATOM     51  C   UNL A   1      46.832  26.669  28.521  1.00  0.00     0.031 A 
ATOM     52  C   UNL A   1      41.204  29.827  29.363  1.00  0.00     0.049 A 
ATOM     53  C   UNL A   1      46.489  28.106  28.798  1.00  0.00     0.074 A 
ATOM     54  C   UNL A   1      41.014  31.149  29.724  1.00  0.00     0.029 A 
ATOM     55  N   UNL A   1      42.573  29.636  29.245  1.00  0.00    -0.354 N 
ATOM     56  N   UNL A   1      45.312  28.654  28.977  1.00  0.00    -0.248 NA
ATOM     57  C   UNL A   1      47.613  29.050  28.882  1.00  0.00     0.031 C 
ATOM     58  C   UNL A   1      42.265  31.773  29.772  1.00  0.00     0.029 A 
ATOM     59  C   UNL A   1      43.235  30.826  29.495  1.00  0.00     0.049 A 
ATOM     60  H   UNL A   1      43.007  28.783  29.018  1.00  0.00     0.167 HD
ATOM     61  C   UNL A   1      45.554  30.001  29.215  1.00  0.00     0.074 A 
ATOM     62  C   UNL A   1      46.990  30.185  29.172  1.00  0.00     0.031 C 
ATOM     63  C   UNL A   1      44.665  30.996  29.447  1.00  0.00     0.031 A 
BRANCH  50  64
ATOM     64  C   UNL A   1      38.764  29.200  29.209  1.00  0.00    -0.014 A 
ATOM     65  C   UNL A   1      38.038  29.095  30.407  1.00  0.00     0.009 A 
ATOM     66  C   UNL A   1      38.126  29.721  28.072  1.00  0.00     0.009 A 
ATOM     67  C   UNL A   1      36.693  29.469  30.454  1.00  0.00     0.001 A 
ATOM     68  C   UNL A   1      36.790  30.121  28.129  1.00  0.00     0.001 A 
ATOM     69  C   UNL A   1      36.072  29.985  29.316  1.00  0.00     0.000 A 
ENDBRANCH  50  64
BRANCH  51  70
ATOM     70  C   UNL A   1      48.248  26.252  28.339  1.00  0.00    -0.014 A 
ATOM     71  C   UNL A   1      48.841  26.295  27.068  1.00  0.00     0.009 A 
ATOM     72  C   UNL A   1      49.011  25.805  29.429  1.00  0.00     0.009 A 
ATOM     73  C   UNL A   1      50.162  25.879  26.889  1.00  0.00     0.001 A 
ATOM     74  C   UNL A   1      50.340  25.417  29.252  1.00  0.00     0.001 A 
ATOM     75  C   UNL A   1      50.912  25.445  27.981  1.00  0.00     0.000 A 
ENDBRANCH  51  70
BRANCH  63  76
ATOM     76  C   UNL A   1      45.217  32.370  29.698  1.00  0.00    -0.014 A 
ATOM     77  C   UNL A   1      45.587  32.778  30.988  1.00  0.00     0.009 A 
ATOM     78  C   UNL A   1      45.423  33.245  28.620  1.00  0.00     0.009 A 
ATOM     79  C   UNL A   1      46.132  34.047  31.196  1.00  0.00     0.001 A 
ATOM     80  C   UNL A   1      45.993  34.501  28.827  1.00  0.00     0.001 A 
ATOM     81  C   UNL A   1      46.341  34.904  30.117  1.00  0.00     0.000 A 
ENDBRANCH  63  76
ENDBRANCH  37  38
ENDBRANCH  29  32
ENDBRANCH  27  28
ENDBRANCH  26  27
ENDBRANCH   1  26
TORSDOF 13
ENDMDL
MODEL 3
REMARK VINA RESULT:     -11.5      2.525      7.909
REMARK SMILES Cc1ccc(NC(=O)C[N@H+]2CCC[C@@H](C(=O)NCCCNC(=O)c3ccc(-c4c5nc(c(-c6ccccc6)c6ccc([nH]6)c(-c6ccccc6)c6nc(c(-c7ccccc7)c7ccc4[nH]7)C=C6)C=C5)cc3)C2)cc1F
REMARK SMILES IDX 18 1 17 2 15 3 16 4 14 6 10 7 11 8 72 9 12 11 13 12 9 13
REMARK SMILES IDX 7 14 6 15 8 17 5 18 1 19 2 20 3 21 74 22 4 23 73 24 75 25
REMARK SMILES IDX 19 26 20 27 21 28 22 29 23 31 24 32 25 33 71 34 26 35 70 36
REMARK SMILES IDX 27 37 28 38 29 39 64 40 30 41 69 42 63 43 65 44 31 45 68 46
REMARK SMILES IDX 62 47 61 48 32 50 54 51 39 52 53 53 40 54 43 55 52 56 66 57
REMARK SMILES IDX 41 58 42 59 51 61 67 62 44 63 33 64 34 65 38 66 35 67 37 68
REMARK SMILES IDX 36 69 55 70 56 71 60 72 57 73 59 74 58 75 45 76 46 77 50 78
REMARK SMILES IDX 47 79 49 80 48 81
REMARK H PARENT 17 5 10 10 6 16 21 30 65 49 43 60
REMARK Flexibility Score: inf
ROOT
ATOM      1  C   UNL A   1      36.439  20.894  24.933  1.00  0.00     0.117 C 
ENDROOT
BRANCH   1   2
ATOM      2  N   UNL A   1      35.141  20.240  24.947  1.00  0.00    -0.356 N 
ATOM      3  C   UNL A   1      33.892  20.799  24.902  1.00  0.00     0.228 C 
ATOM      4  O   UNL A   1      32.924  20.042  24.841  1.00  0.00    -0.275 OA
ATOM      5  H   UNL A   1      35.163  19.257  24.996  1.00  0.00     0.163 HD
BRANCH   3   6
ATOM      6  C   UNL A   1      33.748  22.317  24.916  1.00  0.00     0.133 C 
ATOM      7  N   UNL A   1      32.764  24.239  23.696  1.00  0.00    -0.326 N 
ATOM      8  C   UNL A   1      32.226  24.789  24.957  1.00  0.00     0.262 C 
ATOM      9  C   UNL A   1      32.828  22.769  23.771  1.00  0.00     0.276 C 
ATOM     10  H   UNL A   1      33.731  24.527  23.545  1.00  0.00     0.348 HD
ATOM     11  C   UNL A   1      33.034  24.347  26.180  1.00  0.00     0.062 C 
ATOM     12  C   UNL A   1      33.183  22.830  26.242  1.00  0.00     0.025 C 
BRANCH   7  13
ATOM     13  C   UNL A   1      32.014  24.804  22.539  1.00  0.00     0.363 C 
BRANCH  13  14
ATOM     14  C   UNL A   1      32.776  25.745  21.615  1.00  0.00     0.279 C 
ATOM     15  N   UNL A   1      33.089  27.037  21.919  1.00  0.00    -0.321 N 
ATOM     16  H   UNL A   1      33.564  27.493  21.187  1.00  0.00     0.170 HD
ATOM     17  O   UNL A   1      33.174  25.330  20.517  1.00  0.00    -0.268 OA
BRANCH  15  18
ATOM     18  C   UNL A   1      32.892  27.871  23.034  1.00  0.00     0.044 A 
ATOM     19  C   UNL A   1      32.483  30.074  26.732  1.00  0.00     0.047 C 
ATOM     20  C   UNL A   1      32.660  29.330  25.446  1.00  0.00    -0.015 A 
ATOM     21  C   UNL A   1      33.807  28.580  25.188  1.00  0.00     0.008 A 
ATOM     22  C   UNL A   1      31.656  29.358  24.480  1.00  0.00     0.128 A 
ATOM     23  C   UNL A   1      33.924  27.870  23.988  1.00  0.00     0.026 A 
ATOM     24  C   UNL A   1      31.762  28.640  23.287  1.00  0.00     0.065 A 
ATOM     25  F   UNL A   1      30.542  30.071  24.702  1.00  0.00    -0.207 F 
ENDBRANCH  15  18
ENDBRANCH  13  14
ENDBRANCH   7  13
ENDBRANCH   3   6
ENDBRANCH   1   2
BRANCH   1  26
ATOM     26  C   UNL A   1      37.606  19.917  25.019  1.00  0.00     0.042 C 
BRANCH  26  27
ATOM     27  C   UNL A   1      38.863  20.471  25.685  1.00  0.00     0.118 C 
BRANCH  27  28
ATOM     28  N   UNL A   1      39.964  19.515  25.767  1.00  0.00    -0.352 N 
ATOM     29  C   UNL A   1      41.283  19.650  26.131  1.00  0.00     0.251 C 
ATOM     30  H   UNL A   1      39.713  18.598  25.512  1.00  0.00     0.163 HD
ATOM     31  O   UNL A   1      42.033  18.682  26.011  1.00  0.00    -0.269 OA
BRANCH  29  32
ATOM     32  C   UNL A   1      41.838  20.939  26.606  1.00  0.00     0.039 A 
ATOM     33  C   UNL A   1      42.387  21.824  25.668  1.00  0.00     0.014 A 
ATOM     34  C   UNL A   1      41.844  21.284  27.955  1.00  0.00     0.014 A 
ATOM     35  C   UNL A   1      42.819  23.095  26.065  1.00  0.00     0.010 A 
ATOM     36  C   UNL A   1      42.196  22.577  28.340  1.00  0.00     0.010 A 
ATOM     37  C   UNL A   1      42.665  23.505  27.397  1.00  0.00    -0.014 A 
BRANCH  37  38
ATOM     38  C   UNL A   1      42.937  24.898  27.840  1.00  0.00     0.031 A 
ATOM     39  C   UNL A   1      44.307  25.282  28.323  1.00  0.00     0.074 A 
ATOM     40  C   UNL A   1      41.920  25.778  27.943  1.00  0.00     0.049 A 
ATOM     41  N   UNL A   1      44.689  26.359  28.961  1.00  0.00    -0.248 NA
ATOM     42  C   UNL A   1      45.386  24.310  28.082  1.00  0.00     0.031 C 
ATOM     43  C   UNL A   1      40.538  25.535  27.526  1.00  0.00     0.029 A 
ATOM     44  N   UNL A   1      41.889  27.049  28.464  1.00  0.00    -0.354 N 
ATOM     45  C   UNL A   1      46.040  26.180  29.230  1.00  0.00     0.074 A 
ATOM     46  C   UNL A   1      46.404  24.878  28.714  1.00  0.00     0.031 C 
ATOM     47  C   UNL A   1      39.796  26.618  27.805  1.00  0.00     0.029 A 
ATOM     48  C   UNL A   1      40.634  27.608  28.474  1.00  0.00     0.049 A 
ATOM     49  H   UNL A   1      42.690  27.515  28.798  1.00  0.00     0.167 HD
ATOM     50  C   UNL A   1      46.901  27.024  29.847  1.00  0.00     0.031 A 
ATOM     51  C   UNL A   1      40.193  28.769  28.996  1.00  0.00     0.031 A 
ATOM     52  C   UNL A   1      46.543  28.326  30.347  1.00  0.00     0.049 A 
ATOM     53  C   UNL A   1      41.158  29.670  29.714  1.00  0.00     0.074 A 
ATOM     54  C   UNL A   1      47.361  29.279  30.928  1.00  0.00     0.029 A 
ATOM     55  N   UNL A   1      45.262  28.854  30.327  1.00  0.00    -0.354 N 
ATOM     56  N   UNL A   1      42.441  29.506  29.921  1.00  0.00    -0.248 NA
ATOM     57  C   UNL A   1      40.611  30.914  30.274  1.00  0.00     0.031 C 
ATOM     58  C   UNL A   1      46.564  30.364  31.309  1.00  0.00     0.029 A 
ATOM     59  C   UNL A   1      45.261  30.107  30.915  1.00  0.00     0.049 A 
ATOM     60  H   UNL A   1      44.471  28.405  29.951  1.00  0.00     0.167 HD
ATOM     61  C   UNL A   1      42.859  30.634  30.617  1.00  0.00     0.074 A 
ATOM     62  C   UNL A   1      41.697  31.480  30.783  1.00  0.00     0.031 C 
ATOM     63  C   UNL A   1      44.096  30.938  31.077  1.00  0.00     0.031 A 
BRANCH  50  64
ATOM     64  C   UNL A   1      48.318  26.558  30.033  1.00  0.00    -0.014 A 
ATOM     65  C   UNL A   1      48.698  25.810  31.159  1.00  0.00     0.009 A 
ATOM     66  C   UNL A   1      49.278  26.835  29.046  1.00  0.00     0.009 A 
ATOM     67  C   UNL A   1      50.018  25.382  31.311  1.00  0.00     0.001 A 
ATOM     68  C   UNL A   1      50.590  26.382  29.187  1.00  0.00     0.001 A 
ATOM     69  C   UNL A   1      50.962  25.665  30.324  1.00  0.00     0.000 A 
ENDBRANCH  50  64
BRANCH  51  70
ATOM     70  C   UNL A   1      38.758  29.140  28.878  1.00  0.00    -0.014 A 
ATOM     71  C   UNL A   1      37.888  28.960  29.965  1.00  0.00     0.009 A 
ATOM     72  C   UNL A   1      38.249  29.670  27.682  1.00  0.00     0.009 A 
ATOM     73  C   UNL A   1      36.534  29.283  29.849  1.00  0.00     0.001 A 
ATOM     74  C   UNL A   1      36.901  30.018  27.579  1.00  0.00     0.001 A 
ATOM     75  C   UNL A   1      36.042  29.816  28.659  1.00  0.00     0.000 A 
ENDBRANCH  51  70
BRANCH  63  76
ATOM     76  C   UNL A   1      44.265  32.254  31.782  1.00  0.00    -0.014 A 
ATOM     77  C   UNL A   1      44.565  33.425  31.072  1.00  0.00     0.009 A 
ATOM     78  C   UNL A   1      44.063  32.330  33.170  1.00  0.00     0.009 A 
ATOM     79  C   UNL A   1      44.683  34.644  31.741  1.00  0.00     0.001 A 
ATOM     80  C   UNL A   1      44.155  33.554  33.832  1.00  0.00     0.001 A 
ATOM     81  C   UNL A   1      44.471  34.710  33.118  1.00  0.00     0.000 A 
ENDBRANCH  63  76
ENDBRANCH  37  38
ENDBRANCH  29  32
ENDBRANCH  27  28
ENDBRANCH  26  27
ENDBRANCH   1  26
TORSDOF 13
ENDMDL
