MODEL 1
REMARK VINA RESULT:     -12.5      0.000      0.000
REMARK SMILES CCc1cc(C(=O)c2[nH]c3cc(Cl)ccc3c2CC(=O)NCCCNC(=O)c2ccc(-c3c4nc(c(-c5ccccc5)c5ccc([nH]5)c(-c5ccccc5)c5nc(c(-c6ccccc6)c6ccc3[nH]6)C=C5)C=C4)cc2)ncc1Cl
REMARK SMILES IDX 22 1 21 2 19 3 20 4 18 6 17 7 8 8 9 9 10 10 16 12 11 13
REMARK SMILES IDX 15 14 12 15 14 16 13 17 6 18 7 19 5 20 3 21 4 22 78 23 77 24
REMARK SMILES IDX 79 25 76 26 2 27 1 28 23 29 24 30 25 31 26 32 27 34 28 35
REMARK SMILES IDX 29 36 75 37 30 38 74 39 31 40 32 41 33 42 68 43 34 44 73 45
REMARK SMILES IDX 67 46 69 47 35 48 72 49 66 50 65 51 36 53 58 54 43 55 57 56
REMARK SMILES IDX 44 57 47 58 56 59 70 60 45 61 46 62 55 64 71 65 48 66 37 67
REMARK SMILES IDX 38 68 42 69 39 70 41 71 40 72 59 73 60 74 64 75 61 76 63 77
REMARK SMILES IDX 62 78 49 79 50 80 54 81 51 82 53 83 52 84
REMARK H PARENT 21 5 9 11 25 33 69 52 47 63
REMARK Flexibility Score: inf
ROOT
ATOM      1  C   UNL A   1      31.864  27.189  26.338  1.00  0.00     0.117 C 
ENDROOT
BRANCH   1   2
ATOM      2  N   UNL A   1      31.228  25.975  26.818  1.00  0.00    -0.356 N 
ATOM      3  C   UNL A   1      31.597  24.674  26.647  1.00  0.00     0.224 C 
ATOM      4  O   UNL A   1      30.941  23.793  27.220  1.00  0.00    -0.275 OA
ATOM      5  H   UNL A   1      30.409  26.112  27.347  1.00  0.00     0.163 HD
BRANCH   3   6
ATOM      6  C   UNL A   1      32.821  24.316  25.829  1.00  0.00     0.138 C 
BRANCH   6   7
ATOM      7  C   UNL A   1      32.523  23.697  24.493  1.00  0.00    -0.002 A 
ATOM      8  C   UNL A   1      32.240  24.342  23.292  1.00  0.00     0.093 A 
ATOM      9  N   UNL A   1      32.082  23.377  22.326  1.00  0.00    -0.351 N 
ATOM     10  C   UNL A   1      32.179  22.122  22.874  1.00  0.00     0.048 A 
ATOM     11  H   UNL A   1      31.921  23.560  21.372  1.00  0.00     0.167 HD
ATOM     12  C   UNL A   1      32.454  22.287  24.230  1.00  0.00     0.004 A 
ATOM     13  C   UNL A   1      32.064  20.868  22.264  1.00  0.00     0.047 A 
ATOM     14  C   UNL A   1      32.622  21.132  25.024  1.00  0.00     0.012 A 
ATOM     15  C   UNL A   1      32.238  19.743  23.076  1.00  0.00     0.043 A 
ATOM     16  C   UNL A   1      32.512  19.866  24.435  1.00  0.00     0.021 A 
ATOM     17  Cl  UNL A   1      32.107  18.177  22.376  1.00  0.00    -0.084 Cl
BRANCH   8  18
ATOM     18  C   UNL A   1      32.190  25.761  22.973  1.00  0.00     0.227 C 
ATOM     19  O   UNL A   1      33.175  26.341  22.555  1.00  0.00    -0.285 OA
BRANCH  18  20
ATOM     20  C   UNL A   1      30.843  26.451  23.059  1.00  0.00     0.113 A 
ATOM     21  C   UNL A   1      29.404  28.392  22.789  1.00  0.00    -0.026 A 
ATOM     22  C   UNL A   1      30.647  27.760  22.605  1.00  0.00     0.037 A 
ATOM     23  C   UNL A   1      28.380  27.639  23.384  1.00  0.00     0.062 A 
ATOM     24  C   UNL A   1      28.654  26.340  23.794  1.00  0.00     0.132 A 
ATOM     25  Cl  UNL A   1      26.790  28.264  23.625  1.00  0.00    -0.082 Cl
ATOM     26  N   UNL A   1      29.860  25.740  23.663  1.00  0.00    -0.251 NA
BRANCH  21  27
ATOM     27  C   UNL A   1      29.150  29.819  22.348  1.00  0.00     0.034 C 
ATOM     28  C   UNL A   1      29.078  30.877  23.444  1.00  0.00     0.009 C 
ENDBRANCH  21  27
ENDBRANCH  18  20
ENDBRANCH   8  18
ENDBRANCH   6   7
ENDBRANCH   3   6
ENDBRANCH   1   2
BRANCH   1  29
ATOM     29  C   UNL A   1      32.096  28.233  27.429  1.00  0.00     0.042 C 
BRANCH  29  30
ATOM     30  C   UNL A   1      33.524  28.766  27.518  1.00  0.00     0.118 C 
BRANCH  30  31
ATOM     31  N   UNL A   1      33.570  30.161  27.929  1.00  0.00    -0.352 N 
ATOM     32  C   UNL A   1      34.585  30.879  28.504  1.00  0.00     0.251 C 
ATOM     33  H   UNL A   1      32.741  30.669  27.771  1.00  0.00     0.163 HD
ATOM     34  O   UNL A   1      34.357  32.008  28.943  1.00  0.00    -0.269 OA
BRANCH  32  35
ATOM     35  C   UNL A   1      35.952  30.325  28.622  1.00  0.00     0.039 A 
ATOM     36  C   UNL A   1      36.367  29.830  29.864  1.00  0.00     0.014 A 
ATOM     37  C   UNL A   1      36.856  30.370  27.555  1.00  0.00     0.014 A 
ATOM     38  C   UNL A   1      37.666  29.341  30.026  1.00  0.00     0.010 A 
ATOM     39  C   UNL A   1      38.148  29.861  27.712  1.00  0.00     0.010 A 
ATOM     40  C   UNL A   1      38.563  29.344  28.948  1.00  0.00    -0.014 A 
BRANCH  40  41
ATOM     41  C   UNL A   1      39.946  28.838  29.111  1.00  0.00     0.031 A 
ATOM     42  C   UNL A   1      41.012  29.722  29.691  1.00  0.00     0.074 A 
ATOM     43  C   UNL A   1      40.259  27.589  28.722  1.00  0.00     0.049 A 
ATOM     44  N   UNL A   1      42.302  29.515  29.766  1.00  0.00    -0.248 NA
ATOM     45  C   UNL A   1      40.568  31.008  30.251  1.00  0.00     0.031 C 
ATOM     46  C   UNL A   1      39.326  26.617  28.152  1.00  0.00     0.029 A 
ATOM     47  N   UNL A   1      41.459  26.927  28.754  1.00  0.00    -0.354 N 
ATOM     48  C   UNL A   1      42.833  30.663  30.336  1.00  0.00     0.074 A 
ATOM     49  C   UNL A   1      41.722  31.548  30.623  1.00  0.00     0.031 C 
ATOM     50  C   UNL A   1      39.988  25.474  27.900  1.00  0.00     0.029 A 
ATOM     51  C   UNL A   1      41.389  25.644  28.273  1.00  0.00     0.049 A 
ATOM     52  H   UNL A   1      42.291  27.333  29.089  1.00  0.00     0.167 HD
ATOM     53  C   UNL A   1      44.129  30.963  30.581  1.00  0.00     0.031 A 
ATOM     54  C   UNL A   1      42.349  24.711  28.138  1.00  0.00     0.031 A 
ATOM     55  C   UNL A   1      45.237  30.084  30.328  1.00  0.00     0.049 A 
ATOM     56  C   UNL A   1      43.764  25.031  28.517  1.00  0.00     0.074 A 
ATOM     57  C   UNL A   1      46.593  30.334  30.462  1.00  0.00     0.029 A 
ATOM     58  N   UNL A   1      45.111  28.767  29.922  1.00  0.00    -0.354 N 
ATOM     59  N   UNL A   1      44.265  26.162  28.946  1.00  0.00    -0.248 NA
ATOM     60  C   UNL A   1      44.745  23.945  28.383  1.00  0.00     0.031 C 
ATOM     61  C   UNL A   1      47.287  29.156  30.162  1.00  0.00     0.029 A 
ATOM     62  C   UNL A   1      46.361  28.178  29.839  1.00  0.00     0.049 A 
ATOM     63  H   UNL A   1      44.260  28.315  29.723  1.00  0.00     0.167 HD
ATOM     64  C   UNL A   1      45.623  25.933  29.109  1.00  0.00     0.074 A 
ATOM     65  C   UNL A   1      45.867  24.550  28.755  1.00  0.00     0.031 C 
ATOM     66  C   UNL A   1      46.586  26.802  29.497  1.00  0.00     0.031 A 
BRANCH  53  67
ATOM     67  C   UNL A   1      44.413  32.326  31.131  1.00  0.00    -0.014 A 
ATOM     68  C   UNL A   1      44.498  32.533  32.515  1.00  0.00     0.009 A 
ATOM     69  C   UNL A   1      44.607  33.407  30.258  1.00  0.00     0.009 A 
ATOM     70  C   UNL A   1      44.760  33.809  33.017  1.00  0.00     0.001 A 
ATOM     71  C   UNL A   1      44.869  34.680  30.764  1.00  0.00     0.001 A 
ATOM     72  C   UNL A   1      44.944  34.880  32.142  1.00  0.00     0.000 A 
ENDBRANCH  53  67
BRANCH  54  73
ATOM     73  C   UNL A   1      42.004  23.377  27.599  1.00  0.00    -0.014 A 
ATOM     74  C   UNL A   1      42.152  23.110  26.231  1.00  0.00     0.009 A 
ATOM     75  C   UNL A   1      41.529  22.371  28.451  1.00  0.00     0.009 A 
ATOM     76  C   UNL A   1      41.819  21.854  25.722  1.00  0.00     0.001 A 
ATOM     77  C   UNL A   1      41.197  21.117  27.938  1.00  0.00     0.001 A 
ATOM     78  C   UNL A   1      41.342  20.861  26.575  1.00  0.00     0.000 A 
ENDBRANCH  54  73
BRANCH  66  79
ATOM     79  C   UNL A   1      47.988  26.278  29.545  1.00  0.00    -0.014 A 
ATOM     80  C   UNL A   1      48.774  26.264  28.383  1.00  0.00     0.009 A 
ATOM     81  C   UNL A   1      48.532  25.810  30.749  1.00  0.00     0.009 A 
ATOM     82  C   UNL A   1      50.082  25.778  28.426  1.00  0.00     0.001 A 
ATOM     83  C   UNL A   1      49.839  25.323  30.787  1.00  0.00     0.001 A 
ATOM     84  C   UNL A   1      50.612  25.306  29.626  1.00  0.00     0.000 A 
ENDBRANCH  66  79
ENDBRANCH  40  41
ENDBRANCH  32  35
ENDBRANCH  30  31
ENDBRANCH  29  30
ENDBRANCH   1  29
TORSDOF 14
ENDMDL
MODEL 2
REMARK VINA RESULT:     -12.2      2.693      6.801
REMARK SMILES CCc1cc(C(=O)c2[nH]c3cc(Cl)ccc3c2CC(=O)NCCCNC(=O)c2ccc(-c3c4nc(c(-c5ccccc5)c5ccc([nH]5)c(-c5ccccc5)c5nc(c(-c6ccccc6)c6ccc3[nH]6)C=C5)C=C4)cc2)ncc1Cl
REMARK SMILES IDX 22 1 21 2 19 3 20 4 18 6 17 7 8 8 9 9 10 10 16 12 11 13
REMARK SMILES IDX 15 14 12 15 14 16 13 17 6 18 7 19 5 20 3 21 4 22 78 23 77 24
REMARK SMILES IDX 79 25 76 26 2 27 1 28 23 29 24 30 25 31 26 32 27 34 28 35
REMARK SMILES IDX 29 36 75 37 30 38 74 39 31 40 32 41 33 42 68 43 34 44 73 45
REMARK SMILES IDX 67 46 69 47 35 48 72 49 66 50 65 51 36 53 58 54 43 55 57 56
REMARK SMILES IDX 44 57 47 58 56 59 70 60 45 61 46 62 55 64 71 65 48 66 37 67
REMARK SMILES IDX 38 68 42 69 39 70 41 71 40 72 59 73 60 74 64 75 61 76 63 77
REMARK SMILES IDX 62 78 49 79 50 80 54 81 51 82 53 83 52 84
REMARK H PARENT 21 5 9 11 25 33 69 52 47 63
REMARK Flexibility Score: inf
ROOT
ATOM      1  C   UNL A   1      31.722  29.983  25.478  1.00  0.00     0.117 C 
ENDROOT
BRANCH   1   2
ATOM      2  N   UNL A   1      31.408  28.779  26.227  1.00  0.00    -0.356 N 
ATOM      3  C   UNL A   1      32.173  27.673  26.452  1.00  0.00     0.224 C 
ATOM      4  O   UNL A   1      31.726  26.788  27.195  1.00  0.00    -0.275 OA
ATOM      5  H   UNL A   1      30.512  28.759  26.632  1.00  0.00     0.163 HD
BRANCH   3   6
ATOM      6  C   UNL A   1      33.563  27.557  25.862  1.00  0.00     0.138 C 
BRANCH   6   7
ATOM      7  C   UNL A   1      33.712  26.490  24.815  1.00  0.00    -0.002 A 
ATOM      8  C   UNL A   1      33.415  26.572  23.458  1.00  0.00     0.093 A 
ATOM      9  N   UNL A   1      33.757  25.371  22.881  1.00  0.00    -0.351 N 
ATOM     10  C   UNL A   1      34.196  24.485  23.832  1.00  0.00     0.048 A 
ATOM     11  H   UNL A   1      33.694  25.175  21.919  1.00  0.00     0.167 HD
ATOM     12  C   UNL A   1      34.181  25.154  25.055  1.00  0.00     0.004 A 
ATOM     13  C   UNL A   1      34.622  23.159  23.692  1.00  0.00     0.047 A 
ATOM     14  C   UNL A   1      34.613  24.457  26.204  1.00  0.00     0.012 A 
ATOM     15  C   UNL A   1      35.047  22.498  24.847  1.00  0.00     0.043 A 
ATOM     16  C   UNL A   1      35.045  23.130  26.086  1.00  0.00     0.021 A 
ATOM     17  Cl  UNL A   1      35.581  20.865  24.729  1.00  0.00    -0.084 Cl
BRANCH   8  18
ATOM     18  C   UNL A   1      32.925  27.690  22.666  1.00  0.00     0.227 C 
ATOM     19  O   UNL A   1      33.667  28.293  21.912  1.00  0.00    -0.285 OA
BRANCH  18  20
ATOM     20  C   UNL A   1      31.440  27.990  22.720  1.00  0.00     0.113 A 
ATOM     21  C   UNL A   1      29.534  29.464  22.398  1.00  0.00    -0.026 A 
ATOM     22  C   UNL A   1      30.906  29.192  22.244  1.00  0.00     0.037 A 
ATOM     23  C   UNL A   1      28.741  28.468  22.988  1.00  0.00     0.062 A 
ATOM     24  C   UNL A   1      29.350  27.296  23.421  1.00  0.00     0.132 A 
ATOM     25  Cl  UNL A   1      27.038  28.640  23.194  1.00  0.00    -0.082 Cl
ATOM     26  N   UNL A   1      30.675  27.044  23.319  1.00  0.00    -0.251 NA
BRANCH  21  27
ATOM     27  C   UNL A   1      28.912  30.765  21.933  1.00  0.00     0.034 C 
ATOM     28  C   UNL A   1      28.691  31.841  22.990  1.00  0.00     0.009 C 
ENDBRANCH  21  27
ENDBRANCH  18  20
ENDBRANCH   8  18
ENDBRANCH   6   7
ENDBRANCH   3   6
ENDBRANCH   1   2
BRANCH   1  29
ATOM     29  C   UNL A   1      31.413  31.274  26.235  1.00  0.00     0.042 C 
BRANCH  29  30
ATOM     30  C   UNL A   1      32.514  31.744  27.183  1.00  0.00     0.118 C 
BRANCH  30  31
ATOM     31  N   UNL A   1      32.345  33.134  27.582  1.00  0.00    -0.352 N 
ATOM     32  C   UNL A   1      33.123  33.921  28.389  1.00  0.00     0.251 C 
ATOM     33  H   UNL A   1      31.546  33.577  27.215  1.00  0.00     0.163 HD
ATOM     34  O   UNL A   1      32.704  35.023  28.747  1.00  0.00    -0.269 OA
BRANCH  32  35
ATOM     35  C   UNL A   1      34.455  33.474  28.852  1.00  0.00     0.039 A 
ATOM     36  C   UNL A   1      35.570  33.760  28.056  1.00  0.00     0.014 A 
ATOM     37  C   UNL A   1      34.608  32.701  30.009  1.00  0.00     0.014 A 
ATOM     38  C   UNL A   1      36.838  33.314  28.438  1.00  0.00     0.010 A 
ATOM     39  C   UNL A   1      35.879  32.275  30.402  1.00  0.00     0.010 A 
ATOM     40  C   UNL A   1      37.003  32.576  29.619  1.00  0.00    -0.014 A 
BRANCH  40  41
ATOM     41  C   UNL A   1      38.341  32.089  30.028  1.00  0.00     0.031 A 
ATOM     42  C   UNL A   1      38.878  30.799  29.477  1.00  0.00     0.074 A 
ATOM     43  C   UNL A   1      39.076  32.790  30.910  1.00  0.00     0.049 A 
ATOM     44  N   UNL A   1      39.949  30.136  29.832  1.00  0.00    -0.248 NA
ATOM     45  C   UNL A   1      38.105  30.174  28.393  1.00  0.00     0.031 C 
ATOM     46  C   UNL A   1      38.686  34.062  31.519  1.00  0.00     0.029 A 
ATOM     47  N   UNL A   1      40.311  32.524  31.443  1.00  0.00    -0.354 N 
ATOM     48  C   UNL A   1      39.954  28.988  29.051  1.00  0.00     0.074 A 
ATOM     49  C   UNL A   1      38.801  29.065  28.177  1.00  0.00     0.031 C 
ATOM     50  C   UNL A   1      39.673  34.474  32.335  1.00  0.00     0.029 A 
ATOM     51  C   UNL A   1      40.748  33.487  32.317  1.00  0.00     0.049 A 
ATOM     52  H   UNL A   1      40.833  31.720  31.221  1.00  0.00     0.167 HD
ATOM     53  C   UNL A   1      40.828  27.956  29.073  1.00  0.00     0.031 A 
ATOM     54  C   UNL A   1      41.885  33.562  33.032  1.00  0.00     0.031 A 
ATOM     55  C   UNL A   1      41.990  27.881  29.913  1.00  0.00     0.049 A 
ATOM     56  C   UNL A   1      42.891  32.453  32.959  1.00  0.00     0.074 A 
ATOM     57  C   UNL A   1      42.885  26.836  30.068  1.00  0.00     0.029 A 
ATOM     58  N   UNL A   1      42.439  28.914  30.718  1.00  0.00    -0.354 N 
ATOM     59  N   UNL A   1      42.823  31.322  32.302  1.00  0.00    -0.248 NA
ATOM     60  C   UNL A   1      44.128  32.630  33.734  1.00  0.00     0.031 C 
ATOM     61  C   UNL A   1      43.893  27.248  30.948  1.00  0.00     0.029 A 
ATOM     62  C   UNL A   1      43.619  28.548  31.341  1.00  0.00     0.049 A 
ATOM     63  H   UNL A   1      41.987  29.781  30.830  1.00  0.00     0.167 HD
ATOM     64  C   UNL A   1      43.993  30.641  32.604  1.00  0.00     0.074 A 
ATOM     65  C   UNL A   1      44.765  31.493  33.485  1.00  0.00     0.031 C 
ATOM     66  C   UNL A   1      44.380  29.407  32.203  1.00  0.00     0.031 A 
BRANCH  53  67
ATOM     67  C   UNL A   1      40.530  26.803  28.166  1.00  0.00    -0.014 A 
ATOM     68  C   UNL A   1      41.112  26.728  26.893  1.00  0.00     0.009 A 
ATOM     69  C   UNL A   1      39.669  25.780  28.592  1.00  0.00     0.009 A 
ATOM     70  C   UNL A   1      40.826  25.649  26.054  1.00  0.00     0.001 A 
ATOM     71  C   UNL A   1      39.386  24.704  27.751  1.00  0.00     0.001 A 
ATOM     72  C   UNL A   1      39.963  24.640  26.483  1.00  0.00     0.000 A 
ENDBRANCH  53  67
BRANCH  54  73
ATOM     73  C   UNL A   1      42.128  34.733  33.902  1.00  0.00    -0.014 A 
ATOM     74  C   UNL A   1      41.735  34.706  35.247  1.00  0.00     0.009 A 
ATOM     75  C   UNL A   1      42.754  35.878  33.390  1.00  0.00     0.009 A 
ATOM     76  C   UNL A   1      41.956  35.815  36.065  1.00  0.00     0.001 A 
ATOM     77  C   UNL A   1      42.974  36.984  34.211  1.00  0.00     0.001 A 
ATOM     78  C   UNL A   1      42.575  36.951  35.546  1.00  0.00     0.000 A 
ENDBRANCH  54  73
BRANCH  66  79
ATOM     79  C   UNL A   1      45.691  28.909  32.726  1.00  0.00    -0.014 A 
ATOM     80  C   UNL A   1      45.745  28.217  33.946  1.00  0.00     0.009 A 
ATOM     81  C   UNL A   1      46.872  29.115  31.999  1.00  0.00     0.009 A 
ATOM     82  C   UNL A   1      46.966  27.750  34.434  1.00  0.00     0.001 A 
ATOM     83  C   UNL A   1      48.092  28.648  32.493  1.00  0.00     0.001 A 
ATOM     84  C   UNL A   1      48.137  27.967  33.710  1.00  0.00     0.000 A 
ENDBRANCH  66  79
ENDBRANCH  40  41
ENDBRANCH  32  35
ENDBRANCH  30  31
ENDBRANCH  29  30
ENDBRANCH   1  29
TORSDOF 14
ENDMDL
MODEL 3
REMARK VINA RESULT:     -12.2      1.136      1.542
REMARK SMILES CCc1cc(C(=O)c2[nH]c3cc(Cl)ccc3c2CC(=O)NCCCNC(=O)c2ccc(-c3c4nc(c(-c5ccccc5)c5ccc([nH]5)c(-c5ccccc5)c5nc(c(-c6ccccc6)c6ccc3[nH]6)C=C5)C=C4)cc2)ncc1Cl
REMARK SMILES IDX 22 1 21 2 19 3 20 4 18 6 17 7 8 8 9 9 10 10 16 12 11 13
REMARK SMILES IDX 15 14 12 15 14 16 13 17 6 18 7 19 5 20 3 21 4 22 78 23 77 24
REMARK SMILES IDX 79 25 76 26 2 27 1 28 23 29 24 30 25 31 26 32 27 34 28 35
REMARK SMILES IDX 29 36 75 37 30 38 74 39 31 40 32 41 33 42 68 43 34 44 73 45
REMARK SMILES IDX 67 46 69 47 35 48 72 49 66 50 65 51 36 53 58 54 43 55 57 56
REMARK SMILES IDX 44 57 47 58 56 59 70 60 45 61 46 62 55 64 71 65 48 66 37 67
REMARK SMILES IDX 38 68 42 69 39 70 41 71 40 72 59 73 60 74 64 75 61 76 63 77
REMARK SMILES IDX 62 78 49 79 50 80 54 81 51 82 53 83 52 84
REMARK H PARENT 21 5 9 11 25 33 69 52 47 63
REMARK Flexibility Score: inf
ROOT
ATOM      1  C   UNL A   1      31.864  27.477  26.293  1.00  0.00     0.117 C 
ENDROOT
BRANCH   1   2
ATOM      2  N   UNL A   1      31.289  26.245  26.802  1.00  0.00    -0.356 N 
ATOM      3  C   UNL A   1      31.700  24.957  26.627  1.00  0.00     0.224 C 
ATOM      4  O   UNL A   1      31.095  24.057  27.226  1.00  0.00    -0.275 OA
ATOM      5  H   UNL A   1      30.482  26.356  27.356  1.00  0.00     0.163 HD
BRANCH   3   6
ATOM      6  C   UNL A   1      32.909  24.638  25.772  1.00  0.00     0.138 C 
BRANCH   6   7
ATOM      7  C   UNL A   1      32.593  23.980  24.459  1.00  0.00    -0.002 A 
ATOM      8  C   UNL A   1      32.290  24.589  23.245  1.00  0.00     0.093 A 
ATOM      9  N   UNL A   1      32.120  23.596  22.309  1.00  0.00    -0.351 N 
ATOM     10  C   UNL A   1      32.229  22.358  22.892  1.00  0.00     0.048 A 
ATOM     11  H   UNL A   1      31.944  23.752  21.353  1.00  0.00     0.167 HD
ATOM     12  C   UNL A   1      32.524  22.562  24.238  1.00  0.00     0.004 A 
ATOM     13  C   UNL A   1      32.109  21.086  22.320  1.00  0.00     0.047 A 
ATOM     14  C   UNL A   1      32.707  21.431  25.063  1.00  0.00     0.012 A 
ATOM     15  C   UNL A   1      32.298  19.986  23.161  1.00  0.00     0.043 A 
ATOM     16  C   UNL A   1      32.593  20.149  24.511  1.00  0.00     0.021 A 
ATOM     17  Cl  UNL A   1      32.162  18.400  22.508  1.00  0.00    -0.084 Cl
BRANCH   8  18
ATOM     18  C   UNL A   1      32.230  25.998  22.886  1.00  0.00     0.227 C 
ATOM     19  O   UNL A   1      33.209  26.571  22.443  1.00  0.00    -0.285 OA
BRANCH  18  20
ATOM     20  C   UNL A   1      30.881  26.684  22.964  1.00  0.00     0.113 A 
ATOM     21  C   UNL A   1      29.436  28.618  22.675  1.00  0.00    -0.026 A 
ATOM     22  C   UNL A   1      30.682  27.989  22.499  1.00  0.00     0.037 A 
ATOM     23  C   UNL A   1      28.413  27.867  23.273  1.00  0.00     0.062 A 
ATOM     24  C   UNL A   1      28.691  26.572  23.694  1.00  0.00     0.132 A 
ATOM     25  Cl  UNL A   1      26.821  28.488  23.506  1.00  0.00    -0.082 Cl
ATOM     26  N   UNL A   1      29.899  25.974  23.571  1.00  0.00    -0.251 NA
BRANCH  21  27
ATOM     27  C   UNL A   1      29.179  30.041  22.223  1.00  0.00     0.034 C 
ATOM     28  C   UNL A   1      28.909  31.073  23.313  1.00  0.00     0.009 C 
ENDBRANCH  21  27
ENDBRANCH  18  20
ENDBRANCH   8  18
ENDBRANCH   6   7
ENDBRANCH   3   6
ENDBRANCH   1   2
BRANCH   1  29
ATOM     29  C   UNL A   1      33.039  27.994  27.123  1.00  0.00     0.042 C 
BRANCH  29  30
ATOM     30  C   UNL A   1      33.958  28.975  26.399  1.00  0.00     0.118 C 
BRANCH  30  31
ATOM     31  N   UNL A   1      33.814  30.336  26.892  1.00  0.00    -0.352 N 
ATOM     32  C   UNL A   1      34.577  31.034  27.792  1.00  0.00     0.251 C 
ATOM     33  H   UNL A   1      33.049  30.833  26.523  1.00  0.00     0.163 HD
ATOM     34  O   UNL A   1      34.176  32.121  28.212  1.00  0.00    -0.269 OA
BRANCH  32  35
ATOM     35  C   UNL A   1      35.870  30.506  28.282  1.00  0.00     0.039 A 
ATOM     36  C   UNL A   1      37.012  30.703  27.496  1.00  0.00     0.014 A 
ATOM     37  C   UNL A   1      35.955  29.747  29.454  1.00  0.00     0.014 A 
ATOM     38  C   UNL A   1      38.242  30.180  27.904  1.00  0.00     0.010 A 
ATOM     39  C   UNL A   1      37.189  29.243  29.871  1.00  0.00     0.010 A 
ATOM     40  C   UNL A   1      38.341  29.454  29.099  1.00  0.00    -0.014 A 
BRANCH  40  41
ATOM     41  C   UNL A   1      39.638  28.886  29.536  1.00  0.00     0.031 A 
ATOM     42  C   UNL A   1      40.502  29.632  30.511  1.00  0.00     0.074 A 
ATOM     43  C   UNL A   1      40.057  27.705  29.047  1.00  0.00     0.049 A 
ATOM     44  N   UNL A   1      41.728  29.375  30.888  1.00  0.00    -0.248 NA
ATOM     45  C   UNL A   1      39.911  30.826  31.135  1.00  0.00     0.031 C 
ATOM     46  C   UNL A   1      39.320  26.866  28.102  1.00  0.00     0.029 A 
ATOM     47  N   UNL A   1      41.214  27.008  29.286  1.00  0.00    -0.354 N 
ATOM     48  C   UNL A   1      42.076  30.401  31.755  1.00  0.00     0.074 A 
ATOM     49  C   UNL A   1      40.919  31.264  31.879  1.00  0.00     0.031 C 
ATOM     50  C   UNL A   1      40.038  25.757  27.852  1.00  0.00     0.029 A 
ATOM     51  C   UNL A   1      41.289  25.821  28.603  1.00  0.00     0.049 A 
ATOM     52  H   UNL A   1      41.923  27.330  29.889  1.00  0.00     0.167 HD
ATOM     53  C   UNL A   1      43.258  30.617  32.378  1.00  0.00     0.031 A 
ATOM     54  C   UNL A   1      42.261  24.892  28.577  1.00  0.00     0.031 A 
ATOM     55  C   UNL A   1      44.403  29.755  32.287  1.00  0.00     0.049 A 
ATOM     56  C   UNL A   1      43.521  25.103  29.361  1.00  0.00     0.074 A 
ATOM     57  C   UNL A   1      45.672  29.937  32.811  1.00  0.00     0.029 A 
ATOM     58  N   UNL A   1      44.405  28.523  31.655  1.00  0.00    -0.354 N 
ATOM     59  N   UNL A   1      43.878  26.135  30.083  1.00  0.00    -0.248 NA
ATOM     60  C   UNL A   1      44.516  24.020  29.316  1.00  0.00     0.031 C 
ATOM     61  C   UNL A   1      46.435  28.800  32.518  1.00  0.00     0.029 A 
ATOM     62  C   UNL A   1      45.639  27.916  31.809  1.00  0.00     0.049 A 
ATOM     63  H   UNL A   1      43.642  28.136  31.168  1.00  0.00     0.167 HD
ATOM     64  C   UNL A   1      45.147  25.839  30.559  1.00  0.00     0.074 A 
ATOM     65  C   UNL A   1      45.491  24.523  30.063  1.00  0.00     0.031 C 
ATOM     66  C   UNL A   1      45.963  26.605  31.321  1.00  0.00     0.031 A 
BRANCH  53  67
ATOM     67  C   UNL A   1      43.370  31.865  33.196  1.00  0.00    -0.014 A 
ATOM     68  C   UNL A   1      43.785  33.068  32.609  1.00  0.00     0.009 A 
ATOM     69  C   UNL A   1      43.048  31.839  34.562  1.00  0.00     0.009 A 
ATOM     70  C   UNL A   1      43.888  34.226  33.382  1.00  0.00     0.001 A 
ATOM     71  C   UNL A   1      43.152  32.998  35.330  1.00  0.00     0.001 A 
ATOM     72  C   UNL A   1      43.573  34.189  34.741  1.00  0.00     0.000 A 
ENDBRANCH  53  67
BRANCH  54  73
ATOM     73  C   UNL A   1      42.086  23.672  27.758  1.00  0.00    -0.014 A 
ATOM     74  C   UNL A   1      42.584  23.624  26.449  1.00  0.00     0.009 A 
ATOM     75  C   UNL A   1      41.424  22.555  28.285  1.00  0.00     0.009 A 
ATOM     76  C   UNL A   1      42.412  22.477  25.674  1.00  0.00     0.001 A 
ATOM     77  C   UNL A   1      41.255  21.409  27.507  1.00  0.00     0.001 A 
ATOM     78  C   UNL A   1      41.748  21.372  26.204  1.00  0.00     0.000 A 
ENDBRANCH  54  73
BRANCH  66  79
ATOM     79  C   UNL A   1      47.307  26.036  31.651  1.00  0.00    -0.014 A 
ATOM     80  C   UNL A   1      48.363  26.148  30.733  1.00  0.00     0.009 A 
ATOM     81  C   UNL A   1      47.529  25.400  32.880  1.00  0.00     0.009 A 
ATOM     82  C   UNL A   1      49.619  25.620  31.039  1.00  0.00     0.001 A 
ATOM     83  C   UNL A   1      48.786  24.871  33.181  1.00  0.00     0.001 A 
ATOM     84  C   UNL A   1      49.828  24.981  32.260  1.00  0.00     0.000 A 
ENDBRANCH  66  79
ENDBRANCH  40  41
ENDBRANCH  32  35
ENDBRANCH  30  31
ENDBRANCH  29  30
ENDBRANCH   1  29
TORSDOF 14
ENDMDL
