MODEL 1
REMARK VINA RESULT:     -12.4      0.000      0.000
REMARK SMILES CC(C)[C@@H](NC(=O)/C(=C\c1ccccc1F)NC(=O)c1ccccc1)C(=O)NCCCNC(=O)c1ccc(-c2c3nc(c(-c4ccccc4)c4ccc([nH]4)c(-c4ccccc4)c4nc(c(-c5ccccc5)c5ccc2[nH]5)C=C4)C=C3)cc1
REMARK SMILES IDX 29 1 28 2 26 3 27 4 4 6 2 7 1 8 3 9 5 10 6 11 7 13 8 14 9 15
REMARK SMILES IDX 17 16 18 17 19 19 20 20 21 21 25 22 22 23 24 24 23 25 10 26
REMARK SMILES IDX 11 27 15 28 12 29 14 30 16 31 13 32 30 33 31 34 32 35 33 36
REMARK SMILES IDX 34 38 35 39 36 40 82 41 37 42 81 43 38 44 39 45 40 46 75 47
REMARK SMILES IDX 41 48 80 49 74 50 76 51 42 52 79 53 73 54 72 55 43 57 65 58
REMARK SMILES IDX 50 59 64 60 51 61 54 62 63 63 77 64 52 65 53 66 62 68 78 69
REMARK SMILES IDX 55 70 44 71 45 72 49 73 46 74 48 75 47 76 66 77 67 78 71 79
REMARK SMILES IDX 68 80 70 81 69 82 56 83 57 84 61 85 58 86 60 87 59 88
REMARK H PARENT 28 5 5 12 17 18 32 37 76 56 54 67
REMARK Flexibility Score: inf
ROOT
ATOM      1  C   UNL A   1      31.732  30.554  26.060  1.00  0.00     0.117 C 
ENDROOT
BRANCH   1   2
ATOM      2  N   UNL A   1      31.899  29.667  27.186  1.00  0.00    -0.354 N 
ATOM      3  C   UNL A   1      31.496  28.376  27.254  1.00  0.00     0.242 C 
ATOM      4  O   UNL A   1      30.885  28.032  28.267  1.00  0.00    -0.273 OA
ATOM      5  H   UNL A   1      32.349  30.035  27.981  1.00  0.00     0.163 HD
BRANCH   3   6
ATOM      6  C   UNL A   1      31.667  27.453  26.051  1.00  0.00     0.174 C 
BRANCH   6   7
ATOM      7  C   UNL A   1      33.002  26.646  26.210  1.00  0.00     0.015 C 
ATOM      8  C   UNL A   1      33.115  25.516  25.181  1.00  0.00     0.010 C 
ATOM      9  C   UNL A   1      34.263  27.523  26.076  1.00  0.00     0.010 C 
ENDBRANCH   6   7
BRANCH   6  10
ATOM     10  N   UNL A   1      30.490  26.584  25.801  1.00  0.00    -0.339 N 
ATOM     11  C   UNL A   1      29.957  26.198  24.587  1.00  0.00     0.268 C 
ATOM     12  H   UNL A   1      30.031  26.239  26.601  1.00  0.00     0.164 HD
ATOM     13  O   UNL A   1      29.752  24.998  24.402  1.00  0.00    -0.268 OA
BRANCH  11  14
ATOM     14  C   UNL A   1      29.385  27.202  23.606  1.00  0.00     0.107 C 
ATOM     15  C   UNL A   1      30.110  27.848  22.663  1.00  0.00     0.043 C 
BRANCH  14  16
ATOM     16  N   UNL A   1      28.017  27.462  23.572  1.00  0.00    -0.317 N 
ATOM     17  C   UNL A   1      27.221  28.533  23.254  1.00  0.00     0.255 C 
ATOM     18  H   UNL A   1      27.488  26.677  23.845  1.00  0.00     0.170 HD
ATOM     19  O   UNL A   1      26.000  28.409  23.358  1.00  0.00    -0.269 OA
BRANCH  17  20
ATOM     20  C   UNL A   1      27.743  29.825  22.811  1.00  0.00     0.040 A 
ATOM     21  C   UNL A   1      27.955  30.823  23.765  1.00  0.00     0.014 A 
ATOM     22  C   UNL A   1      27.902  30.095  21.452  1.00  0.00     0.014 A 
ATOM     23  C   UNL A   1      28.409  32.075  23.356  1.00  0.00     0.001 A 
ATOM     24  C   UNL A   1      28.371  31.344  21.047  1.00  0.00     0.001 A 
ATOM     25  C   UNL A   1      28.633  32.328  22.002  1.00  0.00     0.000 A 
ENDBRANCH  17  20
ENDBRANCH  14  16
BRANCH  15  26
ATOM     26  C   UNL A   1      31.556  27.889  22.419  1.00  0.00     0.012 A 
ATOM     27  C   UNL A   1      32.245  29.045  22.825  1.00  0.00     0.011 A 
ATOM     28  C   UNL A   1      32.288  26.841  21.866  1.00  0.00     0.130 A 
ATOM     29  C   UNL A   1      33.642  29.077  22.823  1.00  0.00     0.001 A 
ATOM     30  C   UNL A   1      33.680  26.874  21.846  1.00  0.00     0.040 A 
ATOM     31  F   UNL A   1      31.665  25.762  21.375  1.00  0.00    -0.206 F 
ATOM     32  C   UNL A   1      34.359  27.977  22.361  1.00  0.00     0.003 A 
ENDBRANCH  15  26
ENDBRANCH  11  14
ENDBRANCH   6  10
ENDBRANCH   3   6
ENDBRANCH   1   2
BRANCH   1  33
ATOM     33  C   UNL A   1      31.390  31.934  26.590  1.00  0.00     0.042 C 
BRANCH  33  34
ATOM     34  C   UNL A   1      32.595  32.560  27.277  1.00  0.00     0.118 C 
BRANCH  34  35
ATOM     35  N   UNL A   1      32.386  33.979  27.531  1.00  0.00    -0.352 N 
ATOM     36  C   UNL A   1      32.986  34.757  28.490  1.00  0.00     0.251 C 
ATOM     37  H   UNL A   1      31.738  34.434  26.947  1.00  0.00     0.163 HD
ATOM     38  O   UNL A   1      32.535  35.849  28.796  1.00  0.00    -0.269 OA
BRANCH  36  39
ATOM     39  C   UNL A   1      34.185  34.220  29.159  1.00  0.00     0.039 A 
ATOM     40  C   UNL A   1      34.035  33.455  30.313  1.00  0.00     0.014 A 
ATOM     41  C   UNL A   1      35.444  34.421  28.586  1.00  0.00     0.014 A 
ATOM     42  C   UNL A   1      35.155  32.839  30.865  1.00  0.00     0.010 A 
ATOM     43  C   UNL A   1      36.532  33.713  29.067  1.00  0.00     0.010 A 
ATOM     44  C   UNL A   1      36.404  32.933  30.225  1.00  0.00    -0.014 A 
BRANCH  44  45
ATOM     45  C   UNL A   1      37.602  32.251  30.765  1.00  0.00     0.031 A 
ATOM     46  C   UNL A   1      38.285  32.806  31.985  1.00  0.00     0.074 A 
ATOM     47  C   UNL A   1      38.109  31.180  30.126  1.00  0.00     0.049 A 
ATOM     48  N   UNL A   1      39.377  32.397  32.577  1.00  0.00    -0.248 NA
ATOM     49  C   UNL A   1      37.680  34.001  32.602  1.00  0.00     0.031 C 
ATOM     50  C   UNL A   1      37.563  30.579  28.907  1.00  0.00     0.029 A 
ATOM     51  N   UNL A   1      39.203  30.407  30.416  1.00  0.00    -0.354 N 
ATOM     52  C   UNL A   1      39.599  33.292  33.615  1.00  0.00     0.074 A 
ATOM     53  C   UNL A   1      38.568  34.302  33.537  1.00  0.00     0.031 C 
ATOM     54  C   UNL A   1      38.303  29.509  28.576  1.00  0.00     0.029 A 
ATOM     55  C   UNL A   1      39.398  29.375  29.531  1.00  0.00     0.049 A 
ATOM     56  H   UNL A   1      39.794  30.575  31.186  1.00  0.00     0.167 HD
ATOM     57  C   UNL A   1      40.558  33.263  34.568  1.00  0.00     0.031 A 
ATOM     58  C   UNL A   1      40.354  28.430  29.493  1.00  0.00     0.031 A 
ATOM     59  C   UNL A   1      41.569  32.246  34.656  1.00  0.00     0.049 A 
ATOM     60  C   UNL A   1      41.414  28.422  30.559  1.00  0.00     0.074 A 
ATOM     61  C   UNL A   1      42.552  32.088  35.617  1.00  0.00     0.029 A 
ATOM     62  N   UNL A   1      41.726  31.213  33.746  1.00  0.00    -0.354 N 
ATOM     63  N   UNL A   1      41.568  29.233  31.577  1.00  0.00    -0.248 NA
ATOM     64  C   UNL A   1      42.426  27.359  30.477  1.00  0.00     0.031 C 
ATOM     65  C   UNL A   1      43.338  30.989  35.258  1.00  0.00     0.029 A 
ATOM     66  C   UNL A   1      42.806  30.427  34.108  1.00  0.00     0.049 A 
ATOM     67  H   UNL A   1      41.155  31.060  32.958  1.00  0.00     0.167 HD
ATOM     68  C   UNL A   1      42.675  28.763  32.273  1.00  0.00     0.074 A 
ATOM     69  C   UNL A   1      43.142  27.586  31.568  1.00  0.00     0.031 C 
ATOM     70  C   UNL A   1      43.253  29.259  33.393  1.00  0.00     0.031 A 
BRANCH  57  71
ATOM     71  C   UNL A   1      40.554  34.367  35.588  1.00  0.00    -0.014 A 
ATOM     72  C   UNL A   1      39.790  34.273  36.763  1.00  0.00     0.009 A 
ATOM     73  C   UNL A   1      41.344  35.509  35.383  1.00  0.00     0.009 A 
ATOM     74  C   UNL A   1      39.788  35.316  37.692  1.00  0.00     0.001 A 
ATOM     75  C   UNL A   1      41.365  36.536  36.329  1.00  0.00     0.001 A 
ATOM     76  C   UNL A   1      40.579  36.443  37.477  1.00  0.00     0.000 A 
ENDBRANCH  57  71
BRANCH  58  77
ATOM     77  C   UNL A   1      40.345  27.400  28.421  1.00  0.00    -0.014 A 
ATOM     78  C   UNL A   1      41.049  27.610  27.225  1.00  0.00     0.009 A 
ATOM     79  C   UNL A   1      39.628  26.204  28.584  1.00  0.00     0.009 A 
ATOM     80  C   UNL A   1      41.010  26.658  26.203  1.00  0.00     0.001 A 
ATOM     81  C   UNL A   1      39.616  25.240  27.573  1.00  0.00     0.001 A 
ATOM     82  C   UNL A   1      40.298  25.473  26.381  1.00  0.00     0.000 A 
ENDBRANCH  58  77
BRANCH  70  83
ATOM     83  C   UNL A   1      44.431  28.509  33.948  1.00  0.00    -0.014 A 
ATOM     84  C   UNL A   1      45.744  28.833  33.575  1.00  0.00     0.009 A 
ATOM     85  C   UNL A   1      44.221  27.491  34.891  1.00  0.00     0.009 A 
ATOM     86  C   UNL A   1      46.823  28.127  34.111  1.00  0.00     0.001 A 
ATOM     87  C   UNL A   1      45.302  26.810  35.449  1.00  0.00     0.001 A 
ATOM     88  C   UNL A   1      46.601  27.122  35.052  1.00  0.00     0.000 A 
ENDBRANCH  70  83
ENDBRANCH  44  45
ENDBRANCH  36  39
ENDBRANCH  34  35
ENDBRANCH  33  34
ENDBRANCH   1  33
TORSDOF 16
ENDMDL
MODEL 2
REMARK VINA RESULT:     -12.3      3.280      5.173
REMARK SMILES CC(C)[C@@H](NC(=O)/C(=C\c1ccccc1F)NC(=O)c1ccccc1)C(=O)NCCCNC(=O)c1ccc(-c2c3nc(c(-c4ccccc4)c4ccc([nH]4)c(-c4ccccc4)c4nc(c(-c5ccccc5)c5ccc2[nH]5)C=C4)C=C3)cc1
REMARK SMILES IDX 29 1 28 2 26 3 27 4 4 6 2 7 1 8 3 9 5 10 6 11 7 13 8 14 9 15
REMARK SMILES IDX 17 16 18 17 19 19 20 20 21 21 25 22 22 23 24 24 23 25 10 26
REMARK SMILES IDX 11 27 15 28 12 29 14 30 16 31 13 32 30 33 31 34 32 35 33 36
REMARK SMILES IDX 34 38 35 39 36 40 82 41 37 42 81 43 38 44 39 45 40 46 75 47
REMARK SMILES IDX 41 48 80 49 74 50 76 51 42 52 79 53 73 54 72 55 43 57 65 58
REMARK SMILES IDX 50 59 64 60 51 61 54 62 63 63 77 64 52 65 53 66 62 68 78 69
REMARK SMILES IDX 55 70 44 71 45 72 49 73 46 74 48 75 47 76 66 77 67 78 71 79
REMARK SMILES IDX 68 80 70 81 69 82 56 83 57 84 61 85 58 86 60 87 59 88
REMARK H PARENT 28 5 5 12 17 18 32 37 76 56 54 67
REMARK Flexibility Score: inf
ROOT
ATOM      1  C   UNL A   1      32.394  27.009  26.919  1.00  0.00     0.117 C 
ENDROOT
BRANCH   1   2
ATOM      2  N   UNL A   1      31.057  26.563  26.608  1.00  0.00    -0.354 N 
ATOM      3  C   UNL A   1      30.722  25.611  25.705  1.00  0.00     0.242 C 
ATOM      4  O   UNL A   1      29.810  25.878  24.921  1.00  0.00    -0.273 OA
ATOM      5  H   UNL A   1      30.319  26.991  27.098  1.00  0.00     0.163 HD
BRANCH   3   6
ATOM      6  C   UNL A   1      31.555  24.337  25.586  1.00  0.00     0.174 C 
BRANCH   6   7
ATOM      7  C   UNL A   1      31.445  23.526  26.923  1.00  0.00     0.015 C 
ATOM      8  C   UNL A   1      30.182  22.660  26.966  1.00  0.00     0.010 C 
ATOM      9  C   UNL A   1      32.652  22.600  27.174  1.00  0.00     0.010 C 
ENDBRANCH   6   7
BRANCH   6  10
ATOM     10  N   UNL A   1      31.225  23.527  24.386  1.00  0.00    -0.339 N 
ATOM     11  C   UNL A   1      32.094  22.959  23.476  1.00  0.00     0.268 C 
ATOM     12  H   UNL A   1      30.267  23.374  24.219  1.00  0.00     0.164 HD
ATOM     13  O   UNL A   1      31.954  21.764  23.213  1.00  0.00    -0.268 OA
BRANCH  11  14
ATOM     14  C   UNL A   1      33.017  23.799  22.616  1.00  0.00     0.107 C 
ATOM     15  C   UNL A   1      34.344  23.949  22.840  1.00  0.00     0.043 C 
BRANCH  14  16
ATOM     16  N   UNL A   1      32.545  24.418  21.463  1.00  0.00    -0.317 N 
ATOM     17  C   UNL A   1      32.236  25.700  21.084  1.00  0.00     0.255 C 
ATOM     18  H   UNL A   1      32.395  23.773  20.734  1.00  0.00     0.170 HD
ATOM     19  O   UNL A   1      31.810  25.891  19.944  1.00  0.00    -0.269 OA
BRANCH  17  20
ATOM     20  C   UNL A   1      32.371  26.859  21.966  1.00  0.00     0.040 A 
ATOM     21  C   UNL A   1      33.648  27.224  22.398  1.00  0.00     0.014 A 
ATOM     22  C   UNL A   1      31.239  27.503  22.467  1.00  0.00     0.014 A 
ATOM     23  C   UNL A   1      33.793  28.298  23.275  1.00  0.00     0.001 A 
ATOM     24  C   UNL A   1      31.388  28.585  23.332  1.00  0.00     0.001 A 
ATOM     25  C   UNL A   1      32.665  28.987  23.726  1.00  0.00     0.000 A 
ENDBRANCH  17  20
ENDBRANCH  14  16
BRANCH  15  26
ATOM     26  C   UNL A   1      35.188  23.513  23.958  1.00  0.00     0.012 A 
ATOM     27  C   UNL A   1      35.854  22.282  23.821  1.00  0.00     0.011 A 
ATOM     28  C   UNL A   1      35.410  24.262  25.111  1.00  0.00     0.130 A 
ATOM     29  C   UNL A   1      36.834  21.899  24.740  1.00  0.00     0.001 A 
ATOM     30  C   UNL A   1      36.375  23.877  26.038  1.00  0.00     0.040 A 
ATOM     31  F   UNL A   1      34.725  25.390  25.331  1.00  0.00    -0.206 F 
ATOM     32  C   UNL A   1      37.116  22.713  25.833  1.00  0.00     0.003 A 
ENDBRANCH  15  26
ENDBRANCH  11  14
ENDBRANCH   6  10
ENDBRANCH   3   6
ENDBRANCH   1   2
BRANCH   1  33
ATOM     33  C   UNL A   1      32.330  28.478  27.291  1.00  0.00     0.042 C 
BRANCH  33  34
ATOM     34  C   UNL A   1      33.711  29.113  27.217  1.00  0.00     0.118 C 
BRANCH  34  35
ATOM     35  N   UNL A   1      33.705  30.467  27.755  1.00  0.00    -0.352 N 
ATOM     36  C   UNL A   1      34.654  31.057  28.552  1.00  0.00     0.251 C 
ATOM     37  H   UNL A   1      32.929  31.024  27.520  1.00  0.00     0.163 HD
ATOM     38  O   UNL A   1      34.416  32.082  29.170  1.00  0.00    -0.269 OA
BRANCH  36  39
ATOM     39  C   UNL A   1      35.968  30.399  28.657  1.00  0.00     0.039 A 
ATOM     40  C   UNL A   1      36.872  30.511  27.603  1.00  0.00     0.014 A 
ATOM     41  C   UNL A   1      36.317  29.738  29.839  1.00  0.00     0.014 A 
ATOM     42  C   UNL A   1      38.160  30.004  27.761  1.00  0.00     0.010 A 
ATOM     43  C   UNL A   1      37.629  29.342  30.035  1.00  0.00     0.010 A 
ATOM     44  C   UNL A   1      38.557  29.450  28.990  1.00  0.00    -0.014 A 
BRANCH  44  45
ATOM     45  C   UNL A   1      39.933  28.943  29.199  1.00  0.00     0.031 A 
ATOM     46  C   UNL A   1      40.972  29.843  29.809  1.00  0.00     0.074 A 
ATOM     47  C   UNL A   1      40.261  27.704  28.784  1.00  0.00     0.049 A 
ATOM     48  N   UNL A   1      42.242  29.614  30.018  1.00  0.00    -0.248 NA
ATOM     49  C   UNL A   1      40.533  31.194  30.204  1.00  0.00     0.031 C 
ATOM     50  C   UNL A   1      39.353  26.755  28.135  1.00  0.00     0.029 A 
ATOM     51  N   UNL A   1      41.454  27.032  28.847  1.00  0.00    -0.354 N 
ATOM     52  C   UNL A   1      42.754  30.792  30.547  1.00  0.00     0.074 A 
ATOM     53  C   UNL A   1      41.676  31.755  30.567  1.00  0.00     0.031 C 
ATOM     54  C   UNL A   1      40.013  25.611  27.895  1.00  0.00     0.029 A 
ATOM     55  C   UNL A   1      41.397  25.760  28.330  1.00  0.00     0.049 A 
ATOM     56  H   UNL A   1      42.274  27.423  29.226  1.00  0.00     0.167 HD
ATOM     57  C   UNL A   1      44.002  31.044  31.001  1.00  0.00     0.031 A 
ATOM     58  C   UNL A   1      42.355  24.823  28.218  1.00  0.00     0.031 A 
ATOM     59  C   UNL A   1      45.066  30.079  30.998  1.00  0.00     0.049 A 
ATOM     60  C   UNL A   1      43.737  25.129  28.724  1.00  0.00     0.074 A 
ATOM     61  C   UNL A   1      46.352  30.212  31.491  1.00  0.00     0.029 A 
ATOM     62  N   UNL A   1      44.965  28.799  30.475  1.00  0.00    -0.354 N 
ATOM     63  N   UNL A   1      44.188  26.224  29.288  1.00  0.00    -0.248 NA
ATOM     64  C   UNL A   1      44.741  24.065  28.589  1.00  0.00     0.031 C 
ATOM     65  C   UNL A   1      47.046  29.029  31.217  1.00  0.00     0.029 A 
ATOM     66  C   UNL A   1      46.174  28.140  30.610  1.00  0.00     0.049 A 
ATOM     67  H   UNL A   1      44.154  28.416  30.069  1.00  0.00     0.167 HD
ATOM     68  C   UNL A   1      45.517  25.971  29.600  1.00  0.00     0.074 A 
ATOM     69  C   UNL A   1      45.794  24.612  29.178  1.00  0.00     0.031 C 
ATOM     70  C   UNL A   1      46.427  26.787  30.184  1.00  0.00     0.031 A 
BRANCH  57  71
ATOM     71  C   UNL A   1      44.279  32.421  31.536  1.00  0.00    -0.014 A 
ATOM     72  C   UNL A   1      44.735  33.453  30.698  1.00  0.00     0.009 A 
ATOM     73  C   UNL A   1      44.060  32.700  32.894  1.00  0.00     0.009 A 
ATOM     74  C   UNL A   1      45.001  34.722  31.216  1.00  0.00     0.001 A 
ATOM     75  C   UNL A   1      44.294  33.979  33.402  1.00  0.00     0.001 A 
ATOM     76  C   UNL A   1      44.775  34.985  32.566  1.00  0.00     0.000 A 
ENDBRANCH  57  71
BRANCH  58  77
ATOM     77  C   UNL A   1      42.039  23.499  27.620  1.00  0.00    -0.014 A 
ATOM     78  C   UNL A   1      42.306  23.248  26.266  1.00  0.00     0.009 A 
ATOM     79  C   UNL A   1      41.464  22.482  28.398  1.00  0.00     0.009 A 
ATOM     80  C   UNL A   1      41.975  22.016  25.695  1.00  0.00     0.001 A 
ATOM     81  C   UNL A   1      41.163  21.241  27.832  1.00  0.00     0.001 A 
ATOM     82  C   UNL A   1      41.409  21.013  26.480  1.00  0.00     0.000 A 
ENDBRANCH  58  77
BRANCH  70  83
ATOM     83  C   UNL A   1      47.797  26.221  30.435  1.00  0.00    -0.014 A 
ATOM     84  C   UNL A   1      48.159  25.717  31.694  1.00  0.00     0.009 A 
ATOM     85  C   UNL A   1      48.720  26.152  29.380  1.00  0.00     0.009 A 
ATOM     86  C   UNL A   1      49.434  25.187  31.899  1.00  0.00     0.001 A 
ATOM     87  C   UNL A   1      49.982  25.593  29.581  1.00  0.00     0.001 A 
ATOM     88  C   UNL A   1      50.341  25.120  30.842  1.00  0.00     0.000 A 
ENDBRANCH  70  83
ENDBRANCH  44  45
ENDBRANCH  36  39
ENDBRANCH  34  35
ENDBRANCH  33  34
ENDBRANCH   1  33
TORSDOF 16
ENDMDL
MODEL 3
REMARK VINA RESULT:     -12.2      0.748      5.706
REMARK SMILES CC(C)[C@@H](NC(=O)/C(=C\c1ccccc1F)NC(=O)c1ccccc1)C(=O)NCCCNC(=O)c1ccc(-c2c3nc(c(-c4ccccc4)c4ccc([nH]4)c(-c4ccccc4)c4nc(c(-c5ccccc5)c5ccc2[nH]5)C=C4)C=C3)cc1
REMARK SMILES IDX 29 1 28 2 26 3 27 4 4 6 2 7 1 8 3 9 5 10 6 11 7 13 8 14 9 15
REMARK SMILES IDX 17 16 18 17 19 19 20 20 21 21 25 22 22 23 24 24 23 25 10 26
REMARK SMILES IDX 11 27 15 28 12 29 14 30 16 31 13 32 30 33 31 34 32 35 33 36
REMARK SMILES IDX 34 38 35 39 36 40 82 41 37 42 81 43 38 44 39 45 40 46 75 47
REMARK SMILES IDX 41 48 80 49 74 50 76 51 42 52 79 53 73 54 72 55 43 57 65 58
REMARK SMILES IDX 50 59 64 60 51 61 54 62 63 63 77 64 52 65 53 66 62 68 78 69
REMARK SMILES IDX 55 70 44 71 45 72 49 73 46 74 48 75 47 76 66 77 67 78 71 79
REMARK SMILES IDX 68 80 70 81 69 82 56 83 57 84 61 85 58 86 60 87 59 88
REMARK H PARENT 28 5 5 12 17 18 32 37 76 56 54 67
REMARK Flexibility Score: inf
ROOT
ATOM      1  C   UNL A   1      31.912  30.748  26.185  1.00  0.00     0.117 C 
ENDROOT
BRANCH   1   2
ATOM      2  N   UNL A   1      32.268  29.739  27.155  1.00  0.00    -0.354 N 
ATOM      3  C   UNL A   1      31.831  28.457  27.172  1.00  0.00     0.242 C 
ATOM      4  O   UNL A   1      31.427  28.017  28.249  1.00  0.00    -0.273 OA
ATOM      5  H   UNL A   1      32.887  30.008  27.871  1.00  0.00     0.163 HD
BRANCH   3   6
ATOM      6  C   UNL A   1      31.712  27.668  25.871  1.00  0.00     0.174 C 
BRANCH   6   7
ATOM      7  C   UNL A   1      33.016  26.824  25.662  1.00  0.00     0.015 C 
ATOM      8  C   UNL A   1      34.252  27.525  26.236  1.00  0.00     0.010 C 
ATOM      9  C   UNL A   1      32.941  25.421  26.298  1.00  0.00     0.010 C 
ENDBRANCH   6   7
BRANCH   6  10
ATOM     10  N   UNL A   1      30.473  26.854  25.785  1.00  0.00    -0.339 N 
ATOM     11  C   UNL A   1      29.857  26.355  24.655  1.00  0.00     0.268 C 
ATOM     12  H   UNL A   1      30.036  26.643  26.642  1.00  0.00     0.164 HD
ATOM     13  O   UNL A   1      29.572  25.156  24.635  1.00  0.00    -0.268 OA
BRANCH  11  14
ATOM     14  C   UNL A   1      29.298  27.263  23.578  1.00  0.00     0.107 C 
ATOM     15  C   UNL A   1      30.035  27.820  22.590  1.00  0.00     0.043 C 
BRANCH  14  16
ATOM     16  N   UNL A   1      27.931  27.515  23.503  1.00  0.00    -0.317 N 
ATOM     17  C   UNL A   1      27.139  28.585  23.171  1.00  0.00     0.255 C 
ATOM     18  H   UNL A   1      27.397  26.724  23.749  1.00  0.00     0.170 HD
ATOM     19  O   UNL A   1      25.916  28.454  23.234  1.00  0.00    -0.269 OA
BRANCH  17  20
ATOM     20  C   UNL A   1      27.668  29.886  22.760  1.00  0.00     0.040 A 
ATOM     21  C   UNL A   1      27.812  30.883  23.727  1.00  0.00     0.014 A 
ATOM     22  C   UNL A   1      27.899  30.161  21.413  1.00  0.00     0.014 A 
ATOM     23  C   UNL A   1      28.272  32.143  23.346  1.00  0.00     0.001 A 
ATOM     24  C   UNL A   1      28.373  31.417  21.037  1.00  0.00     0.001 A 
ATOM     25  C   UNL A   1      28.568  32.402  22.007  1.00  0.00     0.000 A 
ENDBRANCH  17  20
ENDBRANCH  14  16
BRANCH  15  26
ATOM     26  C   UNL A   1      31.484  27.841  22.362  1.00  0.00     0.012 A 
ATOM     27  C   UNL A   1      32.167  29.031  22.671  1.00  0.00     0.011 A 
ATOM     28  C   UNL A   1      32.223  26.749  21.914  1.00  0.00     0.130 A 
ATOM     29  C   UNL A   1      33.564  29.064  22.685  1.00  0.00     0.001 A 
ATOM     30  C   UNL A   1      33.615  26.782  21.909  1.00  0.00     0.040 A 
ATOM     31  F   UNL A   1      31.608  25.630  21.513  1.00  0.00    -0.206 F 
ATOM     32  C   UNL A   1      34.288  27.929  22.333  1.00  0.00     0.003 A 
ENDBRANCH  15  26
ENDBRANCH  11  14
ENDBRANCH   6  10
ENDBRANCH   3   6
ENDBRANCH   1   2
BRANCH   1  33
ATOM     33  C   UNL A   1      31.511  32.005  26.934  1.00  0.00     0.042 C 
BRANCH  33  34
ATOM     34  C   UNL A   1      32.741  32.756  27.421  1.00  0.00     0.118 C 
BRANCH  34  35
ATOM     35  N   UNL A   1      32.465  34.176  27.592  1.00  0.00    -0.352 N 
ATOM     36  C   UNL A   1      32.973  35.020  28.548  1.00  0.00     0.251 C 
ATOM     37  H   UNL A   1      31.840  34.577  26.946  1.00  0.00     0.163 HD
ATOM     38  O   UNL A   1      32.464  36.107  28.771  1.00  0.00    -0.269 OA
BRANCH  36  39
ATOM     39  C   UNL A   1      34.144  34.562  29.317  1.00  0.00     0.039 A 
ATOM     40  C   UNL A   1      33.954  34.009  30.581  1.00  0.00     0.014 A 
ATOM     41  C   UNL A   1      35.415  34.619  28.739  1.00  0.00     0.014 A 
ATOM     42  C   UNL A   1      35.044  33.455  31.247  1.00  0.00     0.010 A 
ATOM     43  C   UNL A   1      36.471  33.965  29.350  1.00  0.00     0.010 A 
ATOM     44  C   UNL A   1      36.302  33.396  30.621  1.00  0.00    -0.014 A 
BRANCH  44  45
ATOM     45  C   UNL A   1      37.468  32.774  31.288  1.00  0.00     0.031 A 
ATOM     46  C   UNL A   1      38.142  31.590  30.652  1.00  0.00     0.074 A 
ATOM     47  C   UNL A   1      37.877  33.231  32.487  1.00  0.00     0.049 A 
ATOM     48  N   UNL A   1      39.134  30.865  31.102  1.00  0.00    -0.248 NA
ATOM     49  C   UNL A   1      37.609  31.137  29.354  1.00  0.00     0.031 C 
ATOM     50  C   UNL A   1      37.272  34.342  33.226  1.00  0.00     0.029 A 
ATOM     51  N   UNL A   1      38.900  32.811  33.296  1.00  0.00    -0.354 N 
ATOM     52  C   UNL A   1      39.326  29.865  30.157  1.00  0.00     0.074 A 
ATOM     53  C   UNL A   1      38.311  30.034  29.143  1.00  0.00     0.031 C 
ATOM     54  C   UNL A   1      37.960  34.540  34.361  1.00  0.00     0.029 A 
ATOM     55  C   UNL A   1      39.023  33.544  34.452  1.00  0.00     0.049 A 
ATOM     56  H   UNL A   1      39.491  32.057  33.072  1.00  0.00     0.167 HD
ATOM     57  C   UNL A   1      40.280  28.907  30.121  1.00  0.00     0.031 A 
ATOM     58  C   UNL A   1      39.894  33.423  35.471  1.00  0.00     0.031 A 
ATOM     59  C   UNL A   1      41.301  28.754  31.121  1.00  0.00     0.049 A 
ATOM     60  C   UNL A   1      40.940  32.346  35.411  1.00  0.00     0.074 A 
ATOM     61  C   UNL A   1      42.352  27.855  31.149  1.00  0.00     0.029 A 
ATOM     62  N   UNL A   1      41.397  29.523  32.270  1.00  0.00    -0.354 N 
ATOM     63  N   UNL A   1      41.155  31.452  34.475  1.00  0.00    -0.248 NA
ATOM     64  C   UNL A   1      41.873  32.268  36.543  1.00  0.00     0.031 C 
ATOM     65  C   UNL A   1      43.053  28.044  32.344  1.00  0.00     0.029 A 
ATOM     66  C   UNL A   1      42.475  29.101  33.029  1.00  0.00     0.049 A 
ATOM     67  H   UNL A   1      40.788  30.259  32.511  1.00  0.00     0.167 HD
ATOM     68  C   UNL A   1      42.263  30.726  34.892  1.00  0.00     0.074 A 
ATOM     69  C   UNL A   1      42.685  31.295  36.156  1.00  0.00     0.031 C 
ATOM     70  C   UNL A   1      42.878  29.683  34.284  1.00  0.00     0.031 A 
BRANCH  57  71
ATOM     71  C   UNL A   1      40.257  27.952  28.961  1.00  0.00    -0.014 A 
ATOM     72  C   UNL A   1      40.927  28.243  27.761  1.00  0.00     0.009 A 
ATOM     73  C   UNL A   1      39.576  26.730  29.076  1.00  0.00     0.009 A 
ATOM     74  C   UNL A   1      40.882  27.350  26.689  1.00  0.00     0.001 A 
ATOM     75  C   UNL A   1      39.560  25.824  28.014  1.00  0.00     0.001 A 
ATOM     76  C   UNL A   1      40.203  26.139  26.818  1.00  0.00     0.000 A 
ENDBRANCH  57  71
BRANCH  58  77
ATOM     77  C   UNL A   1      39.828  34.358  36.625  1.00  0.00    -0.014 A 
ATOM     78  C   UNL A   1      40.478  35.600  36.573  1.00  0.00     0.009 A 
ATOM     79  C   UNL A   1      39.120  34.011  37.786  1.00  0.00     0.009 A 
ATOM     80  C   UNL A   1      40.446  36.463  37.671  1.00  0.00     0.001 A 
ATOM     81  C   UNL A   1      39.064  34.889  38.871  1.00  0.00     0.001 A 
ATOM     82  C   UNL A   1      39.736  36.108  38.817  1.00  0.00     0.000 A 
ENDBRANCH  58  77
BRANCH  70  83
ATOM     83  C   UNL A   1      44.093  29.114  34.959  1.00  0.00    -0.014 A 
ATOM     84  C   UNL A   1      45.376  29.621  34.702  1.00  0.00     0.009 A 
ATOM     85  C   UNL A   1      43.943  28.082  35.899  1.00  0.00     0.009 A 
ATOM     86  C   UNL A   1      46.489  29.082  35.349  1.00  0.00     0.001 A 
ATOM     87  C   UNL A   1      45.053  27.567  36.567  1.00  0.00     0.001 A 
ATOM     88  C   UNL A   1      46.326  28.060  36.285  1.00  0.00     0.000 A 
ENDBRANCH  70  83
ENDBRANCH  44  45
ENDBRANCH  36  39
ENDBRANCH  34  35
ENDBRANCH  33  34
ENDBRANCH   1  33
TORSDOF 16
ENDMDL
