MODEL 1
REMARK VINA RESULT:     -12.1      0.000      0.000
REMARK SMILES Cc1cc(F)cc(N[C@H](C(=O)NCCCNC(=O)c2ccc(-c3c4nc(c(-c5ccccc5)c5ccc([nH]5)c(-c5ccccc5)c5nc(c(-c6ccccc6)c6ccc3[nH]6)C=C5)C=C4)cc2)c2cc(C)cc(C)c2)c1
REMARK SMILES IDX 14 1 13 2 12 3 10 4 11 5 9 7 8 8 7 10 1 11 2 12 3 13 75 14
REMARK SMILES IDX 4 15 5 16 6 17 67 18 68 19 74 20 69 21 72 22 70 23 71 24
REMARK SMILES IDX 73 25 15 26 16 27 17 28 18 30 19 31 20 32 66 33 21 34 65 35
REMARK SMILES IDX 22 36 23 37 24 38 59 39 25 40 64 41 58 42 60 43 26 44 63 45
REMARK SMILES IDX 57 46 56 47 27 49 49 50 34 51 48 52 35 53 38 54 47 55 61 56
REMARK SMILES IDX 36 57 37 58 46 60 62 61 39 62 28 63 29 64 33 65 30 66 32 67
REMARK SMILES IDX 31 68 50 69 51 70 55 71 52 72 54 73 53 74 40 75 41 76 45 77
REMARK SMILES IDX 42 78 44 79 43 80
REMARK H PARENT 12 6 8 9 16 29 60 48 38 59
REMARK Flexibility Score: inf
ROOT
ATOM      1  C   UNL A   1      37.469  19.985  24.969  1.00  0.00     0.042 C 
ENDROOT
BRANCH   1   2
ATOM      2  C   UNL A   1      36.345  21.001  24.939  1.00  0.00     0.117 C 
BRANCH   2   3
ATOM      3  N   UNL A   1      35.750  21.240  26.236  1.00  0.00    -0.354 N 
ATOM      4  C   UNL A   1      34.549  21.802  26.560  1.00  0.00     0.247 C 
ATOM      5  O   UNL A   1      34.297  21.817  27.772  1.00  0.00    -0.272 OA
ATOM      6  H   UNL A   1      36.298  20.955  27.004  1.00  0.00     0.163 HD
BRANCH   4   7
ATOM      7  C   UNL A   1      33.622  22.494  25.518  1.00  0.00     0.200 C 
BRANCH   7   8
ATOM      8  N   UNL A   1      32.556  21.648  24.917  1.00  0.00    -0.370 N 
ATOM      9  H   UNL A   1      31.666  22.069  24.912  1.00  0.00     0.161 HD
BRANCH   8  10
ATOM     10  C   UNL A   1      32.581  20.382  24.364  1.00  0.00     0.038 A 
ATOM     11  C   UNL A   1      32.718  16.773  25.687  1.00  0.00     0.044 C 
ATOM     12  C   UNL A   1      32.636  17.941  24.752  1.00  0.00    -0.046 A 
ATOM     13  C   UNL A   1      32.509  17.707  23.385  1.00  0.00     0.042 A 
ATOM     14  C   UNL A   1      32.705  19.270  25.222  1.00  0.00     0.029 A 
ATOM     15  C   UNL A   1      32.388  18.784  22.532  1.00  0.00     0.125 A 
ATOM     16  F   UNL A   1      32.254  18.578  21.215  1.00  0.00    -0.207 F 
ATOM     17  C   UNL A   1      32.387  20.087  23.020  1.00  0.00     0.065 A 
ENDBRANCH   8  10
ENDBRANCH   7   8
BRANCH   7  18
ATOM     18  C   UNL A   1      33.059  23.841  25.958  1.00  0.00    -0.016 A 
ATOM     19  C   UNL A   1      31.701  23.977  26.272  1.00  0.00     0.009 A 
ATOM     20  C   UNL A   1      33.843  25.001  25.878  1.00  0.00     0.009 A 
ATOM     21  C   UNL A   1      31.072  25.219  26.187  1.00  0.00    -0.051 A 
ATOM     22  C   UNL A   1      33.254  26.266  25.994  1.00  0.00    -0.051 A 
ATOM     23  C   UNL A   1      29.587  25.270  25.978  1.00  0.00     0.044 C 
ATOM     24  C   UNL A   1      31.859  26.365  26.069  1.00  0.00     0.006 A 
ATOM     25  C   UNL A   1      34.085  27.510  25.912  1.00  0.00     0.044 C 
ENDBRANCH   7  18
ENDBRANCH   4   7
ENDBRANCH   2   3
ENDBRANCH   1   2
BRANCH   1  26
ATOM     26  C   UNL A   1      38.736  20.476  25.646  1.00  0.00     0.118 C 
BRANCH  26  27
ATOM     27  N   UNL A   1      39.790  19.471  25.703  1.00  0.00    -0.352 N 
ATOM     28  C   UNL A   1      41.115  19.596  26.045  1.00  0.00     0.251 C 
ATOM     29  H   UNL A   1      39.509  18.561  25.457  1.00  0.00     0.163 HD
ATOM     30  O   UNL A   1      41.887  18.655  25.881  1.00  0.00    -0.269 OA
BRANCH  28  31
ATOM     31  C   UNL A   1      41.626  20.879  26.574  1.00  0.00     0.039 A 
ATOM     32  C   UNL A   1      42.140  21.825  25.684  1.00  0.00     0.014 A 
ATOM     33  C   UNL A   1      41.572  21.162  27.939  1.00  0.00     0.014 A 
ATOM     34  C   UNL A   1      42.510  23.087  26.156  1.00  0.00     0.010 A 
ATOM     35  C   UNL A   1      41.822  22.453  28.386  1.00  0.00     0.010 A 
ATOM     36  C   UNL A   1      42.305  23.429  27.503  1.00  0.00    -0.014 A 
BRANCH  36  37
ATOM     37  C   UNL A   1      42.602  24.790  28.018  1.00  0.00     0.031 A 
ATOM     38  C   UNL A   1      44.005  25.142  28.440  1.00  0.00     0.074 A 
ATOM     39  C   UNL A   1      41.603  25.682  28.177  1.00  0.00     0.049 A 
ATOM     40  N   UNL A   1      44.449  26.245  28.988  1.00  0.00    -0.248 NA
ATOM     41  C   UNL A   1      45.040  24.109  28.256  1.00  0.00     0.031 C 
ATOM     42  C   UNL A   1      40.193  25.452  27.849  1.00  0.00     0.029 A 
ATOM     43  N   UNL A   1      41.621  26.967  28.663  1.00  0.00    -0.354 N 
ATOM     44  C   UNL A   1      45.798  26.023  29.241  1.00  0.00     0.074 A 
ATOM     45  C   UNL A   1      46.092  24.669  28.835  1.00  0.00     0.031 C 
ATOM     46  C   UNL A   1      39.492  26.569  28.104  1.00  0.00     0.029 A 
ATOM     47  C   UNL A   1      40.388  27.576  28.661  1.00  0.00     0.049 A 
ATOM     48  H   UNL A   1      42.440  27.409  28.983  1.00  0.00     0.167 HD
ATOM     49  C   UNL A   1      46.718  26.878  29.744  1.00  0.00     0.031 A 
ATOM     50  C   UNL A   1      40.022  28.806  29.069  1.00  0.00     0.031 A 
ATOM     51  C   UNL A   1      46.436  28.239  30.113  1.00  0.00     0.049 A 
ATOM     52  C   UNL A   1      41.066  29.731  29.632  1.00  0.00     0.074 A 
ATOM     53  C   UNL A   1      47.317  29.210  30.553  1.00  0.00     0.029 A 
ATOM     54  N   UNL A   1      45.178  28.818  30.085  1.00  0.00    -0.354 N 
ATOM     55  N   UNL A   1      42.354  29.534  29.779  1.00  0.00    -0.248 NA
ATOM     56  C   UNL A   1      40.606  31.055  30.076  1.00  0.00     0.031 C 
ATOM     57  C   UNL A   1      46.582  30.360  30.851  1.00  0.00     0.029 A 
ATOM     58  C   UNL A   1      45.254  30.125  30.533  1.00  0.00     0.049 A 
ATOM     59  H   UNL A   1      44.354  28.368  29.791  1.00  0.00     0.167 HD
ATOM     60  C   UNL A   1      42.861  30.720  30.296  1.00  0.00     0.074 A 
ATOM     61  C   UNL A   1      41.746  31.635  30.420  1.00  0.00     0.031 C 
ATOM     62  C   UNL A   1      44.137  31.026  30.636  1.00  0.00     0.031 A 
BRANCH  49  63
ATOM     63  C   UNL A   1      48.121  26.372  29.932  1.00  0.00    -0.014 A 
ATOM     64  C   UNL A   1      49.093  26.516  28.929  1.00  0.00     0.009 A 
ATOM     65  C   UNL A   1      48.492  25.796  31.157  1.00  0.00     0.009 A 
ATOM     66  C   UNL A   1      50.399  26.069  29.139  1.00  0.00     0.001 A 
ATOM     67  C   UNL A   1      49.805  25.377  31.376  1.00  0.00     0.001 A 
ATOM     68  C   UNL A   1      50.756  25.508  30.365  1.00  0.00     0.000 A 
ENDBRANCH  49  63
BRANCH  50  69
ATOM     69  C   UNL A   1      38.606  29.252  28.958  1.00  0.00    -0.014 A 
ATOM     70  C   UNL A   1      37.741  29.150  30.059  1.00  0.00     0.009 A 
ATOM     71  C   UNL A   1      38.100  29.739  27.743  1.00  0.00     0.009 A 
ATOM     72  C   UNL A   1      36.390  29.483  29.934  1.00  0.00     0.001 A 
ATOM     73  C   UNL A   1      36.755  30.104  27.631  1.00  0.00     0.001 A 
ATOM     74  C   UNL A   1      35.899  29.962  28.721  1.00  0.00     0.000 A 
ENDBRANCH  50  69
BRANCH  62  75
ATOM     75  C   UNL A   1      44.405  32.420  31.126  1.00  0.00    -0.014 A 
ATOM     76  C   UNL A   1      44.370  32.737  32.492  1.00  0.00     0.009 A 
ATOM     77  C   UNL A   1      44.744  33.423  30.202  1.00  0.00     0.009 A 
ATOM     78  C   UNL A   1      44.634  34.040  32.920  1.00  0.00     0.001 A 
ATOM     79  C   UNL A   1      45.040  34.714  30.636  1.00  0.00     0.001 A 
ATOM     80  C   UNL A   1      44.975  35.025  31.992  1.00  0.00     0.000 A 
ENDBRANCH  62  75
ENDBRANCH  36  37
ENDBRANCH  28  31
ENDBRANCH  26  27
ENDBRANCH   1  26
TORSDOF 13
ENDMDL
MODEL 2
REMARK VINA RESULT:     -12.0      4.292      9.165
REMARK SMILES Cc1cc(F)cc(N[C@H](C(=O)NCCCNC(=O)c2ccc(-c3c4nc(c(-c5ccccc5)c5ccc([nH]5)c(-c5ccccc5)c5nc(c(-c6ccccc6)c6ccc3[nH]6)C=C5)C=C4)cc2)c2cc(C)cc(C)c2)c1
REMARK SMILES IDX 14 1 13 2 12 3 10 4 11 5 9 7 8 8 7 10 1 11 2 12 3 13 75 14
REMARK SMILES IDX 4 15 5 16 6 17 67 18 68 19 74 20 69 21 72 22 70 23 71 24
REMARK SMILES IDX 73 25 15 26 16 27 17 28 18 30 19 31 20 32 66 33 21 34 65 35
REMARK SMILES IDX 22 36 23 37 24 38 59 39 25 40 64 41 58 42 60 43 26 44 63 45
REMARK SMILES IDX 57 46 56 47 27 49 49 50 34 51 48 52 35 53 38 54 47 55 61 56
REMARK SMILES IDX 36 57 37 58 46 60 62 61 39 62 28 63 29 64 33 65 30 66 32 67
REMARK SMILES IDX 31 68 50 69 51 70 55 71 52 72 54 73 53 74 40 75 41 76 45 77
REMARK SMILES IDX 42 78 44 79 43 80
REMARK H PARENT 12 6 8 9 16 29 60 48 38 59
REMARK Flexibility Score: inf
ROOT
ATOM      1  C   UNL A   1      31.722  31.217  26.262  1.00  0.00     0.042 C 
ENDROOT
BRANCH   1   2
ATOM      2  C   UNL A   1      32.047  29.793  25.862  1.00  0.00     0.117 C 
BRANCH   2   3
ATOM      3  N   UNL A   1      32.989  29.704  24.766  1.00  0.00    -0.354 N 
ATOM      4  C   UNL A   1      33.147  28.730  23.823  1.00  0.00     0.247 C 
ATOM      5  O   UNL A   1      34.015  28.971  22.973  1.00  0.00    -0.272 OA
ATOM      6  H   UNL A   1      33.612  30.462  24.691  1.00  0.00     0.163 HD
BRANCH   4   7
ATOM      7  C   UNL A   1      32.404  27.363  23.875  1.00  0.00     0.200 C 
BRANCH   7   8
ATOM      8  N   UNL A   1      31.183  27.242  23.033  1.00  0.00    -0.370 N 
ATOM      9  H   UNL A   1      31.225  26.515  22.371  1.00  0.00     0.161 HD
BRANCH   8  10
ATOM     10  C   UNL A   1      30.002  27.958  23.007  1.00  0.00     0.038 A 
ATOM     11  C   UNL A   1      28.775  31.240  21.421  1.00  0.00     0.044 C 
ATOM     12  C   UNL A   1      28.791  29.947  22.178  1.00  0.00    -0.046 A 
ATOM     13  C   UNL A   1      27.609  29.483  22.752  1.00  0.00     0.042 A 
ATOM     14  C   UNL A   1      29.977  29.200  22.341  1.00  0.00     0.029 A 
ATOM     15  C   UNL A   1      27.617  28.271  23.409  1.00  0.00     0.125 A 
ATOM     16  F   UNL A   1      26.488  27.804  23.958  1.00  0.00    -0.207 F 
ATOM     17  C   UNL A   1      28.780  27.514  23.499  1.00  0.00     0.065 A 
ENDBRANCH   8  10
ENDBRANCH   7   8
BRANCH   7  18
ATOM     18  C   UNL A   1      33.300  26.141  23.706  1.00  0.00    -0.016 A 
ATOM     19  C   UNL A   1      33.128  25.276  22.617  1.00  0.00     0.009 A 
ATOM     20  C   UNL A   1      34.182  25.758  24.726  1.00  0.00     0.009 A 
ATOM     21  C   UNL A   1      33.553  23.951  22.688  1.00  0.00    -0.051 A 
ATOM     22  C   UNL A   1      34.782  24.492  24.710  1.00  0.00    -0.051 A 
ATOM     23  C   UNL A   1      32.901  22.929  21.802  1.00  0.00     0.044 C 
ATOM     24  C   UNL A   1      34.400  23.568  23.729  1.00  0.00     0.006 A 
ATOM     25  C   UNL A   1      35.729  24.077  25.795  1.00  0.00     0.044 C 
ENDBRANCH   7  18
ENDBRANCH   4   7
ENDBRANCH   2   3
ENDBRANCH   1   2
BRANCH   1  26
ATOM     26  C   UNL A   1      32.727  31.844  27.212  1.00  0.00     0.118 C 
BRANCH  26  27
ATOM     27  N   UNL A   1      32.420  33.228  27.551  1.00  0.00    -0.352 N 
ATOM     28  C   UNL A   1      33.080  34.105  28.378  1.00  0.00     0.251 C 
ATOM     29  H   UNL A   1      31.613  33.592  27.119  1.00  0.00     0.163 HD
ATOM     30  O   UNL A   1      32.576  35.189  28.657  1.00  0.00    -0.269 OA
BRANCH  28  31
ATOM     31  C   UNL A   1      34.382  33.727  28.968  1.00  0.00     0.039 A 
ATOM     32  C   UNL A   1      34.404  33.012  30.168  1.00  0.00     0.014 A 
ATOM     33  C   UNL A   1      35.579  34.051  28.328  1.00  0.00     0.014 A 
ATOM     34  C   UNL A   1      35.621  32.544  30.671  1.00  0.00     0.010 A 
ATOM     35  C   UNL A   1      36.769  33.482  28.761  1.00  0.00     0.010 A 
ATOM     36  C   UNL A   1      36.807  32.730  29.943  1.00  0.00    -0.014 A 
BRANCH  36  37
ATOM     37  C   UNL A   1      38.102  32.167  30.403  1.00  0.00     0.031 A 
ATOM     38  C   UNL A   1      38.615  30.881  29.808  1.00  0.00     0.074 A 
ATOM     39  C   UNL A   1      38.779  32.766  31.404  1.00  0.00     0.049 A 
ATOM     40  N   UNL A   1      39.679  30.189  30.130  1.00  0.00    -0.248 NA
ATOM     41  C   UNL A   1      37.811  30.273  28.733  1.00  0.00     0.031 C 
ATOM     42  C   UNL A   1      38.370  33.992  32.097  1.00  0.00     0.029 A 
ATOM     43  N   UNL A   1      39.958  32.420  32.019  1.00  0.00    -0.354 N 
ATOM     44  C   UNL A   1      39.650  29.057  29.324  1.00  0.00     0.074 A 
ATOM     45  C   UNL A   1      38.442  29.126  28.534  1.00  0.00     0.031 C 
ATOM     46  C   UNL A   1      39.300  34.315  33.010  1.00  0.00     0.029 A 
ATOM     47  C   UNL A   1      40.345  33.297  33.005  1.00  0.00     0.049 A 
ATOM     48  H   UNL A   1      40.476  31.620  31.776  1.00  0.00     0.167 HD
ATOM     49  C   UNL A   1      40.558  28.059  29.232  1.00  0.00     0.031 A 
ATOM     50  C   UNL A   1      41.418  33.277  33.819  1.00  0.00     0.031 A 
ATOM     51  C   UNL A   1      41.778  28.008  29.990  1.00  0.00     0.049 A 
ATOM     52  C   UNL A   1      42.406  32.149  33.698  1.00  0.00     0.074 A 
ATOM     53  C   UNL A   1      42.804  27.083  29.907  1.00  0.00     0.029 A 
ATOM     54  N   UNL A   1      42.136  28.921  30.969  1.00  0.00    -0.354 N 
ATOM     55  N   UNL A   1      42.408  31.135  32.868  1.00  0.00    -0.248 NA
ATOM     56  C   UNL A   1      43.550  32.171  34.622  1.00  0.00     0.031 C 
ATOM     57  C   UNL A   1      43.754  27.400  30.881  1.00  0.00     0.029 A 
ATOM     58  C   UNL A   1      43.352  28.560  31.523  1.00  0.00     0.049 A 
ATOM     59  H   UNL A   1      41.605  29.706  31.232  1.00  0.00     0.167 HD
ATOM     60  C   UNL A   1      43.567  30.421  33.144  1.00  0.00     0.074 A 
ATOM     61  C   UNL A   1      44.252  31.128  34.206  1.00  0.00     0.031 C 
ATOM     62  C   UNL A   1      44.026  29.283  32.569  1.00  0.00     0.031 A 
BRANCH  49  63
ATOM     63  C   UNL A   1      40.271  26.931  28.280  1.00  0.00    -0.014 A 
ATOM     64  C   UNL A   1      40.805  26.915  26.981  1.00  0.00     0.009 A 
ATOM     65  C   UNL A   1      39.502  25.838  28.710  1.00  0.00     0.009 A 
ATOM     66  C   UNL A   1      40.554  25.840  26.126  1.00  0.00     0.001 A 
ATOM     67  C   UNL A   1      39.277  24.752  27.864  1.00  0.00     0.001 A 
ATOM     68  C   UNL A   1      39.797  24.757  26.570  1.00  0.00     0.000 A 
ENDBRANCH  49  63
BRANCH  50  69
ATOM     69  C   UNL A   1      41.633  34.358  34.819  1.00  0.00    -0.014 A 
ATOM     70  C   UNL A   1      41.090  34.249  36.110  1.00  0.00     0.009 A 
ATOM     71  C   UNL A   1      42.338  35.522  34.479  1.00  0.00     0.009 A 
ATOM     72  C   UNL A   1      41.212  35.300  37.022  1.00  0.00     0.001 A 
ATOM     73  C   UNL A   1      42.489  36.557  35.406  1.00  0.00     0.001 A 
ATOM     74  C   UNL A   1      41.913  36.452  36.670  1.00  0.00     0.000 A 
ENDBRANCH  50  69
BRANCH  62  75
ATOM     75  C   UNL A   1      45.353  28.759  33.039  1.00  0.00    -0.014 A 
ATOM     76  C   UNL A   1      45.447  27.847  34.101  1.00  0.00     0.009 A 
ATOM     77  C   UNL A   1      46.526  29.153  32.373  1.00  0.00     0.009 A 
ATOM     78  C   UNL A   1      46.693  27.368  34.509  1.00  0.00     0.001 A 
ATOM     79  C   UNL A   1      47.765  28.647  32.762  1.00  0.00     0.001 A 
ATOM     80  C   UNL A   1      47.850  27.763  33.836  1.00  0.00     0.000 A 
ENDBRANCH  62  75
ENDBRANCH  36  37
ENDBRANCH  28  31
ENDBRANCH  26  27
ENDBRANCH   1  26
TORSDOF 13
ENDMDL
MODEL 3
REMARK VINA RESULT:     -12.0      0.371      5.937
REMARK SMILES Cc1cc(F)cc(N[C@H](C(=O)NCCCNC(=O)c2ccc(-c3c4nc(c(-c5ccccc5)c5ccc([nH]5)c(-c5ccccc5)c5nc(c(-c6ccccc6)c6ccc3[nH]6)C=C5)C=C4)cc2)c2cc(C)cc(C)c2)c1
REMARK SMILES IDX 14 1 13 2 12 3 10 4 11 5 9 7 8 8 7 10 1 11 2 12 3 13 75 14
REMARK SMILES IDX 4 15 5 16 6 17 67 18 68 19 74 20 69 21 72 22 70 23 71 24
REMARK SMILES IDX 73 25 15 26 16 27 17 28 18 30 19 31 20 32 66 33 21 34 65 35
REMARK SMILES IDX 22 36 23 37 24 38 59 39 25 40 64 41 58 42 60 43 26 44 63 45
REMARK SMILES IDX 57 46 56 47 27 49 49 50 34 51 48 52 35 53 38 54 47 55 61 56
REMARK SMILES IDX 36 57 37 58 46 60 62 61 39 62 28 63 29 64 33 65 30 66 32 67
REMARK SMILES IDX 31 68 50 69 51 70 55 71 52 72 54 73 53 74 40 75 41 76 45 77
REMARK SMILES IDX 42 78 44 79 43 80
REMARK H PARENT 12 6 8 9 16 29 60 48 38 59
REMARK Flexibility Score: inf
ROOT
ATOM      1  C   UNL A   1      37.408  20.334  24.972  1.00  0.00     0.042 C 
ENDROOT
BRANCH   1   2
ATOM      2  C   UNL A   1      36.340  21.409  24.971  1.00  0.00     0.117 C 
BRANCH   2   3
ATOM      3  N   UNL A   1      35.757  21.642  26.274  1.00  0.00    -0.354 N 
ATOM      4  C   UNL A   1      34.544  22.170  26.610  1.00  0.00     0.247 C 
ATOM      5  O   UNL A   1      34.309  22.190  27.826  1.00  0.00    -0.272 OA
ATOM      6  H   UNL A   1      36.323  21.380  27.036  1.00  0.00     0.163 HD
BRANCH   4   7
ATOM      7  C   UNL A   1      33.582  22.824  25.576  1.00  0.00     0.200 C 
BRANCH   7   8
ATOM      8  N   UNL A   1      32.511  21.952  25.026  1.00  0.00    -0.370 N 
ATOM      9  H   UNL A   1      31.607  22.336  25.095  1.00  0.00     0.161 HD
BRANCH   8  10
ATOM     10  C   UNL A   1      32.545  20.702  24.436  1.00  0.00     0.038 A 
ATOM     11  C   UNL A   1      32.767  17.061  25.650  1.00  0.00     0.044 C 
ATOM     12  C   UNL A   1      32.648  18.253  24.752  1.00  0.00    -0.046 A 
ATOM     13  C   UNL A   1      32.499  18.056  23.381  1.00  0.00     0.042 A 
ATOM     14  C   UNL A   1      32.704  19.569  25.259  1.00  0.00     0.029 A 
ATOM     15  C   UNL A   1      32.344  19.155  22.562  1.00  0.00     0.125 A 
ATOM     16  F   UNL A   1      32.189  18.985  21.242  1.00  0.00    -0.207 F 
ATOM     17  C   UNL A   1      32.331  20.443  23.088  1.00  0.00     0.065 A 
ENDBRANCH   8  10
ENDBRANCH   7   8
BRANCH   7  18
ATOM     18  C   UNL A   1      33.016  24.177  25.996  1.00  0.00    -0.016 A 
ATOM     19  C   UNL A   1      31.643  24.333  26.227  1.00  0.00     0.009 A 
ATOM     20  C   UNL A   1      33.822  25.324  25.977  1.00  0.00     0.009 A 
ATOM     21  C   UNL A   1      31.042  25.586  26.117  1.00  0.00    -0.051 A 
ATOM     22  C   UNL A   1      33.248  26.598  26.070  1.00  0.00    -0.051 A 
ATOM     23  C   UNL A   1      29.573  25.666  25.818  1.00  0.00     0.044 C 
ATOM     24  C   UNL A   1      31.853  26.720  26.060  1.00  0.00     0.006 A 
ATOM     25  C   UNL A   1      34.104  27.828  26.054  1.00  0.00     0.044 C 
ENDBRANCH   7  18
ENDBRANCH   4   7
ENDBRANCH   2   3
ENDBRANCH   1   2
BRANCH   1  26
ATOM     26  C   UNL A   1      38.712  20.750  25.628  1.00  0.00     0.118 C 
BRANCH  26  27
ATOM     27  N   UNL A   1      39.711  19.689  25.659  1.00  0.00    -0.352 N 
ATOM     28  C   UNL A   1      41.040  19.733  26.006  1.00  0.00     0.251 C 
ATOM     29  H   UNL A   1      39.382  18.802  25.387  1.00  0.00     0.163 HD
ATOM     30  O   UNL A   1      41.760  18.757  25.818  1.00  0.00    -0.269 OA
BRANCH  28  31
ATOM     31  C   UNL A   1      41.616  20.972  26.571  1.00  0.00     0.039 A 
ATOM     32  C   UNL A   1      42.124  21.943  25.704  1.00  0.00     0.014 A 
ATOM     33  C   UNL A   1      41.631  21.192  27.949  1.00  0.00     0.014 A 
ATOM     34  C   UNL A   1      42.557  23.168  26.218  1.00  0.00     0.010 A 
ATOM     35  C   UNL A   1      41.945  22.451  28.444  1.00  0.00     0.010 A 
ATOM     36  C   UNL A   1      42.422  23.452  27.587  1.00  0.00    -0.014 A 
BRANCH  36  37
ATOM     37  C   UNL A   1      42.788  24.776  28.151  1.00  0.00     0.031 A 
ATOM     38  C   UNL A   1      41.722  25.816  28.376  1.00  0.00     0.074 A 
ATOM     39  C   UNL A   1      44.083  25.071  28.390  1.00  0.00     0.049 A 
ATOM     40  N   UNL A   1      41.850  27.054  28.782  1.00  0.00    -0.248 NA
ATOM     41  C   UNL A   1      40.333  25.428  28.072  1.00  0.00     0.031 C 
ATOM     42  C   UNL A   1      45.218  24.168  28.173  1.00  0.00     0.029 A 
ATOM     43  N   UNL A   1      44.664  26.221  28.865  1.00  0.00    -0.354 N 
ATOM     44  C   UNL A   1      40.569  27.595  28.749  1.00  0.00     0.074 A 
ATOM     45  C   UNL A   1      39.686  26.572  28.239  1.00  0.00     0.031 C 
ATOM     46  C   UNL A   1      46.349  24.784  28.552  1.00  0.00     0.029 A 
ATOM     47  C   UNL A   1      46.031  26.138  28.989  1.00  0.00     0.049 A 
ATOM     48  H   UNL A   1      44.150  27.027  29.095  1.00  0.00     0.167 HD
ATOM     49  C   UNL A   1      40.159  28.826  29.133  1.00  0.00     0.031 A 
ATOM     50  C   UNL A   1      46.927  27.056  29.402  1.00  0.00     0.031 A 
ATOM     51  C   UNL A   1      41.030  29.831  29.677  1.00  0.00     0.049 A 
ATOM     52  C   UNL A   1      46.441  28.418  29.814  1.00  0.00     0.074 A 
ATOM     53  C   UNL A   1      40.698  31.079  30.173  1.00  0.00     0.029 A 
ATOM     54  N   UNL A   1      42.405  29.703  29.795  1.00  0.00    -0.354 N 
ATOM     55  N   UNL A   1      45.216  28.881  29.861  1.00  0.00    -0.248 NA
ATOM     56  C   UNL A   1      47.465  29.384  30.240  1.00  0.00     0.031 C 
ATOM     57  C   UNL A   1      41.880  31.732  30.534  1.00  0.00     0.029 A 
ATOM     58  C   UNL A   1      42.939  30.864  30.325  1.00  0.00     0.049 A 
ATOM     59  H   UNL A   1      42.923  28.907  29.540  1.00  0.00     0.167 HD
ATOM     60  C   UNL A   1      45.318  30.175  30.357  1.00  0.00     0.074 A 
ATOM     61  C   UNL A   1      46.723  30.416  30.611  1.00  0.00     0.031 C 
ATOM     62  C   UNL A   1      44.338  31.082  30.585  1.00  0.00     0.031 A 
BRANCH  49  63
ATOM     63  C   UNL A   1      38.702  29.163  28.976  1.00  0.00    -0.014 A 
ATOM     64  C   UNL A   1      37.802  29.035  30.046  1.00  0.00     0.009 A 
ATOM     65  C   UNL A   1      38.236  29.674  27.755  1.00  0.00     0.009 A 
ATOM     66  C   UNL A   1      36.460  29.388  29.887  1.00  0.00     0.001 A 
ATOM     67  C   UNL A   1      36.902  30.054  27.608  1.00  0.00     0.001 A 
ATOM     68  C   UNL A   1      36.013  29.904  28.672  1.00  0.00     0.000 A 
ENDBRANCH  49  63
BRANCH  50  69
ATOM     69  C   UNL A   1      48.378  26.728  29.460  1.00  0.00    -0.014 A 
ATOM     70  C   UNL A   1      48.935  26.177  30.626  1.00  0.00     0.009 A 
ATOM     71  C   UNL A   1      49.221  27.004  28.373  1.00  0.00     0.009 A 
ATOM     72  C   UNL A   1      50.311  25.952  30.716  1.00  0.00     0.001 A 
ATOM     73  C   UNL A   1      50.592  26.744  28.454  1.00  0.00     0.001 A 
ATOM     74  C   UNL A   1      51.137  26.233  29.630  1.00  0.00     0.000 A 
ENDBRANCH  50  69
BRANCH  62  75
ATOM     75  C   UNL A   1      44.742  32.400  31.183  1.00  0.00    -0.014 A 
ATOM     76  C   UNL A   1      45.057  33.505  30.378  1.00  0.00     0.009 A 
ATOM     77  C   UNL A   1      44.761  32.546  32.580  1.00  0.00     0.009 A 
ATOM     78  C   UNL A   1      45.419  34.720  30.961  1.00  0.00     0.001 A 
ATOM     79  C   UNL A   1      45.090  33.771  33.158  1.00  0.00     0.001 A 
ATOM     80  C   UNL A   1      45.429  34.854  32.350  1.00  0.00     0.000 A 
ENDBRANCH  62  75
ENDBRANCH  36  37
ENDBRANCH  28  31
ENDBRANCH  26  27
ENDBRANCH   1  26
TORSDOF 13
ENDMDL
