MODEL 1
REMARK VINA RESULT:     -12.3      0.000      0.000
REMARK SMILES O=C(NCCCNC(=O)[C@@H](NC(=O)c1ccc(C[NH+]2CCCCC2)cc1)c1ccccc1F)c1ccc(-c2c3nc(c(-c4ccccc4)c4ccc([nH]4)c(-c4ccccc4)c4nc(c(-c5ccccc5)c5ccc2[nH]5)C=C4)C=C3)cc1
REMARK SMILES IDX 6 1 5 2 4 3 3 4 1 5 2 6 34 8 35 9 81 10 36 11 80 12 37 13
REMARK SMILES IDX 38 14 39 15 74 16 40 17 79 18 73 19 75 20 41 21 78 22 72 23
REMARK SMILES IDX 71 24 42 26 64 27 49 28 63 29 50 30 53 31 62 32 76 33 51 34
REMARK SMILES IDX 52 35 61 37 77 38 54 39 43 40 44 41 48 42 45 43 47 44 46 45
REMARK SMILES IDX 65 46 66 47 70 48 67 49 69 50 68 51 55 52 56 53 60 54 57 55
REMARK SMILES IDX 59 56 58 57 7 58 8 59 9 61 10 62 11 63 12 64 13 66 14 67
REMARK SMILES IDX 15 68 26 69 16 70 25 71 17 72 18 73 19 74 20 75 24 76 21 78
REMARK SMILES IDX 23 79 22 80 27 81 28 82 32 83 29 84 31 85 33 86 30 87
REMARK H PARENT 3 7 75 25 53 36 7 60 11 65 19 77
REMARK Flexibility Score: inf
ROOT
ATOM      1  C   UNL A   1      36.155  20.992  25.326  1.00  0.00     0.117 C 
ENDROOT
BRANCH   1   2
ATOM      2  C   UNL A   1      37.329  20.112  24.954  1.00  0.00     0.042 C 
BRANCH   2   3
ATOM      3  C   UNL A   1      38.626  20.622  25.542  1.00  0.00     0.118 C 
BRANCH   3   4
ATOM      4  N   UNL A   1      39.641  19.577  25.628  1.00  0.00    -0.352 N 
ATOM      5  O   UNL A   1      41.730  18.751  25.850  1.00  0.00    -0.269 OA
ATOM      6  C   UNL A   1      40.961  19.686  26.002  1.00  0.00     0.251 C 
ATOM      7  H   UNL A   1      39.341  18.671  25.386  1.00  0.00     0.163 HD
BRANCH   6   8
ATOM      8  C   UNL A   1      41.433  20.967  26.568  1.00  0.00     0.039 A 
ATOM      9  C   UNL A   1      41.263  21.227  27.927  1.00  0.00     0.014 A 
ATOM     10  C   UNL A   1      42.004  21.925  25.728  1.00  0.00     0.014 A 
ATOM     11  C   UNL A   1      41.484  22.505  28.410  1.00  0.00     0.010 A 
ATOM     12  C   UNL A   1      42.355  23.174  26.250  1.00  0.00     0.010 A 
ATOM     13  C   UNL A   1      42.067  23.484  27.588  1.00  0.00    -0.014 A 
BRANCH  13  14
ATOM     14  C   UNL A   1      42.438  24.782  28.200  1.00  0.00     0.031 A 
ATOM     15  C   UNL A   1      43.858  25.101  28.573  1.00  0.00     0.074 A 
ATOM     16  C   UNL A   1      41.468  25.704  28.357  1.00  0.00     0.049 A 
ATOM     17  N   UNL A   1      44.342  26.212  29.070  1.00  0.00    -0.248 NA
ATOM     18  C   UNL A   1      44.863  24.046  28.375  1.00  0.00     0.031 C 
ATOM     19  C   UNL A   1      40.051  25.500  28.033  1.00  0.00     0.029 A 
ATOM     20  N   UNL A   1      41.522  27.002  28.791  1.00  0.00    -0.354 N 
ATOM     21  C   UNL A   1      45.700  25.990  29.251  1.00  0.00     0.074 A 
ATOM     22  C   UNL A   1      45.960  24.624  28.846  1.00  0.00     0.031 C 
ATOM     23  C   UNL A   1      39.387  26.649  28.214  1.00  0.00     0.029 A 
ATOM     24  C   UNL A   1      40.308  27.642  28.747  1.00  0.00     0.049 A 
ATOM     25  H   UNL A   1      42.350  27.433  29.103  1.00  0.00     0.167 HD
ATOM     26  C   UNL A   1      46.645  26.849  29.705  1.00  0.00     0.031 A 
ATOM     27  C   UNL A   1      39.961  28.887  29.119  1.00  0.00     0.031 A 
ATOM     28  C   UNL A   1      46.376  28.203  30.119  1.00  0.00     0.049 A 
ATOM     29  C   UNL A   1      41.022  29.795  29.664  1.00  0.00     0.074 A 
ATOM     30  C   UNL A   1      47.265  29.153  30.593  1.00  0.00     0.029 A 
ATOM     31  N   UNL A   1      45.125  28.800  30.106  1.00  0.00    -0.354 N 
ATOM     32  N   UNL A   1      42.305  29.572  29.810  1.00  0.00    -0.248 NA
ATOM     33  C   UNL A   1      40.585  31.129  30.091  1.00  0.00     0.031 C 
ATOM     34  C   UNL A   1      46.543  30.306  30.918  1.00  0.00     0.029 A 
ATOM     35  C   UNL A   1      45.214  30.098  30.584  1.00  0.00     0.049 A 
ATOM     36  H   UNL A   1      44.294  28.366  29.803  1.00  0.00     0.167 HD
ATOM     37  C   UNL A   1      42.833  30.744  30.331  1.00  0.00     0.074 A 
ATOM     38  C   UNL A   1      41.736  31.684  30.441  1.00  0.00     0.031 C 
ATOM     39  C   UNL A   1      44.110  31.017  30.693  1.00  0.00     0.031 A 
BRANCH  26  40
ATOM     40  C   UNL A   1      48.061  26.346  29.797  1.00  0.00    -0.014 A 
ATOM     41  C   UNL A   1      48.955  26.487  28.724  1.00  0.00     0.009 A 
ATOM     42  C   UNL A   1      48.525  25.773  30.993  1.00  0.00     0.009 A 
ATOM     43  C   UNL A   1      50.275  26.040  28.837  1.00  0.00     0.001 A 
ATOM     44  C   UNL A   1      49.852  25.355  31.113  1.00  0.00     0.001 A 
ATOM     45  C   UNL A   1      50.723  25.481  30.032  1.00  0.00     0.000 A 
ENDBRANCH  26  40
BRANCH  27  46
ATOM     46  C   UNL A   1      38.544  29.323  29.028  1.00  0.00    -0.014 A 
ATOM     47  C   UNL A   1      38.036  29.886  27.848  1.00  0.00     0.009 A 
ATOM     48  C   UNL A   1      37.690  29.184  30.135  1.00  0.00     0.009 A 
ATOM     49  C   UNL A   1      36.714  30.332  27.791  1.00  0.00     0.001 A 
ATOM     50  C   UNL A   1      36.359  29.595  30.063  1.00  0.00     0.001 A 
ATOM     51  C   UNL A   1      35.876  30.183  28.896  1.00  0.00     0.000 A 
ENDBRANCH  27  46
BRANCH  39  52
ATOM     52  C   UNL A   1      44.385  32.402  31.207  1.00  0.00    -0.014 A 
ATOM     53  C   UNL A   1      44.314  32.701  32.577  1.00  0.00     0.009 A 
ATOM     54  C   UNL A   1      44.722  33.423  30.304  1.00  0.00     0.009 A 
ATOM     55  C   UNL A   1      44.530  34.005  33.026  1.00  0.00     0.001 A 
ATOM     56  C   UNL A   1      44.971  34.717  30.760  1.00  0.00     0.001 A 
ATOM     57  C   UNL A   1      44.861  35.011  32.118  1.00  0.00     0.000 A 
ENDBRANCH  39  52
ENDBRANCH  13  14
ENDBRANCH   6   8
ENDBRANCH   3   4
ENDBRANCH   2   3
ENDBRANCH   1   2
BRANCH   1  58
ATOM     58  N   UNL A   1      34.913  20.450  24.800  1.00  0.00    -0.354 N 
ATOM     59  C   UNL A   1      33.804  21.133  24.367  1.00  0.00     0.247 C 
ATOM     60  H   UNL A   1      34.861  19.469  24.748  1.00  0.00     0.163 HD
ATOM     61  O   UNL A   1      32.843  20.476  23.960  1.00  0.00    -0.272 OA
BRANCH  59  62
ATOM     62  C   UNL A   1      33.806  22.696  24.348  1.00  0.00     0.205 C 
BRANCH  62  63
ATOM     63  N   UNL A   1      33.822  23.016  22.879  1.00  0.00    -0.336 N 
ATOM     64  C   UNL A   1      33.337  23.884  21.939  1.00  0.00     0.252 C 
ATOM     65  H   UNL A   1      34.392  22.354  22.424  1.00  0.00     0.165 HD
ATOM     66  O   UNL A   1      33.477  23.597  20.750  1.00  0.00    -0.269 OA
BRANCH  64  67
ATOM     67  C   UNL A   1      32.648  25.140  22.250  1.00  0.00     0.039 A 
ATOM     68  C   UNL A   1      31.301  25.129  22.604  1.00  0.00     0.014 A 
ATOM     69  C   UNL A   1      33.310  26.356  22.112  1.00  0.00     0.014 A 
ATOM     70  C   UNL A   1      30.707  26.286  23.107  1.00  0.00     0.010 A 
ATOM     71  C   UNL A   1      32.726  27.514  22.633  1.00  0.00     0.010 A 
ATOM     72  C   UNL A   1      31.453  27.466  23.222  1.00  0.00     0.006 A 
BRANCH  72  73
ATOM     73  C   UNL A   1      30.941  28.614  24.075  1.00  0.00     0.299 C 
BRANCH  73  74
ATOM     74  N   UNL A   1      30.020  29.572  23.461  1.00  0.00    -0.331 N 
ATOM     75  C   UNL A   1      28.749  28.958  23.074  1.00  0.00     0.262 C 
ATOM     76  C   UNL A   1      29.884  30.798  24.248  1.00  0.00     0.262 C 
ATOM     77  H   UNL A   1      30.441  29.871  22.582  1.00  0.00     0.348 HD
ATOM     78  C   UNL A   1      27.802  29.948  22.403  1.00  0.00     0.062 C 
ATOM     79  C   UNL A   1      28.947  31.807  23.585  1.00  0.00     0.062 C 
ATOM     80  C   UNL A   1      27.596  31.168  23.290  1.00  0.00     0.012 C 
ENDBRANCH  73  74
ENDBRANCH  72  73
ENDBRANCH  64  67
ENDBRANCH  62  63
BRANCH  62  81
ATOM     81  C   UNL A   1      32.779  23.220  25.335  1.00  0.00     0.020 A 
ATOM     82  C   UNL A   1      31.758  22.391  25.854  1.00  0.00     0.009 A 
ATOM     83  C   UNL A   1      32.811  24.503  25.842  1.00  0.00     0.129 A 
ATOM     84  C   UNL A   1      30.661  22.918  26.537  1.00  0.00     0.001 A 
ATOM     85  C   UNL A   1      31.701  25.067  26.471  1.00  0.00     0.039 A 
ATOM     86  F   UNL A   1      33.953  25.194  25.794  1.00  0.00    -0.207 F 
ATOM     87  C   UNL A   1      30.591  24.283  26.764  1.00  0.00     0.003 A 
ENDBRANCH  62  81
ENDBRANCH  59  62
ENDBRANCH   1  58
TORSDOF 15
ENDMDL
MODEL 2
REMARK VINA RESULT:     -12.3      2.245      7.894
REMARK SMILES O=C(NCCCNC(=O)[C@@H](NC(=O)c1ccc(C[NH+]2CCCCC2)cc1)c1ccccc1F)c1ccc(-c2c3nc(c(-c4ccccc4)c4ccc([nH]4)c(-c4ccccc4)c4nc(c(-c5ccccc5)c5ccc2[nH]5)C=C4)C=C3)cc1
REMARK SMILES IDX 6 1 5 2 4 3 3 4 1 5 2 6 34 8 35 9 81 10 36 11 80 12 37 13
REMARK SMILES IDX 38 14 39 15 74 16 40 17 79 18 73 19 75 20 41 21 78 22 72 23
REMARK SMILES IDX 71 24 42 26 64 27 49 28 63 29 50 30 53 31 62 32 76 33 51 34
REMARK SMILES IDX 52 35 61 37 77 38 54 39 43 40 44 41 48 42 45 43 47 44 46 45
REMARK SMILES IDX 65 46 66 47 70 48 67 49 69 50 68 51 55 52 56 53 60 54 57 55
REMARK SMILES IDX 59 56 58 57 7 58 8 59 9 61 10 62 11 63 12 64 13 66 14 67
REMARK SMILES IDX 15 68 26 69 16 70 25 71 17 72 18 73 19 74 20 75 24 76 21 78
REMARK SMILES IDX 23 79 22 80 27 81 28 82 32 83 29 84 31 85 33 86 30 87
REMARK H PARENT 3 7 75 25 53 36 7 60 11 65 19 77
REMARK Flexibility Score: inf
ROOT
ATOM      1  C   UNL A   1      31.627  28.421  26.098  1.00  0.00     0.117 C 
ENDROOT
BRANCH   1   2
ATOM      2  C   UNL A   1      32.459  27.885  27.244  1.00  0.00     0.042 C 
BRANCH   2   3
ATOM      3  C   UNL A   1      33.826  28.531  27.299  1.00  0.00     0.118 C 
BRANCH   3   4
ATOM      4  N   UNL A   1      33.760  29.925  27.726  1.00  0.00    -0.352 N 
ATOM      5  O   UNL A   1      34.450  31.779  28.813  1.00  0.00    -0.269 OA
ATOM      6  C   UNL A   1      34.721  30.680  28.360  1.00  0.00     0.251 C 
ATOM      7  H   UNL A   1      32.912  30.388  27.536  1.00  0.00     0.163 HD
BRANCH   6   8
ATOM      8  C   UNL A   1      36.081  30.119  28.499  1.00  0.00     0.039 A 
ATOM      9  C   UNL A   1      36.467  29.532  29.703  1.00  0.00     0.014 A 
ATOM     10  C   UNL A   1      36.984  30.222  27.439  1.00  0.00     0.014 A 
ATOM     11  C   UNL A   1      37.800  29.223  29.916  1.00  0.00     0.010 A 
ATOM     12  C   UNL A   1      38.299  29.783  27.612  1.00  0.00     0.010 A 
ATOM     13  C   UNL A   1      38.725  29.309  28.863  1.00  0.00    -0.014 A 
BRANCH  13  14
ATOM     14  C   UNL A   1      40.100  28.808  29.095  1.00  0.00     0.031 A 
ATOM     15  C   UNL A   1      40.518  27.426  28.680  1.00  0.00     0.074 A 
ATOM     16  C   UNL A   1      40.996  29.656  29.640  1.00  0.00     0.049 A 
ATOM     17  N   UNL A   1      41.698  26.866  28.773  1.00  0.00    -0.248 NA
ATOM     18  C   UNL A   1      39.486  26.556  28.095  1.00  0.00     0.031 C 
ATOM     19  C   UNL A   1      40.699  31.022  30.086  1.00  0.00     0.029 A 
ATOM     20  N   UNL A   1      42.337  29.516  29.877  1.00  0.00    -0.354 N 
ATOM     21  C   UNL A   1      41.552  25.581  28.269  1.00  0.00     0.074 A 
ATOM     22  C   UNL A   1      40.159  25.428  27.904  1.00  0.00     0.031 C 
ATOM     23  C   UNL A   1      41.834  31.615  30.478  1.00  0.00     0.029 A 
ATOM     24  C   UNL A   1      42.919  30.648  30.394  1.00  0.00     0.049 A 
ATOM     25  H   UNL A   1      42.835  28.687  29.696  1.00  0.00     0.167 HD
ATOM     26  C   UNL A   1      42.495  24.620  28.115  1.00  0.00     0.031 A 
ATOM     27  C   UNL A   1      44.185  30.881  30.783  1.00  0.00     0.031 A 
ATOM     28  C   UNL A   1      43.878  24.776  28.493  1.00  0.00     0.049 A 
ATOM     29  C   UNL A   1      45.193  29.780  30.647  1.00  0.00     0.074 A 
ATOM     30  C   UNL A   1      44.912  23.862  28.377  1.00  0.00     0.029 A 
ATOM     31  N   UNL A   1      44.420  25.920  29.058  1.00  0.00    -0.354 N 
ATOM     32  N   UNL A   1      45.039  28.577  30.149  1.00  0.00    -0.248 NA
ATOM     33  C   UNL A   1      46.550  30.072  31.121  1.00  0.00     0.031 C 
ATOM     34  C   UNL A   1      46.066  24.434  28.923  1.00  0.00     0.029 A 
ATOM     35  C   UNL A   1      45.768  25.729  29.316  1.00  0.00     0.049 A 
ATOM     36  H   UNL A   1      43.920  26.747  29.249  1.00  0.00     0.167 HD
ATOM     37  C   UNL A   1      46.285  27.973  30.236  1.00  0.00     0.074 A 
ATOM     38  C   UNL A   1      47.187  28.956  30.801  1.00  0.00     0.031 C 
ATOM     39  C   UNL A   1      46.649  26.716  29.886  1.00  0.00     0.031 A 
BRANCH  26  40
ATOM     40  C   UNL A   1      42.063  23.304  27.528  1.00  0.00    -0.014 A 
ATOM     41  C   UNL A   1      42.254  23.015  26.167  1.00  0.00     0.009 A 
ATOM     42  C   UNL A   1      41.508  22.315  28.358  1.00  0.00     0.009 A 
ATOM     43  C   UNL A   1      41.873  21.776  25.646  1.00  0.00     0.001 A 
ATOM     44  C   UNL A   1      41.156  21.067  27.839  1.00  0.00     0.001 A 
ATOM     45  C   UNL A   1      41.331  20.802  26.482  1.00  0.00     0.000 A 
ENDBRANCH  26  40
BRANCH  27  46
ATOM     46  C   UNL A   1      44.551  32.193  31.377  1.00  0.00    -0.014 A 
ATOM     47  C   UNL A   1      45.024  33.242  30.575  1.00  0.00     0.009 A 
ATOM     48  C   UNL A   1      44.436  32.397  32.762  1.00  0.00     0.009 A 
ATOM     49  C   UNL A   1      45.406  34.455  31.154  1.00  0.00     0.001 A 
ATOM     50  C   UNL A   1      44.782  33.622  33.332  1.00  0.00     0.001 A 
ATOM     51  C   UNL A   1      45.282  34.646  32.529  1.00  0.00     0.000 A 
ENDBRANCH  27  46
BRANCH  39  52
ATOM     52  C   UNL A   1      48.095  26.354  30.076  1.00  0.00    -0.014 A 
ATOM     53  C   UNL A   1      49.038  26.545  29.053  1.00  0.00     0.009 A 
ATOM     54  C   UNL A   1      48.520  25.815  31.300  1.00  0.00     0.009 A 
ATOM     55  C   UNL A   1      50.366  26.159  29.236  1.00  0.00     0.001 A 
ATOM     56  C   UNL A   1      49.856  25.463  31.493  1.00  0.00     0.001 A 
ATOM     57  C   UNL A   1      50.775  25.622  30.457  1.00  0.00     0.000 A 
ENDBRANCH  39  52
ENDBRANCH  13  14
ENDBRANCH   6   8
ENDBRANCH   3   4
ENDBRANCH   2   3
ENDBRANCH   1   2
BRANCH   1  58
ATOM     58  N   UNL A   1      30.703  27.410  25.611  1.00  0.00    -0.354 N 
ATOM     59  C   UNL A   1      30.185  27.270  24.347  1.00  0.00     0.247 C 
ATOM     60  H   UNL A   1      30.413  26.740  26.271  1.00  0.00     0.163 HD
ATOM     61  O   UNL A   1      29.405  26.338  24.142  1.00  0.00    -0.272 OA
BRANCH  59  62
ATOM     62  C   UNL A   1      30.630  28.244  23.208  1.00  0.00     0.205 C 
BRANCH  62  63
ATOM     63  N   UNL A   1      31.054  27.307  22.111  1.00  0.00    -0.336 N 
ATOM     64  C   UNL A   1      31.940  26.312  21.798  1.00  0.00     0.252 C 
ATOM     65  H   UNL A   1      30.484  27.472  21.326  1.00  0.00     0.165 HD
ATOM     66  O   UNL A   1      32.042  25.968  20.620  1.00  0.00    -0.269 OA
BRANCH  64  67
ATOM     67  C   UNL A   1      32.791  25.625  22.774  1.00  0.00     0.039 A 
ATOM     68  C   UNL A   1      33.580  26.363  23.654  1.00  0.00     0.014 A 
ATOM     69  C   UNL A   1      32.881  24.237  22.772  1.00  0.00     0.014 A 
ATOM     70  C   UNL A   1      34.216  25.722  24.717  1.00  0.00     0.010 A 
ATOM     71  C   UNL A   1      33.502  23.592  23.846  1.00  0.00     0.010 A 
ATOM     72  C   UNL A   1      34.093  24.336  24.878  1.00  0.00     0.006 A 
BRANCH  72  73
ATOM     73  C   UNL A   1      34.476  23.683  26.195  1.00  0.00     0.299 C 
BRANCH  73  74
ATOM     74  N   UNL A   1      35.699  22.878  26.235  1.00  0.00    -0.331 N 
ATOM     75  C   UNL A   1      35.587  21.650  25.447  1.00  0.00     0.262 C 
ATOM     76  C   UNL A   1      36.897  23.671  25.954  1.00  0.00     0.262 C 
ATOM     77  H   UNL A   1      35.816  22.560  27.197  1.00  0.00     0.348 HD
ATOM     78  C   UNL A   1      36.849  20.795  25.517  1.00  0.00     0.062 C 
ATOM     79  C   UNL A   1      38.172  22.833  26.030  1.00  0.00     0.062 C 
ATOM     80  C   UNL A   1      38.068  21.617  25.119  1.00  0.00     0.012 C 
ENDBRANCH  73  74
ENDBRANCH  72  73
ENDBRANCH  64  67
ENDBRANCH  62  63
BRANCH  62  81
ATOM     81  C   UNL A   1      29.603  29.349  23.051  1.00  0.00     0.020 A 
ATOM     82  C   UNL A   1      28.447  29.181  22.253  1.00  0.00     0.009 A 
ATOM     83  C   UNL A   1      29.686  30.553  23.721  1.00  0.00     0.129 A 
ATOM     84  C   UNL A   1      27.646  30.262  21.884  1.00  0.00     0.001 A 
ATOM     85  C   UNL A   1      28.939  31.662  23.324  1.00  0.00     0.039 A 
ATOM     86  F   UNL A   1      30.443  30.636  24.818  1.00  0.00    -0.207 F 
ATOM     87  C   UNL A   1      27.955  31.530  22.351  1.00  0.00     0.003 A 
ENDBRANCH  62  81
ENDBRANCH  59  62
ENDBRANCH   1  58
TORSDOF 15
ENDMDL
MODEL 3
REMARK VINA RESULT:     -12.0      3.213      8.901
REMARK SMILES O=C(NCCCNC(=O)[C@@H](NC(=O)c1ccc(C[NH+]2CCCCC2)cc1)c1ccccc1F)c1ccc(-c2c3nc(c(-c4ccccc4)c4ccc([nH]4)c(-c4ccccc4)c4nc(c(-c5ccccc5)c5ccc2[nH]5)C=C4)C=C3)cc1
REMARK SMILES IDX 6 1 5 2 4 3 3 4 1 5 2 6 34 8 35 9 81 10 36 11 80 12 37 13
REMARK SMILES IDX 38 14 39 15 74 16 40 17 79 18 73 19 75 20 41 21 78 22 72 23
REMARK SMILES IDX 71 24 42 26 64 27 49 28 63 29 50 30 53 31 62 32 76 33 51 34
REMARK SMILES IDX 52 35 61 37 77 38 54 39 43 40 44 41 48 42 45 43 47 44 46 45
REMARK SMILES IDX 65 46 66 47 70 48 67 49 69 50 68 51 55 52 56 53 60 54 57 55
REMARK SMILES IDX 59 56 58 57 7 58 8 59 9 61 10 62 11 63 12 64 13 66 14 67
REMARK SMILES IDX 15 68 26 69 16 70 25 71 17 72 18 73 19 74 20 75 24 76 21 78
REMARK SMILES IDX 23 79 22 80 27 81 28 82 32 83 29 84 31 85 33 86 30 87
REMARK H PARENT 3 7 75 25 53 36 7 60 11 65 19 77
REMARK Flexibility Score: inf
ROOT
ATOM      1  C   UNL A   1      31.961  30.186  25.585  1.00  0.00     0.117 C 
ENDROOT
BRANCH   1   2
ATOM      2  C   UNL A   1      31.527  31.416  26.354  1.00  0.00     0.042 C 
BRANCH   2   3
ATOM      3  C   UNL A   1      32.668  32.018  27.144  1.00  0.00     0.118 C 
BRANCH   3   4
ATOM      4  N   UNL A   1      32.404  33.402  27.524  1.00  0.00    -0.352 N 
ATOM      5  O   UNL A   1      32.650  35.283  28.748  1.00  0.00    -0.269 OA
ATOM      6  C   UNL A   1      33.100  34.204  28.400  1.00  0.00     0.251 C 
ATOM      7  H   UNL A   1      31.622  33.820  27.095  1.00  0.00     0.163 HD
BRANCH   6   8
ATOM      8  C   UNL A   1      34.393  33.719  28.927  1.00  0.00     0.039 A 
ATOM      9  C   UNL A   1      35.578  34.064  28.277  1.00  0.00     0.014 A 
ATOM     10  C   UNL A   1      34.415  32.884  30.045  1.00  0.00     0.014 A 
ATOM     11  C   UNL A   1      36.756  33.425  28.624  1.00  0.00     0.010 A 
ATOM     12  C   UNL A   1      35.629  32.346  30.478  1.00  0.00     0.010 A 
ATOM     13  C   UNL A   1      36.806  32.588  29.750  1.00  0.00    -0.014 A 
BRANCH  13  14
ATOM     14  C   UNL A   1      38.125  32.064  30.176  1.00  0.00     0.031 A 
ATOM     15  C   UNL A   1      38.944  32.751  31.231  1.00  0.00     0.074 A 
ATOM     16  C   UNL A   1      38.548  30.905  29.631  1.00  0.00     0.049 A 
ATOM     17  N   UNL A   1      40.092  32.384  31.743  1.00  0.00    -0.248 NA
ATOM     18  C   UNL A   1      38.419  34.011  31.780  1.00  0.00     0.031 C 
ATOM     19  C   UNL A   1      37.835  30.153  28.593  1.00  0.00     0.029 A 
ATOM     20  N   UNL A   1      39.653  30.139  29.893  1.00  0.00    -0.354 N 
ATOM     21  C   UNL A   1      40.432  33.366  32.663  1.00  0.00     0.074 A 
ATOM     22  C   UNL A   1      39.387  34.367  32.615  1.00  0.00     0.031 C 
ATOM     23  C   UNL A   1      38.482  29.004  28.356  1.00  0.00     0.029 A 
ATOM     24  C   UNL A   1      39.696  28.979  29.159  1.00  0.00     0.049 A 
ATOM     25  H   UNL A   1      40.346  30.395  30.543  1.00  0.00     0.167 HD
ATOM     26  C   UNL A   1      41.513  33.423  33.479  1.00  0.00     0.031 A 
ATOM     27  C   UNL A   1      40.625  28.008  29.114  1.00  0.00     0.031 A 
ATOM     28  C   UNL A   1      42.556  32.429  33.512  1.00  0.00     0.049 A 
ATOM     29  C   UNL A   1      41.833  28.126  29.994  1.00  0.00     0.074 A 
ATOM     30  C   UNL A   1      43.691  32.395  34.304  1.00  0.00     0.029 A 
ATOM     31  N   UNL A   1      42.590  31.292  32.718  1.00  0.00    -0.354 N 
ATOM     32  N   UNL A   1      42.127  29.054  30.871  1.00  0.00    -0.248 NA
ATOM     33  C   UNL A   1      42.834  27.060  29.878  1.00  0.00     0.031 C 
ATOM     34  C   UNL A   1      44.439  31.267  33.950  1.00  0.00     0.029 A 
ATOM     35  C   UNL A   1      43.737  30.561  32.986  1.00  0.00     0.049 A 
ATOM     36  H   UNL A   1      41.902  31.041  32.060  1.00  0.00     0.167 HD
ATOM     37  C   UNL A   1      43.341  28.675  31.426  1.00  0.00     0.074 A 
ATOM     38  C   UNL A   1      43.707  27.416  30.809  1.00  0.00     0.031 C 
ATOM     39  C   UNL A   1      44.089  29.314  32.357  1.00  0.00     0.031 A 
BRANCH  26  40
ATOM     40  C   UNL A   1      41.634  34.610  34.396  1.00  0.00    -0.014 A 
ATOM     41  C   UNL A   1      42.293  35.781  33.988  1.00  0.00     0.009 A 
ATOM     42  C   UNL A   1      41.032  34.580  35.665  1.00  0.00     0.009 A 
ATOM     43  C   UNL A   1      42.370  36.885  34.842  1.00  0.00     0.001 A 
ATOM     44  C   UNL A   1      41.086  35.695  36.504  1.00  0.00     0.001 A 
ATOM     45  C   UNL A   1      41.762  36.843  36.095  1.00  0.00     0.000 A 
ENDBRANCH  26  40
BRANCH  27  46
ATOM     46  C   UNL A   1      40.465  26.869  28.173  1.00  0.00    -0.014 A 
ATOM     47  C   UNL A   1      40.972  26.934  26.867  1.00  0.00     0.009 A 
ATOM     48  C   UNL A   1      39.788  25.707  28.580  1.00  0.00     0.009 A 
ATOM     49  C   UNL A   1      40.774  25.873  25.980  1.00  0.00     0.001 A 
ATOM     50  C   UNL A   1      39.626  24.634  27.705  1.00  0.00     0.001 A 
ATOM     51  C   UNL A   1      40.106  24.723  26.400  1.00  0.00     0.000 A 
ENDBRANCH  27  46
BRANCH  39  52
ATOM     52  C   UNL A   1      45.360  28.635  32.785  1.00  0.00    -0.014 A 
ATOM     53  C   UNL A   1      45.357  27.623  33.758  1.00  0.00     0.009 A 
ATOM     54  C   UNL A   1      46.579  29.014  32.201  1.00  0.00     0.009 A 
ATOM     55  C   UNL A   1      46.555  27.039  34.171  1.00  0.00     0.001 A 
ATOM     56  C   UNL A   1      47.770  28.404  32.591  1.00  0.00     0.001 A 
ATOM     57  C   UNL A   1      47.760  27.427  33.585  1.00  0.00     0.000 A 
ENDBRANCH  39  52
ENDBRANCH  13  14
ENDBRANCH   6   8
ENDBRANCH   3   4
ENDBRANCH   2   3
ENDBRANCH   1   2
BRANCH   1  58
ATOM     58  N   UNL A   1      30.932  29.771  24.646  1.00  0.00    -0.354 N 
ATOM     59  C   UNL A   1      30.676  28.510  24.167  1.00  0.00     0.247 C 
ATOM     60  H   UNL A   1      30.343  30.485  24.311  1.00  0.00     0.163 HD
ATOM     61  O   UNL A   1      29.751  28.373  23.364  1.00  0.00    -0.272 OA
BRANCH  59  62
ATOM     62  C   UNL A   1      31.512  27.294  24.683  1.00  0.00     0.205 C 
BRANCH  62  63
ATOM     63  N   UNL A   1      30.571  26.621  25.644  1.00  0.00    -0.336 N 
ATOM     64  C   UNL A   1      30.164  25.400  26.108  1.00  0.00     0.252 C 
ATOM     65  H   UNL A   1      30.056  27.318  26.112  1.00  0.00     0.165 HD
ATOM     66  O   UNL A   1      29.146  25.347  26.800  1.00  0.00    -0.269 OA
BRANCH  64  67
ATOM     67  C   UNL A   1      30.854  24.137  25.831  1.00  0.00     0.039 A 
ATOM     68  C   UNL A   1      30.792  23.572  24.559  1.00  0.00     0.014 A 
ATOM     69  C   UNL A   1      31.503  23.453  26.854  1.00  0.00     0.014 A 
ATOM     70  C   UNL A   1      31.620  22.496  24.238  1.00  0.00     0.010 A 
ATOM     71  C   UNL A   1      32.347  22.387  26.533  1.00  0.00     0.010 A 
ATOM     72  C   UNL A   1      32.483  21.961  25.202  1.00  0.00     0.006 A 
BRANCH  72  73
ATOM     73  C   UNL A   1      33.619  21.044  24.786  1.00  0.00     0.299 C 
BRANCH  73  74
ATOM     74  N   UNL A   1      34.950  21.630  24.609  1.00  0.00    -0.331 N 
ATOM     75  C   UNL A   1      35.097  22.907  25.309  1.00  0.00     0.262 C 
ATOM     76  C   UNL A   1      36.022  20.669  24.870  1.00  0.00     0.262 C 
ATOM     77  H   UNL A   1      35.044  21.864  23.620  1.00  0.00     0.348 HD
ATOM     78  C   UNL A   1      36.471  23.534  25.096  1.00  0.00     0.062 C 
ATOM     79  C   UNL A   1      37.406  21.278  24.652  1.00  0.00     0.062 C 
ATOM     80  C   UNL A   1      37.568  22.549  25.476  1.00  0.00     0.012 C 
ENDBRANCH  73  74
ENDBRANCH  72  73
ENDBRANCH  64  67
ENDBRANCH  62  63
BRANCH  62  81
ATOM     81  C   UNL A   1      32.188  26.605  23.513  1.00  0.00     0.020 A 
ATOM     82  C   UNL A   1      31.682  26.711  22.196  1.00  0.00     0.009 A 
ATOM     83  C   UNL A   1      33.367  25.898  23.636  1.00  0.00     0.129 A 
ATOM     84  C   UNL A   1      32.126  25.876  21.170  1.00  0.00     0.001 A 
ATOM     85  C   UNL A   1      33.791  25.010  22.647  1.00  0.00     0.039 A 
ATOM     86  F   UNL A   1      34.153  26.121  24.692  1.00  0.00    -0.207 F 
ATOM     87  C   UNL A   1      33.127  24.952  21.428  1.00  0.00     0.003 A 
ENDBRANCH  62  81
ENDBRANCH  59  62
ENDBRANCH   1  58
TORSDOF 15
ENDMDL
