MODEL 1
REMARK VINA RESULT:     -12.2      0.000      0.000
REMARK SMILES Cc1cccc(-c2ccc(Cl)c(C(=O)NCCCNC(=O)c3ccc(-c4c5nc(c(-c6ccccc6)c6ccc([nH]6)c(-c6ccccc6)c6nc(c(-c7ccccc7)c7ccc4[nH]7)C=C6)C=C5)cc3)c2)c1
REMARK SMILES IDX 17 1 16 2 15 3 13 4 14 5 12 7 7 8 8 9 70 10 9 11 10 12 11 13
REMARK SMILES IDX 6 14 1 15 2 16 3 17 71 18 4 19 5 20 18 21 19 22 20 23 21 25
REMARK SMILES IDX 22 26 23 27 69 28 24 29 68 30 25 31 26 32 27 33 62 34 28 35
REMARK SMILES IDX 67 36 61 37 63 38 29 39 66 40 60 41 59 42 30 44 52 45 37 46
REMARK SMILES IDX 51 47 38 48 41 49 50 50 64 51 39 52 40 53 49 55 65 56 42 57
REMARK SMILES IDX 31 58 32 59 36 60 33 61 35 62 34 63 53 64 54 65 58 66 55 67
REMARK SMILES IDX 57 68 56 69 43 70 44 71 48 72 45 73 47 74 46 75
REMARK H PARENT 15 6 19 24 63 43 41 54
REMARK Flexibility Score: inf
ROOT
ATOM      1  C   UNL A   1      38.945  22.896  25.907  1.00  0.00     0.042 C 
ENDROOT
BRANCH   1   2
ATOM      2  C   UNL A   1      37.687  22.294  25.323  1.00  0.00     0.118 C 
BRANCH   2   3
ATOM      3  N   UNL A   1      36.641  22.040  26.303  1.00  0.00    -0.352 N 
ATOM      4  C   UNL A   1      35.292  22.320  26.262  1.00  0.00     0.252 C 
ATOM      5  O   UNL A   1      34.596  22.005  27.226  1.00  0.00    -0.269 OA
ATOM      6  H   UNL A   1      36.946  21.596  27.127  1.00  0.00     0.163 HD
BRANCH   4   7
ATOM      7  C   UNL A   1      34.676  23.079  25.142  1.00  0.00     0.059 A 
ATOM      8  C   UNL A   1      34.166  25.281  24.209  1.00  0.00    -0.017 A 
ATOM      9  C   UNL A   1      33.799  24.652  23.009  1.00  0.00     0.010 A 
ATOM     10  C   UNL A   1      34.700  24.486  25.236  1.00  0.00     0.024 A 
ATOM     11  C   UNL A   1      33.692  23.268  22.943  1.00  0.00     0.022 A 
ATOM     12  C   UNL A   1      34.015  22.495  24.057  1.00  0.00     0.053 A 
ATOM     13  Cl  UNL A   1      33.383  20.881  24.076  1.00  0.00    -0.083 Cl
BRANCH   8  14
ATOM     14  C   UNL A   1      33.756  26.677  24.432  1.00  0.00    -0.018 A 
ATOM     15  C   UNL A   1      32.590  28.670  27.482  1.00  0.00     0.044 C 
ATOM     16  C   UNL A   1      32.993  28.341  26.076  1.00  0.00    -0.051 A 
ATOM     17  C   UNL A   1      32.986  29.309  25.072  1.00  0.00     0.003 A 
ATOM     18  C   UNL A   1      33.377  27.042  25.742  1.00  0.00     0.012 A 
ATOM     19  C   UNL A   1      33.371  28.976  23.769  1.00  0.00     0.001 A 
ATOM     20  C   UNL A   1      33.758  27.668  23.448  1.00  0.00     0.009 A 
ENDBRANCH   8  14
ENDBRANCH   4   7
ENDBRANCH   2   3
ENDBRANCH   1   2
BRANCH   1  21
ATOM     21  C   UNL A   1      39.704  21.944  26.812  1.00  0.00     0.118 C 
BRANCH  21  22
ATOM     22  N   UNL A   1      40.489  20.939  26.084  1.00  0.00    -0.352 N 
ATOM     23  C   UNL A   1      41.866  20.735  26.055  1.00  0.00     0.251 C 
ATOM     24  H   UNL A   1      39.963  20.314  25.535  1.00  0.00     0.163 HD
ATOM     25  O   UNL A   1      42.345  19.764  25.508  1.00  0.00    -0.269 OA
BRANCH  23  26
ATOM     26  C   UNL A   1      42.727  21.663  26.827  1.00  0.00     0.039 A 
ATOM     27  C   UNL A   1      42.624  21.637  28.221  1.00  0.00     0.014 A 
ATOM     28  C   UNL A   1      43.314  22.737  26.176  1.00  0.00     0.014 A 
ATOM     29  C   UNL A   1      42.814  22.821  28.924  1.00  0.00     0.010 A 
ATOM     30  C   UNL A   1      43.332  23.942  26.840  1.00  0.00     0.010 A 
ATOM     31  C   UNL A   1      43.016  23.994  28.204  1.00  0.00    -0.014 A 
BRANCH  31  32
ATOM     32  C   UNL A   1      42.814  25.324  28.766  1.00  0.00     0.031 A 
ATOM     33  C   UNL A   1      41.657  26.129  28.329  1.00  0.00     0.074 A 
ATOM     34  C   UNL A   1      43.635  25.781  29.739  1.00  0.00     0.049 A 
ATOM     35  N   UNL A   1      41.569  27.409  28.451  1.00  0.00    -0.248 NA
ATOM     36  C   UNL A   1      40.513  25.539  27.640  1.00  0.00     0.031 C 
ATOM     37  C   UNL A   1      43.428  26.930  30.615  1.00  0.00     0.029 A 
ATOM     38  N   UNL A   1      44.956  25.400  29.978  1.00  0.00    -0.354 N 
ATOM     39  C   UNL A   1      40.276  27.763  28.148  1.00  0.00     0.074 A 
ATOM     40  C   UNL A   1      39.687  26.584  27.563  1.00  0.00     0.031 C 
ATOM     41  C   UNL A   1      44.615  27.327  31.103  1.00  0.00     0.029 A 
ATOM     42  C   UNL A   1      45.640  26.543  30.435  1.00  0.00     0.049 A 
ATOM     43  H   UNL A   1      45.338  24.501  29.851  1.00  0.00     0.167 HD
ATOM     44  C   UNL A   1      39.803  28.972  28.562  1.00  0.00     0.031 A 
ATOM     45  C   UNL A   1      46.677  27.071  29.720  1.00  0.00     0.031 A 
ATOM     46  C   UNL A   1      40.870  29.798  29.126  1.00  0.00     0.049 A 
ATOM     47  C   UNL A   1      46.412  28.475  29.218  1.00  0.00     0.074 A 
ATOM     48  C   UNL A   1      41.256  30.087  30.425  1.00  0.00     0.029 A 
ATOM     49  N   UNL A   1      41.916  30.203  28.304  1.00  0.00    -0.354 N 
ATOM     50  N   UNL A   1      45.227  29.016  29.158  1.00  0.00    -0.248 NA
ATOM     51  C   UNL A   1      47.453  29.364  28.705  1.00  0.00     0.031 C 
ATOM     52  C   UNL A   1      42.589  30.578  30.384  1.00  0.00     0.029 A 
ATOM     53  C   UNL A   1      42.993  30.624  29.061  1.00  0.00     0.049 A 
ATOM     54  H   UNL A   1      41.892  30.191  27.320  1.00  0.00     0.167 HD
ATOM     55  C   UNL A   1      45.319  30.269  28.614  1.00  0.00     0.074 A 
ATOM     56  C   UNL A   1      46.736  30.447  28.354  1.00  0.00     0.031 C 
ATOM     57  C   UNL A   1      44.222  31.053  28.409  1.00  0.00     0.031 A 
BRANCH  44  58
ATOM     58  C   UNL A   1      38.329  29.270  28.725  1.00  0.00    -0.014 A 
ATOM     59  C   UNL A   1      37.585  29.700  27.611  1.00  0.00     0.009 A 
ATOM     60  C   UNL A   1      37.632  29.234  29.944  1.00  0.00     0.009 A 
ATOM     61  C   UNL A   1      36.263  30.154  27.727  1.00  0.00     0.001 A 
ATOM     62  C   UNL A   1      36.323  29.719  30.078  1.00  0.00     0.001 A 
ATOM     63  C   UNL A   1      35.641  30.191  28.967  1.00  0.00     0.000 A 
ENDBRANCH  44  58
BRANCH  45  64
ATOM     64  C   UNL A   1      47.477  26.042  28.998  1.00  0.00    -0.014 A 
ATOM     65  C   UNL A   1      47.172  25.798  27.642  1.00  0.00     0.009 A 
ATOM     66  C   UNL A   1      48.720  25.620  29.489  1.00  0.00     0.009 A 
ATOM     67  C   UNL A   1      48.134  25.273  26.775  1.00  0.00     0.001 A 
ATOM     68  C   UNL A   1      49.676  25.080  28.618  1.00  0.00     0.001 A 
ATOM     69  C   UNL A   1      49.397  24.945  27.258  1.00  0.00     0.000 A 
ENDBRANCH  45  64
BRANCH  57  70
ATOM     70  C   UNL A   1      44.201  32.338  27.623  1.00  0.00    -0.014 A 
ATOM     71  C   UNL A   1      44.354  32.409  26.233  1.00  0.00     0.009 A 
ATOM     72  C   UNL A   1      43.862  33.536  28.291  1.00  0.00     0.009 A 
ATOM     73  C   UNL A   1      44.217  33.625  25.549  1.00  0.00     0.001 A 
ATOM     74  C   UNL A   1      43.682  34.740  27.607  1.00  0.00     0.001 A 
ATOM     75  C   UNL A   1      43.871  34.786  26.234  1.00  0.00     0.000 A 
ENDBRANCH  57  70
ENDBRANCH  31  32
ENDBRANCH  23  26
ENDBRANCH  21  22
ENDBRANCH   1  21
TORSDOF 11
ENDMDL
MODEL 2
REMARK VINA RESULT:     -12.2      3.400      8.394
REMARK SMILES Cc1cccc(-c2ccc(Cl)c(C(=O)NCCCNC(=O)c3ccc(-c4c5nc(c(-c6ccccc6)c6ccc([nH]6)c(-c6ccccc6)c6nc(c(-c7ccccc7)c7ccc4[nH]7)C=C6)C=C5)cc3)c2)c1
REMARK SMILES IDX 17 1 16 2 15 3 13 4 14 5 12 7 7 8 8 9 70 10 9 11 10 12 11 13
REMARK SMILES IDX 6 14 1 15 2 16 3 17 71 18 4 19 5 20 18 21 19 22 20 23 21 25
REMARK SMILES IDX 22 26 23 27 69 28 24 29 68 30 25 31 26 32 27 33 62 34 28 35
REMARK SMILES IDX 67 36 61 37 63 38 29 39 66 40 60 41 59 42 30 44 52 45 37 46
REMARK SMILES IDX 51 47 38 48 41 49 50 50 64 51 39 52 40 53 49 55 65 56 42 57
REMARK SMILES IDX 31 58 32 59 36 60 33 61 35 62 34 63 53 64 54 65 58 66 55 67
REMARK SMILES IDX 57 68 56 69 43 70 44 71 48 72 45 73 47 74 46 75
REMARK H PARENT 15 6 19 24 63 43 41 54
REMARK Flexibility Score: inf
ROOT
ATOM      1  C   UNL A   1      32.593  30.489  27.306  1.00  0.00     0.042 C 
ENDROOT
BRANCH   1   2
ATOM      2  C   UNL A   1      31.784  30.404  26.031  1.00  0.00     0.118 C 
BRANCH   2   3
ATOM      3  N   UNL A   1      32.565  30.052  24.854  1.00  0.00    -0.352 N 
ATOM      4  C   UNL A   1      32.747  28.835  24.235  1.00  0.00     0.252 C 
ATOM      5  O   UNL A   1      33.464  28.782  23.237  1.00  0.00    -0.269 OA
ATOM      6  H   UNL A   1      33.040  30.805  24.433  1.00  0.00     0.163 HD
BRANCH   4   7
ATOM      7  C   UNL A   1      32.191  27.574  24.792  1.00  0.00     0.059 A 
ATOM      8  C   UNL A   1      32.668  25.464  25.931  1.00  0.00    -0.017 A 
ATOM      9  C   UNL A   1      31.287  25.286  26.112  1.00  0.00     0.010 A 
ATOM     10  C   UNL A   1      33.110  26.666  25.357  1.00  0.00     0.024 A 
ATOM     11  C   UNL A   1      30.380  26.131  25.484  1.00  0.00     0.022 A 
ATOM     12  C   UNL A   1      30.845  27.202  24.723  1.00  0.00     0.053 A 
ATOM     13  Cl  UNL A   1      29.722  27.873  23.585  1.00  0.00    -0.083 Cl
BRANCH   8  14
ATOM     14  C   UNL A   1      33.561  24.309  26.117  1.00  0.00    -0.018 A 
ATOM     15  C   UNL A   1      37.274  23.663  25.457  1.00  0.00     0.044 C 
ATOM     16  C   UNL A   1      35.854  23.446  25.889  1.00  0.00    -0.051 A 
ATOM     17  C   UNL A   1      35.439  22.234  26.438  1.00  0.00     0.003 A 
ATOM     18  C   UNL A   1      34.911  24.464  25.737  1.00  0.00     0.012 A 
ATOM     19  C   UNL A   1      34.109  22.060  26.837  1.00  0.00     0.001 A 
ATOM     20  C   UNL A   1      33.173  23.092  26.682  1.00  0.00     0.009 A 
ENDBRANCH   8  14
ENDBRANCH   4   7
ENDBRANCH   2   3
ENDBRANCH   1   2
BRANCH   1  21
ATOM     21  C   UNL A   1      34.029  30.925  27.080  1.00  0.00     0.118 C 
BRANCH  21  22
ATOM     22  N   UNL A   1      34.592  31.697  28.195  1.00  0.00    -0.352 N 
ATOM     23  C   UNL A   1      35.680  31.412  29.016  1.00  0.00     0.251 C 
ATOM     24  H   UNL A   1      34.132  32.545  28.391  1.00  0.00     0.163 HD
ATOM     25  O   UNL A   1      36.101  32.229  29.806  1.00  0.00    -0.269 OA
BRANCH  23  26
ATOM     26  C   UNL A   1      36.398  30.132  28.805  1.00  0.00     0.039 A 
ATOM     27  C   UNL A   1      36.634  29.327  29.923  1.00  0.00     0.014 A 
ATOM     28  C   UNL A   1      37.107  29.943  27.629  1.00  0.00     0.014 A 
ATOM     29  C   UNL A   1      37.792  28.561  29.959  1.00  0.00     0.010 A 
ATOM     30  C   UNL A   1      38.336  29.329  27.727  1.00  0.00     0.010 A 
ATOM     31  C   UNL A   1      38.707  28.693  28.918  1.00  0.00    -0.014 A 
BRANCH  31  32
ATOM     32  C   UNL A   1      40.104  28.291  29.023  1.00  0.00     0.031 A 
ATOM     33  C   UNL A   1      40.525  26.982  28.488  1.00  0.00     0.074 A 
ATOM     34  C   UNL A   1      41.020  29.146  29.532  1.00  0.00     0.049 A 
ATOM     35  N   UNL A   1      41.600  26.362  28.834  1.00  0.00    -0.248 NA
ATOM     36  C   UNL A   1      39.704  26.224  27.549  1.00  0.00     0.031 C 
ATOM     37  C   UNL A   1      42.474  29.050  29.450  1.00  0.00     0.029 A 
ATOM     38  N   UNL A   1      40.794  30.187  30.434  1.00  0.00    -0.354 N 
ATOM     39  C   UNL A   1      41.763  25.306  27.969  1.00  0.00     0.074 A 
ATOM     40  C   UNL A   1      40.516  25.208  27.252  1.00  0.00     0.031 C 
ATOM     41  C   UNL A   1      43.017  29.793  30.430  1.00  0.00     0.029 A 
ATOM     42  C   UNL A   1      41.927  30.265  31.267  1.00  0.00     0.049 A 
ATOM     43  H   UNL A   1      39.994  30.758  30.481  1.00  0.00     0.167 HD
ATOM     44  C   UNL A   1      42.990  24.725  27.852  1.00  0.00     0.031 A 
ATOM     45  C   UNL A   1      41.827  30.037  32.610  1.00  0.00     0.031 A 
ATOM     46  C   UNL A   1      43.921  25.237  28.857  1.00  0.00     0.049 A 
ATOM     47  C   UNL A   1      42.618  28.834  33.081  1.00  0.00     0.074 A 
ATOM     48  C   UNL A   1      44.937  26.179  28.814  1.00  0.00     0.029 A 
ATOM     49  N   UNL A   1      43.657  25.004  30.203  1.00  0.00    -0.354 N 
ATOM     50  N   UNL A   1      43.072  27.904  32.286  1.00  0.00    -0.248 NA
ATOM     51  C   UNL A   1      42.924  28.562  34.484  1.00  0.00     0.031 C 
ATOM     52  C   UNL A   1      45.212  26.584  30.147  1.00  0.00     0.029 A 
ATOM     53  C   UNL A   1      44.394  25.861  30.997  1.00  0.00     0.049 A 
ATOM     54  H   UNL A   1      43.032  24.323  30.542  1.00  0.00     0.167 HD
ATOM     55  C   UNL A   1      43.698  26.935  33.023  1.00  0.00     0.074 A 
ATOM     56  C   UNL A   1      43.588  27.396  34.395  1.00  0.00     0.031 C 
ATOM     57  C   UNL A   1      44.245  25.827  32.446  1.00  0.00     0.031 A 
BRANCH  44  58
ATOM     58  C   UNL A   1      43.413  23.925  26.640  1.00  0.00    -0.014 A 
ATOM     59  C   UNL A   1      43.193  22.535  26.621  1.00  0.00     0.009 A 
ATOM     60  C   UNL A   1      44.100  24.446  25.532  1.00  0.00     0.009 A 
ATOM     61  C   UNL A   1      43.709  21.712  25.609  1.00  0.00     0.001 A 
ATOM     62  C   UNL A   1      44.652  23.630  24.535  1.00  0.00     0.001 A 
ATOM     63  C   UNL A   1      44.465  22.257  24.580  1.00  0.00     0.000 A 
ENDBRANCH  44  58
BRANCH  45  64
ATOM     64  C   UNL A   1      40.527  30.483  33.186  1.00  0.00    -0.014 A 
ATOM     65  C   UNL A   1      40.256  31.867  33.218  1.00  0.00     0.009 A 
ATOM     66  C   UNL A   1      39.455  29.589  33.322  1.00  0.00     0.009 A 
ATOM     67  C   UNL A   1      38.940  32.339  33.246  1.00  0.00     0.001 A 
ATOM     68  C   UNL A   1      38.139  30.069  33.367  1.00  0.00     0.001 A 
ATOM     69  C   UNL A   1      37.881  31.437  33.287  1.00  0.00     0.000 A 
ENDBRANCH  45  64
BRANCH  57  70
ATOM     70  C   UNL A   1      44.751  24.616  33.185  1.00  0.00    -0.014 A 
ATOM     71  C   UNL A   1      46.058  24.484  33.671  1.00  0.00     0.009 A 
ATOM     72  C   UNL A   1      43.829  23.609  33.548  1.00  0.00     0.009 A 
ATOM     73  C   UNL A   1      46.436  23.377  34.445  1.00  0.00     0.001 A 
ATOM     74  C   UNL A   1      44.191  22.528  34.355  1.00  0.00     0.001 A 
ATOM     75  C   UNL A   1      45.501  22.407  34.795  1.00  0.00     0.000 A 
ENDBRANCH  57  70
ENDBRANCH  31  32
ENDBRANCH  23  26
ENDBRANCH  21  22
ENDBRANCH   1  21
TORSDOF 11
ENDMDL
MODEL 3
REMARK VINA RESULT:     -12.2      2.256      3.638
REMARK SMILES Cc1cccc(-c2ccc(Cl)c(C(=O)NCCCNC(=O)c3ccc(-c4c5nc(c(-c6ccccc6)c6ccc([nH]6)c(-c6ccccc6)c6nc(c(-c7ccccc7)c7ccc4[nH]7)C=C6)C=C5)cc3)c2)c1
REMARK SMILES IDX 17 1 16 2 15 3 13 4 14 5 12 7 7 8 8 9 70 10 9 11 10 12 11 13
REMARK SMILES IDX 6 14 1 15 2 16 3 17 71 18 4 19 5 20 18 21 19 22 20 23 21 25
REMARK SMILES IDX 22 26 23 27 69 28 24 29 68 30 25 31 26 32 27 33 62 34 28 35
REMARK SMILES IDX 67 36 61 37 63 38 29 39 66 40 60 41 59 42 30 44 52 45 37 46
REMARK SMILES IDX 51 47 38 48 41 49 50 50 64 51 39 52 40 53 49 55 65 56 42 57
REMARK SMILES IDX 31 58 32 59 36 60 33 61 35 62 34 63 53 64 54 65 58 66 55 67
REMARK SMILES IDX 57 68 56 69 43 70 44 71 48 72 45 73 47 74 46 75
REMARK H PARENT 15 6 19 24 63 43 41 54
REMARK Flexibility Score: inf
ROOT
ATOM      1  C   UNL A   1      37.974  21.087  25.250  1.00  0.00     0.042 C 
ENDROOT
BRANCH   1   2
ATOM      2  C   UNL A   1      36.505  21.076  24.894  1.00  0.00     0.118 C 
BRANCH   2   3
ATOM      3  N   UNL A   1      35.616  20.969  26.042  1.00  0.00    -0.352 N 
ATOM      4  C   UNL A   1      34.473  21.671  26.354  1.00  0.00     0.252 C 
ATOM      5  O   UNL A   1      33.881  21.399  27.398  1.00  0.00    -0.269 OA
ATOM      6  H   UNL A   1      35.874  20.285  26.701  1.00  0.00     0.163 HD
BRANCH   4   7
ATOM      7  C   UNL A   1      33.994  22.810  25.528  1.00  0.00     0.059 A 
ATOM      8  C   UNL A   1      33.532  25.209  25.434  1.00  0.00    -0.017 A 
ATOM      9  C   UNL A   1      33.370  25.092  24.045  1.00  0.00     0.010 A 
ATOM     10  C   UNL A   1      33.944  24.074  26.151  1.00  0.00     0.024 A 
ATOM     11  C   UNL A   1      33.332  23.839  23.443  1.00  0.00     0.022 A 
ATOM     12  C   UNL A   1      33.523  22.695  24.216  1.00  0.00     0.053 A 
ATOM     13  Cl  UNL A   1      32.963  21.206  23.526  1.00  0.00    -0.083 Cl
BRANCH   8  14
ATOM     14  C   UNL A   1      33.036  26.421  26.105  1.00  0.00    -0.018 A 
ATOM     15  C   UNL A   1      34.599  29.778  27.069  1.00  0.00     0.044 C 
ATOM     16  C   UNL A   1      33.585  28.689  26.890  1.00  0.00    -0.051 A 
ATOM     17  C   UNL A   1      32.268  28.843  27.323  1.00  0.00     0.003 A 
ATOM     18  C   UNL A   1      33.949  27.483  26.289  1.00  0.00     0.012 A 
ATOM     19  C   UNL A   1      31.341  27.811  27.141  1.00  0.00     0.001 A 
ATOM     20  C   UNL A   1      31.719  26.607  26.531  1.00  0.00     0.009 A 
ENDBRANCH   8  14
ENDBRANCH   4   7
ENDBRANCH   2   3
ENDBRANCH   1   2
BRANCH   1  21
ATOM     21  C   UNL A   1      38.466  22.439  25.733  1.00  0.00     0.118 C 
BRANCH  21  22
ATOM     22  N   UNL A   1      39.852  22.422  26.218  1.00  0.00    -0.352 N 
ATOM     23  C   UNL A   1      40.587  23.423  26.849  1.00  0.00     0.251 C 
ATOM     24  H   UNL A   1      40.335  21.576  26.077  1.00  0.00     0.163 HD
ATOM     25  O   UNL A   1      41.684  23.197  27.314  1.00  0.00    -0.269 OA
BRANCH  23  26
ATOM     26  C   UNL A   1      39.939  24.739  27.059  1.00  0.00     0.039 A 
ATOM     27  C   UNL A   1      40.442  25.833  26.349  1.00  0.00     0.014 A 
ATOM     28  C   UNL A   1      39.132  24.923  28.171  1.00  0.00     0.014 A 
ATOM     29  C   UNL A   1      40.400  27.088  26.943  1.00  0.00     0.010 A 
ATOM     30  C   UNL A   1      39.242  26.122  28.838  1.00  0.00     0.010 A 
ATOM     31  C   UNL A   1      39.936  27.187  28.251  1.00  0.00    -0.014 A 
BRANCH  31  32
ATOM     32  C   UNL A   1      40.220  28.325  29.118  1.00  0.00     0.031 A 
ATOM     33  C   UNL A   1      39.187  29.360  29.318  1.00  0.00     0.074 A 
ATOM     34  C   UNL A   1      41.389  28.386  29.796  1.00  0.00     0.049 A 
ATOM     35  N   UNL A   1      39.423  30.556  29.734  1.00  0.00    -0.248 NA
ATOM     36  C   UNL A   1      37.784  29.134  28.988  1.00  0.00     0.031 C 
ATOM     37  C   UNL A   1      41.729  29.265  30.911  1.00  0.00     0.029 A 
ATOM     38  N   UNL A   1      42.600  27.788  29.447  1.00  0.00    -0.354 N 
ATOM     39  C   UNL A   1      38.210  31.142  30.010  1.00  0.00     0.074 A 
ATOM     40  C   UNL A   1      37.224  30.256  29.444  1.00  0.00     0.031 C 
ATOM     41  C   UNL A   1      43.066  29.356  31.002  1.00  0.00     0.029 A 
ATOM     42  C   UNL A   1      43.626  28.663  29.854  1.00  0.00     0.049 A 
ATOM     43  H   UNL A   1      42.717  26.919  29.000  1.00  0.00     0.167 HD
ATOM     44  C   UNL A   1      38.170  32.239  30.817  1.00  0.00     0.031 A 
ATOM     45  C   UNL A   1      44.466  29.232  28.940  1.00  0.00     0.031 A 
ATOM     46  C   UNL A   1      39.514  32.734  31.113  1.00  0.00     0.049 A 
ATOM     47  C   UNL A   1      44.365  30.742  28.882  1.00  0.00     0.074 A 
ATOM     48  C   UNL A   1      40.351  32.601  32.209  1.00  0.00     0.029 A 
ATOM     49  N   UNL A   1      40.302  33.214  30.072  1.00  0.00    -0.354 N 
ATOM     50  N   UNL A   1      43.370  31.425  29.378  1.00  0.00    -0.248 NA
ATOM     51  C   UNL A   1      45.352  31.597  28.226  1.00  0.00     0.031 C 
ATOM     52  C   UNL A   1      41.672  32.910  31.788  1.00  0.00     0.029 A 
ATOM     53  C   UNL A   1      41.628  33.268  30.452  1.00  0.00     0.049 A 
ATOM     54  H   UNL A   1      39.960  33.478  29.186  1.00  0.00     0.167 HD
ATOM     55  C   UNL A   1      43.552  32.757  29.119  1.00  0.00     0.074 A 
ATOM     56  C   UNL A   1      44.813  32.817  28.403  1.00  0.00     0.031 C 
ATOM     57  C   UNL A   1      42.645  33.701  29.504  1.00  0.00     0.031 A 
BRANCH  44  58
ATOM     58  C   UNL A   1      36.929  32.667  31.568  1.00  0.00    -0.014 A 
ATOM     59  C   UNL A   1      36.005  33.524  30.943  1.00  0.00     0.009 A 
ATOM     60  C   UNL A   1      36.646  32.340  32.904  1.00  0.00     0.009 A 
ATOM     61  C   UNL A   1      34.926  34.092  31.636  1.00  0.00     0.001 A 
ATOM     62  C   UNL A   1      35.593  32.930  33.618  1.00  0.00     0.001 A 
ATOM     63  C   UNL A   1      34.736  33.817  32.984  1.00  0.00     0.000 A 
ENDBRANCH  44  58
BRANCH  45  64
ATOM     64  C   UNL A   1      44.748  28.350  27.773  1.00  0.00    -0.014 A 
ATOM     65  C   UNL A   1      45.395  27.120  28.013  1.00  0.00     0.009 A 
ATOM     66  C   UNL A   1      44.066  28.519  26.560  1.00  0.00     0.009 A 
ATOM     67  C   UNL A   1      45.247  26.047  27.129  1.00  0.00     0.001 A 
ATOM     68  C   UNL A   1      43.934  27.445  25.669  1.00  0.00     0.001 A 
ATOM     69  C   UNL A   1      44.488  26.202  25.973  1.00  0.00     0.000 A 
ENDBRANCH  45  64
BRANCH  57  70
ATOM     70  C   UNL A   1      42.651  35.145  29.074  1.00  0.00    -0.014 A 
ATOM     71  C   UNL A   1      43.331  36.162  29.756  1.00  0.00     0.009 A 
ATOM     72  C   UNL A   1      42.065  35.486  27.835  1.00  0.00     0.009 A 
ATOM     73  C   UNL A   1      43.385  37.466  29.244  1.00  0.00     0.001 A 
ATOM     74  C   UNL A   1      42.154  36.773  27.302  1.00  0.00     0.001 A 
ATOM     75  C   UNL A   1      42.807  37.769  28.015  1.00  0.00     0.000 A 
ENDBRANCH  57  70
ENDBRANCH  31  32
ENDBRANCH  23  26
ENDBRANCH  21  22
ENDBRANCH   1  21
TORSDOF 11
ENDMDL
