MODEL 1
REMARK VINA RESULT:     -10.8      0.000      0.000
REMARK SMILES COc1ccccc1Nc1snc(C)c1C(=O)NCCCNC(=O)c1ccc(-c2c3nc(c(-c4ccccc4)c4ccc([nH]4)c(-c4ccccc4)c4nc(c(-c5ccccc5)c5ccc2[nH]5)C=C4)C=C3)cc1
REMARK SMILES IDX 19 1 18 2 16 3 17 4 15 6 10 7 11 8 12 9 13 10 14 11 9 12
REMARK SMILES IDX 8 14 3 15 4 16 5 17 7 18 6 19 2 20 1 21 20 22 21 23 22 24
REMARK SMILES IDX 23 25 24 27 25 28 26 29 72 30 27 31 71 32 28 33 29 34 30 35
REMARK SMILES IDX 65 36 31 37 70 38 64 39 66 40 32 41 69 42 63 43 62 44 33 46
REMARK SMILES IDX 55 47 40 48 54 49 41 50 44 51 53 52 67 53 42 54 43 55 52 57
REMARK SMILES IDX 68 58 45 59 34 60 35 61 39 62 36 63 38 64 37 65 56 66 57 67
REMARK SMILES IDX 61 68 58 69 60 70 59 71 46 72 47 73 51 74 48 75 50 76 49 77
REMARK H PARENT 18 5 9 13 22 26 66 45 44 56
REMARK Flexibility Score: inf
ROOT
ATOM      1  C   UNL A   1      32.955  29.152  25.418  1.00  0.00     0.118 C 
ENDROOT
BRANCH   1   2
ATOM      2  N   UNL A   1      32.108  28.055  25.813  1.00  0.00    -0.352 N 
ATOM      3  C   UNL A   1      32.152  26.757  25.336  1.00  0.00     0.256 C 
ATOM      4  O   UNL A   1      31.739  25.882  26.100  1.00  0.00    -0.269 OA
ATOM      5  H   UNL A   1      31.425  28.250  26.495  1.00  0.00     0.163 HD
BRANCH   3   6
ATOM      6  C   UNL A   1      32.484  26.442  23.940  1.00  0.00     0.097 A 
ATOM      7  C   UNL A   1      31.919  26.880  22.734  1.00  0.00     0.127 A 
ATOM      8  S   UNL A   1      32.630  25.949  21.458  1.00  0.00    -0.018 S 
ATOM      9  N   UNL A   1      33.777  25.213  22.364  1.00  0.00    -0.195 NA
ATOM     10  C   UNL A   1      33.618  25.566  23.637  1.00  0.00     0.066 A 
ATOM     11  C   UNL A   1      34.611  25.012  24.607  1.00  0.00     0.069 C 
BRANCH   7  12
ATOM     12  N   UNL A   1      30.958  27.771  22.365  1.00  0.00    -0.342 N 
ATOM     13  H   UNL A   1      31.224  28.380  21.638  1.00  0.00     0.168 HD
BRANCH  12  14
ATOM     14  C   UNL A   1      29.648  27.971  22.844  1.00  0.00     0.082 A 
ATOM     15  C   UNL A   1      28.983  29.174  22.506  1.00  0.00     0.142 A 
ATOM     16  C   UNL A   1      27.634  29.360  22.813  1.00  0.00     0.048 A 
ATOM     17  C   UNL A   1      26.932  28.345  23.466  1.00  0.00     0.004 A 
ATOM     18  C   UNL A   1      28.931  26.979  23.518  1.00  0.00     0.030 A 
ATOM     19  C   UNL A   1      27.583  27.167  23.833  1.00  0.00     0.002 A 
BRANCH  15  20
ATOM     20  O   UNL A   1      29.715  30.196  21.947  1.00  0.00    -0.495 OA
ATOM     21  C   UNL A   1      28.920  31.142  21.234  1.00  0.00     0.278 C 
ENDBRANCH  15  20
ENDBRANCH  12  14
ENDBRANCH   7  12
ENDBRANCH   3   6
ENDBRANCH   1   2
BRANCH   1  22
ATOM     22  C   UNL A   1      33.972  29.678  26.413  1.00  0.00     0.042 C 
BRANCH  22  23
ATOM     23  C   UNL A   1      33.342  30.472  27.546  1.00  0.00     0.118 C 
BRANCH  23  24
ATOM     24  N   UNL A   1      32.565  31.659  27.152  1.00  0.00    -0.352 N 
ATOM     25  C   UNL A   1      32.697  32.968  27.611  1.00  0.00     0.251 C 
ATOM     26  H   UNL A   1      31.862  31.509  26.479  1.00  0.00     0.163 HD
ATOM     27  O   UNL A   1      31.884  33.830  27.370  1.00  0.00    -0.269 OA
BRANCH  25  28
ATOM     28  C   UNL A   1      33.917  33.250  28.392  1.00  0.00     0.039 A 
ATOM     29  C   UNL A   1      34.122  32.673  29.644  1.00  0.00     0.014 A 
ATOM     30  C   UNL A   1      34.959  33.786  27.659  1.00  0.00     0.014 A 
ATOM     31  C   UNL A   1      35.437  32.462  30.065  1.00  0.00     0.010 A 
ATOM     32  C   UNL A   1      36.226  33.360  27.974  1.00  0.00     0.010 A 
ATOM     33  C   UNL A   1      36.501  32.719  29.183  1.00  0.00    -0.014 A 
BRANCH  33  34
ATOM     34  C   UNL A   1      37.860  32.227  29.460  1.00  0.00     0.031 A 
ATOM     35  C   UNL A   1      38.151  30.780  29.190  1.00  0.00     0.074 A 
ATOM     36  C   UNL A   1      38.913  33.013  29.779  1.00  0.00     0.049 A 
ATOM     37  N   UNL A   1      38.439  29.864  30.059  1.00  0.00    -0.248 NA
ATOM     38  C   UNL A   1      38.092  30.281  27.807  1.00  0.00     0.031 C 
ATOM     39  C   UNL A   1      39.014  34.478  29.850  1.00  0.00     0.029 A 
ATOM     40  N   UNL A   1      40.192  32.622  30.037  1.00  0.00    -0.354 N 
ATOM     41  C   UNL A   1      38.724  28.700  29.346  1.00  0.00     0.074 A 
ATOM     42  C   UNL A   1      38.413  28.992  27.967  1.00  0.00     0.031 C 
ATOM     43  C   UNL A   1      40.310  34.851  29.873  1.00  0.00     0.029 A 
ATOM     44  C   UNL A   1      41.106  33.660  30.073  1.00  0.00     0.049 A 
ATOM     45  H   UNL A   1      40.445  31.682  30.186  1.00  0.00     0.167 HD
ATOM     46  C   UNL A   1      39.325  27.618  29.922  1.00  0.00     0.031 A 
ATOM     47  C   UNL A   1      42.429  33.586  30.318  1.00  0.00     0.031 A 
ATOM     48  C   UNL A   1      39.337  27.710  31.358  1.00  0.00     0.049 A 
ATOM     49  C   UNL A   1      42.666  32.338  31.067  1.00  0.00     0.074 A 
ATOM     50  C   UNL A   1      38.372  27.750  32.343  1.00  0.00     0.029 A 
ATOM     51  N   UNL A   1      40.494  28.148  31.955  1.00  0.00    -0.354 N 
ATOM     52  N   UNL A   1      42.216  32.132  32.273  1.00  0.00    -0.248 NA
ATOM     53  C   UNL A   1      43.067  31.147  30.340  1.00  0.00     0.031 C 
ATOM     54  C   UNL A   1      38.874  28.677  33.307  1.00  0.00     0.029 A 
ATOM     55  C   UNL A   1      40.132  29.103  32.871  1.00  0.00     0.049 A 
ATOM     56  H   UNL A   1      41.408  27.837  31.763  1.00  0.00     0.167 HD
ATOM     57  C   UNL A   1      41.877  30.788  32.302  1.00  0.00     0.074 A 
ATOM     58  C   UNL A   1      42.548  30.212  31.139  1.00  0.00     0.031 C 
ATOM     59  C   UNL A   1      40.872  30.326  33.107  1.00  0.00     0.031 A 
BRANCH  46  60
ATOM     60  C   UNL A   1      40.158  26.593  29.195  1.00  0.00    -0.014 A 
ATOM     61  C   UNL A   1      41.520  26.860  28.946  1.00  0.00     0.009 A 
ATOM     62  C   UNL A   1      39.602  25.486  28.530  1.00  0.00     0.009 A 
ATOM     63  C   UNL A   1      42.270  26.083  28.051  1.00  0.00     0.001 A 
ATOM     64  C   UNL A   1      40.359  24.685  27.666  1.00  0.00     0.001 A 
ATOM     65  C   UNL A   1      41.687  24.996  27.410  1.00  0.00     0.000 A 
ENDBRANCH  46  60
BRANCH  47  66
ATOM     66  C   UNL A   1      43.494  34.452  29.794  1.00  0.00    -0.014 A 
ATOM     67  C   UNL A   1      43.926  34.350  28.467  1.00  0.00     0.009 A 
ATOM     68  C   UNL A   1      43.917  35.564  30.549  1.00  0.00     0.009 A 
ATOM     69  C   UNL A   1      44.719  35.354  27.899  1.00  0.00     0.001 A 
ATOM     70  C   UNL A   1      44.707  36.566  29.983  1.00  0.00     0.001 A 
ATOM     71  C   UNL A   1      45.094  36.468  28.651  1.00  0.00     0.000 A 
ENDBRANCH  47  66
BRANCH  59  72
ATOM     72  C   UNL A   1      40.291  31.280  34.129  1.00  0.00    -0.014 A 
ATOM     73  C   UNL A   1      40.744  31.338  35.460  1.00  0.00     0.009 A 
ATOM     74  C   UNL A   1      39.372  32.250  33.705  1.00  0.00     0.009 A 
ATOM     75  C   UNL A   1      40.267  32.310  36.346  1.00  0.00     0.001 A 
ATOM     76  C   UNL A   1      38.909  33.236  34.584  1.00  0.00     0.001 A 
ATOM     77  C   UNL A   1      39.352  33.262  35.906  1.00  0.00     0.000 A 
ENDBRANCH  59  72
ENDBRANCH  33  34
ENDBRANCH  25  28
ENDBRANCH  23  24
ENDBRANCH  22  23
ENDBRANCH   1  22
TORSDOF 13
ENDMDL
MODEL 2
REMARK VINA RESULT:     -10.8      2.878      7.014
REMARK SMILES COc1ccccc1Nc1snc(C)c1C(=O)NCCCNC(=O)c1ccc(-c2c3nc(c(-c4ccccc4)c4ccc([nH]4)c(-c4ccccc4)c4nc(c(-c5ccccc5)c5ccc2[nH]5)C=C4)C=C3)cc1
REMARK SMILES IDX 19 1 18 2 16 3 17 4 15 6 10 7 11 8 12 9 13 10 14 11 9 12
REMARK SMILES IDX 8 14 3 15 4 16 5 17 7 18 6 19 2 20 1 21 20 22 21 23 22 24
REMARK SMILES IDX 23 25 24 27 25 28 26 29 72 30 27 31 71 32 28 33 29 34 30 35
REMARK SMILES IDX 65 36 31 37 70 38 64 39 66 40 32 41 69 42 63 43 62 44 33 46
REMARK SMILES IDX 55 47 40 48 54 49 41 50 44 51 53 52 67 53 42 54 43 55 52 57
REMARK SMILES IDX 68 58 45 59 34 60 35 61 39 62 36 63 38 64 37 65 56 66 57 67
REMARK SMILES IDX 61 68 58 69 60 70 59 71 46 72 47 73 51 74 48 75 50 76 49 77
REMARK H PARENT 18 5 9 13 22 26 66 45 44 56
REMARK Flexibility Score: inf
ROOT
ATOM      1  C   UNL A   1      37.113  23.103  24.998  1.00  0.00     0.118 C 
ENDROOT
BRANCH   1   2
ATOM      2  N   UNL A   1      36.162  23.420  26.032  1.00  0.00    -0.352 N 
ATOM      3  C   UNL A   1      34.840  23.016  26.098  1.00  0.00     0.256 C 
ATOM      4  O   UNL A   1      34.349  22.941  27.226  1.00  0.00    -0.269 OA
ATOM      5  H   UNL A   1      36.486  23.983  26.772  1.00  0.00     0.163 HD
BRANCH   3   6
ATOM      6  C   UNL A   1      34.001  22.869  24.900  1.00  0.00     0.097 A 
ATOM      7  C   UNL A   1      33.498  23.821  24.002  1.00  0.00     0.127 A 
ATOM      8  S   UNL A   1      32.393  23.006  22.946  1.00  0.00    -0.018 S 
ATOM      9  N   UNL A   1      32.733  21.483  23.439  1.00  0.00    -0.195 NA
ATOM     10  C   UNL A   1      33.603  21.536  24.444  1.00  0.00     0.066 A 
ATOM     11  C   UNL A   1      34.058  20.223  24.997  1.00  0.00     0.069 C 
BRANCH   7  12
ATOM     12  N   UNL A   1      33.626  25.164  23.819  1.00  0.00    -0.342 N 
ATOM     13  H   UNL A   1      34.097  25.421  22.994  1.00  0.00     0.168 HD
BRANCH  12  14
ATOM     14  C   UNL A   1      33.198  26.251  24.608  1.00  0.00     0.082 A 
ATOM     15  C   UNL A   1      31.970  26.876  24.286  1.00  0.00     0.142 A 
ATOM     16  C   UNL A   1      31.417  27.847  25.122  1.00  0.00     0.048 A 
ATOM     17  C   UNL A   1      32.088  28.209  26.291  1.00  0.00     0.004 A 
ATOM     18  C   UNL A   1      33.863  26.647  25.772  1.00  0.00     0.030 A 
ATOM     19  C   UNL A   1      33.316  27.625  26.605  1.00  0.00     0.002 A 
BRANCH  15  20
ATOM     20  O   UNL A   1      31.372  26.572  23.085  1.00  0.00    -0.495 OA
ATOM     21  C   UNL A   1      30.279  27.429  22.759  1.00  0.00     0.278 C 
ENDBRANCH  15  20
ENDBRANCH  12  14
ENDBRANCH   7  12
ENDBRANCH   3   6
ENDBRANCH   1   2
BRANCH   1  22
ATOM     22  C   UNL A   1      37.876  21.795  25.089  1.00  0.00     0.042 C 
BRANCH  22  23
ATOM     23  C   UNL A   1      38.920  21.789  26.194  1.00  0.00     0.118 C 
BRANCH  23  24
ATOM     24  N   UNL A   1      40.323  21.893  25.761  1.00  0.00    -0.352 N 
ATOM     25  C   UNL A   1      41.269  22.851  26.121  1.00  0.00     0.251 C 
ATOM     26  H   UNL A   1      40.633  21.197  25.137  1.00  0.00     0.163 HD
ATOM     27  O   UNL A   1      42.335  22.960  25.561  1.00  0.00    -0.269 OA
BRANCH  25  28
ATOM     28  C   UNL A   1      40.900  23.714  27.260  1.00  0.00     0.039 A 
ATOM     29  C   UNL A   1      41.827  24.047  28.245  1.00  0.00     0.014 A 
ATOM     30  C   UNL A   1      39.741  24.446  27.075  1.00  0.00     0.014 A 
ATOM     31  C   UNL A   1      41.668  25.259  28.918  1.00  0.00     0.010 A 
ATOM     32  C   UNL A   1      39.730  25.728  27.567  1.00  0.00     0.010 A 
ATOM     33  C   UNL A   1      40.664  26.156  28.512  1.00  0.00    -0.014 A 
BRANCH  33  34
ATOM     34  C   UNL A   1      40.654  27.554  28.973  1.00  0.00     0.031 A 
ATOM     35  C   UNL A   1      41.603  28.515  28.320  1.00  0.00     0.074 A 
ATOM     36  C   UNL A   1      39.741  28.077  29.822  1.00  0.00     0.049 A 
ATOM     37  N   UNL A   1      42.610  29.116  28.869  1.00  0.00    -0.248 NA
ATOM     38  C   UNL A   1      41.438  28.830  26.892  1.00  0.00     0.031 C 
ATOM     39  C   UNL A   1      38.539  27.471  30.412  1.00  0.00     0.029 A 
ATOM     40  N   UNL A   1      39.671  29.359  30.277  1.00  0.00    -0.354 N 
ATOM     41  C   UNL A   1      43.140  29.981  27.912  1.00  0.00     0.074 A 
ATOM     42  C   UNL A   1      42.431  29.702  26.686  1.00  0.00     0.031 C 
ATOM     43  C   UNL A   1      37.741  28.430  30.921  1.00  0.00     0.029 A 
ATOM     44  C   UNL A   1      38.486  29.669  30.918  1.00  0.00     0.049 A 
ATOM     45  H   UNL A   1      40.402  30.009  30.162  1.00  0.00     0.167 HD
ATOM     46  C   UNL A   1      44.034  30.963  28.229  1.00  0.00     0.031 A 
ATOM     47  C   UNL A   1      38.135  30.842  31.483  1.00  0.00     0.031 A 
ATOM     48  C   UNL A   1      44.573  30.794  29.553  1.00  0.00     0.049 A 
ATOM     49  C   UNL A   1      39.382  31.566  31.798  1.00  0.00     0.074 A 
ATOM     50  C   UNL A   1      45.340  29.834  30.181  1.00  0.00     0.029 A 
ATOM     51  N   UNL A   1      44.022  31.546  30.561  1.00  0.00    -0.354 N 
ATOM     52  N   UNL A   1      40.243  31.153  32.684  1.00  0.00    -0.248 NA
ATOM     53  C   UNL A   1      39.882  32.546  30.852  1.00  0.00     0.031 C 
ATOM     54  C   UNL A   1      44.803  29.747  31.502  1.00  0.00     0.029 A 
ATOM     55  C   UNL A   1      43.779  30.692  31.608  1.00  0.00     0.049 A 
ATOM     56  H   UNL A   1      43.836  32.513  30.539  1.00  0.00     0.167 HD
ATOM     57  C   UNL A   1      41.482  31.485  32.158  1.00  0.00     0.074 A 
ATOM     58  C   UNL A   1      41.189  32.455  31.106  1.00  0.00     0.031 C 
ATOM     59  C   UNL A   1      42.596  30.744  32.442  1.00  0.00     0.031 A 
BRANCH  46  60
ATOM     60  C   UNL A   1      44.232  32.245  27.461  1.00  0.00    -0.014 A 
ATOM     61  C   UNL A   1      43.759  33.456  28.005  1.00  0.00     0.009 A 
ATOM     62  C   UNL A   1      44.642  32.277  26.116  1.00  0.00     0.009 A 
ATOM     63  C   UNL A   1      43.668  34.623  27.233  1.00  0.00     0.001 A 
ATOM     64  C   UNL A   1      44.589  33.450  25.353  1.00  0.00     0.001 A 
ATOM     65  C   UNL A   1      44.082  34.618  25.906  1.00  0.00     0.000 A 
ENDBRANCH  46  60
BRANCH  47  66
ATOM     66  C   UNL A   1      36.790  31.418  31.606  1.00  0.00    -0.014 A 
ATOM     67  C   UNL A   1      36.316  31.900  32.831  1.00  0.00     0.009 A 
ATOM     68  C   UNL A   1      36.057  31.722  30.442  1.00  0.00     0.009 A 
ATOM     69  C   UNL A   1      35.168  32.701  32.883  1.00  0.00     0.001 A 
ATOM     70  C   UNL A   1      34.913  32.521  30.494  1.00  0.00     0.001 A 
ATOM     71  C   UNL A   1      34.478  33.024  31.715  1.00  0.00     0.000 A 
ENDBRANCH  47  66
BRANCH  59  72
ATOM     72  C   UNL A   1      42.486  29.688  33.522  1.00  0.00    -0.014 A 
ATOM     73  C   UNL A   1      42.796  29.943  34.871  1.00  0.00     0.009 A 
ATOM     74  C   UNL A   1      41.909  28.450  33.204  1.00  0.00     0.009 A 
ATOM     75  C   UNL A   1      42.571  28.980  35.860  1.00  0.00     0.001 A 
ATOM     76  C   UNL A   1      41.664  27.493  34.196  1.00  0.00     0.001 A 
ATOM     77  C   UNL A   1      42.001  27.756  35.522  1.00  0.00     0.000 A 
ENDBRANCH  59  72
ENDBRANCH  33  34
ENDBRANCH  25  28
ENDBRANCH  23  24
ENDBRANCH  22  23
ENDBRANCH   1  22
TORSDOF 13
ENDMDL
MODEL 3
REMARK VINA RESULT:     -10.7      2.825      7.030
REMARK SMILES COc1ccccc1Nc1snc(C)c1C(=O)NCCCNC(=O)c1ccc(-c2c3nc(c(-c4ccccc4)c4ccc([nH]4)c(-c4ccccc4)c4nc(c(-c5ccccc5)c5ccc2[nH]5)C=C4)C=C3)cc1
REMARK SMILES IDX 19 1 18 2 16 3 17 4 15 6 10 7 11 8 12 9 13 10 14 11 9 12
REMARK SMILES IDX 8 14 3 15 4 16 5 17 7 18 6 19 2 20 1 21 20 22 21 23 22 24
REMARK SMILES IDX 23 25 24 27 25 28 26 29 72 30 27 31 71 32 28 33 29 34 30 35
REMARK SMILES IDX 65 36 31 37 70 38 64 39 66 40 32 41 69 42 63 43 62 44 33 46
REMARK SMILES IDX 55 47 40 48 54 49 41 50 44 51 53 52 67 53 42 54 43 55 52 57
REMARK SMILES IDX 68 58 45 59 34 60 35 61 39 62 36 63 38 64 37 65 56 66 57 67
REMARK SMILES IDX 61 68 58 69 60 70 59 71 46 72 47 73 51 74 48 75 50 76 49 77
REMARK H PARENT 18 5 9 13 22 26 66 45 44 56
REMARK Flexibility Score: inf
ROOT
ATOM      1  C   UNL A   1      32.527  28.644  27.306  1.00  0.00     0.118 C 
ENDROOT
BRANCH   1   2
ATOM      2  N   UNL A   1      31.321  27.872  27.141  1.00  0.00    -0.352 N 
ATOM      3  C   UNL A   1      31.167  26.720  26.390  1.00  0.00     0.256 C 
ATOM      4  O   UNL A   1      30.274  25.950  26.751  1.00  0.00    -0.269 OA
ATOM      5  H   UNL A   1      30.521  28.199  27.612  1.00  0.00     0.163 HD
BRANCH   3   6
ATOM      6  C   UNL A   1      31.883  26.503  25.126  1.00  0.00     0.097 A 
ATOM      7  C   UNL A   1      33.080  25.829  24.846  1.00  0.00     0.127 A 
ATOM      8  S   UNL A   1      33.480  26.144  23.190  1.00  0.00    -0.018 S 
ATOM      9  N   UNL A   1      32.077  26.883  22.785  1.00  0.00    -0.195 NA
ATOM     10  C   UNL A   1      31.313  26.990  23.868  1.00  0.00     0.066 A 
ATOM     11  C   UNL A   1      29.967  27.610  23.671  1.00  0.00     0.069 C 
BRANCH   7  12
ATOM     12  N   UNL A   1      33.975  25.080  25.549  1.00  0.00    -0.342 N 
ATOM     13  H   UNL A   1      34.382  25.544  26.315  1.00  0.00     0.168 HD
BRANCH  12  14
ATOM     14  C   UNL A   1      34.417  23.754  25.367  1.00  0.00     0.082 A 
ATOM     15  C   UNL A   1      33.524  22.698  25.665  1.00  0.00     0.142 A 
ATOM     16  C   UNL A   1      33.845  21.376  25.354  1.00  0.00     0.048 A 
ATOM     17  C   UNL A   1      35.068  21.092  24.744  1.00  0.00     0.004 A 
ATOM     18  C   UNL A   1      35.646  23.443  24.777  1.00  0.00     0.030 A 
ATOM     19  C   UNL A   1      35.972  22.119  24.474  1.00  0.00     0.002 A 
BRANCH  15  20
ATOM     20  O   UNL A   1      32.366  22.989  26.349  1.00  0.00    -0.495 OA
ATOM     21  C   UNL A   1      31.192  22.459  25.735  1.00  0.00     0.278 C 
ENDBRANCH  15  20
ENDBRANCH  12  14
ENDBRANCH   7  12
ENDBRANCH   3   6
ENDBRANCH   1   2
BRANCH   1  22
ATOM     22  C   UNL A   1      32.480  30.132  27.018  1.00  0.00     0.042 C 
BRANCH  22  23
ATOM     23  C   UNL A   1      33.811  30.827  27.253  1.00  0.00     0.118 C 
BRANCH  23  24
ATOM     24  N   UNL A   1      33.925  31.608  28.496  1.00  0.00    -0.352 N 
ATOM     25  C   UNL A   1      35.025  31.726  29.344  1.00  0.00     0.251 C 
ATOM     26  H   UNL A   1      33.121  32.112  28.763  1.00  0.00     0.163 HD
ATOM     27  O   UNL A   1      34.954  32.235  30.439  1.00  0.00    -0.269 OA
BRANCH  25  28
ATOM     28  C   UNL A   1      36.301  31.214  28.808  1.00  0.00     0.039 A 
ATOM     29  C   UNL A   1      37.506  31.860  29.072  1.00  0.00     0.014 A 
ATOM     30  C   UNL A   1      36.259  29.900  28.378  1.00  0.00     0.014 A 
ATOM     31  C   UNL A   1      38.675  31.095  29.090  1.00  0.00     0.010 A 
ATOM     32  C   UNL A   1      37.365  29.127  28.632  1.00  0.00     0.010 A 
ATOM     33  C   UNL A   1      38.595  29.697  28.963  1.00  0.00    -0.014 A 
BRANCH  33  34
ATOM     34  C   UNL A   1      39.742  28.833  29.283  1.00  0.00     0.031 A 
ATOM     35  C   UNL A   1      40.056  28.590  30.730  1.00  0.00     0.074 A 
ATOM     36  C   UNL A   1      40.433  28.106  28.376  1.00  0.00     0.049 A 
ATOM     37  N   UNL A   1      41.109  28.975  31.378  1.00  0.00    -0.248 NA
ATOM     38  C   UNL A   1      39.087  27.862  31.563  1.00  0.00     0.031 C 
ATOM     39  C   UNL A   1      40.200  27.916  26.938  1.00  0.00     0.029 A 
ATOM     40  N   UNL A   1      41.494  27.283  28.609  1.00  0.00    -0.354 N 
ATOM     41  C   UNL A   1      41.014  28.444  32.663  1.00  0.00     0.074 A 
ATOM     42  C   UNL A   1      39.708  27.837  32.747  1.00  0.00     0.031 C 
ATOM     43  C   UNL A   1      40.911  26.861  26.490  1.00  0.00     0.029 A 
ATOM     44  C   UNL A   1      41.826  26.471  27.540  1.00  0.00     0.049 A 
ATOM     45  H   UNL A   1      41.983  27.268  29.463  1.00  0.00     0.167 HD
ATOM     46  C   UNL A   1      42.073  28.422  33.525  1.00  0.00     0.031 A 
ATOM     47  C   UNL A   1      42.829  25.572  27.466  1.00  0.00     0.031 A 
ATOM     48  C   UNL A   1      43.152  29.261  33.075  1.00  0.00     0.049 A 
ATOM     49  C   UNL A   1      43.839  25.961  28.468  1.00  0.00     0.074 A 
ATOM     50  C   UNL A   1      43.310  30.613  32.849  1.00  0.00     0.029 A 
ATOM     51  N   UNL A   1      44.200  28.652  32.429  1.00  0.00    -0.354 N 
ATOM     52  N   UNL A   1      44.534  27.061  28.392  1.00  0.00    -0.248 NA
ATOM     53  C   UNL A   1      43.810  25.332  29.775  1.00  0.00     0.031 C 
ATOM     54  C   UNL A   1      44.126  30.693  31.680  1.00  0.00     0.029 A 
ATOM     55  C   UNL A   1      44.452  29.388  31.299  1.00  0.00     0.049 A 
ATOM     56  H   UNL A   1      44.679  27.843  32.720  1.00  0.00     0.167 HD
ATOM     57  C   UNL A   1      44.671  27.487  29.704  1.00  0.00     0.074 A 
ATOM     58  C   UNL A   1      44.327  26.318  30.510  1.00  0.00     0.031 C 
ATOM     59  C   UNL A   1      44.788  28.815  30.012  1.00  0.00     0.031 A 
BRANCH  46  60
ATOM     60  C   UNL A   1      42.266  27.431  34.645  1.00  0.00    -0.014 A 
ATOM     61  C   UNL A   1      42.760  26.143  34.352  1.00  0.00     0.009 A 
ATOM     62  C   UNL A   1      41.751  27.627  35.939  1.00  0.00     0.009 A 
ATOM     63  C   UNL A   1      42.705  25.103  35.291  1.00  0.00     0.001 A 
ATOM     64  C   UNL A   1      41.730  26.601  36.892  1.00  0.00     0.001 A 
ATOM     65  C   UNL A   1      42.189  25.333  36.560  1.00  0.00     0.000 A 
ENDBRANCH  46  60
BRANCH  47  66
ATOM     66  C   UNL A   1      42.866  24.323  26.693  1.00  0.00    -0.014 A 
ATOM     67  C   UNL A   1      43.676  24.196  25.559  1.00  0.00     0.009 A 
ATOM     68  C   UNL A   1      42.281  23.159  27.229  1.00  0.00     0.009 A 
ATOM     69  C   UNL A   1      43.929  22.936  25.005  1.00  0.00     0.001 A 
ATOM     70  C   UNL A   1      42.534  21.902  26.677  1.00  0.00     0.001 A 
ATOM     71  C   UNL A   1      43.373  21.790  25.573  1.00  0.00     0.000 A 
ENDBRANCH  47  66
BRANCH  59  72
ATOM     72  C   UNL A   1      44.988  29.789  28.870  1.00  0.00    -0.014 A 
ATOM     73  C   UNL A   1      43.920  30.309  28.116  1.00  0.00     0.009 A 
ATOM     74  C   UNL A   1      46.268  30.317  28.646  1.00  0.00     0.009 A 
ATOM     75  C   UNL A   1      44.130  31.295  27.147  1.00  0.00     0.001 A 
ATOM     76  C   UNL A   1      46.477  31.318  27.691  1.00  0.00     0.001 A 
ATOM     77  C   UNL A   1      45.409  31.803  26.938  1.00  0.00     0.000 A 
ENDBRANCH  59  72
ENDBRANCH  33  34
ENDBRANCH  25  28
ENDBRANCH  23  24
ENDBRANCH  22  23
ENDBRANCH   1  22
TORSDOF 13
ENDMDL
