MODEL 1
REMARK VINA RESULT:     -11.5      0.000      0.000
REMARK SMILES C[NH+](C)Cc1noc(C[C@@](C)(C(=O)NCCCNC(=O)c2ccc(-c3c4nc(c(-c5ccccc5)c5ccc([nH]5)c(-c5ccccc5)c5nc(c(-c6ccccc6)c6ccc3[nH]6)C=C5)C=C4)cc2)c2ccccc2)n1
REMARK SMILES IDX 15 1 14 2 12 3 13 4 10 6 11 7 9 8 8 9 5 10 6 11 75 12 7 13
REMARK SMILES IDX 4 14 2 15 1 16 3 17 69 19 70 20 74 21 71 22 73 23 72 24
REMARK SMILES IDX 16 25 17 26 18 27 19 28 20 30 21 31 22 32 68 33 23 34 67 35
REMARK SMILES IDX 24 36 25 37 26 38 61 39 27 40 66 41 60 42 62 43 28 44 65 45
REMARK SMILES IDX 59 46 58 47 29 49 51 50 36 51 50 52 37 53 40 54 49 55 63 56
REMARK SMILES IDX 38 57 39 58 48 60 64 61 41 62 30 63 31 64 35 65 32 66 34 67
REMARK SMILES IDX 33 68 52 69 53 70 57 71 54 72 56 73 55 74 42 75 43 76 47 77
REMARK SMILES IDX 44 78 46 79 45 80
REMARK H PARENT 14 5 2 18 18 29 62 48 40 59
REMARK Flexibility Score: inf
ROOT
ATOM      1  C   UNL A   1      36.688  21.323  24.881  1.00  0.00     0.117 C 
ENDROOT
BRANCH   1   2
ATOM      2  N   UNL A   1      35.859  21.407  26.076  1.00  0.00    -0.355 N 
ATOM      3  C   UNL A   1      34.515  21.342  26.315  1.00  0.00     0.230 C 
ATOM      4  O   UNL A   1      34.231  21.344  27.515  1.00  0.00    -0.274 OA
ATOM      5  H   UNL A   1      36.386  21.542  26.897  1.00  0.00     0.163 HD
BRANCH   3   6
ATOM      6  C   UNL A   1      33.458  21.236  25.169  1.00  0.00     0.080 C 
ATOM      7  C   UNL A   1      33.869  22.340  24.157  1.00  0.00     0.027 C 
BRANCH   6   8
ATOM      8  C   UNL A   1      32.064  21.404  25.830  1.00  0.00     0.122 C 
BRANCH   8   9
ATOM      9  C   UNL A   1      31.584  22.797  25.974  1.00  0.00     0.228 A 
ATOM     10  C   UNL A   1      30.733  24.698  25.817  1.00  0.00     0.226 A 
ATOM     11  N   UNL A   1      31.197  24.675  27.076  1.00  0.00    -0.056 NA
ATOM     12  N   UNL A   1      30.962  23.549  25.100  1.00  0.00    -0.190 NA
ATOM     13  O   UNL A   1      31.748  23.396  27.188  1.00  0.00    -0.339 OA
BRANCH  10  14
ATOM     14  C   UNL A   1      29.983  25.858  25.242  1.00  0.00     0.344 C 
BRANCH  14  15
ATOM     15  N   UNL A   1      30.679  26.548  24.131  1.00  0.00    -0.333 N 
ATOM     16  C   UNL A   1      29.916  27.683  23.612  1.00  0.00     0.332 C 
ATOM     17  C   UNL A   1      32.034  26.953  24.500  1.00  0.00     0.332 C 
ATOM     18  H   UNL A   1      30.755  25.864  23.378  1.00  0.00     0.348 HD
ENDBRANCH  14  15
ENDBRANCH  10  14
ENDBRANCH   8   9
ENDBRANCH   6   8
BRANCH   6  19
ATOM     19  C   UNL A   1      33.438  19.869  24.402  1.00  0.00    -0.032 A 
ATOM     20  C   UNL A   1      34.301  18.802  24.697  1.00  0.00     0.005 A 
ATOM     21  C   UNL A   1      32.458  19.628  23.411  1.00  0.00     0.005 A 
ATOM     22  C   UNL A   1      34.236  17.592  23.993  1.00  0.00     0.000 A 
ATOM     23  C   UNL A   1      32.373  18.412  22.728  1.00  0.00     0.000 A 
ATOM     24  C   UNL A   1      33.275  17.398  23.008  1.00  0.00     0.000 A 
ENDBRANCH   6  19
ENDBRANCH   3   6
ENDBRANCH   1   2
BRANCH   1  25
ATOM     25  C   UNL A   1      37.727  20.214  24.975  1.00  0.00     0.042 C 
BRANCH  25  26
ATOM     26  C   UNL A   1      38.961  20.593  25.781  1.00  0.00     0.118 C 
BRANCH  26  27
ATOM     27  N   UNL A   1      39.940  19.515  25.850  1.00  0.00    -0.352 N 
ATOM     28  C   UNL A   1      41.287  19.570  26.110  1.00  0.00     0.251 C 
ATOM     29  H   UNL A   1      39.582  18.613  25.684  1.00  0.00     0.163 HD
ATOM     30  O   UNL A   1      41.993  18.582  25.929  1.00  0.00    -0.269 OA
BRANCH  28  31
ATOM     31  C   UNL A   1      41.889  20.832  26.587  1.00  0.00     0.039 A 
ATOM     32  C   UNL A   1      42.349  21.765  25.656  1.00  0.00     0.014 A 
ATOM     33  C   UNL A   1      41.978  21.096  27.955  1.00  0.00     0.014 A 
ATOM     34  C   UNL A   1      42.823  23.003  26.098  1.00  0.00     0.010 A 
ATOM     35  C   UNL A   1      42.360  22.359  28.387  1.00  0.00     0.010 A 
ATOM     36  C   UNL A   1      42.788  23.326  27.464  1.00  0.00    -0.014 A 
BRANCH  36  37
ATOM     37  C   UNL A   1      43.196  24.660  27.969  1.00  0.00     0.031 A 
ATOM     38  C   UNL A   1      42.150  25.700  28.256  1.00  0.00     0.074 A 
ATOM     39  C   UNL A   1      44.504  24.967  28.073  1.00  0.00     0.049 A 
ATOM     40  N   UNL A   1      42.301  26.961  28.572  1.00  0.00    -0.248 NA
ATOM     41  C   UNL A   1      40.746  25.273  28.141  1.00  0.00     0.031 C 
ATOM     42  C   UNL A   1      45.617  24.055  27.802  1.00  0.00     0.029 A 
ATOM     43  N   UNL A   1      45.118  26.144  28.423  1.00  0.00    -0.354 N 
ATOM     44  C   UNL A   1      41.017  27.481  28.666  1.00  0.00     0.074 A 
ATOM     45  C   UNL A   1      40.101  26.416  28.322  1.00  0.00     0.031 C 
ATOM     46  C   UNL A   1      46.775  24.698  28.023  1.00  0.00     0.029 A 
ATOM     47  C   UNL A   1      46.490  26.079  28.396  1.00  0.00     0.049 A 
ATOM     48  H   UNL A   1      44.621  26.958  28.670  1.00  0.00     0.167 HD
ATOM     49  C   UNL A   1      40.631  28.728  29.023  1.00  0.00     0.031 A 
ATOM     50  C   UNL A   1      47.414  27.030  28.631  1.00  0.00     0.031 A 
ATOM     51  C   UNL A   1      41.544  29.784  29.373  1.00  0.00     0.049 A 
ATOM     52  C   UNL A   1      46.962  28.421  28.983  1.00  0.00     0.074 A 
ATOM     53  C   UNL A   1      41.255  31.066  29.803  1.00  0.00     0.029 A 
ATOM     54  N   UNL A   1      42.925  29.676  29.330  1.00  0.00    -0.354 N 
ATOM     55  N   UNL A   1      45.742  28.882  29.126  1.00  0.00    -0.248 NA
ATOM     56  C   UNL A   1      48.015  29.422  29.207  1.00  0.00     0.031 C 
ATOM     57  C   UNL A   1      42.461  31.754  29.962  1.00  0.00     0.029 A 
ATOM     58  C   UNL A   1      43.503  30.879  29.696  1.00  0.00     0.049 A 
ATOM     59  H   UNL A   1      43.422  28.865  29.076  1.00  0.00     0.167 HD
ATOM     60  C   UNL A   1      45.883  30.214  29.495  1.00  0.00     0.074 A 
ATOM     61  C   UNL A   1      47.304  30.485  29.557  1.00  0.00     0.031 C 
ATOM     62  C   UNL A   1      44.919  31.129  29.763  1.00  0.00     0.031 A 
BRANCH  49  63
ATOM     63  C   UNL A   1      39.156  29.018  29.036  1.00  0.00    -0.014 A 
ATOM     64  C   UNL A   1      38.490  29.475  27.888  1.00  0.00     0.009 A 
ATOM     65  C   UNL A   1      38.416  28.818  30.212  1.00  0.00     0.009 A 
ATOM     66  C   UNL A   1      37.126  29.772  27.929  1.00  0.00     0.001 A 
ATOM     67  C   UNL A   1      37.045  29.082  30.242  1.00  0.00     0.001 A 
ATOM     68  C   UNL A   1      36.404  29.572  29.105  1.00  0.00     0.000 A 
ENDBRANCH  49  63
BRANCH  50  69
ATOM     69  C   UNL A   1      48.862  26.700  28.558  1.00  0.00    -0.014 A 
ATOM     70  C   UNL A   1      49.541  26.773  27.333  1.00  0.00     0.009 A 
ATOM     71  C   UNL A   1      49.571  26.307  29.703  1.00  0.00     0.009 A 
ATOM     72  C   UNL A   1      50.894  26.434  27.251  1.00  0.00     0.001 A 
ATOM     73  C   UNL A   1      50.930  25.997  29.625  1.00  0.00     0.001 A 
ATOM     74  C   UNL A   1      51.588  26.051  28.396  1.00  0.00     0.000 A 
ENDBRANCH  50  69
BRANCH  62  75
ATOM     75  C   UNL A   1      45.364  32.496  30.202  1.00  0.00    -0.014 A 
ATOM     76  C   UNL A   1      45.626  32.784  31.549  1.00  0.00     0.009 A 
ATOM     77  C   UNL A   1      45.594  33.489  29.235  1.00  0.00     0.009 A 
ATOM     78  C   UNL A   1      46.087  34.049  31.922  1.00  0.00     0.001 A 
ATOM     79  C   UNL A   1      46.084  34.740  29.607  1.00  0.00     0.001 A 
ATOM     80  C   UNL A   1      46.323  35.021  30.950  1.00  0.00     0.000 A 
ENDBRANCH  62  75
ENDBRANCH  36  37
ENDBRANCH  28  31
ENDBRANCH  26  27
ENDBRANCH  25  26
ENDBRANCH   1  25
TORSDOF 15
ENDMDL
MODEL 2
REMARK VINA RESULT:     -11.4      0.598      1.002
REMARK SMILES C[NH+](C)Cc1noc(C[C@@](C)(C(=O)NCCCNC(=O)c2ccc(-c3c4nc(c(-c5ccccc5)c5ccc([nH]5)c(-c5ccccc5)c5nc(c(-c6ccccc6)c6ccc3[nH]6)C=C5)C=C4)cc2)c2ccccc2)n1
REMARK SMILES IDX 15 1 14 2 12 3 13 4 10 6 11 7 9 8 8 9 5 10 6 11 75 12 7 13
REMARK SMILES IDX 4 14 2 15 1 16 3 17 69 19 70 20 74 21 71 22 73 23 72 24
REMARK SMILES IDX 16 25 17 26 18 27 19 28 20 30 21 31 22 32 68 33 23 34 67 35
REMARK SMILES IDX 24 36 25 37 26 38 61 39 27 40 66 41 60 42 62 43 28 44 65 45
REMARK SMILES IDX 59 46 58 47 29 49 51 50 36 51 50 52 37 53 40 54 49 55 63 56
REMARK SMILES IDX 38 57 39 58 48 60 64 61 41 62 30 63 31 64 35 65 32 66 34 67
REMARK SMILES IDX 33 68 52 69 53 70 57 71 54 72 56 73 55 74 42 75 43 76 47 77
REMARK SMILES IDX 44 78 46 79 45 80
REMARK H PARENT 14 5 2 18 18 29 62 48 40 59
REMARK Flexibility Score: inf
ROOT
ATOM      1  C   UNL A   1      36.554  21.544  24.907  1.00  0.00     0.117 C 
ENDROOT
BRANCH   1   2
ATOM      2  N   UNL A   1      35.683  21.497  26.075  1.00  0.00    -0.355 N 
ATOM      3  C   UNL A   1      34.343  21.306  26.262  1.00  0.00     0.230 C 
ATOM      4  O   UNL A   1      34.023  21.224  27.450  1.00  0.00    -0.274 OA
ATOM      5  H   UNL A   1      36.170  21.634  26.919  1.00  0.00     0.163 HD
BRANCH   3   6
ATOM      6  C   UNL A   1      33.335  21.171  25.076  1.00  0.00     0.080 C 
ATOM      7  C   UNL A   1      33.817  22.217  24.035  1.00  0.00     0.027 C 
BRANCH   6   8
ATOM      8  C   UNL A   1      31.918  21.399  25.665  1.00  0.00     0.122 C 
BRANCH   8   9
ATOM      9  C   UNL A   1      31.529  22.811  25.875  1.00  0.00     0.228 A 
ATOM     10  C   UNL A   1      30.831  24.778  25.796  1.00  0.00     0.226 A 
ATOM     11  N   UNL A   1      31.190  24.633  27.081  1.00  0.00    -0.056 NA
ATOM     12  N   UNL A   1      31.034  23.666  25.016  1.00  0.00    -0.190 NA
ATOM     13  O   UNL A   1      31.637  23.311  27.139  1.00  0.00    -0.339 OA
BRANCH  10  14
ATOM     14  C   UNL A   1      30.213  26.029  25.254  1.00  0.00     0.344 C 
BRANCH  14  15
ATOM     15  N   UNL A   1      31.147  26.895  24.497  1.00  0.00    -0.333 N 
ATOM     16  C   UNL A   1      30.797  26.990  23.081  1.00  0.00     0.332 C 
ATOM     17  C   UNL A   1      31.273  28.221  25.096  1.00  0.00     0.332 C 
ATOM     18  H   UNL A   1      32.059  26.441  24.554  1.00  0.00     0.348 HD
ENDBRANCH  14  15
ENDBRANCH  10  14
ENDBRANCH   8   9
ENDBRANCH   6   8
BRANCH   6  19
ATOM     19  C   UNL A   1      33.318  19.770  24.372  1.00  0.00    -0.032 A 
ATOM     20  C   UNL A   1      32.409  19.421  23.360  1.00  0.00     0.005 A 
ATOM     21  C   UNL A   1      34.308  18.808  24.684  1.00  0.00     0.005 A 
ATOM     22  C   UNL A   1      32.441  18.160  22.750  1.00  0.00     0.000 A 
ATOM     23  C   UNL A   1      34.360  17.562  24.056  1.00  0.00     0.000 A 
ATOM     24  C   UNL A   1      33.414  17.230  23.098  1.00  0.00     0.000 A 
ENDBRANCH   6  19
ENDBRANCH   3   6
ENDBRANCH   1   2
BRANCH   1  25
ATOM     25  C   UNL A   1      37.624  20.462  24.941  1.00  0.00     0.042 C 
BRANCH  25  26
ATOM     26  C   UNL A   1      38.873  20.856  25.715  1.00  0.00     0.118 C 
BRANCH  26  27
ATOM     27  N   UNL A   1      39.870  19.793  25.752  1.00  0.00    -0.352 N 
ATOM     28  C   UNL A   1      41.208  19.856  26.053  1.00  0.00     0.251 C 
ATOM     29  H   UNL A   1      39.534  18.895  25.527  1.00  0.00     0.163 HD
ATOM     30  O   UNL A   1      41.937  18.893  25.838  1.00  0.00    -0.269 OA
BRANCH  28  31
ATOM     31  C   UNL A   1      41.773  21.099  26.616  1.00  0.00     0.039 A 
ATOM     32  C   UNL A   1      42.264  22.081  25.752  1.00  0.00     0.014 A 
ATOM     33  C   UNL A   1      41.798  21.299  27.998  1.00  0.00     0.014 A 
ATOM     34  C   UNL A   1      42.702  23.301  26.274  1.00  0.00     0.010 A 
ATOM     35  C   UNL A   1      42.145  22.544  28.506  1.00  0.00     0.010 A 
ATOM     36  C   UNL A   1      42.602  23.558  27.650  1.00  0.00    -0.014 A 
BRANCH  36  37
ATOM     37  C   UNL A   1      42.972  24.870  28.235  1.00  0.00     0.031 A 
ATOM     38  C   UNL A   1      41.911  25.912  28.458  1.00  0.00     0.074 A 
ATOM     39  C   UNL A   1      44.266  25.160  28.472  1.00  0.00     0.049 A 
ATOM     40  N   UNL A   1      42.042  27.159  28.829  1.00  0.00    -0.248 NA
ATOM     41  C   UNL A   1      40.521  25.504  28.198  1.00  0.00     0.031 C 
ATOM     42  C   UNL A   1      45.393  24.245  28.275  1.00  0.00     0.029 A 
ATOM     43  N   UNL A   1      44.853  26.318  28.916  1.00  0.00    -0.354 N 
ATOM     44  C   UNL A   1      40.759  27.690  28.819  1.00  0.00     0.074 A 
ATOM     45  C   UNL A   1      39.871  26.647  28.356  1.00  0.00     0.031 C 
ATOM     46  C   UNL A   1      46.530  24.867  28.626  1.00  0.00     0.029 A 
ATOM     47  C   UNL A   1      46.221  26.238  29.016  1.00  0.00     0.049 A 
ATOM     48  H   UNL A   1      44.342  27.128  29.143  1.00  0.00     0.167 HD
ATOM     49  C   UNL A   1      40.351  28.929  29.181  1.00  0.00     0.031 A 
ATOM     50  C   UNL A   1      47.126  27.172  29.368  1.00  0.00     0.031 A 
ATOM     51  C   UNL A   1      41.234  29.962  29.650  1.00  0.00     0.049 A 
ATOM     52  C   UNL A   1      46.655  28.555  29.722  1.00  0.00     0.074 A 
ATOM     53  C   UNL A   1      40.916  31.233  30.093  1.00  0.00     0.029 A 
ATOM     54  N   UNL A   1      42.613  29.841  29.732  1.00  0.00    -0.354 N 
ATOM     55  N   UNL A   1      45.431  29.024  29.767  1.00  0.00    -0.248 NA
ATOM     56  C   UNL A   1      47.690  29.537  30.078  1.00  0.00     0.031 C 
ATOM     57  C   UNL A   1      42.107  31.903  30.388  1.00  0.00     0.029 A 
ATOM     58  C   UNL A   1      43.163  31.026  30.191  1.00  0.00     0.049 A 
ATOM     59  H   UNL A   1      43.125  29.034  29.500  1.00  0.00     0.167 HD
ATOM     60  C   UNL A   1      45.546  30.342  30.192  1.00  0.00     0.074 A 
ATOM     61  C   UNL A   1      46.958  30.595  30.395  1.00  0.00     0.031 C 
ATOM     62  C   UNL A   1      44.569  31.258  30.399  1.00  0.00     0.031 A 
BRANCH  49  63
ATOM     63  C   UNL A   1      38.883  29.234  29.066  1.00  0.00    -0.014 A 
ATOM     64  C   UNL A   1      38.323  29.691  27.862  1.00  0.00     0.009 A 
ATOM     65  C   UNL A   1      38.043  29.050  30.175  1.00  0.00     0.009 A 
ATOM     66  C   UNL A   1      36.964  30.002  27.784  1.00  0.00     0.001 A 
ATOM     67  C   UNL A   1      36.677  29.329  30.085  1.00  0.00     0.001 A 
ATOM     68  C   UNL A   1      36.142  29.817  28.895  1.00  0.00     0.000 A 
ENDBRANCH  49  63
BRANCH  50  69
ATOM     69  C   UNL A   1      48.572  26.828  29.420  1.00  0.00    -0.014 A 
ATOM     70  C   UNL A   1      49.383  27.017  28.291  1.00  0.00     0.009 A 
ATOM     71  C   UNL A   1      49.149  26.308  30.589  1.00  0.00     0.009 A 
ATOM     72  C   UNL A   1      50.736  26.668  28.322  1.00  0.00     0.001 A 
ATOM     73  C   UNL A   1      50.508  25.986  30.627  1.00  0.00     0.001 A 
ATOM     74  C   UNL A   1      51.298  26.157  29.491  1.00  0.00     0.000 A 
ENDBRANCH  50  69
BRANCH  62  75
ATOM     75  C   UNL A   1      44.980  32.605  30.923  1.00  0.00    -0.014 A 
ATOM     76  C   UNL A   1      45.255  33.675  30.058  1.00  0.00     0.009 A 
ATOM     77  C   UNL A   1      45.021  32.822  32.309  1.00  0.00     0.009 A 
ATOM     78  C   UNL A   1      45.585  34.930  30.574  1.00  0.00     0.001 A 
ATOM     79  C   UNL A   1      45.321  34.084  32.821  1.00  0.00     0.001 A 
ATOM     80  C   UNL A   1      45.609  35.135  31.953  1.00  0.00     0.000 A 
ENDBRANCH  62  75
ENDBRANCH  36  37
ENDBRANCH  28  31
ENDBRANCH  26  27
ENDBRANCH  25  26
ENDBRANCH   1  25
TORSDOF 15
ENDMDL
MODEL 3
REMARK VINA RESULT:     -11.3      1.666      6.912
REMARK SMILES C[NH+](C)Cc1noc(C[C@@](C)(C(=O)NCCCNC(=O)c2ccc(-c3c4nc(c(-c5ccccc5)c5ccc([nH]5)c(-c5ccccc5)c5nc(c(-c6ccccc6)c6ccc3[nH]6)C=C5)C=C4)cc2)c2ccccc2)n1
REMARK SMILES IDX 15 1 14 2 12 3 13 4 10 6 11 7 9 8 8 9 5 10 6 11 75 12 7 13
REMARK SMILES IDX 4 14 2 15 1 16 3 17 69 19 70 20 74 21 71 22 73 23 72 24
REMARK SMILES IDX 16 25 17 26 18 27 19 28 20 30 21 31 22 32 68 33 23 34 67 35
REMARK SMILES IDX 24 36 25 37 26 38 61 39 27 40 66 41 60 42 62 43 28 44 65 45
REMARK SMILES IDX 59 46 58 47 29 49 51 50 36 51 50 52 37 53 40 54 49 55 63 56
REMARK SMILES IDX 38 57 39 58 48 60 64 61 41 62 30 63 31 64 35 65 32 66 34 67
REMARK SMILES IDX 33 68 52 69 53 70 57 71 54 72 56 73 55 74 42 75 43 76 47 77
REMARK SMILES IDX 44 78 46 79 45 80
REMARK H PARENT 14 5 2 18 18 29 62 48 40 59
REMARK Flexibility Score: inf
ROOT
ATOM      1  C   UNL A   1      37.403  21.052  24.252  1.00  0.00     0.117 C 
ENDROOT
BRANCH   1   2
ATOM      2  N   UNL A   1      37.570  22.306  24.976  1.00  0.00    -0.355 N 
ATOM      3  C   UNL A   1      36.711  23.227  25.507  1.00  0.00     0.230 C 
ATOM      4  O   UNL A   1      37.279  24.109  26.154  1.00  0.00    -0.274 OA
ATOM      5  H   UNL A   1      38.516  22.544  25.114  1.00  0.00     0.163 HD
BRANCH   3   6
ATOM      6  C   UNL A   1      35.161  23.134  25.333  1.00  0.00     0.080 C 
ATOM      7  C   UNL A   1      34.631  22.773  26.747  1.00  0.00     0.027 C 
BRANCH   6   8
ATOM      8  C   UNL A   1      34.899  22.084  24.220  1.00  0.00     0.122 C 
BRANCH   8   9
ATOM      9  C   UNL A   1      33.985  20.978  24.582  1.00  0.00     0.228 A 
ATOM     10  C   UNL A   1      33.033  19.232  25.219  1.00  0.00     0.226 A 
ATOM     11  N   UNL A   1      32.009  20.052  24.939  1.00  0.00    -0.056 NA
ATOM     12  N   UNL A   1      34.277  19.772  25.002  1.00  0.00    -0.190 NA
ATOM     13  O   UNL A   1      32.646  21.228  24.533  1.00  0.00    -0.339 OA
BRANCH  10  14
ATOM     14  C   UNL A   1      32.850  17.852  25.770  1.00  0.00     0.344 C 
BRANCH  14  15
ATOM     15  N   UNL A   1      32.485  16.833  24.759  1.00  0.00    -0.333 N 
ATOM     16  C   UNL A   1      33.291  16.937  23.543  1.00  0.00     0.332 C 
ATOM     17  C   UNL A   1      32.531  15.478  25.303  1.00  0.00     0.332 C 
ATOM     18  H   UNL A   1      31.518  17.029  24.499  1.00  0.00     0.348 HD
ENDBRANCH  14  15
ENDBRANCH  10  14
ENDBRANCH   8   9
ENDBRANCH   6   8
BRANCH   6  19
ATOM     19  C   UNL A   1      34.459  24.461  24.884  1.00  0.00    -0.032 A 
ATOM     20  C   UNL A   1      34.088  25.482  25.773  1.00  0.00     0.005 A 
ATOM     21  C   UNL A   1      34.247  24.719  23.509  1.00  0.00     0.005 A 
ATOM     22  C   UNL A   1      33.474  26.658  25.322  1.00  0.00     0.000 A 
ATOM     23  C   UNL A   1      33.663  25.904  23.055  1.00  0.00     0.000 A 
ATOM     24  C   UNL A   1      33.260  26.869  23.965  1.00  0.00     0.000 A 
ENDBRANCH   6  19
ENDBRANCH   3   6
ENDBRANCH   1   2
BRANCH   1  25
ATOM     25  C   UNL A   1      38.042  19.877  24.979  1.00  0.00     0.042 C 
BRANCH  25  26
ATOM     26  C   UNL A   1      39.138  20.279  25.955  1.00  0.00     0.118 C 
BRANCH  26  27
ATOM     27  N   UNL A   1      40.250  19.336  25.970  1.00  0.00    -0.352 N 
ATOM     28  C   UNL A   1      41.594  19.569  26.131  1.00  0.00     0.251 C 
ATOM     29  H   UNL A   1      40.000  18.392  25.846  1.00  0.00     0.163 HD
ATOM     30  O   UNL A   1      42.406  18.674  25.915  1.00  0.00    -0.269 OA
BRANCH  28  31
ATOM     31  C   UNL A   1      42.060  20.908  26.541  1.00  0.00     0.039 A 
ATOM     32  C   UNL A   1      42.435  21.832  25.563  1.00  0.00     0.014 A 
ATOM     33  C   UNL A   1      42.106  21.254  27.893  1.00  0.00     0.014 A 
ATOM     34  C   UNL A   1      42.776  23.133  25.940  1.00  0.00     0.010 A 
ATOM     35  C   UNL A   1      42.354  22.570  28.257  1.00  0.00     0.010 A 
ATOM     36  C   UNL A   1      42.694  23.524  27.285  1.00  0.00    -0.014 A 
BRANCH  36  37
ATOM     37  C   UNL A   1      42.960  24.918  27.718  1.00  0.00     0.031 A 
ATOM     38  C   UNL A   1      44.365  25.339  28.051  1.00  0.00     0.074 A 
ATOM     39  C   UNL A   1      41.935  25.771  27.907  1.00  0.00     0.049 A 
ATOM     40  N   UNL A   1      44.791  26.461  28.572  1.00  0.00    -0.248 NA
ATOM     41  C   UNL A   1      45.427  24.354  27.791  1.00  0.00     0.031 C 
ATOM     42  C   UNL A   1      40.524  25.478  27.644  1.00  0.00     0.029 A 
ATOM     43  N   UNL A   1      41.922  27.059  28.382  1.00  0.00    -0.354 N 
ATOM     44  C   UNL A   1      46.162  26.305  28.728  1.00  0.00     0.074 A 
ATOM     45  C   UNL A   1      46.489  24.964  28.297  1.00  0.00     0.031 C 
ATOM     46  C   UNL A   1      39.788  26.564  27.933  1.00  0.00     0.029 A 
ATOM     47  C   UNL A   1      40.665  27.607  28.454  1.00  0.00     0.049 A 
ATOM     48  H   UNL A   1      42.738  27.543  28.645  1.00  0.00     0.167 HD
ATOM     49  C   UNL A   1      47.072  27.203  29.173  1.00  0.00     0.031 A 
ATOM     50  C   UNL A   1      40.262  28.811  28.904  1.00  0.00     0.031 A 
ATOM     51  C   UNL A   1      46.745  28.539  29.594  1.00  0.00     0.049 A 
ATOM     52  C   UNL A   1      41.286  29.776  29.437  1.00  0.00     0.074 A 
ATOM     53  C   UNL A   1      47.599  29.544  30.009  1.00  0.00     0.029 A 
ATOM     54  N   UNL A   1      45.459  29.052  29.654  1.00  0.00    -0.354 N 
ATOM     55  N   UNL A   1      42.587  29.636  29.521  1.00  0.00    -0.248 NA
ATOM     56  C   UNL A   1      40.784  31.065  29.933  1.00  0.00     0.031 C 
ATOM     57  C   UNL A   1      46.825  30.648  30.378  1.00  0.00     0.029 A 
ATOM     58  C   UNL A   1      45.494  30.352  30.129  1.00  0.00     0.049 A 
ATOM     59  H   UNL A   1      44.643  28.566  29.397  1.00  0.00     0.167 HD
ATOM     60  C   UNL A   1      43.062  30.832  30.043  1.00  0.00     0.074 A 
ATOM     61  C   UNL A   1      41.911  31.686  30.251  1.00  0.00     0.031 C 
ATOM     62  C   UNL A   1      44.340  31.192  30.320  1.00  0.00     0.031 A 
BRANCH  49  63
ATOM     63  C   UNL A   1      48.507  26.757  29.241  1.00  0.00    -0.014 A 
ATOM     64  C   UNL A   1      49.018  26.110  30.377  1.00  0.00     0.009 A 
ATOM     65  C   UNL A   1      49.357  26.974  28.146  1.00  0.00     0.009 A 
ATOM     66  C   UNL A   1      50.362  25.735  30.435  1.00  0.00     0.001 A 
ATOM     67  C   UNL A   1      50.692  26.566  28.192  1.00  0.00     0.001 A 
ATOM     68  C   UNL A   1      51.197  25.960  29.340  1.00  0.00     0.000 A 
ENDBRANCH  49  63
BRANCH  50  69
ATOM     69  C   UNL A   1      38.823  29.183  28.857  1.00  0.00    -0.014 A 
ATOM     70  C   UNL A   1      38.013  29.010  29.990  1.00  0.00     0.009 A 
ATOM     71  C   UNL A   1      38.250  29.706  27.688  1.00  0.00     0.009 A 
ATOM     72  C   UNL A   1      36.653  29.328  29.944  1.00  0.00     0.001 A 
ATOM     73  C   UNL A   1      36.897  30.050  27.653  1.00  0.00     0.001 A 
ATOM     74  C   UNL A   1      36.097  29.852  28.779  1.00  0.00     0.000 A 
ENDBRANCH  50  69
BRANCH  62  75
ATOM     75  C   UNL A   1      44.573  32.587  30.829  1.00  0.00    -0.014 A 
ATOM     76  C   UNL A   1      44.633  32.866  32.202  1.00  0.00     0.009 A 
ATOM     77  C   UNL A   1      44.809  33.624  29.912  1.00  0.00     0.009 A 
ATOM     78  C   UNL A   1      44.902  34.163  32.646  1.00  0.00     0.001 A 
ATOM     79  C   UNL A   1      45.108  34.911  30.358  1.00  0.00     0.001 A 
ATOM     80  C   UNL A   1      45.147  35.181  31.724  1.00  0.00     0.000 A 
ENDBRANCH  62  75
ENDBRANCH  36  37
ENDBRANCH  28  31
ENDBRANCH  26  27
ENDBRANCH  25  26
ENDBRANCH   1  25
TORSDOF 15
ENDMDL
