MODEL 1
REMARK VINA RESULT:     -11.0      0.000      0.000
REMARK SMILES CCOc1ccc(-n2ncc(C(=O)NCCCNC(=O)c3ccc(-c4c5nc(c(-c6ccccc6)c6ccc([nH]6)c(-c6ccccc6)c6nc(c(-c7ccccc7)c7ccc4[nH]7)C=C6)C=C5)cc3)c2C)nn1
REMARK SMILES IDX 15 1 14 2 12 3 13 4 11 6 8 7 9 8 69 9 10 10 70 11 7 12 4 13
REMARK SMILES IDX 5 14 72 15 6 16 71 17 3 18 2 19 1 20 16 21 17 22 18 23 19 24
REMARK SMILES IDX 20 26 21 27 22 28 68 29 23 30 67 31 24 32 25 33 26 34 61 35
REMARK SMILES IDX 27 36 66 37 60 38 62 39 28 40 65 41 59 42 58 43 29 45 51 46
REMARK SMILES IDX 36 47 50 48 37 49 40 50 49 51 63 52 38 53 39 54 48 56 64 57
REMARK SMILES IDX 41 58 30 59 31 60 35 61 32 62 34 63 33 64 52 65 53 66 57 67
REMARK SMILES IDX 54 68 56 69 55 70 42 71 43 72 47 73 44 74 46 75 45 76
REMARK H PARENT 14 5 18 25 62 44 40 55
REMARK Flexibility Score: inf
ROOT
ATOM      1  C   UNL A   1      31.703  30.276  25.751  1.00  0.00     0.118 C 
ENDROOT
BRANCH   1   2
ATOM      2  N   UNL A   1      31.086  30.175  24.438  1.00  0.00    -0.352 N 
ATOM      3  C   UNL A   1      30.927  29.136  23.556  1.00  0.00     0.254 C 
ATOM      4  O   UNL A   1      30.329  29.398  22.511  1.00  0.00    -0.269 OA
ATOM      5  H   UNL A   1      30.705  31.024  24.117  1.00  0.00     0.163 HD
BRANCH   3   6
ATOM      6  C   UNL A   1      31.396  27.789  23.858  1.00  0.00     0.081 A 
ATOM      7  N   UNL A   1      32.730  26.003  24.059  1.00  0.00    -0.217 N 
ATOM      8  N   UNL A   1      31.467  25.542  24.262  1.00  0.00    -0.174 NA
ATOM      9  C   UNL A   1      32.732  27.370  23.821  1.00  0.00     0.056 A 
ATOM     10  C   UNL A   1      30.705  26.627  24.241  1.00  0.00     0.149 A 
ATOM     11  C   UNL A   1      33.946  28.168  23.480  1.00  0.00     0.068 C 
BRANCH   7  12
ATOM     12  C   UNL A   1      33.809  25.075  24.108  1.00  0.00     0.176 A 
ATOM     13  C   UNL A   1      35.931  23.407  24.222  1.00  0.00     0.233 A 
ATOM     14  C   UNL A   1      35.509  23.993  25.395  1.00  0.00     0.074 A 
ATOM     15  N   UNL A   1      35.329  23.628  23.034  1.00  0.00    -0.110 NA
ATOM     16  C   UNL A   1      34.421  24.850  25.338  1.00  0.00     0.057 A 
ATOM     17  N   UNL A   1      34.238  24.460  22.982  1.00  0.00    -0.127 NA
BRANCH  13  18
ATOM     18  O   UNL A   1      37.069  22.642  24.236  1.00  0.00    -0.477 OA
BRANCH  18  19
ATOM     19  C   UNL A   1      37.506  22.410  25.577  1.00  0.00     0.228 C 
ATOM     20  C   UNL A   1      38.719  21.491  25.598  1.00  0.00     0.049 C 
ENDBRANCH  18  19
ENDBRANCH  13  18
ENDBRANCH   7  12
ENDBRANCH   3   6
ENDBRANCH   1   2
BRANCH   1  21
ATOM     21  C   UNL A   1      31.334  31.587  26.455  1.00  0.00     0.042 C 
BRANCH  21  22
ATOM     22  C   UNL A   1      32.554  32.237  27.095  1.00  0.00     0.118 C 
BRANCH  22  23
ATOM     23  N   UNL A   1      32.293  33.617  27.518  1.00  0.00    -0.352 N 
ATOM     24  C   UNL A   1      32.967  34.381  28.445  1.00  0.00     0.251 C 
ATOM     25  H   UNL A   1      31.529  34.058  27.080  1.00  0.00     0.163 HD
ATOM     26  O   UNL A   1      32.454  35.396  28.913  1.00  0.00    -0.269 OA
BRANCH  24  27
ATOM     27  C   UNL A   1      34.308  33.963  28.880  1.00  0.00     0.039 A 
ATOM     28  C   UNL A   1      34.494  33.229  30.055  1.00  0.00     0.014 A 
ATOM     29  C   UNL A   1      35.390  34.287  28.068  1.00  0.00     0.014 A 
ATOM     30  C   UNL A   1      35.768  32.753  30.351  1.00  0.00     0.010 A 
ATOM     31  C   UNL A   1      36.597  33.670  28.264  1.00  0.00     0.010 A 
ATOM     32  C   UNL A   1      36.813  32.954  29.434  1.00  0.00    -0.014 A 
BRANCH  32  33
ATOM     33  C   UNL A   1      38.118  32.340  29.642  1.00  0.00     0.031 A 
ATOM     34  C   UNL A   1      38.182  30.888  29.327  1.00  0.00     0.074 A 
ATOM     35  C   UNL A   1      39.240  33.044  29.904  1.00  0.00     0.049 A 
ATOM     36  N   UNL A   1      38.380  29.917  30.153  1.00  0.00    -0.248 NA
ATOM     37  C   UNL A   1      37.875  30.453  27.954  1.00  0.00     0.031 C 
ATOM     38  C   UNL A   1      39.433  34.499  29.936  1.00  0.00     0.029 A 
ATOM     39  N   UNL A   1      40.502  32.576  30.093  1.00  0.00    -0.354 N 
ATOM     40  C   UNL A   1      38.395  28.754  29.390  1.00  0.00     0.074 A 
ATOM     41  C   UNL A   1      37.936  29.126  28.075  1.00  0.00     0.031 C 
ATOM     42  C   UNL A   1      40.753  34.783  29.886  1.00  0.00     0.029 A 
ATOM     43  C   UNL A   1      41.494  33.543  30.013  1.00  0.00     0.049 A 
ATOM     44  H   UNL A   1      40.696  31.628  30.273  1.00  0.00     0.167 HD
ATOM     45  C   UNL A   1      38.987  27.614  29.843  1.00  0.00     0.031 A 
ATOM     46  C   UNL A   1      42.831  33.333  30.034  1.00  0.00     0.031 A 
ATOM     47  C   UNL A   1      39.239  27.668  31.259  1.00  0.00     0.049 A 
ATOM     48  C   UNL A   1      43.057  32.002  30.638  1.00  0.00     0.074 A 
ATOM     49  C   UNL A   1      38.440  27.810  32.377  1.00  0.00     0.029 A 
ATOM     50  N   UNL A   1      40.510  28.003  31.664  1.00  0.00    -0.354 N 
ATOM     51  N   UNL A   1      42.795  31.731  31.885  1.00  0.00    -0.248 NA
ATOM     52  C   UNL A   1      43.135  30.852  29.752  1.00  0.00     0.031 C 
ATOM     53  C   UNL A   1      39.161  28.697  33.230  1.00  0.00     0.029 A 
ATOM     54  C   UNL A   1      40.388  28.976  32.624  1.00  0.00     0.049 A 
ATOM     55  H   UNL A   1      41.351  27.617  31.328  1.00  0.00     0.167 HD
ATOM     56  C   UNL A   1      42.237  30.461  31.860  1.00  0.00     0.074 A 
ATOM     57  C   UNL A   1      42.567  29.931  30.536  1.00  0.00     0.031 C 
ATOM     58  C   UNL A   1      41.321  30.071  32.795  1.00  0.00     0.031 A 
BRANCH  45  59
ATOM     59  C   UNL A   1      39.671  26.617  28.943  1.00  0.00    -0.014 A 
ATOM     60  C   UNL A   1      40.878  26.976  28.317  1.00  0.00     0.009 A 
ATOM     61  C   UNL A   1      39.040  25.447  28.479  1.00  0.00     0.009 A 
ATOM     62  C   UNL A   1      41.392  26.232  27.248  1.00  0.00     0.001 A 
ATOM     63  C   UNL A   1      39.571  24.680  27.440  1.00  0.00     0.001 A 
ATOM     64  C   UNL A   1      40.735  25.088  26.806  1.00  0.00     0.000 A 
ENDBRANCH  45  59
BRANCH  46  65
ATOM     65  C   UNL A   1      43.900  34.078  29.336  1.00  0.00    -0.014 A 
ATOM     66  C   UNL A   1      44.006  34.038  27.937  1.00  0.00     0.009 A 
ATOM     67  C   UNL A   1      44.640  35.057  30.023  1.00  0.00     0.009 A 
ATOM     68  C   UNL A   1      44.790  34.973  27.248  1.00  0.00     0.001 A 
ATOM     69  C   UNL A   1      45.422  35.991  29.336  1.00  0.00     0.001 A 
ATOM     70  C   UNL A   1      45.483  35.959  27.946  1.00  0.00     0.000 A 
ENDBRANCH  46  65
BRANCH  58  71
ATOM     71  C   UNL A   1      41.082  30.986  33.977  1.00  0.00    -0.014 A 
ATOM     72  C   UNL A   1      41.763  30.861  35.202  1.00  0.00     0.009 A 
ATOM     73  C   UNL A   1      40.252  32.103  33.797  1.00  0.00     0.009 A 
ATOM     74  C   UNL A   1      41.593  31.804  36.222  1.00  0.00     0.001 A 
ATOM     75  C   UNL A   1      40.098  33.057  34.806  1.00  0.00     0.001 A 
ATOM     76  C   UNL A   1      40.764  32.904  36.021  1.00  0.00     0.000 A 
ENDBRANCH  58  71
ENDBRANCH  32  33
ENDBRANCH  24  27
ENDBRANCH  22  23
ENDBRANCH  21  22
ENDBRANCH   1  21
TORSDOF 13
ENDMDL
MODEL 2
REMARK VINA RESULT:     -10.8      2.462      6.108
REMARK SMILES CCOc1ccc(-n2ncc(C(=O)NCCCNC(=O)c3ccc(-c4c5nc(c(-c6ccccc6)c6ccc([nH]6)c(-c6ccccc6)c6nc(c(-c7ccccc7)c7ccc4[nH]7)C=C6)C=C5)cc3)c2C)nn1
REMARK SMILES IDX 15 1 14 2 12 3 13 4 11 6 8 7 9 8 69 9 10 10 70 11 7 12 4 13
REMARK SMILES IDX 5 14 72 15 6 16 71 17 3 18 2 19 1 20 16 21 17 22 18 23 19 24
REMARK SMILES IDX 20 26 21 27 22 28 68 29 23 30 67 31 24 32 25 33 26 34 61 35
REMARK SMILES IDX 27 36 66 37 60 38 62 39 28 40 65 41 59 42 58 43 29 45 51 46
REMARK SMILES IDX 36 47 50 48 37 49 40 50 49 51 63 52 38 53 39 54 48 56 64 57
REMARK SMILES IDX 41 58 30 59 31 60 35 61 32 62 34 63 33 64 52 65 53 66 57 67
REMARK SMILES IDX 54 68 56 69 55 70 42 71 43 72 47 73 44 74 46 75 45 76
REMARK H PARENT 14 5 18 25 62 44 40 55
REMARK Flexibility Score: inf
ROOT
ATOM      1  C   UNL A   1      31.884  30.873  25.856  1.00  0.00     0.118 C 
ENDROOT
BRANCH   1   2
ATOM      2  N   UNL A   1      30.772  30.507  24.994  1.00  0.00    -0.352 N 
ATOM      3  C   UNL A   1      30.633  29.586  23.986  1.00  0.00     0.254 C 
ATOM      4  O   UNL A   1      29.521  29.522  23.459  1.00  0.00    -0.269 OA
ATOM      5  H   UNL A   1      29.952  31.022  25.171  1.00  0.00     0.163 HD
BRANCH   3   6
ATOM      6  C   UNL A   1      31.723  28.703  23.593  1.00  0.00     0.081 A 
ATOM      7  N   UNL A   1      33.082  26.927  23.488  1.00  0.00    -0.217 N 
ATOM      8  N   UNL A   1      33.713  27.912  22.797  1.00  0.00    -0.174 NA
ATOM      9  C   UNL A   1      31.860  27.364  23.980  1.00  0.00     0.056 A 
ATOM     10  C   UNL A   1      32.851  28.919  22.783  1.00  0.00     0.149 A 
ATOM     11  C   UNL A   1      30.958  26.553  24.850  1.00  0.00     0.068 C 
BRANCH   7  12
ATOM     12  C   UNL A   1      33.725  25.662  23.611  1.00  0.00     0.176 A 
ATOM     13  C   UNL A   1      35.051  23.320  23.851  1.00  0.00     0.233 A 
ATOM     14  C   UNL A   1      34.986  24.140  24.956  1.00  0.00     0.074 A 
ATOM     15  N   UNL A   1      34.480  23.637  22.670  1.00  0.00    -0.110 NA
ATOM     16  C   UNL A   1      34.308  25.342  24.834  1.00  0.00     0.057 A 
ATOM     17  N   UNL A   1      33.789  24.818  22.556  1.00  0.00    -0.127 NA
BRANCH  13  18
ATOM     18  O   UNL A   1      35.808  22.179  23.916  1.00  0.00    -0.477 OA
BRANCH  18  19
ATOM     19  C   UNL A   1      37.142  22.480  24.330  1.00  0.00     0.228 C 
ATOM     20  C   UNL A   1      37.765  21.294  25.051  1.00  0.00     0.049 C 
ENDBRANCH  18  19
ENDBRANCH  13  18
ENDBRANCH   7  12
ENDBRANCH   3   6
ENDBRANCH   1   2
BRANCH   1  21
ATOM     21  C   UNL A   1      32.220  29.762  26.858  1.00  0.00     0.042 C 
BRANCH  21  22
ATOM     22  C   UNL A   1      33.569  30.002  27.523  1.00  0.00     0.118 C 
BRANCH  22  23
ATOM     23  N   UNL A   1      34.091  31.347  27.259  1.00  0.00    -0.352 N 
ATOM     24  C   UNL A   1      35.269  31.918  27.686  1.00  0.00     0.251 C 
ATOM     25  H   UNL A   1      33.519  31.921  26.698  1.00  0.00     0.163 HD
ATOM     26  O   UNL A   1      35.425  33.137  27.644  1.00  0.00    -0.269 OA
BRANCH  24  27
ATOM     27  C   UNL A   1      36.338  31.054  28.207  1.00  0.00     0.039 A 
ATOM     28  C   UNL A   1      36.335  29.676  27.976  1.00  0.00     0.014 A 
ATOM     29  C   UNL A   1      37.379  31.651  28.910  1.00  0.00     0.014 A 
ATOM     30  C   UNL A   1      37.435  28.926  28.383  1.00  0.00     0.010 A 
ATOM     31  C   UNL A   1      38.532  30.951  29.146  1.00  0.00     0.010 A 
ATOM     32  C   UNL A   1      38.546  29.577  28.945  1.00  0.00    -0.014 A 
BRANCH  32  33
ATOM     33  C   UNL A   1      39.769  28.844  29.242  1.00  0.00     0.031 A 
ATOM     34  C   UNL A   1      40.057  28.671  30.691  1.00  0.00     0.074 A 
ATOM     35  C   UNL A   1      40.494  28.193  28.307  1.00  0.00     0.049 A 
ATOM     36  N   UNL A   1      41.038  29.178  31.359  1.00  0.00    -0.248 NA
ATOM     37  C   UNL A   1      39.080  27.945  31.519  1.00  0.00     0.031 C 
ATOM     38  C   UNL A   1      40.196  27.985  26.884  1.00  0.00     0.029 A 
ATOM     39  N   UNL A   1      41.631  27.468  28.478  1.00  0.00    -0.354 N 
ATOM     40  C   UNL A   1      40.908  28.704  32.660  1.00  0.00     0.074 A 
ATOM     41  C   UNL A   1      39.614  28.073  32.735  1.00  0.00     0.031 C 
ATOM     42  C   UNL A   1      40.982  27.002  26.395  1.00  0.00     0.029 A 
ATOM     43  C   UNL A   1      41.960  26.650  27.407  1.00  0.00     0.049 A 
ATOM     44  H   UNL A   1      42.177  27.520  29.296  1.00  0.00     0.167 HD
ATOM     45  C   UNL A   1      41.966  28.680  33.517  1.00  0.00     0.031 A 
ATOM     46  C   UNL A   1      42.958  25.736  27.364  1.00  0.00     0.031 A 
ATOM     47  C   UNL A   1      43.053  29.501  33.048  1.00  0.00     0.049 A 
ATOM     48  C   UNL A   1      43.923  26.090  28.427  1.00  0.00     0.074 A 
ATOM     49  C   UNL A   1      43.194  30.844  32.761  1.00  0.00     0.029 A 
ATOM     50  N   UNL A   1      44.089  28.869  32.399  1.00  0.00    -0.354 N 
ATOM     51  N   UNL A   1      44.646  27.173  28.402  1.00  0.00    -0.248 NA
ATOM     52  C   UNL A   1      43.752  25.484  29.738  1.00  0.00     0.031 C 
ATOM     53  C   UNL A   1      43.974  30.881  31.567  1.00  0.00     0.029 A 
ATOM     54  C   UNL A   1      44.333  29.571  31.245  1.00  0.00     0.049 A 
ATOM     55  H   UNL A   1      44.565  28.065  32.706  1.00  0.00     0.167 HD
ATOM     56  C   UNL A   1      44.640  27.631  29.712  1.00  0.00     0.074 A 
ATOM     57  C   UNL A   1      44.162  26.498  30.505  1.00  0.00     0.031 C 
ATOM     58  C   UNL A   1      44.746  28.963  29.997  1.00  0.00     0.031 A 
BRANCH  45  59
ATOM     59  C   UNL A   1      42.155  27.628  34.579  1.00  0.00    -0.014 A 
ATOM     60  C   UNL A   1      42.555  26.335  34.197  1.00  0.00     0.009 A 
ATOM     61  C   UNL A   1      41.698  27.785  35.901  1.00  0.00     0.009 A 
ATOM     62  C   UNL A   1      42.448  25.250  35.077  1.00  0.00     0.001 A 
ATOM     63  C   UNL A   1      41.628  26.713  36.794  1.00  0.00     0.001 A 
ATOM     64  C   UNL A   1      41.979  25.439  36.373  1.00  0.00     0.000 A 
ENDBRANCH  45  59
BRANCH  46  65
ATOM     65  C   UNL A   1      43.003  24.441  26.653  1.00  0.00    -0.014 A 
ATOM     66  C   UNL A   1      44.221  23.912  26.201  1.00  0.00     0.009 A 
ATOM     67  C   UNL A   1      41.883  23.589  26.672  1.00  0.00     0.009 A 
ATOM     68  C   UNL A   1      44.325  22.566  25.825  1.00  0.00     0.001 A 
ATOM     69  C   UNL A   1      41.987  22.246  26.297  1.00  0.00     0.001 A 
ATOM     70  C   UNL A   1      43.213  21.730  25.890  1.00  0.00     0.000 A 
ENDBRANCH  46  65
BRANCH  58  71
ATOM     71  C   UNL A   1      45.074  29.907  28.860  1.00  0.00    -0.014 A 
ATOM     72  C   UNL A   1      46.389  30.236  28.483  1.00  0.00     0.009 A 
ATOM     73  C   UNL A   1      44.024  30.361  28.048  1.00  0.00     0.009 A 
ATOM     74  C   UNL A   1      46.640  31.019  27.350  1.00  0.00     0.001 A 
ATOM     75  C   UNL A   1      44.274  31.124  26.905  1.00  0.00     0.001 A 
ATOM     76  C   UNL A   1      45.582  31.459  26.559  1.00  0.00     0.000 A 
ENDBRANCH  58  71
ENDBRANCH  32  33
ENDBRANCH  24  27
ENDBRANCH  22  23
ENDBRANCH  21  22
ENDBRANCH   1  21
TORSDOF 13
ENDMDL
MODEL 3
REMARK VINA RESULT:     -10.5      2.785      7.678
REMARK SMILES CCOc1ccc(-n2ncc(C(=O)NCCCNC(=O)c3ccc(-c4c5nc(c(-c6ccccc6)c6ccc([nH]6)c(-c6ccccc6)c6nc(c(-c7ccccc7)c7ccc4[nH]7)C=C6)C=C5)cc3)c2C)nn1
REMARK SMILES IDX 15 1 14 2 12 3 13 4 11 6 8 7 9 8 69 9 10 10 70 11 7 12 4 13
REMARK SMILES IDX 5 14 72 15 6 16 71 17 3 18 2 19 1 20 16 21 17 22 18 23 19 24
REMARK SMILES IDX 20 26 21 27 22 28 68 29 23 30 67 31 24 32 25 33 26 34 61 35
REMARK SMILES IDX 27 36 66 37 60 38 62 39 28 40 65 41 59 42 58 43 29 45 51 46
REMARK SMILES IDX 36 47 50 48 37 49 40 50 49 51 63 52 38 53 39 54 48 56 64 57
REMARK SMILES IDX 41 58 30 59 31 60 35 61 32 62 34 63 33 64 52 65 53 66 57 67
REMARK SMILES IDX 54 68 56 69 55 70 42 71 43 72 47 73 44 74 46 75 45 76
REMARK H PARENT 14 5 18 25 62 44 40 55
REMARK Flexibility Score: inf
ROOT
ATOM      1  C   UNL A   1      36.023  21.496  25.211  1.00  0.00     0.118 C 
ENDROOT
BRANCH   1   2
ATOM      2  N   UNL A   1      35.411  21.785  26.498  1.00  0.00    -0.352 N 
ATOM      3  C   UNL A   1      34.224  22.371  26.859  1.00  0.00     0.254 C 
ATOM      4  O   UNL A   1      34.003  22.450  28.069  1.00  0.00    -0.269 OA
ATOM      5  H   UNL A   1      35.959  21.503  27.265  1.00  0.00     0.163 HD
BRANCH   3   6
ATOM      6  C   UNL A   1      33.258  22.831  25.869  1.00  0.00     0.081 A 
ATOM      7  N   UNL A   1      32.001  24.179  24.599  1.00  0.00    -0.217 N 
ATOM      8  N   UNL A   1      31.486  22.932  24.431  1.00  0.00    -0.174 NA
ATOM      9  C   UNL A   1      33.090  24.160  25.459  1.00  0.00     0.056 A 
ATOM     10  C   UNL A   1      32.304  22.136  25.107  1.00  0.00     0.149 A 
ATOM     11  C   UNL A   1      33.830  25.373  25.915  1.00  0.00     0.068 C 
BRANCH   7  12
ATOM     12  C   UNL A   1      31.385  25.267  23.917  1.00  0.00     0.176 A 
ATOM     13  C   UNL A   1      30.310  27.400  22.654  1.00  0.00     0.233 A 
ATOM     14  C   UNL A   1      31.429  26.820  22.100  1.00  0.00     0.074 A 
ATOM     15  N   UNL A   1      29.734  26.946  23.788  1.00  0.00    -0.110 NA
ATOM     16  C   UNL A   1      31.983  25.727  22.747  1.00  0.00     0.057 A 
ATOM     17  N   UNL A   1      30.270  25.849  24.417  1.00  0.00    -0.127 NA
BRANCH  13  18
ATOM     18  O   UNL A   1      29.811  28.547  22.093  1.00  0.00    -0.477 OA
BRANCH  18  19
ATOM     19  C   UNL A   1      29.965  29.654  22.983  1.00  0.00     0.228 C 
ATOM     20  C   UNL A   1      28.721  30.532  22.973  1.00  0.00     0.049 C 
ENDBRANCH  18  19
ENDBRANCH  13  18
ENDBRANCH   7  12
ENDBRANCH   3   6
ENDBRANCH   1   2
BRANCH   1  21
ATOM     21  C   UNL A   1      36.822  22.691  24.678  1.00  0.00     0.042 C 
BRANCH  21  22
ATOM     22  C   UNL A   1      37.802  23.214  25.719  1.00  0.00     0.118 C 
BRANCH  22  23
ATOM     23  N   UNL A   1      38.977  22.348  25.866  1.00  0.00    -0.352 N 
ATOM     24  C   UNL A   1      40.203  22.639  26.423  1.00  0.00     0.251 C 
ATOM     25  H   UNL A   1      38.876  21.433  25.516  1.00  0.00     0.163 HD
ATOM     26  O   UNL A   1      41.177  21.923  26.200  1.00  0.00    -0.269 OA
BRANCH  24  27
ATOM     27  C   UNL A   1      40.339  23.825  27.281  1.00  0.00     0.039 A 
ATOM     28  C   UNL A   1      41.574  24.197  27.816  1.00  0.00     0.014 A 
ATOM     29  C   UNL A   1      39.204  24.593  27.518  1.00  0.00     0.014 A 
ATOM     30  C   UNL A   1      41.667  25.396  28.517  1.00  0.00     0.010 A 
ATOM     31  C   UNL A   1      39.331  25.851  28.045  1.00  0.00     0.010 A 
ATOM     32  C   UNL A   1      40.543  26.235  28.604  1.00  0.00    -0.014 A 
BRANCH  32  33
ATOM     33  C   UNL A   1      40.645  27.562  29.196  1.00  0.00     0.031 A 
ATOM     34  C   UNL A   1      41.595  28.479  28.513  1.00  0.00     0.074 A 
ATOM     35  C   UNL A   1      39.814  28.014  30.160  1.00  0.00     0.049 A 
ATOM     36  N   UNL A   1      42.697  28.957  28.985  1.00  0.00    -0.248 NA
ATOM     37  C   UNL A   1      41.354  28.814  27.100  1.00  0.00     0.031 C 
ATOM     38  C   UNL A   1      38.624  27.371  30.732  1.00  0.00     0.029 A 
ATOM     39  N   UNL A   1      39.809  29.232  30.763  1.00  0.00    -0.354 N 
ATOM     40  C   UNL A   1      43.213  29.791  27.999  1.00  0.00     0.074 A 
ATOM     41  C   UNL A   1      42.428  29.552  26.814  1.00  0.00     0.031 C 
ATOM     42  C   UNL A   1      37.890  28.288  31.399  1.00  0.00     0.029 A 
ATOM     43  C   UNL A   1      38.648  29.523  31.465  1.00  0.00     0.049 A 
ATOM     44  H   UNL A   1      40.568  29.857  30.707  1.00  0.00     0.167 HD
ATOM     45  C   UNL A   1      44.112  30.770  28.295  1.00  0.00     0.031 A 
ATOM     46  C   UNL A   1      38.329  30.704  32.046  1.00  0.00     0.031 A 
ATOM     47  C   UNL A   1      44.693  30.587  29.600  1.00  0.00     0.049 A 
ATOM     48  C   UNL A   1      39.589  31.455  32.235  1.00  0.00     0.074 A 
ATOM     49  C   UNL A   1      45.442  29.589  30.192  1.00  0.00     0.029 A 
ATOM     50  N   UNL A   1      44.167  31.323  30.637  1.00  0.00    -0.354 N 
ATOM     51  N   UNL A   1      40.527  31.078  33.056  1.00  0.00    -0.248 NA
ATOM     52  C   UNL A   1      40.010  32.364  31.180  1.00  0.00     0.031 C 
ATOM     53  C   UNL A   1      44.915  29.471  31.512  1.00  0.00     0.029 A 
ATOM     54  C   UNL A   1      43.938  30.456  31.676  1.00  0.00     0.049 A 
ATOM     55  H   UNL A   1      43.988  32.290  30.633  1.00  0.00     0.167 HD
ATOM     56  C   UNL A   1      41.711  31.326  32.377  1.00  0.00     0.074 A 
ATOM     57  C   UNL A   1      41.334  32.210  31.273  1.00  0.00     0.031 C 
ATOM     58  C   UNL A   1      42.826  30.568  32.597  1.00  0.00     0.031 A 
BRANCH  45  59
ATOM     59  C   UNL A   1      44.183  32.085  27.562  1.00  0.00    -0.014 A 
ATOM     60  C   UNL A   1      43.710  33.248  28.196  1.00  0.00     0.009 A 
ATOM     61  C   UNL A   1      44.447  32.178  26.183  1.00  0.00     0.009 A 
ATOM     62  C   UNL A   1      43.463  34.422  27.473  1.00  0.00     0.001 A 
ATOM     63  C   UNL A   1      44.240  33.359  25.466  1.00  0.00     0.001 A 
ATOM     64  C   UNL A   1      43.723  34.474  26.107  1.00  0.00     0.000 A 
ENDBRANCH  45  59
BRANCH  46  65
ATOM     65  C   UNL A   1      37.001  31.333  32.204  1.00  0.00    -0.014 A 
ATOM     66  C   UNL A   1      36.665  32.016  33.383  1.00  0.00     0.009 A 
ATOM     67  C   UNL A   1      36.168  31.508  31.083  1.00  0.00     0.009 A 
ATOM     68  C   UNL A   1      35.562  32.878  33.425  1.00  0.00     0.001 A 
ATOM     69  C   UNL A   1      35.066  32.368  31.126  1.00  0.00     0.001 A 
ATOM     70  C   UNL A   1      34.774  33.067  32.292  1.00  0.00     0.000 A 
ENDBRANCH  46  65
BRANCH  58  71
ATOM     71  C   UNL A   1      42.797  29.582  33.746  1.00  0.00    -0.014 A 
ATOM     72  C   UNL A   1      43.284  29.881  35.032  1.00  0.00     0.009 A 
ATOM     73  C   UNL A   1      42.120  28.368  33.565  1.00  0.00     0.009 A 
ATOM     74  C   UNL A   1      43.126  28.978  36.091  1.00  0.00     0.001 A 
ATOM     75  C   UNL A   1      41.942  27.476  34.625  1.00  0.00     0.001 A 
ATOM     76  C   UNL A   1      42.451  27.778  35.887  1.00  0.00     0.000 A 
ENDBRANCH  58  71
ENDBRANCH  32  33
ENDBRANCH  24  27
ENDBRANCH  22  23
ENDBRANCH  21  22
ENDBRANCH   1  21
TORSDOF 13
ENDMDL
