MODEL 1
REMARK VINA RESULT:     -12.0      0.000      0.000
REMARK SMILES CCc1ccc(C(=O)NCCCNC(=O)c2ccc(-c3c4nc(c(-c5ccccc5)c5ccc([nH]5)c(-c5ccccc5)c5nc(c(-c6ccccc6)c6ccc3[nH]6)C=C5)C=C4)cc2)cc1S(=O)(=O)Nc1ccc(F)c(F)c1F
REMARK SMILES IDX 10 1 9 2 7 3 8 4 6 6 3 7 4 8 65 9 5 10 64 11 2 12 1 13 66 14
REMARK SMILES IDX 67 15 68 16 69 17 70 19 71 20 77 21 72 22 75 23 78 24 73 25
REMARK SMILES IDX 76 26 74 27 11 28 12 29 13 30 14 31 15 33 16 34 17 35 63 36
REMARK SMILES IDX 18 37 62 38 19 39 20 40 21 41 56 42 22 43 61 44 55 45 57 46
REMARK SMILES IDX 23 47 60 48 54 49 53 50 24 52 46 53 31 54 45 55 32 56 35 57
REMARK SMILES IDX 44 58 58 59 33 60 34 61 43 63 59 64 36 65 25 66 26 67 30 68
REMARK SMILES IDX 27 69 29 70 28 71 47 72 48 73 52 74 49 75 51 76 50 77 37 78
REMARK SMILES IDX 38 79 42 80 39 81 41 82 40 83
REMARK H PARENT 9 5 69 18 13 32 57 51 35 62
REMARK Flexibility Score: inf
ROOT
ATOM      1  C   UNL A   1      36.028  20.416  25.019  1.00  0.00     0.118 C 
ENDROOT
BRANCH   1   2
ATOM      2  N   UNL A   1      35.022  19.373  24.953  1.00  0.00    -0.352 N 
ATOM      3  C   UNL A   1      33.663  19.416  24.829  1.00  0.00     0.251 C 
ATOM      4  O   UNL A   1      33.041  18.355  24.845  1.00  0.00    -0.269 OA
ATOM      5  H   UNL A   1      35.389  18.461  25.009  1.00  0.00     0.163 HD
BRANCH   3   6
ATOM      6  C   UNL A   1      32.930  20.677  24.581  1.00  0.00     0.041 A 
ATOM      7  C   UNL A   1      31.561  23.069  23.906  1.00  0.00    -0.028 A 
ATOM      8  C   UNL A   1      32.027  22.169  22.922  1.00  0.00     0.006 A 
ATOM      9  C   UNL A   1      31.835  22.772  25.258  1.00  0.00     0.091 A 
ATOM     10  C   UNL A   1      32.692  20.994  23.249  1.00  0.00     0.014 A 
ATOM     11  C   UNL A   1      32.473  21.544  25.573  1.00  0.00     0.036 A 
BRANCH   7  12
ATOM     12  C   UNL A   1      30.821  24.265  23.388  1.00  0.00     0.033 C 
ATOM     13  C   UNL A   1      31.549  25.116  22.349  1.00  0.00     0.009 C 
ENDBRANCH   7  12
BRANCH   9  14
ATOM     14  S   UNL A   1      31.590  23.782  26.738  1.00  0.00     0.262 S 
ATOM     15  O   UNL A   1      30.211  24.204  26.748  1.00  0.00    -0.201 OA
ATOM     16  O   UNL A   1      32.074  22.931  27.814  1.00  0.00    -0.201 OA
BRANCH  14  17
ATOM     17  N   UNL A   1      32.629  25.082  26.832  1.00  0.00    -0.277 N 
ATOM     18  H   UNL A   1      33.301  25.032  27.549  1.00  0.00     0.180 HD
BRANCH  17  19
ATOM     19  C   UNL A   1      32.684  26.257  26.024  1.00  0.00     0.088 A 
ATOM     20  C   UNL A   1      33.761  26.295  25.119  1.00  0.00     0.033 A 
ATOM     21  C   UNL A   1      31.699  27.253  25.930  1.00  0.00     0.185 A 
ATOM     22  C   UNL A   1      33.785  27.224  24.076  1.00  0.00     0.045 A 
ATOM     23  C   UNL A   1      31.728  28.178  24.890  1.00  0.00     0.196 A 
ATOM     24  F   UNL A   1      30.653  27.293  26.761  1.00  0.00    -0.201 F 
ATOM     25  C   UNL A   1      32.751  28.144  23.954  1.00  0.00     0.162 A 
ATOM     26  F   UNL A   1      30.725  29.058  24.752  1.00  0.00    -0.200 F 
ATOM     27  F   UNL A   1      32.734  28.975  22.906  1.00  0.00    -0.204 F 
ENDBRANCH  17  19
ENDBRANCH  14  17
ENDBRANCH   9  14
ENDBRANCH   3   6
ENDBRANCH   1   2
BRANCH   1  28
ATOM     28  C   UNL A   1      37.395  19.856  24.634  1.00  0.00     0.042 C 
BRANCH  28  29
ATOM     29  C   UNL A   1      38.530  20.409  25.493  1.00  0.00     0.118 C 
BRANCH  29  30
ATOM     30  N   UNL A   1      39.609  19.447  25.660  1.00  0.00    -0.352 N 
ATOM     31  C   UNL A   1      40.906  19.660  26.045  1.00  0.00     0.251 C 
ATOM     32  H   UNL A   1      39.373  18.510  25.470  1.00  0.00     0.163 HD
ATOM     33  O   UNL A   1      41.738  18.766  25.932  1.00  0.00    -0.269 OA
BRANCH  31  34
ATOM     34  C   UNL A   1      41.304  20.973  26.590  1.00  0.00     0.039 A 
ATOM     35  C   UNL A   1      41.132  21.217  27.954  1.00  0.00     0.014 A 
ATOM     36  C   UNL A   1      41.812  21.971  25.752  1.00  0.00     0.014 A 
ATOM     37  C   UNL A   1      41.504  22.451  28.488  1.00  0.00     0.010 A 
ATOM     38  C   UNL A   1      42.237  23.180  26.294  1.00  0.00     0.010 A 
ATOM     39  C   UNL A   1      42.077  23.433  27.665  1.00  0.00    -0.014 A 
BRANCH  39  40
ATOM     40  C   UNL A   1      42.496  24.743  28.217  1.00  0.00     0.031 A 
ATOM     41  C   UNL A   1      41.483  25.837  28.409  1.00  0.00     0.074 A 
ATOM     42  C   UNL A   1      43.796  24.965  28.492  1.00  0.00     0.049 A 
ATOM     43  N   UNL A   1      41.663  27.067  28.818  1.00  0.00    -0.248 NA
ATOM     44  C   UNL A   1      40.085  25.513  28.076  1.00  0.00     0.031 C 
ATOM     45  C   UNL A   1      44.878  23.993  28.316  1.00  0.00     0.029 A 
ATOM     46  N   UNL A   1      44.426  26.084  28.972  1.00  0.00    -0.354 N 
ATOM     47  C   UNL A   1      40.412  27.666  28.773  1.00  0.00     0.074 A 
ATOM     48  C   UNL A   1      39.486  26.680  28.259  1.00  0.00     0.031 C 
ATOM     49  C   UNL A   1      46.035  24.554  28.702  1.00  0.00     0.029 A 
ATOM     50  C   UNL A   1      45.783  25.930  29.118  1.00  0.00     0.049 A 
ATOM     51  H   UNL A   1      43.952  26.918  29.191  1.00  0.00     0.167 HD
ATOM     52  C   UNL A   1      40.060  28.921  29.141  1.00  0.00     0.031 A 
ATOM     53  C   UNL A   1      46.719  26.802  29.534  1.00  0.00     0.031 A 
ATOM     54  C   UNL A   1      40.977  29.897  29.666  1.00  0.00     0.049 A 
ATOM     55  C   UNL A   1      46.302  28.189  29.935  1.00  0.00     0.074 A 
ATOM     56  C   UNL A   1      40.709  31.178  30.116  1.00  0.00     0.029 A 
ATOM     57  N   UNL A   1      42.340  29.695  29.814  1.00  0.00    -0.354 N 
ATOM     58  N   UNL A   1      45.105  28.722  29.942  1.00  0.00    -0.248 NA
ATOM     59  C   UNL A   1      47.366  29.091  30.397  1.00  0.00     0.031 C 
ATOM     60  C   UNL A   1      41.919  31.766  30.501  1.00  0.00     0.029 A 
ATOM     61  C   UNL A   1      42.930  30.833  30.334  1.00  0.00     0.049 A 
ATOM     62  H   UNL A   1      42.817  28.866  29.584  1.00  0.00     0.167 HD
ATOM     63  C   UNL A   1      45.267  30.011  30.433  1.00  0.00     0.074 A 
ATOM     64  C   UNL A   1      46.676  30.173  30.727  1.00  0.00     0.031 C 
ATOM     65  C   UNL A   1      44.333  30.974  30.623  1.00  0.00     0.031 A 
BRANCH  52  66
ATOM     66  C   UNL A   1      38.616  29.309  28.986  1.00  0.00    -0.014 A 
ATOM     67  C   UNL A   1      38.125  29.802  27.766  1.00  0.00     0.009 A 
ATOM     68  C   UNL A   1      37.728  29.147  30.060  1.00  0.00     0.009 A 
ATOM     69  C   UNL A   1      36.781  30.156  27.636  1.00  0.00     0.001 A 
ATOM     70  C   UNL A   1      36.379  29.477  29.919  1.00  0.00     0.001 A 
ATOM     71  C   UNL A   1      35.909  29.989  28.711  1.00  0.00     0.000 A 
ENDBRANCH  52  66
BRANCH  53  72
ATOM     72  C   UNL A   1      48.143  26.388  29.609  1.00  0.00    -0.014 A 
ATOM     73  C   UNL A   1      48.995  26.570  28.508  1.00  0.00     0.009 A 
ATOM     74  C   UNL A   1      48.658  25.802  30.776  1.00  0.00     0.009 A 
ATOM     75  C   UNL A   1      50.324  26.148  28.565  1.00  0.00     0.001 A 
ATOM     76  C   UNL A   1      49.994  25.405  30.839  1.00  0.00     0.001 A 
ATOM     77  C   UNL A   1      50.824  25.568  29.730  1.00  0.00     0.000 A 
ENDBRANCH  53  72
BRANCH  65  78
ATOM     78  C   UNL A   1      44.802  32.273  31.210  1.00  0.00    -0.014 A 
ATOM     79  C   UNL A   1      45.227  33.330  30.391  1.00  0.00     0.009 A 
ATOM     80  C   UNL A   1      44.780  32.453  32.603  1.00  0.00     0.009 A 
ATOM     81  C   UNL A   1      45.650  34.533  30.958  1.00  0.00     0.001 A 
ATOM     82  C   UNL A   1      45.180  33.665  33.164  1.00  0.00     0.001 A 
ATOM     83  C   UNL A   1      45.623  34.701  32.343  1.00  0.00     0.000 A 
ENDBRANCH  65  78
ENDBRANCH  39  40
ENDBRANCH  31  34
ENDBRANCH  29  30
ENDBRANCH  28  29
ENDBRANCH   1  28
TORSDOF 14
ENDMDL
MODEL 2
REMARK VINA RESULT:     -11.9      3.823      8.790
REMARK SMILES CCc1ccc(C(=O)NCCCNC(=O)c2ccc(-c3c4nc(c(-c5ccccc5)c5ccc([nH]5)c(-c5ccccc5)c5nc(c(-c6ccccc6)c6ccc3[nH]6)C=C5)C=C4)cc2)cc1S(=O)(=O)Nc1ccc(F)c(F)c1F
REMARK SMILES IDX 10 1 9 2 7 3 8 4 6 6 3 7 4 8 65 9 5 10 64 11 2 12 1 13 66 14
REMARK SMILES IDX 67 15 68 16 69 17 70 19 71 20 77 21 72 22 75 23 78 24 73 25
REMARK SMILES IDX 76 26 74 27 11 28 12 29 13 30 14 31 15 33 16 34 17 35 63 36
REMARK SMILES IDX 18 37 62 38 19 39 20 40 21 41 56 42 22 43 61 44 55 45 57 46
REMARK SMILES IDX 23 47 60 48 54 49 53 50 24 52 46 53 31 54 45 55 32 56 35 57
REMARK SMILES IDX 44 58 58 59 33 60 34 61 43 63 59 64 36 65 25 66 26 67 30 68
REMARK SMILES IDX 27 69 29 70 28 71 47 72 48 73 52 74 49 75 51 76 50 77 37 78
REMARK SMILES IDX 38 79 42 80 39 81 41 82 40 83
REMARK H PARENT 9 5 69 18 13 32 57 51 35 62
REMARK Flexibility Score: inf
ROOT
ATOM      1  C   UNL A   1      31.406  30.295  25.335  1.00  0.00     0.118 C 
ENDROOT
BRANCH   1   2
ATOM      2  N   UNL A   1      30.430  30.495  24.282  1.00  0.00    -0.352 N 
ATOM      3  C   UNL A   1      29.936  29.662  23.319  1.00  0.00     0.251 C 
ATOM      4  O   UNL A   1      29.130  30.117  22.509  1.00  0.00    -0.269 OA
ATOM      5  H   UNL A   1      30.051  31.403  24.255  1.00  0.00     0.163 HD
BRANCH   3   6
ATOM      6  C   UNL A   1      30.261  28.218  23.278  1.00  0.00     0.041 A 
ATOM      7  C   UNL A   1      30.729  25.421  23.330  1.00  0.00    -0.028 A 
ATOM      8  C   UNL A   1      29.605  26.004  23.956  1.00  0.00     0.006 A 
ATOM      9  C   UNL A   1      31.658  26.279  22.702  1.00  0.00     0.091 A 
ATOM     10  C   UNL A   1      29.370  27.373  23.928  1.00  0.00     0.014 A 
ATOM     11  C   UNL A   1      31.374  27.668  22.643  1.00  0.00     0.036 A 
BRANCH   7  12
ATOM     12  C   UNL A   1      30.811  23.926  23.412  1.00  0.00     0.033 C 
ATOM     13  C   UNL A   1      30.883  23.327  24.816  1.00  0.00     0.009 C 
ENDBRANCH   7  12
BRANCH   9  14
ATOM     14  S   UNL A   1      33.286  25.913  22.007  1.00  0.00     0.262 S 
ATOM     15  O   UNL A   1      33.107  24.890  21.006  1.00  0.00    -0.201 OA
ATOM     16  O   UNL A   1      33.783  27.218  21.600  1.00  0.00    -0.201 OA
BRANCH  14  17
ATOM     17  N   UNL A   1      34.409  25.458  23.151  1.00  0.00    -0.277 N 
ATOM     18  H   UNL A   1      35.184  26.057  23.241  1.00  0.00     0.180 HD
BRANCH  17  19
ATOM     19  C   UNL A   1      34.408  24.325  24.021  1.00  0.00     0.088 A 
ATOM     20  C   UNL A   1      34.875  23.136  23.432  1.00  0.00     0.033 A 
ATOM     21  C   UNL A   1      34.164  24.335  25.404  1.00  0.00     0.185 A 
ATOM     22  C   UNL A   1      35.206  22.032  24.221  1.00  0.00     0.045 A 
ATOM     23  C   UNL A   1      34.493  23.232  26.185  1.00  0.00     0.196 A 
ATOM     24  F   UNL A   1      33.708  25.421  26.033  1.00  0.00    -0.201 F 
ATOM     25  C   UNL A   1      35.037  22.098  25.599  1.00  0.00     0.162 A 
ATOM     26  F   UNL A   1      34.352  23.291  27.518  1.00  0.00    -0.200 F 
ATOM     27  F   UNL A   1      35.434  21.070  26.358  1.00  0.00    -0.204 F 
ENDBRANCH  17  19
ENDBRANCH  14  17
ENDBRANCH   9  14
ENDBRANCH   3   6
ENDBRANCH   1   2
BRANCH   1  28
ATOM     28  C   UNL A   1      31.218  31.339  26.434  1.00  0.00     0.042 C 
BRANCH  28  29
ATOM     29  C   UNL A   1      32.527  32.003  26.857  1.00  0.00     0.118 C 
BRANCH  29  30
ATOM     30  N   UNL A   1      32.332  33.385  27.266  1.00  0.00    -0.352 N 
ATOM     31  C   UNL A   1      33.049  34.130  28.166  1.00  0.00     0.251 C 
ATOM     32  H   UNL A   1      31.580  33.852  26.834  1.00  0.00     0.163 HD
ATOM     33  O   UNL A   1      32.621  35.215  28.547  1.00  0.00    -0.269 OA
BRANCH  31  34
ATOM     34  C   UNL A   1      34.334  33.621  28.683  1.00  0.00     0.039 A 
ATOM     35  C   UNL A   1      34.331  32.831  29.835  1.00  0.00     0.014 A 
ATOM     36  C   UNL A   1      35.538  33.950  28.054  1.00  0.00     0.014 A 
ATOM     37  C   UNL A   1      35.535  32.338  30.338  1.00  0.00     0.010 A 
ATOM     38  C   UNL A   1      36.733  33.410  28.521  1.00  0.00     0.010 A 
ATOM     39  C   UNL A   1      36.742  32.609  29.673  1.00  0.00    -0.014 A 
BRANCH  39  40
ATOM     40  C   UNL A   1      38.029  32.078  30.181  1.00  0.00     0.031 A 
ATOM     41  C   UNL A   1      38.572  30.782  29.645  1.00  0.00     0.074 A 
ATOM     42  C   UNL A   1      38.680  32.734  31.161  1.00  0.00     0.049 A 
ATOM     43  N   UNL A   1      39.645  30.125  30.005  1.00  0.00    -0.248 NA
ATOM     44  C   UNL A   1      37.794  30.127  28.580  1.00  0.00     0.031 C 
ATOM     45  C   UNL A   1      38.237  33.983  31.785  1.00  0.00     0.029 A 
ATOM     46  N   UNL A   1      39.851  32.433  31.808  1.00  0.00    -0.354 N 
ATOM     47  C   UNL A   1      39.660  28.974  29.228  1.00  0.00     0.074 A 
ATOM     48  C   UNL A   1      38.469  29.001  28.406  1.00  0.00     0.031 C 
ATOM     49  C   UNL A   1      39.136  34.351  32.712  1.00  0.00     0.029 A 
ATOM     50  C   UNL A   1      40.197  33.350  32.771  1.00  0.00     0.049 A 
ATOM     51  H   UNL A   1      40.391  31.637  31.604  1.00  0.00     0.167 HD
ATOM     52  C   UNL A   1      40.589  27.990  29.190  1.00  0.00     0.031 A 
ATOM     53  C   UNL A   1      41.247  33.376  33.611  1.00  0.00     0.031 A 
ATOM     54  C   UNL A   1      41.780  27.971  29.996  1.00  0.00     0.049 A 
ATOM     55  C   UNL A   1      42.263  32.271  33.549  1.00  0.00     0.074 A 
ATOM     56  C   UNL A   1      42.808  27.044  29.995  1.00  0.00     0.029 A 
ATOM     57  N   UNL A   1      42.101  28.927  30.946  1.00  0.00    -0.354 N 
ATOM     58  N   UNL A   1      42.293  31.220  32.768  1.00  0.00    -0.248 NA
ATOM     59  C   UNL A   1      43.397  32.364  34.480  1.00  0.00     0.031 C 
ATOM     60  C   UNL A   1      43.735  27.421  30.973  1.00  0.00     0.029 A 
ATOM     61  C   UNL A   1      43.305  28.606  31.549  1.00  0.00     0.049 A 
ATOM     62  H   UNL A   1      41.555  29.717  31.161  1.00  0.00     0.167 HD
ATOM     63  C   UNL A   1      43.460  30.540  33.093  1.00  0.00     0.074 A 
ATOM     64  C   UNL A   1      44.117  31.307  34.132  1.00  0.00     0.031 C 
ATOM     65  C   UNL A   1      43.944  29.384  32.578  1.00  0.00     0.031 A 
BRANCH  52  66
ATOM     66  C   UNL A   1      40.350  26.848  28.243  1.00  0.00    -0.014 A 
ATOM     67  C   UNL A   1      39.578  25.739  28.624  1.00  0.00     0.009 A 
ATOM     68  C   UNL A   1      40.873  26.898  26.941  1.00  0.00     0.009 A 
ATOM     69  C   UNL A   1      39.363  24.687  27.731  1.00  0.00     0.001 A 
ATOM     70  C   UNL A   1      40.634  25.857  26.042  1.00  0.00     0.001 A 
ATOM     71  C   UNL A   1      39.887  24.749  26.440  1.00  0.00     0.000 A 
ENDBRANCH  52  66
BRANCH  53  72
ATOM     72  C   UNL A   1      41.404  34.496  34.574  1.00  0.00    -0.014 A 
ATOM     73  C   UNL A   1      40.813  34.427  35.846  1.00  0.00     0.009 A 
ATOM     74  C   UNL A   1      42.135  35.642  34.227  1.00  0.00     0.009 A 
ATOM     75  C   UNL A   1      40.928  35.494  36.739  1.00  0.00     0.001 A 
ATOM     76  C   UNL A   1      42.271  36.696  35.132  1.00  0.00     0.001 A 
ATOM     77  C   UNL A   1      41.659  36.627  36.382  1.00  0.00     0.000 A 
ENDBRANCH  53  72
BRANCH  65  78
ATOM     78  C   UNL A   1      45.264  28.901  33.104  1.00  0.00    -0.014 A 
ATOM     79  C   UNL A   1      45.335  28.024  34.197  1.00  0.00     0.009 A 
ATOM     80  C   UNL A   1      46.451  29.303  32.471  1.00  0.00     0.009 A 
ATOM     81  C   UNL A   1      46.573  27.581  34.664  1.00  0.00     0.001 A 
ATOM     82  C   UNL A   1      47.685  28.838  32.925  1.00  0.00     0.001 A 
ATOM     83  C   UNL A   1      47.746  27.985  34.026  1.00  0.00     0.000 A 
ENDBRANCH  65  78
ENDBRANCH  39  40
ENDBRANCH  31  34
ENDBRANCH  29  30
ENDBRANCH  28  29
ENDBRANCH   1  28
TORSDOF 14
ENDMDL
MODEL 3
REMARK VINA RESULT:     -11.9      1.289      6.035
REMARK SMILES CCc1ccc(C(=O)NCCCNC(=O)c2ccc(-c3c4nc(c(-c5ccccc5)c5ccc([nH]5)c(-c5ccccc5)c5nc(c(-c6ccccc6)c6ccc3[nH]6)C=C5)C=C4)cc2)cc1S(=O)(=O)Nc1ccc(F)c(F)c1F
REMARK SMILES IDX 10 1 9 2 7 3 8 4 6 6 3 7 4 8 65 9 5 10 64 11 2 12 1 13 66 14
REMARK SMILES IDX 67 15 68 16 69 17 70 19 71 20 77 21 72 22 75 23 78 24 73 25
REMARK SMILES IDX 76 26 74 27 11 28 12 29 13 30 14 31 15 33 16 34 17 35 63 36
REMARK SMILES IDX 18 37 62 38 19 39 20 40 21 41 56 42 22 43 61 44 55 45 57 46
REMARK SMILES IDX 23 47 60 48 54 49 53 50 24 52 46 53 31 54 45 55 32 56 35 57
REMARK SMILES IDX 44 58 58 59 33 60 34 61 43 63 59 64 36 65 25 66 26 67 30 68
REMARK SMILES IDX 27 69 29 70 28 71 47 72 48 73 52 74 49 75 51 76 50 77 37 78
REMARK SMILES IDX 38 79 42 80 39 81 41 82 40 83
REMARK H PARENT 9 5 69 18 13 32 57 51 35 62
REMARK Flexibility Score: inf
ROOT
ATOM      1  C   UNL A   1      37.129  20.615  24.836  1.00  0.00     0.118 C 
ENDROOT
BRANCH   1   2
ATOM      2  N   UNL A   1      37.477  21.811  25.579  1.00  0.00    -0.352 N 
ATOM      3  C   UNL A   1      36.863  23.024  25.705  1.00  0.00     0.251 C 
ATOM      4  O   UNL A   1      37.414  23.892  26.381  1.00  0.00    -0.269 OA
ATOM      5  H   UNL A   1      38.315  21.734  26.091  1.00  0.00     0.163 HD
BRANCH   3   6
ATOM      6  C   UNL A   1      35.522  23.295  25.140  1.00  0.00     0.041 A 
ATOM      7  C   UNL A   1      33.045  23.889  23.893  1.00  0.00    -0.028 A 
ATOM      8  C   UNL A   1      34.276  24.021  23.213  1.00  0.00     0.006 A 
ATOM      9  C   UNL A   1      33.073  23.490  25.246  1.00  0.00     0.091 A 
ATOM     10  C   UNL A   1      35.490  23.726  23.820  1.00  0.00     0.014 A 
ATOM     11  C   UNL A   1      34.320  23.146  25.831  1.00  0.00     0.036 A 
BRANCH   7  12
ATOM     12  C   UNL A   1      31.823  24.202  23.081  1.00  0.00     0.033 C 
ATOM     13  C   UNL A   1      31.965  25.313  22.043  1.00  0.00     0.009 C 
ENDBRANCH   7  12
BRANCH   9  14
ATOM     14  S   UNL A   1      31.739  23.429  26.464  1.00  0.00     0.262 S 
ATOM     15  O   UNL A   1      30.685  22.617  25.909  1.00  0.00    -0.201 OA
ATOM     16  O   UNL A   1      32.406  22.984  27.678  1.00  0.00    -0.201 OA
BRANCH  14  17
ATOM     17  N   UNL A   1      31.180  24.935  26.911  1.00  0.00    -0.277 N 
ATOM     18  H   UNL A   1      30.670  24.962  27.752  1.00  0.00     0.180 HD
BRANCH  17  19
ATOM     19  C   UNL A   1      31.334  26.191  26.250  1.00  0.00     0.088 A 
ATOM     20  C   UNL A   1      32.570  26.823  26.477  1.00  0.00     0.033 A 
ATOM     21  C   UNL A   1      30.469  26.740  25.290  1.00  0.00     0.185 A 
ATOM     22  C   UNL A   1      32.980  27.896  25.681  1.00  0.00     0.045 A 
ATOM     23  C   UNL A   1      30.881  27.811  24.501  1.00  0.00     0.196 A 
ATOM     24  F   UNL A   1      29.274  26.206  25.027  1.00  0.00    -0.201 F 
ATOM     25  C   UNL A   1      32.140  28.366  24.679  1.00  0.00     0.162 A 
ATOM     26  F   UNL A   1      30.087  28.259  23.517  1.00  0.00    -0.200 F 
ATOM     27  F   UNL A   1      32.570  29.336  23.864  1.00  0.00    -0.204 F 
ENDBRANCH  17  19
ENDBRANCH  14  17
ENDBRANCH   9  14
ENDBRANCH   3   6
ENDBRANCH   1   2
BRANCH   1  28
ATOM     28  C   UNL A   1      38.269  19.601  24.904  1.00  0.00     0.042 C 
BRANCH  28  29
ATOM     29  C   UNL A   1      39.269  19.900  26.019  1.00  0.00     0.118 C 
BRANCH  29  30
ATOM     30  N   UNL A   1      40.509  19.157  25.855  1.00  0.00    -0.352 N 
ATOM     31  C   UNL A   1      41.802  19.602  25.949  1.00  0.00     0.251 C 
ATOM     32  H   UNL A   1      40.405  18.201  25.648  1.00  0.00     0.163 HD
ATOM     33  O   UNL A   1      42.728  18.889  25.576  1.00  0.00    -0.269 OA
BRANCH  31  34
ATOM     34  C   UNL A   1      42.079  20.946  26.494  1.00  0.00     0.039 A 
ATOM     35  C   UNL A   1      42.410  21.976  25.612  1.00  0.00     0.014 A 
ATOM     36  C   UNL A   1      42.047  21.178  27.873  1.00  0.00     0.014 A 
ATOM     37  C   UNL A   1      42.672  23.253  26.107  1.00  0.00     0.010 A 
ATOM     38  C   UNL A   1      42.251  22.465  28.362  1.00  0.00     0.010 A 
ATOM     39  C   UNL A   1      42.576  23.510  27.484  1.00  0.00    -0.014 A 
BRANCH  39  40
ATOM     40  C   UNL A   1      42.832  24.865  28.028  1.00  0.00     0.031 A 
ATOM     41  C   UNL A   1      44.218  25.247  28.471  1.00  0.00     0.074 A 
ATOM     42  C   UNL A   1      41.810  25.728  28.175  1.00  0.00     0.049 A 
ATOM     43  N   UNL A   1      44.629  26.357  29.029  1.00  0.00    -0.248 NA
ATOM     44  C   UNL A   1      45.276  24.240  28.282  1.00  0.00     0.031 C 
ATOM     45  C   UNL A   1      40.416  25.462  27.814  1.00  0.00     0.029 A 
ATOM     46  N   UNL A   1      41.787  27.005  28.675  1.00  0.00    -0.354 N 
ATOM     47  C   UNL A   1      45.983  26.176  29.274  1.00  0.00     0.074 A 
ATOM     48  C   UNL A   1      46.318  24.835  28.843  1.00  0.00     0.031 C 
ATOM     49  C   UNL A   1      39.678  26.550  28.086  1.00  0.00     0.029 A 
ATOM     50  C   UNL A   1      40.537  27.574  28.671  1.00  0.00     0.049 A 
ATOM     51  H   UNL A   1      42.589  27.470  29.005  1.00  0.00     0.167 HD
ATOM     52  C   UNL A   1      46.874  27.051  29.797  1.00  0.00     0.031 A 
ATOM     53  C   UNL A   1      40.129  28.783  29.098  1.00  0.00     0.031 A 
ATOM     54  C   UNL A   1      46.545  28.388  30.211  1.00  0.00     0.049 A 
ATOM     55  C   UNL A   1      41.138  29.735  29.676  1.00  0.00     0.074 A 
ATOM     56  C   UNL A   1      47.386  29.370  30.707  1.00  0.00     0.029 A 
ATOM     57  N   UNL A   1      45.271  28.932  30.175  1.00  0.00    -0.354 N 
ATOM     58  N   UNL A   1      42.426  29.569  29.848  1.00  0.00    -0.248 NA
ATOM     59  C   UNL A   1      40.635  31.047  30.109  1.00  0.00     0.031 C 
ATOM     60  C   UNL A   1      46.612  30.497  31.006  1.00  0.00     0.029 A 
ATOM     61  C   UNL A   1      45.299  30.230  30.653  1.00  0.00     0.049 A 
ATOM     62  H   UNL A   1      44.466  28.464  29.857  1.00  0.00     0.167 HD
ATOM     63  C   UNL A   1      42.893  30.763  30.383  1.00  0.00     0.074 A 
ATOM     64  C   UNL A   1      41.751  31.648  30.493  1.00  0.00     0.031 C 
ATOM     65  C   UNL A   1      44.153  31.096  30.751  1.00  0.00     0.031 A 
BRANCH  52  66
ATOM     66  C   UNL A   1      48.295  26.585  29.952  1.00  0.00    -0.014 A 
ATOM     67  C   UNL A   1      48.711  25.900  31.105  1.00  0.00     0.009 A 
ATOM     68  C   UNL A   1      49.219  26.801  28.918  1.00  0.00     0.009 A 
ATOM     69  C   UNL A   1      50.033  25.471  31.233  1.00  0.00     0.001 A 
ATOM     70  C   UNL A   1      50.533  26.348  29.038  1.00  0.00     0.001 A 
ATOM     71  C   UNL A   1      50.942  25.691  30.198  1.00  0.00     0.000 A 
ENDBRANCH  52  66
BRANCH  53  72
ATOM     72  C   UNL A   1      38.700  29.172  28.981  1.00  0.00    -0.014 A 
ATOM     73  C   UNL A   1      37.839  29.052  30.083  1.00  0.00     0.009 A 
ATOM     74  C   UNL A   1      38.187  29.655  27.768  1.00  0.00     0.009 A 
ATOM     75  C   UNL A   1      36.488  29.383  29.965  1.00  0.00     0.001 A 
ATOM     76  C   UNL A   1      36.841  30.010  27.659  1.00  0.00     0.001 A 
ATOM     77  C   UNL A   1      35.990  29.863  28.754  1.00  0.00     0.000 A 
ENDBRANCH  53  72
BRANCH  65  78
ATOM     78  C   UNL A   1      44.369  32.488  31.270  1.00  0.00    -0.014 A 
ATOM     79  C   UNL A   1      44.660  33.551  30.402  1.00  0.00     0.009 A 
ATOM     80  C   UNL A   1      44.239  32.743  32.644  1.00  0.00     0.009 A 
ATOM     81  C   UNL A   1      44.848  34.839  30.905  1.00  0.00     0.001 A 
ATOM     82  C   UNL A   1      44.402  34.036  33.141  1.00  0.00     0.001 A 
ATOM     83  C   UNL A   1      44.715  35.081  32.273  1.00  0.00     0.000 A 
ENDBRANCH  65  78
ENDBRANCH  39  40
ENDBRANCH  31  34
ENDBRANCH  29  30
ENDBRANCH  28  29
ENDBRANCH   1  28
TORSDOF 14
ENDMDL
