MODEL 1
REMARK VINA RESULT:     -12.1      0.000      0.000
REMARK SMILES O=C(NCCCNC(=O)[C@H]1C[C@](O)(c2ccc(F)cc2)[C@@H](c2ccc(F)cc2)O1)c1ccc(-c2c3nc(c(-c4ccccc4)c4ccc([nH]4)c(-c4ccccc4)c4nc(c(-c5ccccc5)c5ccc2[nH]5)C=C4)C=C3)cc1
REMARK SMILES IDX 4 1 3 2 1 3 2 4 30 6 31 7 77 8 32 9 76 10 33 11 34 12 35 13
REMARK SMILES IDX 70 14 36 15 75 16 69 17 71 18 37 19 74 20 68 21 67 22 38 24
REMARK SMILES IDX 60 25 45 26 59 27 46 28 49 29 58 30 72 31 47 32 48 33 57 35
REMARK SMILES IDX 73 36 50 37 39 38 40 39 44 40 41 41 43 42 42 43 61 44 62 45
REMARK SMILES IDX 66 46 63 47 65 48 64 49 51 50 52 51 56 52 53 53 55 54 54 55
REMARK SMILES IDX 5 56 6 57 7 58 8 59 9 61 10 62 11 63 29 64 12 65 21 66 14 67
REMARK SMILES IDX 15 68 20 69 16 70 19 71 17 72 18 73 13 74 22 76 23 77 28 78
REMARK SMILES IDX 24 79 27 80 25 81 26 82
REMARK H PARENT 3 5 71 23 49 34 7 60 13 75
REMARK Flexibility Score: inf
ROOT
ATOM      1  C   UNL A   1      39.207  19.987  26.119  1.00  0.00     0.118 C 
ENDROOT
BRANCH   1   2
ATOM      2  N   UNL A   1      40.459  19.291  25.846  1.00  0.00    -0.352 N 
ATOM      3  O   UNL A   1      42.652  18.953  25.513  1.00  0.00    -0.269 OA
ATOM      4  C   UNL A   1      41.772  19.685  25.954  1.00  0.00     0.251 C 
ATOM      5  H   UNL A   1      40.342  18.367  25.527  1.00  0.00     0.163 HD
BRANCH   4   6
ATOM      6  C   UNL A   1      42.143  20.984  26.560  1.00  0.00     0.039 A 
ATOM      7  C   UNL A   1      42.128  21.181  27.939  1.00  0.00     0.014 A 
ATOM      8  C   UNL A   1      42.567  22.024  25.722  1.00  0.00     0.014 A 
ATOM      9  C   UNL A   1      42.350  22.451  28.463  1.00  0.00     0.010 A 
ATOM     10  C   UNL A   1      42.889  23.275  26.258  1.00  0.00     0.010 A 
ATOM     11  C   UNL A   1      42.734  23.515  27.631  1.00  0.00    -0.014 A 
BRANCH  11  12
ATOM     12  C   UNL A   1      42.985  24.854  28.231  1.00  0.00     0.031 A 
ATOM     13  C   UNL A   1      44.381  25.306  28.569  1.00  0.00     0.074 A 
ATOM     14  C   UNL A   1      41.947  25.692  28.423  1.00  0.00     0.049 A 
ATOM     15  N   UNL A   1      44.785  26.473  29.012  1.00  0.00    -0.248 NA
ATOM     16  C   UNL A   1      45.465  24.326  28.397  1.00  0.00     0.031 C 
ATOM     17  C   UNL A   1      40.543  25.374  28.146  1.00  0.00     0.029 A 
ATOM     18  N   UNL A   1      41.912  26.992  28.860  1.00  0.00    -0.354 N 
ATOM     19  C   UNL A   1      46.158  26.359  29.192  1.00  0.00     0.074 A 
ATOM     20  C   UNL A   1      46.517  25.003  28.838  1.00  0.00     0.031 C 
ATOM     21  C   UNL A   1      39.796  26.467  28.354  1.00  0.00     0.029 A 
ATOM     22  C   UNL A   1      40.654  27.544  28.835  1.00  0.00     0.049 A 
ATOM     23  H   UNL A   1      42.711  27.481  29.162  1.00  0.00     0.167 HD
ATOM     24  C   UNL A   1      47.041  27.299  29.608  1.00  0.00     0.031 A 
ATOM     25  C   UNL A   1      40.233  28.780  29.160  1.00  0.00     0.031 A 
ATOM     26  C   UNL A   1      46.689  28.652  29.953  1.00  0.00     0.049 A 
ATOM     27  C   UNL A   1      41.232  29.795  29.635  1.00  0.00     0.074 A 
ATOM     28  C   UNL A   1      47.523  29.687  30.343  1.00  0.00     0.029 A 
ATOM     29  N   UNL A   1      45.399  29.155  29.959  1.00  0.00    -0.354 N 
ATOM     30  N   UNL A   1      42.532  29.683  29.750  1.00  0.00    -0.248 NA
ATOM     31  C   UNL A   1      40.700  31.108  30.022  1.00  0.00     0.031 C 
ATOM     32  C   UNL A   1      46.730  30.802  30.635  1.00  0.00     0.029 A 
ATOM     33  C   UNL A   1      45.409  30.479  30.370  1.00  0.00     0.049 A 
ATOM     34  H   UNL A   1      44.593  28.648  29.708  1.00  0.00     0.167 HD
ATOM     35  C   UNL A   1      42.977  30.918  30.200  1.00  0.00     0.074 A 
ATOM     36  C   UNL A   1      41.810  31.769  30.317  1.00  0.00     0.031 C 
ATOM     37  C   UNL A   1      44.241  31.313  30.489  1.00  0.00     0.031 A 
BRANCH  24  38
ATOM     38  C   UNL A   1      48.483  26.886  29.744  1.00  0.00    -0.014 A 
ATOM     39  C   UNL A   1      49.398  27.061  28.694  1.00  0.00     0.009 A 
ATOM     40  C   UNL A   1      48.939  26.353  30.960  1.00  0.00     0.009 A 
ATOM     41  C   UNL A   1      50.733  26.677  28.848  1.00  0.00     0.001 A 
ATOM     42  C   UNL A   1      50.280  25.995  31.120  1.00  0.00     0.001 A 
ATOM     43  C   UNL A   1      51.173  26.149  30.061  1.00  0.00     0.000 A 
ENDBRANCH  24  38
BRANCH  25  44
ATOM     44  C   UNL A   1      38.793  29.128  29.039  1.00  0.00    -0.014 A 
ATOM     45  C   UNL A   1      37.938  29.019  30.145  1.00  0.00     0.009 A 
ATOM     46  C   UNL A   1      38.269  29.573  27.816  1.00  0.00     0.009 A 
ATOM     47  C   UNL A   1      36.581  29.329  30.023  1.00  0.00     0.001 A 
ATOM     48  C   UNL A   1      36.919  29.912  27.704  1.00  0.00     0.001 A 
ATOM     49  C   UNL A   1      36.075  29.780  28.805  1.00  0.00     0.000 A 
ENDBRANCH  25  44
BRANCH  37  50
ATOM     50  C   UNL A   1      44.427  32.739  30.925  1.00  0.00    -0.014 A 
ATOM     51  C   UNL A   1      44.397  33.098  32.281  1.00  0.00     0.009 A 
ATOM     52  C   UNL A   1      44.652  33.734  29.961  1.00  0.00     0.009 A 
ATOM     53  C   UNL A   1      44.548  34.434  32.660  1.00  0.00     0.001 A 
ATOM     54  C   UNL A   1      44.833  35.064  30.346  1.00  0.00     0.001 A 
ATOM     55  C   UNL A   1      44.769  35.414  31.693  1.00  0.00     0.000 A 
ENDBRANCH  37  50
ENDBRANCH  11  12
ENDBRANCH   4   6
ENDBRANCH   1   2
BRANCH   1  56
ATOM     56  C   UNL A   1      39.247  21.470  25.761  1.00  0.00     0.042 C 
BRANCH  56  57
ATOM     57  C   UNL A   1      37.881  22.136  25.656  1.00  0.00     0.117 C 
BRANCH  57  58
ATOM     58  N   UNL A   1      37.393  22.250  24.296  1.00  0.00    -0.354 N 
ATOM     59  C   UNL A   1      36.403  23.048  23.801  1.00  0.00     0.249 C 
ATOM     60  H   UNL A   1      37.839  21.670  23.637  1.00  0.00     0.163 HD
ATOM     61  O   UNL A   1      36.246  23.057  22.579  1.00  0.00    -0.272 OA
BRANCH  59  62
ATOM     62  C   UNL A   1      35.560  23.912  24.766  1.00  0.00     0.211 C 
ATOM     63  C   UNL A   1      34.639  24.886  24.030  1.00  0.00     0.085 C 
ATOM     64  O   UNL A   1      34.756  23.098  25.629  1.00  0.00    -0.357 OA
ATOM     65  C   UNL A   1      33.233  24.626  24.569  1.00  0.00     0.123 C 
ATOM     66  C   UNL A   1      33.374  23.240  25.259  1.00  0.00     0.186 C 
BRANCH  65  67
ATOM     67  C   UNL A   1      32.785  25.806  25.448  1.00  0.00    -0.013 A 
ATOM     68  C   UNL A   1      33.749  26.769  25.827  1.00  0.00     0.010 A 
ATOM     69  C   UNL A   1      31.468  25.999  25.901  1.00  0.00     0.010 A 
ATOM     70  C   UNL A   1      33.412  27.879  26.604  1.00  0.00     0.039 A 
ATOM     71  C   UNL A   1      31.125  27.122  26.666  1.00  0.00     0.039 A 
ATOM     72  C   UNL A   1      32.098  28.050  27.009  1.00  0.00     0.123 A 
ATOM     73  F   UNL A   1      31.762  29.119  27.741  1.00  0.00    -0.207 F 
ENDBRANCH  65  67
BRANCH  65  74
ATOM     74  O   UNL A   1      32.313  24.596  23.470  1.00  0.00    -0.382 OA
ATOM     75  H   UNL A   1      32.807  24.563  22.636  1.00  0.00     0.212 HD
ENDBRANCH  65  74
BRANCH  66  76
ATOM     76  C   UNL A   1      32.937  21.984  24.515  1.00  0.00    -0.016 A 
ATOM     77  C   UNL A   1      32.517  21.996  23.176  1.00  0.00     0.009 A 
ATOM     78  C   UNL A   1      32.983  20.744  25.185  1.00  0.00     0.009 A 
ATOM     79  C   UNL A   1      32.178  20.809  22.520  1.00  0.00     0.039 A 
ATOM     80  C   UNL A   1      32.626  19.562  24.535  1.00  0.00     0.039 A 
ATOM     81  C   UNL A   1      32.236  19.605  23.205  1.00  0.00     0.123 A 
ATOM     82  F   UNL A   1      31.910  18.468  22.575  1.00  0.00    -0.207 F 
ENDBRANCH  66  76
ENDBRANCH  59  62
ENDBRANCH  57  58
ENDBRANCH  56  57
ENDBRANCH   1  56
TORSDOF 13
ENDMDL
MODEL 2
REMARK VINA RESULT:     -12.0      4.381      8.111
REMARK SMILES O=C(NCCCNC(=O)[C@H]1C[C@](O)(c2ccc(F)cc2)[C@@H](c2ccc(F)cc2)O1)c1ccc(-c2c3nc(c(-c4ccccc4)c4ccc([nH]4)c(-c4ccccc4)c4nc(c(-c5ccccc5)c5ccc2[nH]5)C=C4)C=C3)cc1
REMARK SMILES IDX 4 1 3 2 1 3 2 4 30 6 31 7 77 8 32 9 76 10 33 11 34 12 35 13
REMARK SMILES IDX 70 14 36 15 75 16 69 17 71 18 37 19 74 20 68 21 67 22 38 24
REMARK SMILES IDX 60 25 45 26 59 27 46 28 49 29 58 30 72 31 47 32 48 33 57 35
REMARK SMILES IDX 73 36 50 37 39 38 40 39 44 40 41 41 43 42 42 43 61 44 62 45
REMARK SMILES IDX 66 46 63 47 65 48 64 49 51 50 52 51 56 52 53 53 55 54 54 55
REMARK SMILES IDX 5 56 6 57 7 58 8 59 9 61 10 62 11 63 29 64 12 65 21 66 14 67
REMARK SMILES IDX 15 68 20 69 16 70 19 71 17 72 18 73 13 74 22 76 23 77 28 78
REMARK SMILES IDX 24 79 27 80 25 81 26 82
REMARK H PARENT 3 5 71 23 49 34 7 60 13 75
REMARK Flexibility Score: inf
ROOT
ATOM      1  C   UNL A   1      43.863  18.806  26.133  1.00  0.00     0.118 C 
ENDROOT
BRANCH   1   2
ATOM      2  N   UNL A   1      42.469  18.710  25.717  1.00  0.00    -0.352 N 
ATOM      3  O   UNL A   1      40.271  19.145  25.604  1.00  0.00    -0.269 OA
ATOM      4  C   UNL A   1      41.387  19.529  25.937  1.00  0.00     0.251 C 
ATOM      5  H   UNL A   1      42.266  17.912  25.178  1.00  0.00     0.163 HD
BRANCH   4   6
ATOM      6  C   UNL A   1      41.534  20.847  26.597  1.00  0.00     0.039 A 
ATOM      7  C   UNL A   1      41.803  22.004  25.869  1.00  0.00     0.014 A 
ATOM      8  C   UNL A   1      41.349  20.934  27.982  1.00  0.00     0.014 A 
ATOM      9  C   UNL A   1      42.070  23.198  26.534  1.00  0.00     0.010 A 
ATOM     10  C   UNL A   1      41.519  22.157  28.641  1.00  0.00     0.010 A 
ATOM     11  C   UNL A   1      41.931  23.291  27.928  1.00  0.00    -0.014 A 
BRANCH  11  12
ATOM     12  C   UNL A   1      42.202  24.590  28.601  1.00  0.00     0.031 A 
ATOM     13  C   UNL A   1      43.560  24.906  29.169  1.00  0.00     0.074 A 
ATOM     14  C   UNL A   1      41.225  25.518  28.653  1.00  0.00     0.049 A 
ATOM     15  N   UNL A   1      43.990  26.022  29.706  1.00  0.00    -0.248 NA
ATOM     16  C   UNL A   1      44.566  23.832  29.140  1.00  0.00     0.031 C 
ATOM     17  C   UNL A   1      39.861  25.337  28.148  1.00  0.00     0.029 A 
ATOM     18  N   UNL A   1      41.237  26.808  29.119  1.00  0.00    -0.354 N 
ATOM     19  C   UNL A   1      45.301  25.778  30.097  1.00  0.00     0.074 A 
ATOM     20  C   UNL A   1      45.590  24.401  29.762  1.00  0.00     0.031 C 
ATOM     21  C   UNL A   1      39.191  26.491  28.269  1.00  0.00     0.029 A 
ATOM     22  C   UNL A   1      40.054  27.475  28.913  1.00  0.00     0.049 A 
ATOM     23  H   UNL A   1      42.017  27.216  29.559  1.00  0.00     0.167 HD
ATOM     24  C   UNL A   1      46.187  26.625  30.676  1.00  0.00     0.031 A 
ATOM     25  C   UNL A   1      39.698  28.740  29.206  1.00  0.00     0.031 A 
ATOM     26  C   UNL A   1      45.906  27.998  31.004  1.00  0.00     0.049 A 
ATOM     27  C   UNL A   1      40.694  29.649  29.864  1.00  0.00     0.074 A 
ATOM     28  C   UNL A   1      46.756  28.945  31.552  1.00  0.00     0.029 A 
ATOM     29  N   UNL A   1      44.682  28.619  30.821  1.00  0.00    -0.354 N 
ATOM     30  N   UNL A   1      41.944  29.416  30.179  1.00  0.00    -0.248 NA
ATOM     31  C   UNL A   1      40.227  31.000  30.203  1.00  0.00     0.031 C 
ATOM     32  C   UNL A   1      46.029  30.124  31.749  1.00  0.00     0.029 A 
ATOM     33  C   UNL A   1      44.744  29.929  31.270  1.00  0.00     0.049 A 
ATOM     34  H   UNL A   1      43.885  28.194  30.430  1.00  0.00     0.167 HD
ATOM     35  C   UNL A   1      42.420  30.596  30.731  1.00  0.00     0.074 A 
ATOM     36  C   UNL A   1      41.330  31.549  30.690  1.00  0.00     0.031 C 
ATOM     37  C   UNL A   1      43.652  30.867  31.228  1.00  0.00     0.031 A 
BRANCH  24  38
ATOM     38  C   UNL A   1      47.545  26.077  31.025  1.00  0.00    -0.014 A 
ATOM     39  C   UNL A   1      48.586  26.039  30.083  1.00  0.00     0.009 A 
ATOM     40  C   UNL A   1      47.799  25.632  32.332  1.00  0.00     0.009 A 
ATOM     41  C   UNL A   1      49.840  25.534  30.433  1.00  0.00     0.001 A 
ATOM     42  C   UNL A   1      49.062  25.153  32.687  1.00  0.00     0.001 A 
ATOM     43  C   UNL A   1      50.078  25.096  31.736  1.00  0.00     0.000 A 
ENDBRANCH  24  38
BRANCH  25  44
ATOM     44  C   UNL A   1      38.333  29.222  28.870  1.00  0.00    -0.014 A 
ATOM     45  C   UNL A   1      37.312  29.199  29.831  1.00  0.00     0.009 A 
ATOM     46  C   UNL A   1      38.046  29.710  27.586  1.00  0.00     0.009 A 
ATOM     47  C   UNL A   1      36.025  29.636  29.506  1.00  0.00     0.001 A 
ATOM     48  C   UNL A   1      36.767  30.174  27.273  1.00  0.00     0.001 A 
ATOM     49  C   UNL A   1      35.756  30.128  28.230  1.00  0.00     0.000 A 
ENDBRANCH  25  44
BRANCH  37  50
ATOM     50  C   UNL A   1      43.892  32.262  31.732  1.00  0.00    -0.014 A 
ATOM     51  C   UNL A   1      44.427  33.257  30.900  1.00  0.00     0.009 A 
ATOM     52  C   UNL A   1      43.563  32.586  33.058  1.00  0.00     0.009 A 
ATOM     53  C   UNL A   1      44.664  34.541  31.399  1.00  0.00     0.001 A 
ATOM     54  C   UNL A   1      43.774  33.877  33.544  1.00  0.00     0.001 A 
ATOM     55  C   UNL A   1      44.335  34.850  32.718  1.00  0.00     0.000 A 
ENDBRANCH  37  50
ENDBRANCH  11  12
ENDBRANCH   4   6
ENDBRANCH   1   2
BRANCH   1  56
ATOM     56  C   UNL A   1      44.817  19.134  24.989  1.00  0.00     0.042 C 
BRANCH  56  57
ATOM     57  C   UNL A   1      45.510  20.486  25.106  1.00  0.00     0.117 C 
BRANCH  57  58
ATOM     58  N   UNL A   1      44.788  21.567  24.466  1.00  0.00    -0.354 N 
ATOM     59  C   UNL A   1      45.150  22.874  24.318  1.00  0.00     0.249 C 
ATOM     60  H   UNL A   1      43.913  21.324  24.086  1.00  0.00     0.163 HD
ATOM     61  O   UNL A   1      44.418  23.585  23.627  1.00  0.00    -0.272 OA
BRANCH  59  62
ATOM     62  C   UNL A   1      46.449  23.390  24.978  1.00  0.00     0.211 C 
ATOM     63  C   UNL A   1      47.201  24.386  24.095  1.00  0.00     0.085 C 
ATOM     64  O   UNL A   1      46.180  24.019  26.237  1.00  0.00    -0.357 OA
ATOM     65  C   UNL A   1      47.410  25.634  24.951  1.00  0.00     0.123 C 
ATOM     66  C   UNL A   1      46.397  25.435  26.113  1.00  0.00     0.186 C 
BRANCH  65  67
ATOM     67  C   UNL A   1      48.895  25.766  25.328  1.00  0.00    -0.013 A 
ATOM     68  C   UNL A   1      49.335  25.197  26.547  1.00  0.00     0.010 A 
ATOM     69  C   UNL A   1      49.858  26.415  24.535  1.00  0.00     0.010 A 
ATOM     70  C   UNL A   1      50.672  25.257  26.944  1.00  0.00     0.039 A 
ATOM     71  C   UNL A   1      51.203  26.460  24.925  1.00  0.00     0.039 A 
ATOM     72  C   UNL A   1      51.597  25.881  26.123  1.00  0.00     0.123 A 
ATOM     73  F   UNL A   1      52.884  25.930  26.489  1.00  0.00    -0.207 F 
ENDBRANCH  65  67
BRANCH  65  74
ATOM     74  O   UNL A   1      47.111  26.793  24.161  1.00  0.00    -0.382 OA
ATOM     75  H   UNL A   1      46.974  27.556  24.745  1.00  0.00     0.212 HD
ENDBRANCH  65  74
BRANCH  66  76
ATOM     76  C   UNL A   1      45.044  26.133  26.057  1.00  0.00    -0.016 A 
ATOM     77  C   UNL A   1      44.774  27.331  26.737  1.00  0.00     0.009 A 
ATOM     78  C   UNL A   1      44.021  25.575  25.263  1.00  0.00     0.009 A 
ATOM     79  C   UNL A   1      43.533  27.963  26.611  1.00  0.00     0.039 A 
ATOM     80  C   UNL A   1      42.776  26.197  25.153  1.00  0.00     0.039 A 
ATOM     81  C   UNL A   1      42.547  27.390  25.821  1.00  0.00     0.123 A 
ATOM     82  F   UNL A   1      41.359  27.997  25.701  1.00  0.00    -0.207 F 
ENDBRANCH  66  76
ENDBRANCH  59  62
ENDBRANCH  57  58
ENDBRANCH  56  57
ENDBRANCH   1  56
TORSDOF 13
ENDMDL
MODEL 3
REMARK VINA RESULT:     -11.9      3.492      7.102
REMARK SMILES O=C(NCCCNC(=O)[C@H]1C[C@](O)(c2ccc(F)cc2)[C@@H](c2ccc(F)cc2)O1)c1ccc(-c2c3nc(c(-c4ccccc4)c4ccc([nH]4)c(-c4ccccc4)c4nc(c(-c5ccccc5)c5ccc2[nH]5)C=C4)C=C3)cc1
REMARK SMILES IDX 4 1 3 2 1 3 2 4 30 6 31 7 77 8 32 9 76 10 33 11 34 12 35 13
REMARK SMILES IDX 70 14 36 15 75 16 69 17 71 18 37 19 74 20 68 21 67 22 38 24
REMARK SMILES IDX 60 25 45 26 59 27 46 28 49 29 58 30 72 31 47 32 48 33 57 35
REMARK SMILES IDX 73 36 50 37 39 38 40 39 44 40 41 41 43 42 42 43 61 44 62 45
REMARK SMILES IDX 66 46 63 47 65 48 64 49 51 50 52 51 56 52 53 53 55 54 54 55
REMARK SMILES IDX 5 56 6 57 7 58 8 59 9 61 10 62 11 63 29 64 12 65 21 66 14 67
REMARK SMILES IDX 15 68 20 69 16 70 19 71 17 72 18 73 13 74 22 76 23 77 28 78
REMARK SMILES IDX 24 79 27 80 25 81 26 82
REMARK H PARENT 3 5 71 23 49 34 7 60 13 75
REMARK Flexibility Score: inf
ROOT
ATOM      1  C   UNL A   1      40.562  22.061  26.674  1.00  0.00     0.118 C 
ENDROOT
BRANCH   1   2
ATOM      2  N   UNL A   1      41.636  22.563  25.826  1.00  0.00    -0.352 N 
ATOM      3  O   UNL A   1      43.027  24.011  24.825  1.00  0.00    -0.269 OA
ATOM      4  C   UNL A   1      42.237  23.796  25.738  1.00  0.00     0.251 C 
ATOM      5  H   UNL A   1      41.998  21.894  25.201  1.00  0.00     0.163 HD
BRANCH   4   6
ATOM      6  C   UNL A   1      41.928  24.878  26.701  1.00  0.00     0.039 A 
ATOM      7  C   UNL A   1      42.601  26.098  26.673  1.00  0.00     0.014 A 
ATOM      8  C   UNL A   1      40.898  24.683  27.629  1.00  0.00     0.014 A 
ATOM      9  C   UNL A   1      42.380  27.038  27.676  1.00  0.00     0.010 A 
ATOM     10  C   UNL A   1      40.606  25.670  28.577  1.00  0.00     0.010 A 
ATOM     11  C   UNL A   1      41.380  26.838  28.641  1.00  0.00    -0.014 A 
BRANCH  11  12
ATOM     12  C   UNL A   1      41.157  27.875  29.684  1.00  0.00     0.031 A 
ATOM     13  C   UNL A   1      40.011  28.846  29.585  1.00  0.00     0.074 A 
ATOM     14  C   UNL A   1      41.968  27.907  30.761  1.00  0.00     0.049 A 
ATOM     15  N   UNL A   1      39.620  29.752  30.449  1.00  0.00    -0.248 NA
ATOM     16  C   UNL A   1      39.200  28.805  28.358  1.00  0.00     0.031 C 
ATOM     17  C   UNL A   1      43.121  27.029  30.975  1.00  0.00     0.029 A 
ATOM     18  N   UNL A   1      41.926  28.682  31.892  1.00  0.00    -0.354 N 
ATOM     19  C   UNL A   1      38.540  30.399  29.863  1.00  0.00     0.074 A 
ATOM     20  C   UNL A   1      38.350  29.803  28.559  1.00  0.00     0.031 C 
ATOM     21  C   UNL A   1      43.634  27.266  32.191  1.00  0.00     0.029 A 
ATOM     22  C   UNL A   1      42.887  28.351  32.817  1.00  0.00     0.049 A 
ATOM     23  H   UNL A   1      41.272  29.404  32.028  1.00  0.00     0.167 HD
ATOM     24  C   UNL A   1      37.770  31.394  30.367  1.00  0.00     0.031 A 
ATOM     25  C   UNL A   1      43.142  28.861  34.036  1.00  0.00     0.031 A 
ATOM     26  C   UNL A   1      37.949  31.984  31.668  1.00  0.00     0.049 A 
ATOM     27  C   UNL A   1      42.284  29.975  34.561  1.00  0.00     0.074 A 
ATOM     28  C   UNL A   1      37.190  32.967  32.281  1.00  0.00     0.029 A 
ATOM     29  N   UNL A   1      38.962  31.653  32.552  1.00  0.00    -0.354 N 
ATOM     30  N   UNL A   1      41.235  30.538  34.013  1.00  0.00    -0.248 NA
ATOM     31  C   UNL A   1      42.646  30.519  35.876  1.00  0.00     0.031 C 
ATOM     32  C   UNL A   1      37.777  33.267  33.516  1.00  0.00     0.029 A 
ATOM     33  C   UNL A   1      38.865  32.429  33.696  1.00  0.00     0.049 A 
ATOM     34  H   UNL A   1      39.650  30.966  32.393  1.00  0.00     0.167 HD
ATOM     35  C   UNL A   1      40.798  31.487  34.926  1.00  0.00     0.074 A 
ATOM     36  C   UNL A   1      41.683  31.409  36.070  1.00  0.00     0.031 C 
ATOM     37  C   UNL A   1      39.755  32.346  34.826  1.00  0.00     0.031 A 
BRANCH  24  38
ATOM     38  C   UNL A   1      36.672  31.935  29.490  1.00  0.00    -0.014 A 
ATOM     39  C   UNL A   1      35.402  31.336  29.450  1.00  0.00     0.009 A 
ATOM     40  C   UNL A   1      36.901  33.090  28.725  1.00  0.00     0.009 A 
ATOM     41  C   UNL A   1      34.397  31.862  28.634  1.00  0.00     0.001 A 
ATOM     42  C   UNL A   1      35.886  33.629  27.931  1.00  0.00     0.001 A 
ATOM     43  C   UNL A   1      34.639  33.010  27.880  1.00  0.00     0.000 A 
ENDBRANCH  24  38
BRANCH  25  44
ATOM     44  C   UNL A   1      44.259  28.313  34.850  1.00  0.00    -0.014 A 
ATOM     45  C   UNL A   1      45.549  28.853  34.745  1.00  0.00     0.009 A 
ATOM     46  C   UNL A   1      44.038  27.248  35.737  1.00  0.00     0.009 A 
ATOM     47  C   UNL A   1      46.600  28.323  35.497  1.00  0.00     0.001 A 
ATOM     48  C   UNL A   1      45.084  26.741  36.510  1.00  0.00     0.001 A 
ATOM     49  C   UNL A   1      46.365  27.272  36.382  1.00  0.00     0.000 A 
ENDBRANCH  25  44
BRANCH  37  50
ATOM     50  C   UNL A   1      39.495  33.245  36.003  1.00  0.00    -0.014 A 
ATOM     51  C   UNL A   1      40.056  34.529  36.079  1.00  0.00     0.009 A 
ATOM     52  C   UNL A   1      38.663  32.801  37.042  1.00  0.00     0.009 A 
ATOM     53  C   UNL A   1      39.820  35.336  37.194  1.00  0.00     0.001 A 
ATOM     54  C   UNL A   1      38.406  33.622  38.141  1.00  0.00     0.001 A 
ATOM     55  C   UNL A   1      38.993  34.883  38.222  1.00  0.00     0.000 A 
ENDBRANCH  37  50
ENDBRANCH  11  12
ENDBRANCH   4   6
ENDBRANCH   1   2
BRANCH   1  56
ATOM     56  C   UNL A   1      39.417  21.425  25.892  1.00  0.00     0.042 C 
BRANCH  56  57
ATOM     57  C   UNL A   1      38.168  22.289  25.775  1.00  0.00     0.117 C 
BRANCH  57  58
ATOM     58  N   UNL A   1      37.581  22.286  24.450  1.00  0.00    -0.354 N 
ATOM     59  C   UNL A   1      36.552  23.038  23.963  1.00  0.00     0.249 C 
ATOM     60  H   UNL A   1      37.980  21.650  23.813  1.00  0.00     0.163 HD
ATOM     61  O   UNL A   1      36.306  22.941  22.759  1.00  0.00    -0.272 OA
BRANCH  59  62
ATOM     62  C   UNL A   1      35.777  23.983  24.910  1.00  0.00     0.211 C 
ATOM     63  C   UNL A   1      34.753  24.843  24.170  1.00  0.00     0.085 C 
ATOM     64  O   UNL A   1      35.093  23.249  25.933  1.00  0.00    -0.357 OA
ATOM     65  C   UNL A   1      33.417  24.609  24.875  1.00  0.00     0.123 C 
ATOM     66  C   UNL A   1      33.677  23.313  25.693  1.00  0.00     0.186 C 
BRANCH  65  67
ATOM     67  C   UNL A   1      33.014  25.868  25.662  1.00  0.00    -0.013 A 
ATOM     68  C   UNL A   1      33.961  26.910  25.797  1.00  0.00     0.010 A 
ATOM     69  C   UNL A   1      31.755  26.059  26.257  1.00  0.00     0.010 A 
ATOM     70  C   UNL A   1      33.659  28.092  26.477  1.00  0.00     0.039 A 
ATOM     71  C   UNL A   1      31.446  27.251  26.924  1.00  0.00     0.039 A 
ATOM     72  C   UNL A   1      32.399  28.255  27.027  1.00  0.00     0.123 A 
ATOM     73  F   UNL A   1      32.096  29.391  27.668  1.00  0.00    -0.207 F 
ENDBRANCH  65  67
BRANCH  65  74
ATOM     74  O   UNL A   1      32.395  24.432  23.886  1.00  0.00    -0.382 OA
ATOM     75  H   UNL A   1      32.794  24.111  23.062  1.00  0.00     0.212 HD
ENDBRANCH  65  74
BRANCH  66  76
ATOM     76  C   UNL A   1      33.216  21.971  25.139  1.00  0.00    -0.016 A 
ATOM     77  C   UNL A   1      32.734  21.809  23.830  1.00  0.00     0.009 A 
ATOM     78  C   UNL A   1      33.302  20.828  25.960  1.00  0.00     0.009 A 
ATOM     79  C   UNL A   1      32.374  20.547  23.350  1.00  0.00     0.039 A 
ATOM     80  C   UNL A   1      32.925  19.571  25.485  1.00  0.00     0.039 A 
ATOM     81  C   UNL A   1      32.472  19.441  24.181  1.00  0.00     0.123 A 
ATOM     82  F   UNL A   1      32.127  18.232  23.719  1.00  0.00    -0.207 F 
ENDBRANCH  66  76
ENDBRANCH  59  62
ENDBRANCH  57  58
ENDBRANCH  56  57
ENDBRANCH   1  56
TORSDOF 13
ENDMDL
