MODEL 1
REMARK VINA RESULT:     -11.7      0.000      0.000
REMARK SMILES C[C@@H]1CN(C(=O)Nc2ccc(O)c(C(=O)NCCCNC(=O)c3ccc(-c4c5nc(c(-c6ccccc6)c6ccc([nH]6)c(-c6ccccc6)c6nc(c(-c7ccccc7)c7ccc4[nH]7)C=C6)C=C5)cc3)c2)C[C@@H]1C
REMARK SMILES IDX 18 1 17 2 16 3 14 4 15 5 13 7 8 8 9 9 71 10 10 11 11 12 7 13
REMARK SMILES IDX 5 14 6 15 4 17 1 18 2 19 3 20 73 21 72 22 74 23 12 24 19 26
REMARK SMILES IDX 20 27 21 28 22 30 23 31 24 32 70 33 25 34 69 35 26 36 27 37
REMARK SMILES IDX 28 38 63 39 29 40 68 41 62 42 64 43 30 44 67 45 61 46 60 47
REMARK SMILES IDX 31 49 53 50 38 51 52 52 39 53 42 54 51 55 65 56 40 57 41 58
REMARK SMILES IDX 50 60 66 61 43 62 32 63 33 64 37 65 34 66 36 67 35 68 54 69
REMARK SMILES IDX 55 70 59 71 56 72 58 73 57 74 44 75 45 76 49 77 46 78 48 79
REMARK SMILES IDX 47 80
REMARK H PARENT 16 6 7 16 12 25 20 29 64 48 42 59
REMARK Flexibility Score: inf
ROOT
ATOM      1  C   UNL A   1      31.301  32.110  26.589  1.00  0.00     0.042 C 
ENDROOT
BRANCH   1   2
ATOM      2  C   UNL A   1      31.398  30.601  26.367  1.00  0.00     0.118 C 
BRANCH   2   3
ATOM      3  N   UNL A   1      32.360  30.278  25.332  1.00  0.00    -0.352 N 
ATOM      4  C   UNL A   1      32.435  29.254  24.425  1.00  0.00     0.255 C 
ATOM      5  O   UNL A   1      33.389  29.281  23.642  1.00  0.00    -0.269 OA
ATOM      6  H   UNL A   1      33.106  30.917  25.270  1.00  0.00     0.163 HD
BRANCH   4   7
ATOM      7  C   UNL A   1      31.419  28.177  24.250  1.00  0.00     0.083 A 
ATOM      8  C   UNL A   1      30.371  26.266  25.351  1.00  0.00     0.043 A 
ATOM      9  C   UNL A   1      29.467  26.147  24.301  1.00  0.00     0.030 A 
ATOM     10  C   UNL A   1      31.287  27.317  25.358  1.00  0.00     0.044 A 
ATOM     11  C   UNL A   1      29.574  26.988  23.198  1.00  0.00     0.049 A 
ATOM     12  C   UNL A   1      30.559  27.982  23.163  1.00  0.00     0.128 A 
BRANCH   8  13
ATOM     13  N   UNL A   1      30.375  25.371  26.423  1.00  0.00    -0.308 N 
ATOM     14  C   UNL A   1      30.715  24.053  26.481  1.00  0.00     0.321 C 
ATOM     15  O   UNL A   1      30.195  23.365  27.363  1.00  0.00    -0.248 OA
ATOM     16  H   UNL A   1      30.083  25.757  27.281  1.00  0.00     0.171 HD
BRANCH  14  17
ATOM     17  N   UNL A   1      31.722  23.566  25.681  1.00  0.00    -0.324 N 
ATOM     18  C   UNL A   1      33.297  23.211  22.340  1.00  0.00     0.010 C 
ATOM     19  C   UNL A   1      33.113  22.999  23.833  1.00  0.00     0.010 C 
ATOM     20  C   UNL A   1      31.662  23.188  24.271  1.00  0.00     0.125 C 
ATOM     21  C   UNL A   1      33.883  23.935  24.775  1.00  0.00     0.010 C 
ATOM     22  C   UNL A   1      33.112  23.741  26.088  1.00  0.00     0.125 C 
ATOM     23  C   UNL A   1      33.879  25.401  24.337  1.00  0.00     0.010 C 
ENDBRANCH  14  17
ENDBRANCH   8  13
BRANCH  12  24
ATOM     24  O   UNL A   1      30.601  28.758  22.047  1.00  0.00    -0.507 OA
ATOM     25  H   UNL A   1      29.961  28.643  21.372  1.00  0.00     0.293 HD
ENDBRANCH  12  24
ENDBRANCH   4   7
ENDBRANCH   2   3
ENDBRANCH   1   2
BRANCH   1  26
ATOM     26  C   UNL A   1      32.623  32.798  26.901  1.00  0.00     0.118 C 
BRANCH  26  27
ATOM     27  N   UNL A   1      32.453  33.990  27.712  1.00  0.00    -0.352 N 
ATOM     28  C   UNL A   1      33.166  34.446  28.791  1.00  0.00     0.251 C 
ATOM     29  H   UNL A   1      31.702  34.567  27.442  1.00  0.00     0.163 HD
ATOM     30  O   UNL A   1      32.715  35.384  29.444  1.00  0.00    -0.269 OA
BRANCH  28  31
ATOM     31  C   UNL A   1      34.456  33.831  29.202  1.00  0.00     0.039 A 
ATOM     32  C   UNL A   1      35.600  34.147  28.459  1.00  0.00     0.014 A 
ATOM     33  C   UNL A   1      34.551  32.900  30.240  1.00  0.00     0.014 A 
ATOM     34  C   UNL A   1      36.830  33.564  28.776  1.00  0.00     0.010 A 
ATOM     35  C   UNL A   1      35.794  32.373  30.605  1.00  0.00     0.010 A 
ATOM     36  C   UNL A   1      36.943  32.687  29.866  1.00  0.00    -0.014 A 
BRANCH  36  37
ATOM     37  C   UNL A   1      38.258  32.093  30.221  1.00  0.00     0.031 A 
ATOM     38  C   UNL A   1      39.177  32.778  31.197  1.00  0.00     0.074 A 
ATOM     39  C   UNL A   1      38.637  30.933  29.651  1.00  0.00     0.049 A 
ATOM     40  N   UNL A   1      40.338  32.382  31.654  1.00  0.00    -0.248 NA
ATOM     41  C   UNL A   1      38.744  34.086  31.713  1.00  0.00     0.031 C 
ATOM     42  C   UNL A   1      37.865  30.187  28.655  1.00  0.00     0.029 A 
ATOM     43  N   UNL A   1      39.765  30.171  29.835  1.00  0.00    -0.354 N 
ATOM     44  C   UNL A   1      40.778  33.393  32.499  1.00  0.00     0.074 A 
ATOM     45  C   UNL A   1      39.781  34.440  32.458  1.00  0.00     0.031 C 
ATOM     46  C   UNL A   1      38.523  29.057  28.345  1.00  0.00     0.029 A 
ATOM     47  C   UNL A   1      39.772  29.012  29.099  1.00  0.00     0.049 A 
ATOM     48  H   UNL A   1      40.499  30.433  30.437  1.00  0.00     0.167 HD
ATOM     49  C   UNL A   1      41.900  33.440  33.257  1.00  0.00     0.031 A 
ATOM     50  C   UNL A   1      40.676  28.017  29.043  1.00  0.00     0.031 A 
ATOM     51  C   UNL A   1      42.890  32.398  33.313  1.00  0.00     0.049 A 
ATOM     52  C   UNL A   1      41.904  28.085  29.905  1.00  0.00     0.074 A 
ATOM     53  C   UNL A   1      44.030  32.330  34.096  1.00  0.00     0.029 A 
ATOM     54  N   UNL A   1      42.859  31.240  32.553  1.00  0.00    -0.354 N 
ATOM     55  N   UNL A   1      42.266  29.015  30.754  1.00  0.00    -0.248 NA
ATOM     56  C   UNL A   1      42.841  26.956  29.808  1.00  0.00     0.031 C 
ATOM     57  C   UNL A   1      44.709  31.147  33.780  1.00  0.00     0.029 A 
ATOM     58  C   UNL A   1      43.969  30.461  32.832  1.00  0.00     0.049 A 
ATOM     59  H   UNL A   1      42.151  31.006  31.909  1.00  0.00     0.167 HD
ATOM     60  C   UNL A   1      43.463  28.576  31.305  1.00  0.00     0.074 A 
ATOM     61  C   UNL A   1      43.753  27.288  30.710  1.00  0.00     0.031 C 
ATOM     62  C   UNL A   1      44.251  29.188  32.222  1.00  0.00     0.031 A 
BRANCH  49  63
ATOM     63  C   UNL A   1      42.118  34.672  34.091  1.00  0.00    -0.014 A 
ATOM     64  C   UNL A   1      41.685  34.731  35.425  1.00  0.00     0.009 A 
ATOM     65  C   UNL A   1      42.793  35.776  33.547  1.00  0.00     0.009 A 
ATOM     66  C   UNL A   1      41.892  35.883  36.187  1.00  0.00     0.001 A 
ATOM     67  C   UNL A   1      43.021  36.917  34.318  1.00  0.00     0.001 A 
ATOM     68  C   UNL A   1      42.563  36.973  35.634  1.00  0.00     0.000 A 
ENDBRANCH  49  63
BRANCH  50  69
ATOM     69  C   UNL A   1      40.434  26.846  28.162  1.00  0.00    -0.014 A 
ATOM     70  C   UNL A   1      39.656  25.769  28.611  1.00  0.00     0.009 A 
ATOM     71  C   UNL A   1      40.976  26.803  26.869  1.00  0.00     0.009 A 
ATOM     72  C   UNL A   1      39.442  24.660  27.789  1.00  0.00     0.001 A 
ATOM     73  C   UNL A   1      40.740  25.704  26.040  1.00  0.00     0.001 A 
ATOM     74  C   UNL A   1      39.981  24.630  26.504  1.00  0.00     0.000 A 
ENDBRANCH  50  69
BRANCH  62  75
ATOM     75  C   UNL A   1      45.494  28.459  32.644  1.00  0.00    -0.014 A 
ATOM     76  C   UNL A   1      46.712  28.661  31.976  1.00  0.00     0.009 A 
ATOM     77  C   UNL A   1      45.451  27.577  33.734  1.00  0.00     0.009 A 
ATOM     78  C   UNL A   1      47.856  27.964  32.370  1.00  0.00     0.001 A 
ATOM     79  C   UNL A   1      46.602  26.899  34.140  1.00  0.00     0.001 A 
ATOM     80  C   UNL A   1      47.800  27.086  33.453  1.00  0.00     0.000 A 
ENDBRANCH  62  75
ENDBRANCH  36  37
ENDBRANCH  28  31
ENDBRANCH  26  27
ENDBRANCH   1  26
TORSDOF 13
ENDMDL
MODEL 2
REMARK VINA RESULT:     -11.6      1.312      1.683
REMARK SMILES C[C@@H]1CN(C(=O)Nc2ccc(O)c(C(=O)NCCCNC(=O)c3ccc(-c4c5nc(c(-c6ccccc6)c6ccc([nH]6)c(-c6ccccc6)c6nc(c(-c7ccccc7)c7ccc4[nH]7)C=C6)C=C5)cc3)c2)C[C@@H]1C
REMARK SMILES IDX 18 1 17 2 16 3 14 4 15 5 13 7 8 8 9 9 71 10 10 11 11 12 7 13
REMARK SMILES IDX 5 14 6 15 4 17 1 18 2 19 3 20 73 21 72 22 74 23 12 24 19 26
REMARK SMILES IDX 20 27 21 28 22 30 23 31 24 32 70 33 25 34 69 35 26 36 27 37
REMARK SMILES IDX 28 38 63 39 29 40 68 41 62 42 64 43 30 44 67 45 61 46 60 47
REMARK SMILES IDX 31 49 53 50 38 51 52 52 39 53 42 54 51 55 65 56 40 57 41 58
REMARK SMILES IDX 50 60 66 61 43 62 32 63 33 64 37 65 34 66 36 67 35 68 54 69
REMARK SMILES IDX 55 70 59 71 56 72 58 73 57 74 44 75 45 76 49 77 46 78 48 79
REMARK SMILES IDX 47 80
REMARK H PARENT 16 6 7 16 12 25 20 29 64 48 42 59
REMARK Flexibility Score: inf
ROOT
ATOM      1  C   UNL A   1      31.383  32.024  26.703  1.00  0.00     0.042 C 
ENDROOT
BRANCH   1   2
ATOM      2  C   UNL A   1      31.542  30.520  26.487  1.00  0.00     0.118 C 
BRANCH   2   3
ATOM      3  N   UNL A   1      32.467  30.234  25.408  1.00  0.00    -0.352 N 
ATOM      4  C   UNL A   1      32.503  29.248  24.458  1.00  0.00     0.255 C 
ATOM      5  O   UNL A   1      33.431  29.301  23.645  1.00  0.00    -0.269 OA
ATOM      6  H   UNL A   1      33.215  30.871  25.347  1.00  0.00     0.163 HD
BRANCH   4   7
ATOM      7  C   UNL A   1      31.475  28.184  24.273  1.00  0.00     0.083 A 
ATOM      8  C   UNL A   1      30.395  26.285  25.363  1.00  0.00     0.043 A 
ATOM      9  C   UNL A   1      29.496  26.180  24.307  1.00  0.00     0.030 A 
ATOM     10  C   UNL A   1      31.325  27.324  25.379  1.00  0.00     0.044 A 
ATOM     11  C   UNL A   1      29.621  27.023  23.207  1.00  0.00     0.049 A 
ATOM     12  C   UNL A   1      30.619  28.004  23.181  1.00  0.00     0.128 A 
BRANCH   8  13
ATOM     13  N   UNL A   1      30.381  25.387  26.433  1.00  0.00    -0.308 N 
ATOM     14  C   UNL A   1      30.714  24.068  26.492  1.00  0.00     0.321 C 
ATOM     15  O   UNL A   1      30.179  23.380  27.366  1.00  0.00    -0.248 OA
ATOM     16  H   UNL A   1      30.078  25.772  27.288  1.00  0.00     0.171 HD
BRANCH  14  17
ATOM     17  N   UNL A   1      31.730  23.578  25.705  1.00  0.00    -0.324 N 
ATOM     18  C   UNL A   1      33.369  23.257  22.392  1.00  0.00     0.010 C 
ATOM     19  C   UNL A   1      33.151  23.022  23.877  1.00  0.00     0.010 C 
ATOM     20  C   UNL A   1      31.694  23.227  24.288  1.00  0.00     0.125 C 
ATOM     21  C   UNL A   1      33.915  23.927  24.851  1.00  0.00     0.010 C 
ATOM     22  C   UNL A   1      33.113  23.722  26.144  1.00  0.00     0.125 C 
ATOM     23  C   UNL A   1      33.945  25.401  24.441  1.00  0.00     0.010 C 
ENDBRANCH  14  17
ENDBRANCH   8  13
BRANCH  12  24
ATOM     24  O   UNL A   1      30.679  28.781  22.067  1.00  0.00    -0.507 OA
ATOM     25  H   UNL A   1      31.510  29.006  21.696  1.00  0.00     0.293 HD
ENDBRANCH  12  24
ENDBRANCH   4   7
ENDBRANCH   2   3
ENDBRANCH   1   2
BRANCH   1  26
ATOM     26  C   UNL A   1      32.688  32.788  26.884  1.00  0.00     0.118 C 
BRANCH  26  27
ATOM     27  N   UNL A   1      32.523  33.994  27.674  1.00  0.00    -0.352 N 
ATOM     28  C   UNL A   1      33.204  34.439  28.779  1.00  0.00     0.251 C 
ATOM     29  H   UNL A   1      31.804  34.592  27.366  1.00  0.00     0.163 HD
ATOM     30  O   UNL A   1      32.757  35.398  29.402  1.00  0.00    -0.269 OA
BRANCH  28  31
ATOM     31  C   UNL A   1      34.453  33.786  29.251  1.00  0.00     0.039 A 
ATOM     32  C   UNL A   1      34.336  32.707  30.136  1.00  0.00     0.014 A 
ATOM     33  C   UNL A   1      35.725  34.255  28.911  1.00  0.00     0.014 A 
ATOM     34  C   UNL A   1      35.480  32.084  30.643  1.00  0.00     0.010 A 
ATOM     35  C   UNL A   1      36.868  33.587  29.359  1.00  0.00     0.010 A 
ATOM     36  C   UNL A   1      36.758  32.504  30.243  1.00  0.00    -0.014 A 
BRANCH  36  37
ATOM     37  C   UNL A   1      37.972  31.820  30.759  1.00  0.00     0.031 A 
ATOM     38  C   UNL A   1      38.526  32.155  32.118  1.00  0.00     0.074 A 
ATOM     39  C   UNL A   1      38.589  30.898  29.995  1.00  0.00     0.049 A 
ATOM     40  N   UNL A   1      39.548  31.627  32.745  1.00  0.00    -0.248 NA
ATOM     41  C   UNL A   1      37.859  33.234  32.863  1.00  0.00     0.031 C 
ATOM     42  C   UNL A   1      38.185  30.512  28.642  1.00  0.00     0.029 A 
ATOM     43  N   UNL A   1      39.685  30.111  30.253  1.00  0.00    -0.354 N 
ATOM     44  C   UNL A   1      39.653  32.316  33.947  1.00  0.00     0.074 A 
ATOM     45  C   UNL A   1      38.619  33.328  33.944  1.00  0.00     0.031 C 
ATOM     46  C   UNL A   1      38.997  29.535  28.204  1.00  0.00     0.029 A 
ATOM     47  C   UNL A   1      39.991  29.246  29.232  1.00  0.00     0.049 A 
ATOM     48  H   UNL A   1      40.201  30.164  31.090  1.00  0.00     0.167 HD
ATOM     49  C   UNL A   1      40.516  32.113  34.971  1.00  0.00     0.031 A 
ATOM     50  C   UNL A   1      40.958  28.314  29.136  1.00  0.00     0.031 A 
ATOM     51  C   UNL A   1      41.539  31.101  34.986  1.00  0.00     0.049 A 
ATOM     52  C   UNL A   1      41.894  28.098  30.291  1.00  0.00     0.074 A 
ATOM     53  C   UNL A   1      42.423  30.781  36.003  1.00  0.00     0.029 A 
ATOM     54  N   UNL A   1      41.815  30.244  33.933  1.00  0.00    -0.354 N 
ATOM     55  N   UNL A   1      41.929  28.708  31.450  1.00  0.00    -0.248 NA
ATOM     56  C   UNL A   1      42.915  27.053  30.127  1.00  0.00     0.031 C 
ATOM     57  C   UNL A   1      43.261  29.756  35.549  1.00  0.00     0.029 A 
ATOM     58  C   UNL A   1      42.870  29.410  34.266  1.00  0.00     0.049 A 
ATOM     59  H   UNL A   1      41.333  30.230  33.074  1.00  0.00     0.167 HD
ATOM     60  C   UNL A   1      42.962  28.111  32.159  1.00  0.00     0.074 A 
ATOM     61  C   UNL A   1      43.513  27.076  31.308  1.00  0.00     0.031 C 
ATOM     62  C   UNL A   1      43.415  28.395  33.405  1.00  0.00     0.031 A 
BRANCH  49  63
ATOM     63  C   UNL A   1      40.392  33.016  36.167  1.00  0.00    -0.014 A 
ATOM     64  C   UNL A   1      39.531  32.698  37.229  1.00  0.00     0.009 A 
ATOM     65  C   UNL A   1      41.169  34.181  36.248  1.00  0.00     0.009 A 
ATOM     66  C   UNL A   1      39.424  33.547  38.332  1.00  0.00     0.001 A 
ATOM     67  C   UNL A   1      41.079  35.017  37.364  1.00  0.00     0.001 A 
ATOM     68  C   UNL A   1      40.201  34.703  38.401  1.00  0.00     0.000 A 
ENDBRANCH  49  63
BRANCH  50  69
ATOM     69  C   UNL A   1      41.067  27.484  27.909  1.00  0.00    -0.014 A 
ATOM     70  C   UNL A   1      40.389  26.260  27.818  1.00  0.00     0.009 A 
ATOM     71  C   UNL A   1      41.845  27.916  26.824  1.00  0.00     0.009 A 
ATOM     72  C   UNL A   1      40.504  25.472  26.671  1.00  0.00     0.001 A 
ATOM     73  C   UNL A   1      41.939  27.136  25.669  1.00  0.00     0.001 A 
ATOM     74  C   UNL A   1      41.276  25.912  25.596  1.00  0.00     0.000 A 
ENDBRANCH  50  69
BRANCH  62  75
ATOM     75  C   UNL A   1      44.553  27.563  33.921  1.00  0.00    -0.014 A 
ATOM     76  C   UNL A   1      45.885  27.968  33.739  1.00  0.00     0.009 A 
ATOM     77  C   UNL A   1      44.290  26.371  34.613  1.00  0.00     0.009 A 
ATOM     78  C   UNL A   1      46.933  27.175  34.211  1.00  0.00     0.001 A 
ATOM     79  C   UNL A   1      45.339  25.593  35.104  1.00  0.00     0.001 A 
ATOM     80  C   UNL A   1      46.659  25.990  34.895  1.00  0.00     0.000 A 
ENDBRANCH  62  75
ENDBRANCH  36  37
ENDBRANCH  28  31
ENDBRANCH  26  27
ENDBRANCH   1  26
TORSDOF 13
ENDMDL
MODEL 3
REMARK VINA RESULT:     -11.5      2.227      7.643
REMARK SMILES C[C@@H]1CN(C(=O)Nc2ccc(O)c(C(=O)NCCCNC(=O)c3ccc(-c4c5nc(c(-c6ccccc6)c6ccc([nH]6)c(-c6ccccc6)c6nc(c(-c7ccccc7)c7ccc4[nH]7)C=C6)C=C5)cc3)c2)C[C@@H]1C
REMARK SMILES IDX 18 1 17 2 16 3 14 4 15 5 13 7 8 8 9 9 71 10 10 11 11 12 7 13
REMARK SMILES IDX 5 14 6 15 4 17 1 18 2 19 3 20 73 21 72 22 74 23 12 24 19 26
REMARK SMILES IDX 20 27 21 28 22 30 23 31 24 32 70 33 25 34 69 35 26 36 27 37
REMARK SMILES IDX 28 38 63 39 29 40 68 41 62 42 64 43 30 44 67 45 61 46 60 47
REMARK SMILES IDX 31 49 53 50 38 51 52 52 39 53 42 54 51 55 65 56 40 57 41 58
REMARK SMILES IDX 50 60 66 61 43 62 32 63 33 64 37 65 34 66 36 67 35 68 54 69
REMARK SMILES IDX 55 70 59 71 56 72 58 73 57 74 44 75 45 76 49 77 46 78 48 79
REMARK SMILES IDX 47 80
REMARK H PARENT 16 6 7 16 12 25 20 29 64 48 42 59
REMARK Flexibility Score: inf
ROOT
ATOM      1  C   UNL A   1      35.833  24.108  25.742  1.00  0.00     0.042 C 
ENDROOT
BRANCH   1   2
ATOM      2  C   UNL A   1      35.010  22.972  26.350  1.00  0.00     0.118 C 
BRANCH   2   3
ATOM      3  N   UNL A   1      34.274  22.248  25.333  1.00  0.00    -0.352 N 
ATOM      4  C   UNL A   1      33.043  22.446  24.765  1.00  0.00     0.255 C 
ATOM      5  O   UNL A   1      32.708  21.647  23.885  1.00  0.00    -0.269 OA
ATOM      6  H   UNL A   1      34.750  21.460  24.984  1.00  0.00     0.163 HD
BRANCH   4   7
ATOM      7  C   UNL A   1      32.129  23.587  25.055  1.00  0.00     0.083 A 
ATOM      8  C   UNL A   1      31.012  25.514  24.055  1.00  0.00     0.043 A 
ATOM      9  C   UNL A   1      30.303  25.724  25.233  1.00  0.00     0.030 A 
ATOM     10  C   UNL A   1      31.859  24.411  23.946  1.00  0.00     0.044 A 
ATOM     11  C   UNL A   1      30.548  24.919  26.340  1.00  0.00     0.049 A 
ATOM     12  C   UNL A   1      31.472  23.871  26.259  1.00  0.00     0.128 A 
BRANCH   8  13
ATOM     13  N   UNL A   1      30.884  26.368  22.957  1.00  0.00    -0.308 N 
ATOM     14  C   UNL A   1      30.928  27.727  22.876  1.00  0.00     0.321 C 
ATOM     15  O   UNL A   1      30.324  28.265  21.945  1.00  0.00    -0.248 OA
ATOM     16  H   UNL A   1      30.736  25.910  22.097  1.00  0.00     0.171 HD
BRANCH  14  17
ATOM     17  N   UNL A   1      31.753  28.440  23.714  1.00  0.00    -0.324 N 
ATOM     18  C   UNL A   1      32.655  29.608  27.118  1.00  0.00     0.010 C 
ATOM     19  C   UNL A   1      32.753  29.481  25.608  1.00  0.00     0.010 C 
ATOM     20  C   UNL A   1      31.416  29.107  24.969  1.00  0.00     0.125 C 
ATOM     21  C   UNL A   1      33.711  28.418  25.053  1.00  0.00     0.010 C 
ATOM     22  C   UNL A   1      33.198  28.274  23.613  1.00  0.00     0.125 C 
ATOM     23  C   UNL A   1      33.660  27.084  25.799  1.00  0.00     0.010 C 
ENDBRANCH  14  17
ENDBRANCH   8  13
BRANCH  12  24
ATOM     24  O   UNL A   1      31.660  23.136  27.387  1.00  0.00    -0.507 OA
ATOM     25  H   UNL A   1      32.465  22.676  27.518  1.00  0.00     0.293 HD
ENDBRANCH  12  24
ENDBRANCH   4   7
ENDBRANCH   2   3
ENDBRANCH   1   2
BRANCH   1  26
ATOM     26  C   UNL A   1      36.916  23.666  24.769  1.00  0.00     0.118 C 
BRANCH  26  27
ATOM     27  N   UNL A   1      37.767  22.624  25.317  1.00  0.00    -0.352 N 
ATOM     28  C   UNL A   1      38.905  22.708  26.079  1.00  0.00     0.251 C 
ATOM     29  H   UNL A   1      37.478  21.706  25.108  1.00  0.00     0.163 HD
ATOM     30  O   UNL A   1      39.569  21.691  26.261  1.00  0.00    -0.269 OA
BRANCH  28  31
ATOM     31  C   UNL A   1      39.363  23.990  26.675  1.00  0.00     0.039 A 
ATOM     32  C   UNL A   1      38.987  24.272  27.994  1.00  0.00     0.014 A 
ATOM     33  C   UNL A   1      40.079  24.946  25.949  1.00  0.00     0.014 A 
ATOM     34  C   UNL A   1      39.355  25.482  28.588  1.00  0.00     0.010 A 
ATOM     35  C   UNL A   1      40.512  26.123  26.567  1.00  0.00     0.010 A 
ATOM     36  C   UNL A   1      40.140  26.411  27.887  1.00  0.00    -0.014 A 
BRANCH  36  37
ATOM     37  C   UNL A   1      40.557  27.683  28.532  1.00  0.00     0.031 A 
ATOM     38  C   UNL A   1      41.979  27.891  28.979  1.00  0.00     0.074 A 
ATOM     39  C   UNL A   1      39.647  28.656  28.731  1.00  0.00     0.049 A 
ATOM     40  N   UNL A   1      42.528  28.952  29.518  1.00  0.00    -0.248 NA
ATOM     41  C   UNL A   1      42.902  26.757  28.817  1.00  0.00     0.031 C 
ATOM     42  C   UNL A   1      38.226  28.568  28.388  1.00  0.00     0.029 A 
ATOM     43  N   UNL A   1      39.784  29.915  29.261  1.00  0.00    -0.354 N 
ATOM     44  C   UNL A   1      43.851  28.609  29.769  1.00  0.00     0.074 A 
ATOM     45  C   UNL A   1      44.012  27.229  29.364  1.00  0.00     0.031 C 
ATOM     46  C   UNL A   1      37.631  29.736  28.681  1.00  0.00     0.029 A 
ATOM     47  C   UNL A   1      38.620  30.644  29.254  1.00  0.00     0.049 A 
ATOM     48  H   UNL A   1      40.636  30.262  29.612  1.00  0.00     0.167 HD
ATOM     49  C   UNL A   1      44.848  29.376  30.271  1.00  0.00     0.031 A 
ATOM     50  C   UNL A   1      38.375  31.906  29.653  1.00  0.00     0.031 A 
ATOM     51  C   UNL A   1      44.698  30.752  30.664  1.00  0.00     0.049 A 
ATOM     52  C   UNL A   1      39.501  32.741  30.192  1.00  0.00     0.074 A 
ATOM     53  C   UNL A   1      45.665  31.629  31.128  1.00  0.00     0.029 A 
ATOM     54  N   UNL A   1      43.503  31.453  30.639  1.00  0.00    -0.354 N 
ATOM     55  N   UNL A   1      40.762  32.423  30.352  1.00  0.00    -0.248 NA
ATOM     56  C   UNL A   1      39.169  34.116  30.594  1.00  0.00     0.031 C 
ATOM     57  C   UNL A   1      45.045  32.848  31.422  1.00  0.00     0.029 A 
ATOM     58  C   UNL A   1      43.702  32.743  31.101  1.00  0.00     0.049 A 
ATOM     59  H   UNL A   1      42.640  31.087  30.339  1.00  0.00     0.167 HD
ATOM     60  C   UNL A   1      41.377  33.562  30.855  1.00  0.00     0.074 A 
ATOM     61  C   UNL A   1      40.355  34.584  30.953  1.00  0.00     0.031 C 
ATOM     62  C   UNL A   1      42.674  33.745  31.205  1.00  0.00     0.031 A 
BRANCH  49  63
ATOM     63  C   UNL A   1      46.199  28.735  30.428  1.00  0.00    -0.014 A 
ATOM     64  C   UNL A   1      46.555  28.074  31.615  1.00  0.00     0.009 A 
ATOM     65  C   UNL A   1      47.116  28.765  29.366  1.00  0.00     0.009 A 
ATOM     66  C   UNL A   1      47.814  27.487  31.747  1.00  0.00     0.001 A 
ATOM     67  C   UNL A   1      48.366  28.155  29.493  1.00  0.00     0.001 A 
ATOM     68  C   UNL A   1      48.717  27.524  30.685  1.00  0.00     0.000 A 
ENDBRANCH  49  63
BRANCH  50  69
ATOM     69  C   UNL A   1      37.009  32.472  29.522  1.00  0.00    -0.014 A 
ATOM     70  C   UNL A   1      36.628  33.143  28.352  1.00  0.00     0.009 A 
ATOM     71  C   UNL A   1      36.080  32.339  30.565  1.00  0.00     0.009 A 
ATOM     72  C   UNL A   1      35.348  33.690  28.234  1.00  0.00     0.001 A 
ATOM     73  C   UNL A   1      34.793  32.866  30.436  1.00  0.00     0.001 A 
ATOM     74  C   UNL A   1      34.431  33.548  29.275  1.00  0.00     0.000 A 
ENDBRANCH  50  69
BRANCH  62  75
ATOM     75  C   UNL A   1      43.056  35.104  31.713  1.00  0.00    -0.014 A 
ATOM     76  C   UNL A   1      43.549  36.089  30.842  1.00  0.00     0.009 A 
ATOM     77  C   UNL A   1      42.905  35.410  33.074  1.00  0.00     0.009 A 
ATOM     78  C   UNL A   1      43.915  37.344  31.333  1.00  0.00     0.001 A 
ATOM     79  C   UNL A   1      43.250  36.673  33.557  1.00  0.00     0.001 A 
ATOM     80  C   UNL A   1      43.763  37.635  32.688  1.00  0.00     0.000 A 
ENDBRANCH  62  75
ENDBRANCH  36  37
ENDBRANCH  28  31
ENDBRANCH  26  27
ENDBRANCH   1  26
TORSDOF 13
ENDMDL
