MODEL 1
REMARK VINA RESULT:     -11.8      0.000      0.000
REMARK SMILES CC[C@@H](C(=O)NCCCNC(=O)c1ccc(-c2c3nc(c(-c4ccccc4)c4ccc([nH]4)c(-c4ccccc4)c4nc(c(-c5ccccc5)c5ccc2[nH]5)C=C4)C=C3)cc1)N1C(=O)/C(=C/C(C)=C/c2ccccc2)SC1=S
REMARK SMILES IDX 7 1 6 2 4 3 5 4 3 6 2 7 1 8 61 9 62 10 76 11 63 12 64 13
REMARK SMILES IDX 75 14 77 15 65 16 66 17 67 18 68 19 69 20 70 21 74 22 71 23
REMARK SMILES IDX 73 24 72 25 8 26 9 27 10 28 11 29 12 31 13 32 14 33 60 34
REMARK SMILES IDX 15 35 59 36 16 37 17 38 18 39 53 40 19 41 58 42 52 43 54 44
REMARK SMILES IDX 20 45 57 46 51 47 50 48 21 50 43 51 28 52 42 53 29 54 32 55
REMARK SMILES IDX 41 56 55 57 30 58 31 59 40 61 56 62 33 63 22 64 23 65 27 66
REMARK SMILES IDX 24 67 26 68 25 69 44 70 45 71 49 72 46 73 48 74 47 75 34 76
REMARK SMILES IDX 35 77 39 78 36 79 38 80 37 81
REMARK H PARENT 6 5 10 30 54 49 32 60
REMARK Flexibility Score: inf
ROOT
ATOM      1  C   UNL A   1      33.201  29.009  24.938  1.00  0.00     0.117 C 
ENDROOT
BRANCH   1   2
ATOM      2  N   UNL A   1      33.812  28.837  23.626  1.00  0.00    -0.354 N 
ATOM      3  C   UNL A   1      33.481  28.021  22.581  1.00  0.00     0.243 C 
ATOM      4  O   UNL A   1      34.264  27.976  21.628  1.00  0.00    -0.273 OA
ATOM      5  H   UNL A   1      34.598  29.409  23.465  1.00  0.00     0.163 HD
BRANCH   3   6
ATOM      6  C   UNL A   1      32.152  27.235  22.584  1.00  0.00     0.181 C 
BRANCH   6   7
ATOM      7  C   UNL A   1      31.246  27.635  23.765  1.00  0.00     0.032 C 
ATOM      8  C   UNL A   1      29.852  28.132  23.454  1.00  0.00     0.006 C 
ENDBRANCH   6   7
BRANCH   6   9
ATOM      9  N   UNL A   1      32.521  25.781  22.575  1.00  0.00    -0.280 N 
ATOM     10  C   UNL A   1      32.799  25.088  23.746  1.00  0.00     0.266 C 
ATOM     11  C   UNL A   1      32.665  25.047  21.410  1.00  0.00     0.149 C 
ATOM     12  O   UNL A   1      32.772  25.515  24.887  1.00  0.00    -0.268 OA
ATOM     13  C   UNL A   1      33.095  23.654  23.467  1.00  0.00     0.080 C 
ATOM     14  S   UNL A   1      33.129  23.390  21.783  1.00  0.00    -0.054 SA
ATOM     15  S   UNL A   1      32.441  25.549  19.831  1.00  0.00    -0.052 S 
ATOM     16  C   UNL A   1      33.245  22.818  24.505  1.00  0.00     0.024 C 
BRANCH  16  17
ATOM     17  C   UNL A   1      33.522  21.386  24.615  1.00  0.00    -0.049 C 
ATOM     18  C   UNL A   1      34.969  21.063  24.933  1.00  0.00     0.044 C 
ATOM     19  C   UNL A   1      32.615  20.427  24.341  1.00  0.00     0.011 C 
BRANCH  19  20
ATOM     20  C   UNL A   1      32.814  18.971  24.376  1.00  0.00    -0.025 A 
ATOM     21  C   UNL A   1      32.669  18.319  25.606  1.00  0.00     0.008 A 
ATOM     22  C   UNL A   1      33.228  18.236  23.260  1.00  0.00     0.008 A 
ATOM     23  C   UNL A   1      32.913  16.949  25.716  1.00  0.00     0.001 A 
ATOM     24  C   UNL A   1      33.463  16.863  23.368  1.00  0.00     0.001 A 
ATOM     25  C   UNL A   1      33.307  16.221  24.595  1.00  0.00     0.000 A 
ENDBRANCH  19  20
ENDBRANCH  16  17
ENDBRANCH   6   9
ENDBRANCH   3   6
ENDBRANCH   1   2
BRANCH   1  26
ATOM     26  C   UNL A   1      33.988  28.245  26.000  1.00  0.00     0.042 C 
BRANCH  26  27
ATOM     27  C   UNL A   1      33.568  28.579  27.423  1.00  0.00     0.118 C 
BRANCH  27  28
ATOM     28  N   UNL A   1      33.560  30.010  27.666  1.00  0.00    -0.352 N 
ATOM     29  C   UNL A   1      34.530  30.800  28.237  1.00  0.00     0.251 C 
ATOM     30  H   UNL A   1      32.744  30.481  27.382  1.00  0.00     0.163 HD
ATOM     31  O   UNL A   1      34.260  31.950  28.569  1.00  0.00    -0.269 OA
BRANCH  29  32
ATOM     32  C   UNL A   1      35.892  30.265  28.474  1.00  0.00     0.039 A 
ATOM     33  C   UNL A   1      36.822  30.289  27.430  1.00  0.00     0.014 A 
ATOM     34  C   UNL A   1      36.250  29.714  29.707  1.00  0.00     0.014 A 
ATOM     35  C   UNL A   1      38.119  29.810  27.640  1.00  0.00     0.010 A 
ATOM     36  C   UNL A   1      37.566  29.328  29.944  1.00  0.00     0.010 A 
ATOM     37  C   UNL A   1      38.513  29.352  28.907  1.00  0.00    -0.014 A 
BRANCH  37  38
ATOM     38  C   UNL A   1      39.884  28.839  29.164  1.00  0.00     0.031 A 
ATOM     39  C   UNL A   1      40.908  29.737  29.811  1.00  0.00     0.074 A 
ATOM     40  C   UNL A   1      40.232  27.596  28.773  1.00  0.00     0.049 A 
ATOM     41  N   UNL A   1      42.183  29.524  30.021  1.00  0.00    -0.248 NA
ATOM     42  C   UNL A   1      40.440  31.060  30.262  1.00  0.00     0.031 C 
ATOM     43  C   UNL A   1      39.347  26.628  28.124  1.00  0.00     0.029 A 
ATOM     44  N   UNL A   1      41.434  26.936  28.862  1.00  0.00    -0.354 N 
ATOM     45  C   UNL A   1      42.666  30.685  30.612  1.00  0.00     0.074 A 
ATOM     46  C   UNL A   1      41.567  31.621  30.673  1.00  0.00     0.031 C 
ATOM     47  C   UNL A   1      40.029  25.492  27.893  1.00  0.00     0.029 A 
ATOM     48  C   UNL A   1      41.409  25.668  28.333  1.00  0.00     0.049 A 
ATOM     49  H   UNL A   1      42.238  27.335  29.268  1.00  0.00     0.167 HD
ATOM     50  C   UNL A   1      43.906  30.942  31.091  1.00  0.00     0.031 A 
ATOM     51  C   UNL A   1      42.392  24.756  28.200  1.00  0.00     0.031 A 
ATOM     52  C   UNL A   1      45.000  30.011  31.047  1.00  0.00     0.049 A 
ATOM     53  C   UNL A   1      43.775  25.089  28.696  1.00  0.00     0.074 A 
ATOM     54  C   UNL A   1      46.290  30.174  31.522  1.00  0.00     0.029 A 
ATOM     55  N   UNL A   1      44.928  28.738  30.505  1.00  0.00    -0.354 N 
ATOM     56  N   UNL A   1      44.203  26.179  29.286  1.00  0.00    -0.248 NA
ATOM     57  C   UNL A   1      44.809  24.060  28.515  1.00  0.00     0.031 C 
ATOM     58  C   UNL A   1      47.012  29.013  31.229  1.00  0.00     0.029 A 
ATOM     59  C   UNL A   1      46.153  28.107  30.626  1.00  0.00     0.049 A 
ATOM     60  H   UNL A   1      44.125  28.342  30.094  1.00  0.00     0.167 HD
ATOM     61  C   UNL A   1      45.541  25.946  29.585  1.00  0.00     0.074 A 
ATOM     62  C   UNL A   1      45.849  24.610  29.124  1.00  0.00     0.031 C 
ATOM     63  C   UNL A   1      46.435  26.766  30.189  1.00  0.00     0.031 A 
BRANCH  50  64
ATOM     64  C   UNL A   1      44.143  32.286  31.723  1.00  0.00    -0.014 A 
ATOM     65  C   UNL A   1      43.925  32.485  33.096  1.00  0.00     0.009 A 
ATOM     66  C   UNL A   1      44.642  33.349  30.954  1.00  0.00     0.009 A 
ATOM     67  C   UNL A   1      44.175  33.729  33.680  1.00  0.00     0.001 A 
ATOM     68  C   UNL A   1      44.920  34.582  31.547  1.00  0.00     0.001 A 
ATOM     69  C   UNL A   1      44.679  34.773  32.906  1.00  0.00     0.000 A 
ENDBRANCH  50  64
BRANCH  51  70
ATOM     70  C   UNL A   1      42.124  23.435  27.569  1.00  0.00    -0.014 A 
ATOM     71  C   UNL A   1      41.657  22.357  28.338  1.00  0.00     0.009 A 
ATOM     72  C   UNL A   1      42.393  23.226  26.207  1.00  0.00     0.009 A 
ATOM     73  C   UNL A   1      41.512  21.089  27.769  1.00  0.00     0.001 A 
ATOM     74  C   UNL A   1      42.212  21.967  25.633  1.00  0.00     0.001 A 
ATOM     75  C   UNL A   1      41.788  20.895  26.417  1.00  0.00     0.000 A 
ENDBRANCH  51  70
BRANCH  63  76
ATOM     76  C   UNL A   1      47.809  26.220  30.454  1.00  0.00    -0.014 A 
ATOM     77  C   UNL A   1      48.807  26.229  29.468  1.00  0.00     0.009 A 
ATOM     78  C   UNL A   1      48.121  25.736  31.735  1.00  0.00     0.009 A 
ATOM     79  C   UNL A   1      50.082  25.735  29.752  1.00  0.00     0.001 A 
ATOM     80  C   UNL A   1      49.405  25.274  32.026  1.00  0.00     0.001 A 
ATOM     81  C   UNL A   1      50.382  25.266  31.031  1.00  0.00     0.000 A 
ENDBRANCH  63  76
ENDBRANCH  37  38
ENDBRANCH  29  32
ENDBRANCH  27  28
ENDBRANCH  26  27
ENDBRANCH   1  26
TORSDOF 14
ENDMDL
MODEL 2
REMARK VINA RESULT:     -11.8      2.479      8.240
REMARK SMILES CC[C@@H](C(=O)NCCCNC(=O)c1ccc(-c2c3nc(c(-c4ccccc4)c4ccc([nH]4)c(-c4ccccc4)c4nc(c(-c5ccccc5)c5ccc2[nH]5)C=C4)C=C3)cc1)N1C(=O)/C(=C/C(C)=C/c2ccccc2)SC1=S
REMARK SMILES IDX 7 1 6 2 4 3 5 4 3 6 2 7 1 8 61 9 62 10 76 11 63 12 64 13
REMARK SMILES IDX 75 14 77 15 65 16 66 17 67 18 68 19 69 20 70 21 74 22 71 23
REMARK SMILES IDX 73 24 72 25 8 26 9 27 10 28 11 29 12 31 13 32 14 33 60 34
REMARK SMILES IDX 15 35 59 36 16 37 17 38 18 39 53 40 19 41 58 42 52 43 54 44
REMARK SMILES IDX 20 45 57 46 51 47 50 48 21 50 43 51 28 52 42 53 29 54 32 55
REMARK SMILES IDX 41 56 55 57 30 58 31 59 40 61 56 62 33 63 22 64 23 65 27 66
REMARK SMILES IDX 24 67 26 68 25 69 44 70 45 71 49 72 46 73 48 74 47 75 34 76
REMARK SMILES IDX 35 77 39 78 36 79 38 80 37 81
REMARK H PARENT 6 5 10 30 54 49 32 60
REMARK Flexibility Score: inf
ROOT
ATOM      1  C   UNL A   1      36.193  20.448  25.077  1.00  0.00     0.117 C 
ENDROOT
BRANCH   1   2
ATOM      2  N   UNL A   1      36.049  21.719  24.379  1.00  0.00    -0.354 N 
ATOM      3  C   UNL A   1      34.936  22.407  23.984  1.00  0.00     0.243 C 
ATOM      4  O   UNL A   1      35.107  23.404  23.277  1.00  0.00    -0.273 OA
ATOM      5  H   UNL A   1      36.902  22.159  24.155  1.00  0.00     0.163 HD
BRANCH   3   6
ATOM      6  C   UNL A   1      33.532  21.973  24.457  1.00  0.00     0.181 C 
BRANCH   6   7
ATOM      7  C   UNL A   1      32.862  21.000  23.466  1.00  0.00     0.032 C 
ATOM      8  C   UNL A   1      32.694  19.559  23.890  1.00  0.00     0.006 C 
ENDBRANCH   6   7
BRANCH   6   9
ATOM      9  N   UNL A   1      32.752  23.235  24.681  1.00  0.00    -0.280 N 
ATOM     10  C   UNL A   1      32.191  23.946  23.628  1.00  0.00     0.266 C 
ATOM     11  C   UNL A   1      32.585  23.806  25.931  1.00  0.00     0.149 C 
ATOM     12  O   UNL A   1      32.224  23.669  22.442  1.00  0.00    -0.268 OA
ATOM     13  C   UNL A   1      31.436  25.133  24.121  1.00  0.00     0.080 C 
ATOM     14  S   UNL A   1      31.642  25.288  25.807  1.00  0.00    -0.054 SA
ATOM     15  S   UNL A   1      33.138  23.253  27.409  1.00  0.00    -0.052 S 
ATOM     16  C   UNL A   1      30.717  25.845  23.240  1.00  0.00     0.024 C 
BRANCH  16  17
ATOM     17  C   UNL A   1      29.866  27.028  23.356  1.00  0.00    -0.049 C 
ATOM     18  C   UNL A   1      28.481  26.737  23.903  1.00  0.00     0.044 C 
ATOM     19  C   UNL A   1      30.218  28.249  22.907  1.00  0.00     0.011 C 
BRANCH  19  20
ATOM     20  C   UNL A   1      29.414  29.480  22.936  1.00  0.00    -0.025 A 
ATOM     21  C   UNL A   1      28.502  29.691  21.894  1.00  0.00     0.008 A 
ATOM     22  C   UNL A   1      29.590  30.478  23.900  1.00  0.00     0.008 A 
ATOM     23  C   UNL A   1      27.760  30.871  21.829  1.00  0.00     0.001 A 
ATOM     24  C   UNL A   1      28.842  31.656  23.839  1.00  0.00     0.001 A 
ATOM     25  C   UNL A   1      27.929  31.853  22.804  1.00  0.00     0.000 A 
ENDBRANCH  19  20
ENDBRANCH  16  17
ENDBRANCH   6   9
ENDBRANCH   3   6
ENDBRANCH   1   2
BRANCH   1  26
ATOM     26  C   UNL A   1      37.562  19.835  24.799  1.00  0.00     0.042 C 
BRANCH  26  27
ATOM     27  C   UNL A   1      38.645  20.315  25.754  1.00  0.00     0.118 C 
BRANCH  27  28
ATOM     28  N   UNL A   1      39.763  19.390  25.817  1.00  0.00    -0.352 N 
ATOM     29  C   UNL A   1      41.088  19.646  26.075  1.00  0.00     0.251 C 
ATOM     30  H   UNL A   1      39.539  18.446  25.652  1.00  0.00     0.163 HD
ATOM     31  O   UNL A   1      41.928  18.776  25.864  1.00  0.00    -0.269 OA
BRANCH  29  32
ATOM     32  C   UNL A   1      41.514  20.972  26.585  1.00  0.00     0.039 A 
ATOM     33  C   UNL A   1      41.514  21.200  27.964  1.00  0.00     0.014 A 
ATOM     34  C   UNL A   1      41.884  21.999  25.713  1.00  0.00     0.014 A 
ATOM     35  C   UNL A   1      41.932  22.437  28.466  1.00  0.00     0.010 A 
ATOM     36  C   UNL A   1      42.392  23.193  26.217  1.00  0.00     0.010 A 
ATOM     37  C   UNL A   1      42.404  23.435  27.599  1.00  0.00    -0.014 A 
BRANCH  37  38
ATOM     38  C   UNL A   1      42.858  24.758  28.101  1.00  0.00     0.031 A 
ATOM     39  C   UNL A   1      41.847  25.847  28.358  1.00  0.00     0.074 A 
ATOM     40  C   UNL A   1      44.172  25.007  28.278  1.00  0.00     0.049 A 
ATOM     41  N   UNL A   1      42.043  27.099  28.689  1.00  0.00    -0.248 NA
ATOM     42  C   UNL A   1      40.428  25.485  28.198  1.00  0.00     0.031 C 
ATOM     43  C   UNL A   1      45.258  24.051  28.054  1.00  0.00     0.029 A 
ATOM     44  N   UNL A   1      44.817  26.150  28.682  1.00  0.00    -0.354 N 
ATOM     45  C   UNL A   1      40.778  27.671  28.762  1.00  0.00     0.074 A 
ATOM     46  C   UNL A   1      39.827  26.651  28.384  1.00  0.00     0.031 C 
ATOM     47  C   UNL A   1      46.431  24.640  28.344  1.00  0.00     0.029 A 
ATOM     48  C   UNL A   1      46.186  26.027  28.727  1.00  0.00     0.049 A 
ATOM     49  H   UNL A   1      44.344  26.981  28.917  1.00  0.00     0.167 HD
ATOM     50  C   UNL A   1      40.433  28.924  29.141  1.00  0.00     0.031 A 
ATOM     51  C   UNL A   1      47.137  26.933  29.025  1.00  0.00     0.031 A 
ATOM     52  C   UNL A   1      41.373  29.939  29.532  1.00  0.00     0.049 A 
ATOM     53  C   UNL A   1      46.726  28.335  29.393  1.00  0.00     0.074 A 
ATOM     54  C   UNL A   1      41.118  31.235  29.948  1.00  0.00     0.029 A 
ATOM     55  N   UNL A   1      42.747  29.768  29.566  1.00  0.00    -0.354 N 
ATOM     56  N   UNL A   1      45.523  28.846  29.493  1.00  0.00    -0.248 NA
ATOM     57  C   UNL A   1      47.808  29.283  29.698  1.00  0.00     0.031 C 
ATOM     58  C   UNL A   1      42.344  31.862  30.194  1.00  0.00     0.029 A 
ATOM     59  C   UNL A   1      43.355  30.937  29.988  1.00  0.00     0.049 A 
ATOM     60  H   UNL A   1      43.221  28.938  29.325  1.00  0.00     0.167 HD
ATOM     61  C   UNL A   1      45.703  30.158  29.916  1.00  0.00     0.074 A 
ATOM     62  C   UNL A   1      47.129  30.360  30.065  1.00  0.00     0.031 C 
ATOM     63  C   UNL A   1      44.772  31.111  30.160  1.00  0.00     0.031 A 
BRANCH  50  64
ATOM     64  C   UNL A   1      38.969  29.265  29.166  1.00  0.00    -0.014 A 
ATOM     65  C   UNL A   1      38.316  29.724  28.010  1.00  0.00     0.009 A 
ATOM     66  C   UNL A   1      38.220  29.074  30.337  1.00  0.00     0.009 A 
ATOM     67  C   UNL A   1      36.950  30.010  28.034  1.00  0.00     0.001 A 
ATOM     68  C   UNL A   1      36.848  29.333  30.350  1.00  0.00     0.001 A 
ATOM     69  C   UNL A   1      36.216  29.807  29.201  1.00  0.00     0.000 A 
ENDBRANCH  50  64
BRANCH  51  70
ATOM     70  C   UNL A   1      48.578  26.563  28.990  1.00  0.00    -0.014 A 
ATOM     71  C   UNL A   1      49.312  26.660  27.796  1.00  0.00     0.009 A 
ATOM     72  C   UNL A   1      49.214  26.052  30.131  1.00  0.00     0.009 A 
ATOM     73  C   UNL A   1      50.632  26.210  27.735  1.00  0.00     0.001 A 
ATOM     74  C   UNL A   1      50.545  25.636  30.077  1.00  0.00     0.001 A 
ATOM     75  C   UNL A   1      51.248  25.699  28.876  1.00  0.00     0.000 A 
ENDBRANCH  51  70
BRANCH  63  76
ATOM     76  C   UNL A   1      45.254  32.435  30.683  1.00  0.00    -0.014 A 
ATOM     77  C   UNL A   1      45.495  32.642  32.049  1.00  0.00     0.009 A 
ATOM     78  C   UNL A   1      45.520  33.476  29.778  1.00  0.00     0.009 A 
ATOM     79  C   UNL A   1      45.965  33.876  32.502  1.00  0.00     0.001 A 
ATOM     80  C   UNL A   1      46.021  34.697  30.229  1.00  0.00     0.001 A 
ATOM     81  C   UNL A   1      46.235  34.899  31.592  1.00  0.00     0.000 A 
ENDBRANCH  63  76
ENDBRANCH  37  38
ENDBRANCH  29  32
ENDBRANCH  27  28
ENDBRANCH  26  27
ENDBRANCH   1  26
TORSDOF 14
ENDMDL
MODEL 3
REMARK VINA RESULT:     -11.5      5.182      8.423
REMARK SMILES CC[C@@H](C(=O)NCCCNC(=O)c1ccc(-c2c3nc(c(-c4ccccc4)c4ccc([nH]4)c(-c4ccccc4)c4nc(c(-c5ccccc5)c5ccc2[nH]5)C=C4)C=C3)cc1)N1C(=O)/C(=C/C(C)=C/c2ccccc2)SC1=S
REMARK SMILES IDX 7 1 6 2 4 3 5 4 3 6 2 7 1 8 61 9 62 10 76 11 63 12 64 13
REMARK SMILES IDX 75 14 77 15 65 16 66 17 67 18 68 19 69 20 70 21 74 22 71 23
REMARK SMILES IDX 73 24 72 25 8 26 9 27 10 28 11 29 12 31 13 32 14 33 60 34
REMARK SMILES IDX 15 35 59 36 16 37 17 38 18 39 53 40 19 41 58 42 52 43 54 44
REMARK SMILES IDX 20 45 57 46 51 47 50 48 21 50 43 51 28 52 42 53 29 54 32 55
REMARK SMILES IDX 41 56 55 57 30 58 31 59 40 61 56 62 33 63 22 64 23 65 27 66
REMARK SMILES IDX 24 67 26 68 25 69 44 70 45 71 49 72 46 73 48 74 47 75 34 76
REMARK SMILES IDX 35 77 39 78 36 79 38 80 37 81
REMARK H PARENT 6 5 10 30 54 49 32 60
REMARK Flexibility Score: inf
ROOT
ATOM      1  C   UNL A   1      35.944  31.752  31.821  1.00  0.00     0.117 C 
ENDROOT
BRANCH   1   2
ATOM      2  N   UNL A   1      35.983  32.104  33.234  1.00  0.00    -0.354 N 
ATOM      3  C   UNL A   1      36.983  32.635  34.001  1.00  0.00     0.243 C 
ATOM      4  O   UNL A   1      36.789  32.703  35.217  1.00  0.00    -0.273 OA
ATOM      5  H   UNL A   1      35.144  31.932  33.721  1.00  0.00     0.163 HD
BRANCH   3   6
ATOM      6  C   UNL A   1      38.275  33.172  33.349  1.00  0.00     0.181 C 
BRANCH   6   7
ATOM      7  C   UNL A   1      38.123  33.355  31.826  1.00  0.00     0.032 C 
ATOM      8  C   UNL A   1      38.745  34.579  31.192  1.00  0.00     0.006 C 
ENDBRANCH   6   7
BRANCH   6   9
ATOM      9  N   UNL A   1      39.370  32.220  33.733  1.00  0.00    -0.280 N 
ATOM     10  C   UNL A   1      39.335  30.880  33.373  1.00  0.00     0.266 C 
ATOM     11  C   UNL A   1      40.453  32.592  34.513  1.00  0.00     0.149 C 
ATOM     12  O   UNL A   1      38.482  30.306  32.720  1.00  0.00    -0.268 OA
ATOM     13  C   UNL A   1      40.557  30.164  33.840  1.00  0.00     0.080 C 
ATOM     14  S   UNL A   1      41.515  31.214  34.783  1.00  0.00    -0.054 SA
ATOM     15  S   UNL A   1      40.810  34.098  35.146  1.00  0.00    -0.052 S 
ATOM     16  C   UNL A   1      40.743  28.894  33.451  1.00  0.00     0.024 C 
BRANCH  16  17
ATOM     17  C   UNL A   1      41.796  27.909  33.693  1.00  0.00    -0.049 C 
ATOM     18  C   UNL A   1      41.526  27.000  34.877  1.00  0.00     0.044 C 
ATOM     19  C   UNL A   1      42.960  27.878  33.015  1.00  0.00     0.011 C 
BRANCH  19  20
ATOM     20  C   UNL A   1      44.091  26.962  33.219  1.00  0.00    -0.025 A 
ATOM     21  C   UNL A   1      45.195  27.433  33.941  1.00  0.00     0.008 A 
ATOM     22  C   UNL A   1      44.146  25.686  32.648  1.00  0.00     0.008 A 
ATOM     23  C   UNL A   1      46.327  26.634  34.109  1.00  0.00     0.001 A 
ATOM     24  C   UNL A   1      45.275  24.883  32.823  1.00  0.00     0.001 A 
ATOM     25  C   UNL A   1      46.365  25.357  33.551  1.00  0.00     0.000 A 
ENDBRANCH  19  20
ENDBRANCH  16  17
ENDBRANCH   6   9
ENDBRANCH   3   6
ENDBRANCH   1   2
BRANCH   1  26
ATOM     26  C   UNL A   1      34.810  32.490  31.115  1.00  0.00     0.042 C 
BRANCH  26  27
ATOM     27  C   UNL A   1      35.008  32.610  29.612  1.00  0.00     0.118 C 
BRANCH  27  28
ATOM     28  N   UNL A   1      34.273  31.592  28.883  1.00  0.00    -0.352 N 
ATOM     29  C   UNL A   1      34.742  30.461  28.258  1.00  0.00     0.251 C 
ATOM     30  H   UNL A   1      33.300  31.732  28.830  1.00  0.00     0.163 HD
ATOM     31  O   UNL A   1      34.008  29.837  27.499  1.00  0.00    -0.269 OA
BRANCH  29  32
ATOM     32  C   UNL A   1      36.136  30.004  28.476  1.00  0.00     0.039 A 
ATOM     33  C   UNL A   1      36.452  29.331  29.660  1.00  0.00     0.014 A 
ATOM     34  C   UNL A   1      37.138  30.260  27.537  1.00  0.00     0.014 A 
ATOM     35  C   UNL A   1      37.755  28.872  29.875  1.00  0.00     0.010 A 
ATOM     36  C   UNL A   1      38.409  29.720  27.707  1.00  0.00     0.010 A 
ATOM     37  C   UNL A   1      38.740  29.036  28.888  1.00  0.00    -0.014 A 
BRANCH  37  38
ATOM     38  C   UNL A   1      40.133  28.557  29.084  1.00  0.00     0.031 A 
ATOM     39  C   UNL A   1      41.166  29.487  29.672  1.00  0.00     0.074 A 
ATOM     40  C   UNL A   1      40.492  27.317  28.692  1.00  0.00     0.049 A 
ATOM     41  N   UNL A   1      42.454  29.305  29.823  1.00  0.00    -0.248 NA
ATOM     42  C   UNL A   1      40.690  30.804  30.130  1.00  0.00     0.031 C 
ATOM     43  C   UNL A   1      39.599  26.321  28.097  1.00  0.00     0.029 A 
ATOM     44  N   UNL A   1      41.711  26.687  28.731  1.00  0.00    -0.354 N 
ATOM     45  C   UNL A   1      42.938  30.484  30.377  1.00  0.00     0.074 A 
ATOM     46  C   UNL A   1      41.821  31.396  30.480  1.00  0.00     0.031 C 
ATOM     47  C   UNL A   1      40.296  25.199  27.846  1.00  0.00     0.029 A 
ATOM     48  C   UNL A   1      41.691  25.412  28.217  1.00  0.00     0.049 A 
ATOM     49  H   UNL A   1      42.524  27.108  29.093  1.00  0.00     0.167 HD
ATOM     50  C   UNL A   1      44.193  30.775  30.793  1.00  0.00     0.031 A 
ATOM     51  C   UNL A   1      42.687  24.521  28.048  1.00  0.00     0.031 A 
ATOM     52  C   UNL A   1      45.305  29.868  30.707  1.00  0.00     0.049 A 
ATOM     53  C   UNL A   1      44.084  24.891  28.473  1.00  0.00     0.074 A 
ATOM     54  C   UNL A   1      46.612  30.067  31.117  1.00  0.00     0.029 A 
ATOM     55  N   UNL A   1      45.237  28.588  30.183  1.00  0.00    -0.354 N 
ATOM     56  N   UNL A   1      44.514  25.998  29.029  1.00  0.00    -0.248 NA
ATOM     57  C   UNL A   1      45.132  23.883  28.254  1.00  0.00     0.031 C 
ATOM     58  C   UNL A   1      47.346  28.918  30.803  1.00  0.00     0.029 A 
ATOM     59  C   UNL A   1      46.481  27.987  30.253  1.00  0.00     0.049 A 
ATOM     60  H   UNL A   1      44.425  28.168  29.816  1.00  0.00     0.167 HD
ATOM     61  C   UNL A   1      45.870  25.799  29.267  1.00  0.00     0.074 A 
ATOM     62  C   UNL A   1      46.187  24.464  28.806  1.00  0.00     0.031 C 
ATOM     63  C   UNL A   1      46.772  26.647  29.818  1.00  0.00     0.031 A 
BRANCH  50  64
ATOM     64  C   UNL A   1      44.428  32.132  31.397  1.00  0.00    -0.014 A 
ATOM     65  C   UNL A   1      44.325  32.331  32.783  1.00  0.00     0.009 A 
ATOM     66  C   UNL A   1      44.812  33.209  30.583  1.00  0.00     0.009 A 
ATOM     67  C   UNL A   1      44.573  33.587  33.339  1.00  0.00     0.001 A 
ATOM     68  C   UNL A   1      45.089  34.457  31.146  1.00  0.00     0.001 A 
ATOM     69  C   UNL A   1      44.962  34.647  32.521  1.00  0.00     0.000 A 
ENDBRANCH  50  64
BRANCH  51  70
ATOM     70  C   UNL A   1      42.420  23.186  27.445  1.00  0.00    -0.014 A 
ATOM     71  C   UNL A   1      42.673  22.954  26.083  1.00  0.00     0.009 A 
ATOM     72  C   UNL A   1      41.853  22.156  28.211  1.00  0.00     0.009 A 
ATOM     73  C   UNL A   1      42.320  21.739  25.492  1.00  0.00     0.001 A 
ATOM     74  C   UNL A   1      41.535  20.929  27.626  1.00  0.00     0.001 A 
ATOM     75  C   UNL A   1      41.752  20.727  26.264  1.00  0.00     0.000 A 
ENDBRANCH  51  70
BRANCH  63  76
ATOM     76  C   UNL A   1      48.170  26.135  30.023  1.00  0.00    -0.014 A 
ATOM     77  C   UNL A   1      49.133  26.198  29.004  1.00  0.00     0.009 A 
ATOM     78  C   UNL A   1      48.540  25.630  31.280  1.00  0.00     0.009 A 
ATOM     79  C   UNL A   1      50.430  25.736  29.233  1.00  0.00     0.001 A 
ATOM     80  C   UNL A   1      49.845  25.199  31.516  1.00  0.00     0.001 A 
ATOM     81  C   UNL A   1      50.787  25.244  30.489  1.00  0.00     0.000 A 
ENDBRANCH  63  76
ENDBRANCH  37  38
ENDBRANCH  29  32
ENDBRANCH  27  28
ENDBRANCH  26  27
ENDBRANCH   1  26
TORSDOF 14
ENDMDL
