MODEL 1
REMARK VINA RESULT:     -11.3      0.000      0.000
REMARK SMILES O=C(NCCCNC(=O)[C@@H]1C=C[C@H](NS(=O)(=O)c2ccc(Cl)cc2)C1)c1ccc(-c2c3nc(c(-c4ccccc4)c4ccc([nH]4)c(-c4ccccc4)c4nc(c(-c5ccccc5)c5ccc2[nH]5)C=C4)C=C3)cc1
REMARK SMILES IDX 5 1 4 2 3 3 1 4 2 5 26 7 27 8 73 9 28 10 72 11 29 12 30 13
REMARK SMILES IDX 31 14 66 15 32 16 71 17 65 18 67 19 33 20 70 21 64 22 63 23
REMARK SMILES IDX 34 25 56 26 41 27 55 28 42 29 45 30 54 31 68 32 43 33 44 34
REMARK SMILES IDX 53 36 69 37 46 38 35 39 36 40 40 41 37 42 39 43 38 44 57 45
REMARK SMILES IDX 58 46 62 47 59 48 61 49 60 50 47 51 48 52 52 53 49 54 51 55
REMARK SMILES IDX 50 56 6 57 7 58 8 59 9 61 10 62 11 63 25 64 12 65 13 66
REMARK SMILES IDX 14 67 15 69 16 70 17 71 18 72 19 73 24 74 20 75 23 76 21 77
REMARK SMILES IDX 22 78
REMARK H PARENT 3 6 67 24 45 35 7 60 14 68
REMARK Flexibility Score: inf
ROOT
ATOM      1  C   UNL A   1      37.896  19.762  24.662  1.00  0.00     0.042 C 
ENDROOT
BRANCH   1   2
ATOM      2  C   UNL A   1      38.928  20.109  25.735  1.00  0.00     0.118 C 
BRANCH   2   3
ATOM      3  N   UNL A   1      39.957  19.087  25.855  1.00  0.00    -0.352 N 
ATOM      4  O   UNL A   1      42.047  18.260  25.901  1.00  0.00    -0.269 OA
ATOM      5  C   UNL A   1      41.306  19.225  26.058  1.00  0.00     0.251 C 
ATOM      6  H   UNL A   1      39.636  18.158  25.777  1.00  0.00     0.163 HD
BRANCH   5   7
ATOM      7  C   UNL A   1      41.876  20.528  26.467  1.00  0.00     0.039 A 
ATOM      8  C   UNL A   1      42.325  21.449  25.516  1.00  0.00     0.014 A 
ATOM      9  C   UNL A   1      41.877  20.866  27.824  1.00  0.00     0.014 A 
ATOM     10  C   UNL A   1      42.847  22.674  25.925  1.00  0.00     0.010 A 
ATOM     11  C   UNL A   1      42.345  22.119  28.230  1.00  0.00     0.010 A 
ATOM     12  C   UNL A   1      42.835  23.032  27.282  1.00  0.00    -0.014 A 
BRANCH  12  13
ATOM     13  C   UNL A   1      43.220  24.406  27.685  1.00  0.00     0.031 A 
ATOM     14  C   UNL A   1      42.187  25.439  28.034  1.00  0.00     0.074 A 
ATOM     15  C   UNL A   1      44.530  24.724  27.707  1.00  0.00     0.049 A 
ATOM     16  N   UNL A   1      42.364  26.689  28.383  1.00  0.00    -0.248 NA
ATOM     17  C   UNL A   1      40.777  25.022  27.980  1.00  0.00     0.031 C 
ATOM     18  C   UNL A   1      45.625  23.811  27.365  1.00  0.00     0.029 A 
ATOM     19  N   UNL A   1      45.165  25.897  28.025  1.00  0.00    -0.354 N 
ATOM     20  C   UNL A   1      41.092  27.213  28.572  1.00  0.00     0.074 A 
ATOM     21  C   UNL A   1      40.151  26.152  28.286  1.00  0.00     0.031 C 
ATOM     22  C   UNL A   1      46.794  24.451  27.509  1.00  0.00     0.029 A 
ATOM     23  C   UNL A   1      46.531  25.831  27.902  1.00  0.00     0.049 A 
ATOM     24  H   UNL A   1      44.687  26.708  28.316  1.00  0.00     0.167 HD
ATOM     25  C   UNL A   1      40.748  28.468  28.948  1.00  0.00     0.031 A 
ATOM     26  C   UNL A   1      47.471  26.781  28.056  1.00  0.00     0.031 A 
ATOM     27  C   UNL A   1      41.687  29.519  29.240  1.00  0.00     0.049 A 
ATOM     28  C   UNL A   1      47.052  28.169  28.436  1.00  0.00     0.074 A 
ATOM     29  C   UNL A   1      41.431  30.796  29.710  1.00  0.00     0.029 A 
ATOM     30  N   UNL A   1      43.059  29.420  29.075  1.00  0.00    -0.354 N 
ATOM     31  N   UNL A   1      45.849  28.625  28.688  1.00  0.00    -0.248 NA
ATOM     32  C   UNL A   1      48.116  29.177  28.543  1.00  0.00     0.031 C 
ATOM     33  C   UNL A   1      42.645  31.489  29.774  1.00  0.00     0.029 A 
ATOM     34  C   UNL A   1      43.658  30.629  29.387  1.00  0.00     0.049 A 
ATOM     35  H   UNL A   1      43.537  28.611  28.779  1.00  0.00     0.167 HD
ATOM     36  C   UNL A   1      46.013  29.970  28.987  1.00  0.00     0.074 A 
ATOM     37  C   UNL A   1      47.432  30.250  28.911  1.00  0.00     0.031 C 
ATOM     38  C   UNL A   1      45.069  30.893  29.289  1.00  0.00     0.031 A 
BRANCH  25  39
ATOM     39  C   UNL A   1      39.285  28.796  29.047  1.00  0.00    -0.014 A 
ATOM     40  C   UNL A   1      38.584  28.639  30.252  1.00  0.00     0.009 A 
ATOM     41  C   UNL A   1      38.625  29.358  27.942  1.00  0.00     0.009 A 
ATOM     42  C   UNL A   1      37.243  29.024  30.343  1.00  0.00     0.001 A 
ATOM     43  C   UNL A   1      37.291  29.759  28.041  1.00  0.00     0.001 A 
ATOM     44  C   UNL A   1      36.601  29.588  29.240  1.00  0.00     0.000 A 
ENDBRANCH  25  39
BRANCH  26  45
ATOM     45  C   UNL A   1      48.898  26.458  27.803  1.00  0.00    -0.014 A 
ATOM     46  C   UNL A   1      49.435  26.540  26.511  1.00  0.00     0.009 A 
ATOM     47  C   UNL A   1      49.732  26.065  28.864  1.00  0.00     0.009 A 
ATOM     48  C   UNL A   1      50.775  26.215  26.282  1.00  0.00     0.001 A 
ATOM     49  C   UNL A   1      51.077  25.769  28.637  1.00  0.00     0.001 A 
ATOM     50  C   UNL A   1      51.594  25.835  27.346  1.00  0.00     0.000 A 
ENDBRANCH  26  45
BRANCH  38  51
ATOM     51  C   UNL A   1      45.546  32.290  29.557  1.00  0.00    -0.014 A 
ATOM     52  C   UNL A   1      45.938  32.679  30.847  1.00  0.00     0.009 A 
ATOM     53  C   UNL A   1      45.635  33.214  28.505  1.00  0.00     0.009 A 
ATOM     54  C   UNL A   1      46.388  33.979  31.084  1.00  0.00     0.001 A 
ATOM     55  C   UNL A   1      46.107  34.506  28.742  1.00  0.00     0.001 A 
ATOM     56  C   UNL A   1      46.476  34.889  30.031  1.00  0.00     0.000 A 
ENDBRANCH  38  51
ENDBRANCH  12  13
ENDBRANCH   5   7
ENDBRANCH   2   3
ENDBRANCH   1   2
BRANCH   1  57
ATOM     57  C   UNL A   1      36.473  20.176  25.035  1.00  0.00     0.117 C 
BRANCH  57  58
ATOM     58  N   UNL A   1      36.472  21.484  25.663  1.00  0.00    -0.356 N 
ATOM     59  C   UNL A   1      35.412  22.186  26.162  1.00  0.00     0.226 C 
ATOM     60  H   UNL A   1      37.350  21.923  25.739  1.00  0.00     0.163 HD
ATOM     61  O   UNL A   1      35.544  23.408  26.260  1.00  0.00    -0.274 OA
BRANCH  59  62
ATOM     62  C   UNL A   1      34.158  21.436  26.620  1.00  0.00     0.103 C 
ATOM     63  C   UNL A   1      33.137  21.349  25.527  1.00  0.00    -0.016 C 
ATOM     64  C   UNL A   1      33.412  22.231  27.708  1.00  0.00     0.042 C 
ATOM     65  C   UNL A   1      32.118  22.190  25.737  1.00  0.00    -0.011 C 
ATOM     66  C   UNL A   1      32.282  22.988  26.995  1.00  0.00     0.093 C 
BRANCH  66  67
ATOM     67  N   UNL A   1      32.670  24.338  26.602  1.00  0.00    -0.204 NA
ATOM     68  H   UNL A   1      33.408  24.237  25.906  1.00  0.00     0.142 HD
BRANCH  67  69
ATOM     69  S   UNL A   1      31.546  25.400  25.959  1.00  0.00     0.241 S 
ATOM     70  O   UNL A   1      31.619  25.256  24.525  1.00  0.00    -0.207 OA
ATOM     71  O   UNL A   1      30.305  25.238  26.689  1.00  0.00    -0.207 OA
BRANCH  69  72
ATOM     72  C   UNL A   1      32.182  27.014  26.337  1.00  0.00     0.082 A 
ATOM     73  C   UNL A   1      33.517  27.329  26.077  1.00  0.00     0.023 A 
ATOM     74  C   UNL A   1      31.338  27.953  26.938  1.00  0.00     0.023 A 
ATOM     75  C   UNL A   1      34.034  28.560  26.485  1.00  0.00     0.022 A 
ATOM     76  C   UNL A   1      31.848  29.199  27.312  1.00  0.00     0.022 A 
ATOM     77  C   UNL A   1      33.199  29.487  27.105  1.00  0.00     0.041 A 
ATOM     78  Cl  UNL A   1      33.842  30.996  27.624  1.00  0.00    -0.084 Cl
ENDBRANCH  69  72
ENDBRANCH  67  69
ENDBRANCH  66  67
ENDBRANCH  59  62
ENDBRANCH  57  58
ENDBRANCH   1  57
TORSDOF 13
ENDMDL
MODEL 2
REMARK VINA RESULT:     -11.2      1.541      1.856
REMARK SMILES O=C(NCCCNC(=O)[C@@H]1C=C[C@H](NS(=O)(=O)c2ccc(Cl)cc2)C1)c1ccc(-c2c3nc(c(-c4ccccc4)c4ccc([nH]4)c(-c4ccccc4)c4nc(c(-c5ccccc5)c5ccc2[nH]5)C=C4)C=C3)cc1
REMARK SMILES IDX 5 1 4 2 3 3 1 4 2 5 26 7 27 8 73 9 28 10 72 11 29 12 30 13
REMARK SMILES IDX 31 14 66 15 32 16 71 17 65 18 67 19 33 20 70 21 64 22 63 23
REMARK SMILES IDX 34 25 56 26 41 27 55 28 42 29 45 30 54 31 68 32 43 33 44 34
REMARK SMILES IDX 53 36 69 37 46 38 35 39 36 40 40 41 37 42 39 43 38 44 57 45
REMARK SMILES IDX 58 46 62 47 59 48 61 49 60 50 47 51 48 52 52 53 49 54 51 55
REMARK SMILES IDX 50 56 6 57 7 58 8 59 9 61 10 62 11 63 25 64 12 65 13 66
REMARK SMILES IDX 14 67 15 69 16 70 17 71 18 72 19 73 24 74 20 75 23 76 21 77
REMARK SMILES IDX 22 78
REMARK H PARENT 3 6 67 24 45 35 7 60 14 68
REMARK Flexibility Score: inf
ROOT
ATOM      1  C   UNL A   1      37.683  19.839  24.863  1.00  0.00     0.042 C 
ENDROOT
BRANCH   1   2
ATOM      2  C   UNL A   1      38.843  20.348  25.719  1.00  0.00     0.118 C 
BRANCH   2   3
ATOM      3  N   UNL A   1      39.895  19.353  25.860  1.00  0.00    -0.352 N 
ATOM      4  O   UNL A   1      42.006  18.587  25.979  1.00  0.00    -0.269 OA
ATOM      5  C   UNL A   1      41.229  19.526  26.125  1.00  0.00     0.251 C 
ATOM      6  H   UNL A   1      39.606  18.419  25.747  1.00  0.00     0.163 HD
BRANCH   5   7
ATOM      7  C   UNL A   1      41.741  20.834  26.590  1.00  0.00     0.039 A 
ATOM      8  C   UNL A   1      42.145  21.815  25.679  1.00  0.00     0.014 A 
ATOM      9  C   UNL A   1      41.734  21.113  27.960  1.00  0.00     0.014 A 
ATOM     10  C   UNL A   1      42.612  23.044  26.141  1.00  0.00     0.010 A 
ATOM     11  C   UNL A   1      42.146  22.367  28.419  1.00  0.00     0.010 A 
ATOM     12  C   UNL A   1      42.590  23.341  27.512  1.00  0.00    -0.014 A 
BRANCH  12  13
ATOM     13  C   UNL A   1      42.915  24.713  27.974  1.00  0.00     0.031 A 
ATOM     14  C   UNL A   1      41.839  25.731  28.222  1.00  0.00     0.074 A 
ATOM     15  C   UNL A   1      44.210  25.042  28.143  1.00  0.00     0.049 A 
ATOM     16  N   UNL A   1      41.963  26.977  28.605  1.00  0.00    -0.248 NA
ATOM     17  C   UNL A   1      40.448  25.302  28.008  1.00  0.00     0.031 C 
ATOM     18  C   UNL A   1      45.346  24.144  27.910  1.00  0.00     0.029 A 
ATOM     19  N   UNL A   1      44.795  26.216  28.545  1.00  0.00    -0.354 N 
ATOM     20  C   UNL A   1      40.673  27.487  28.662  1.00  0.00     0.074 A 
ATOM     21  C   UNL A   1      39.780  26.421  28.260  1.00  0.00     0.031 C 
ATOM     22  C   UNL A   1      46.486  24.792  28.190  1.00  0.00     0.029 A 
ATOM     23  C   UNL A   1      46.166  26.164  28.571  1.00  0.00     0.049 A 
ATOM     24  H   UNL A   1      44.280  27.018  28.793  1.00  0.00     0.167 HD
ATOM     25  C   UNL A   1      40.276  28.733  29.015  1.00  0.00     0.031 A 
ATOM     26  C   UNL A   1      47.074  27.119  28.839  1.00  0.00     0.031 A 
ATOM     27  C   UNL A   1      41.167  29.787  29.423  1.00  0.00     0.049 A 
ATOM     28  C   UNL A   1      46.602  28.499  29.191  1.00  0.00     0.074 A 
ATOM     29  C   UNL A   1      40.848  31.055  29.880  1.00  0.00     0.029 A 
ATOM     30  N   UNL A   1      42.549  29.703  29.408  1.00  0.00    -0.354 N 
ATOM     31  N   UNL A   1      45.374  28.940  29.317  1.00  0.00    -0.248 NA
ATOM     32  C   UNL A   1      47.637  29.514  29.427  1.00  0.00     0.031 C 
ATOM     33  C   UNL A   1      42.040  31.758  30.086  1.00  0.00     0.029 A 
ATOM     34  C   UNL A   1      43.099  30.913  29.800  1.00  0.00     0.049 A 
ATOM     35  H   UNL A   1      43.065  28.903  29.154  1.00  0.00     0.167 HD
ATOM     36  C   UNL A   1      45.490  30.281  29.650  1.00  0.00     0.074 A 
ATOM     37  C   UNL A   1      46.905  30.575  29.733  1.00  0.00     0.031 C 
ATOM     38  C   UNL A   1      44.509  31.191  29.861  1.00  0.00     0.031 A 
BRANCH  25  39
ATOM     39  C   UNL A   1      38.808  29.046  28.959  1.00  0.00    -0.014 A 
ATOM     40  C   UNL A   1      37.999  28.955  30.101  1.00  0.00     0.009 A 
ATOM     41  C   UNL A   1      38.249  29.529  27.765  1.00  0.00     0.009 A 
ATOM     42  C   UNL A   1      36.653  29.326  30.044  1.00  0.00     0.001 A 
ATOM     43  C   UNL A   1      36.908  29.917  27.715  1.00  0.00     0.001 A 
ATOM     44  C   UNL A   1      36.112  29.812  28.854  1.00  0.00     0.000 A 
ENDBRANCH  25  39
BRANCH  26  45
ATOM     45  C   UNL A   1      48.523  26.814  28.739  1.00  0.00    -0.014 A 
ATOM     46  C   UNL A   1      49.215  26.995  27.534  1.00  0.00     0.009 A 
ATOM     47  C   UNL A   1      49.223  26.336  29.860  1.00  0.00     0.009 A 
ATOM     48  C   UNL A   1      50.575  26.685  27.447  1.00  0.00     0.001 A 
ATOM     49  C   UNL A   1      50.588  26.055  29.778  1.00  0.00     0.001 A 
ATOM     50  C   UNL A   1      51.260  26.221  28.570  1.00  0.00     0.000 A 
ENDBRANCH  26  45
BRANCH  38  51
ATOM     51  C   UNL A   1      44.939  32.588  30.198  1.00  0.00    -0.014 A 
ATOM     52  C   UNL A   1      45.055  33.564  29.195  1.00  0.00     0.009 A 
ATOM     53  C   UNL A   1      45.198  32.941  31.530  1.00  0.00     0.009 A 
ATOM     54  C   UNL A   1      45.448  34.862  29.520  1.00  0.00     0.001 A 
ATOM     55  C   UNL A   1      45.568  34.247  31.854  1.00  0.00     0.001 A 
ATOM     56  C   UNL A   1      45.699  35.204  30.849  1.00  0.00     0.000 A 
ENDBRANCH  38  51
ENDBRANCH  12  13
ENDBRANCH   5   7
ENDBRANCH   2   3
ENDBRANCH   1   2
BRANCH   1  57
ATOM     57  C   UNL A   1      36.393  20.637  25.055  1.00  0.00     0.117 C 
BRANCH  57  58
ATOM     58  N   UNL A   1      36.417  21.845  24.251  1.00  0.00    -0.356 N 
ATOM     59  C   UNL A   1      35.363  22.571  23.776  1.00  0.00     0.226 C 
ATOM     60  H   UNL A   1      37.311  22.184  24.017  1.00  0.00     0.163 HD
ATOM     61  O   UNL A   1      35.570  23.286  22.795  1.00  0.00    -0.274 OA
BRANCH  59  62
ATOM     62  C   UNL A   1      34.015  22.508  24.502  1.00  0.00     0.103 C 
ATOM     63  C   UNL A   1      32.962  21.858  23.657  1.00  0.00    -0.016 C 
ATOM     64  C   UNL A   1      33.443  23.921  24.716  1.00  0.00     0.042 C 
ATOM     65  C   UNL A   1      32.103  22.757  23.163  1.00  0.00    -0.011 C 
ATOM     66  C   UNL A   1      32.434  24.158  23.583  1.00  0.00     0.093 C 
BRANCH  66  67
ATOM     67  N   UNL A   1      33.028  24.825  22.431  1.00  0.00    -0.204 NA
ATOM     68  H   UNL A   1      32.829  24.237  21.621  1.00  0.00     0.142 HD
BRANCH  67  69
ATOM     69  S   UNL A   1      32.576  26.383  22.015  1.00  0.00     0.241 S 
ATOM     70  O   UNL A   1      33.653  26.924  21.222  1.00  0.00    -0.207 OA
ATOM     71  O   UNL A   1      31.210  26.342  21.536  1.00  0.00    -0.207 OA
BRANCH  69  72
ATOM     72  C   UNL A   1      32.579  27.279  23.548  1.00  0.00     0.082 A 
ATOM     73  C   UNL A   1      31.378  27.684  24.134  1.00  0.00     0.023 A 
ATOM     74  C   UNL A   1      33.801  27.610  24.139  1.00  0.00     0.023 A 
ATOM     75  C   UNL A   1      31.397  28.486  25.276  1.00  0.00     0.022 A 
ATOM     76  C   UNL A   1      33.817  28.382  25.304  1.00  0.00     0.022 A 
ATOM     77  C   UNL A   1      32.616  28.836  25.854  1.00  0.00     0.041 A 
ATOM     78  Cl  UNL A   1      32.638  29.839  27.250  1.00  0.00    -0.084 Cl
ENDBRANCH  69  72
ENDBRANCH  67  69
ENDBRANCH  66  67
ENDBRANCH  59  62
ENDBRANCH  57  58
ENDBRANCH   1  57
TORSDOF 13
ENDMDL
MODEL 3
REMARK VINA RESULT:     -11.2      0.362      5.985
REMARK SMILES O=C(NCCCNC(=O)[C@@H]1C=C[C@H](NS(=O)(=O)c2ccc(Cl)cc2)C1)c1ccc(-c2c3nc(c(-c4ccccc4)c4ccc([nH]4)c(-c4ccccc4)c4nc(c(-c5ccccc5)c5ccc2[nH]5)C=C4)C=C3)cc1
REMARK SMILES IDX 5 1 4 2 3 3 1 4 2 5 26 7 27 8 73 9 28 10 72 11 29 12 30 13
REMARK SMILES IDX 31 14 66 15 32 16 71 17 65 18 67 19 33 20 70 21 64 22 63 23
REMARK SMILES IDX 34 25 56 26 41 27 55 28 42 29 45 30 54 31 68 32 43 33 44 34
REMARK SMILES IDX 53 36 69 37 46 38 35 39 36 40 40 41 37 42 39 43 38 44 57 45
REMARK SMILES IDX 58 46 62 47 59 48 61 49 60 50 47 51 48 52 52 53 49 54 51 55
REMARK SMILES IDX 50 56 6 57 7 58 8 59 9 61 10 62 11 63 25 64 12 65 13 66
REMARK SMILES IDX 14 67 15 69 16 70 17 71 18 72 19 73 24 74 20 75 23 76 21 77
REMARK SMILES IDX 22 78
REMARK H PARENT 3 6 67 24 45 35 7 60 14 68
REMARK Flexibility Score: inf
ROOT
ATOM      1  C   UNL A   1      37.995  19.766  24.697  1.00  0.00     0.042 C 
ENDROOT
BRANCH   1   2
ATOM      2  C   UNL A   1      39.021  20.175  25.755  1.00  0.00     0.118 C 
BRANCH   2   3
ATOM      3  N   UNL A   1      40.070  19.179  25.912  1.00  0.00    -0.352 N 
ATOM      4  O   UNL A   1      42.177  18.397  25.989  1.00  0.00    -0.269 OA
ATOM      5  C   UNL A   1      41.416  19.353  26.110  1.00  0.00     0.251 C 
ATOM      6  H   UNL A   1      39.768  18.242  25.871  1.00  0.00     0.163 HD
BRANCH   5   7
ATOM      7  C   UNL A   1      41.959  20.681  26.468  1.00  0.00     0.039 A 
ATOM      8  C   UNL A   1      42.323  21.602  25.482  1.00  0.00     0.014 A 
ATOM      9  C   UNL A   1      42.021  21.042  27.819  1.00  0.00     0.014 A 
ATOM     10  C   UNL A   1      42.820  22.852  25.845  1.00  0.00     0.010 A 
ATOM     11  C   UNL A   1      42.464  22.317  28.180  1.00  0.00     0.010 A 
ATOM     12  C   UNL A   1      42.869  23.231  27.195  1.00  0.00    -0.014 A 
BRANCH  12  13
ATOM     13  C   UNL A   1      43.225  24.625  27.557  1.00  0.00     0.031 A 
ATOM     14  C   UNL A   1      44.656  25.071  27.641  1.00  0.00     0.074 A 
ATOM     15  C   UNL A   1      42.229  25.487  27.840  1.00  0.00     0.049 A 
ATOM     16  N   UNL A   1      45.129  26.249  27.966  1.00  0.00    -0.248 NA
ATOM     17  C   UNL A   1      45.690  24.073  27.327  1.00  0.00     0.031 C 
ATOM     18  C   UNL A   1      40.799  25.161  27.815  1.00  0.00     0.029 A 
ATOM     19  N   UNL A   1      42.260  26.808  28.205  1.00  0.00    -0.354 N 
ATOM     20  C   UNL A   1      46.511  26.130  27.915  1.00  0.00     0.074 A 
ATOM     21  C   UNL A   1      46.804  24.762  27.540  1.00  0.00     0.031 C 
ATOM     22  C   UNL A   1      40.092  26.255  28.132  1.00  0.00     0.029 A 
ATOM     23  C   UNL A   1      41.016  27.343  28.433  1.00  0.00     0.049 A 
ATOM     24  H   UNL A   1      43.094  27.324  28.294  1.00  0.00     0.167 HD
ATOM     25  C   UNL A   1      47.447  27.078  28.160  1.00  0.00     0.031 A 
ATOM     26  C   UNL A   1      40.653  28.564  28.867  1.00  0.00     0.031 A 
ATOM     27  C   UNL A   1      47.151  28.439  28.523  1.00  0.00     0.049 A 
ATOM     28  C   UNL A   1      41.716  29.579  29.166  1.00  0.00     0.074 A 
ATOM     29  C   UNL A   1      48.033  29.491  28.708  1.00  0.00     0.029 A 
ATOM     30  N   UNL A   1      45.881  28.933  28.772  1.00  0.00    -0.354 N 
ATOM     31  N   UNL A   1      43.016  29.472  29.034  1.00  0.00    -0.248 NA
ATOM     32  C   UNL A   1      41.265  30.878  29.682  1.00  0.00     0.031 C 
ATOM     33  C   UNL A   1      47.300  30.607  29.125  1.00  0.00     0.029 A 
ATOM     34  C   UNL A   1      45.959  30.261  29.156  1.00  0.00     0.049 A 
ATOM     35  H   UNL A   1      45.047  28.416  28.689  1.00  0.00     0.167 HD
ATOM     36  C   UNL A   1      43.537  30.689  29.447  1.00  0.00     0.074 A 
ATOM     37  C   UNL A   1      42.413  31.528  29.808  1.00  0.00     0.031 C 
ATOM     38  C   UNL A   1      44.832  31.075  29.528  1.00  0.00     0.031 A 
BRANCH  25  39
ATOM     39  C   UNL A   1      48.892  26.681  28.070  1.00  0.00    -0.014 A 
ATOM     40  C   UNL A   1      49.577  26.167  29.181  1.00  0.00     0.009 A 
ATOM     41  C   UNL A   1      49.549  26.736  26.830  1.00  0.00     0.009 A 
ATOM     42  C   UNL A   1      50.899  25.731  29.055  1.00  0.00     0.001 A 
ATOM     43  C   UNL A   1      50.863  26.282  26.703  1.00  0.00     0.001 A 
ATOM     44  C   UNL A   1      51.537  25.783  27.816  1.00  0.00     0.000 A 
ENDBRANCH  25  39
BRANCH  26  45
ATOM     45  C   UNL A   1      39.219  28.875  29.089  1.00  0.00    -0.014 A 
ATOM     46  C   UNL A   1      38.621  28.654  30.337  1.00  0.00     0.009 A 
ATOM     47  C   UNL A   1      38.440  29.400  28.044  1.00  0.00     0.009 A 
ATOM     48  C   UNL A   1      37.265  28.932  30.529  1.00  0.00     0.001 A 
ATOM     49  C   UNL A   1      37.093  29.704  28.247  1.00  0.00     0.001 A 
ATOM     50  C   UNL A   1      36.505  29.462  29.486  1.00  0.00     0.000 A 
ENDBRANCH  26  45
BRANCH  38  51
ATOM     51  C   UNL A   1      45.098  32.463  30.029  1.00  0.00    -0.014 A 
ATOM     52  C   UNL A   1      45.327  32.701  31.393  1.00  0.00     0.009 A 
ATOM     53  C   UNL A   1      45.154  33.536  29.127  1.00  0.00     0.009 A 
ATOM     54  C   UNL A   1      45.582  33.995  31.848  1.00  0.00     0.001 A 
ATOM     55  C   UNL A   1      45.432  34.825  29.584  1.00  0.00     0.001 A 
ATOM     56  C   UNL A   1      45.638  35.055  30.943  1.00  0.00     0.000 A 
ENDBRANCH  38  51
ENDBRANCH  12  13
ENDBRANCH   5   7
ENDBRANCH   2   3
ENDBRANCH   1   2
BRANCH   1  57
ATOM     57  C   UNL A   1      36.568  20.191  25.042  1.00  0.00     0.117 C 
BRANCH  57  58
ATOM     58  N   UNL A   1      36.563  21.507  25.654  1.00  0.00    -0.356 N 
ATOM     59  C   UNL A   1      35.506  22.203  26.165  1.00  0.00     0.226 C 
ATOM     60  H   UNL A   1      37.438  21.957  25.706  1.00  0.00     0.163 HD
ATOM     61  O   UNL A   1      35.624  23.427  26.244  1.00  0.00    -0.274 OA
BRANCH  59  62
ATOM     62  C   UNL A   1      34.270  21.443  26.657  1.00  0.00     0.103 C 
ATOM     63  C   UNL A   1      33.235  21.315  25.581  1.00  0.00    -0.016 C 
ATOM     64  C   UNL A   1      33.526  22.250  27.737  1.00  0.00     0.042 C 
ATOM     65  C   UNL A   1      32.205  22.145  25.787  1.00  0.00    -0.011 C 
ATOM     66  C   UNL A   1      32.375  22.974  27.025  1.00  0.00     0.093 C 
BRANCH  66  67
ATOM     67  N   UNL A   1      32.735  24.320  26.597  1.00  0.00    -0.204 NA
ATOM     68  H   UNL A   1      33.439  24.214  25.865  1.00  0.00     0.142 HD
BRANCH  67  69
ATOM     69  S   UNL A   1      31.575  25.369  25.997  1.00  0.00     0.241 S 
ATOM     70  O   UNL A   1      31.593  25.223  24.561  1.00  0.00    -0.207 OA
ATOM     71  O   UNL A   1      30.366  25.193  26.775  1.00  0.00    -0.207 OA
BRANCH  69  72
ATOM     72  C   UNL A   1      32.207  26.990  26.349  1.00  0.00     0.082 A 
ATOM     73  C   UNL A   1      33.534  27.312  26.060  1.00  0.00     0.023 A 
ATOM     74  C   UNL A   1      31.368  27.928  26.959  1.00  0.00     0.023 A 
ATOM     75  C   UNL A   1      34.050  28.550  26.447  1.00  0.00     0.022 A 
ATOM     76  C   UNL A   1      31.877  29.181  27.312  1.00  0.00     0.022 A 
ATOM     77  C   UNL A   1      33.221  29.477  27.076  1.00  0.00     0.041 A 
ATOM     78  Cl  UNL A   1      33.864  30.994  27.569  1.00  0.00    -0.084 Cl
ENDBRANCH  69  72
ENDBRANCH  67  69
ENDBRANCH  66  67
ENDBRANCH  59  62
ENDBRANCH  57  58
ENDBRANCH   1  57
TORSDOF 13
ENDMDL
