MODEL 1
REMARK VINA RESULT:     -12.0      0.000      0.000
REMARK SMILES C[N@@H+]1CCN(C(=O)c2cc(-n3cccn3)ccc2Cl)C[C@H]1C(=O)NCCCNC(=O)c1ccc(-c2c3nc(c(-c4ccccc4)c4ccc([nH]4)c(-c4ccccc4)c4nc(c(-c5ccccc5)c5ccc2[nH]5)C=C4)C=C3)cc1
REMARK SMILES IDX 25 1 24 2 22 3 23 4 21 6 1 7 2 8 3 9 4 11 20 12 5 13 6 14
REMARK SMILES IDX 7 15 8 16 9 17 18 18 10 19 17 20 19 21 16 22 11 23 12 24
REMARK SMILES IDX 15 25 13 26 14 27 26 28 27 29 28 30 29 31 30 33 31 34 32 35
REMARK SMILES IDX 78 36 33 37 77 38 34 39 35 40 36 41 71 42 37 43 76 44 70 45
REMARK SMILES IDX 72 46 38 47 75 48 69 49 68 50 39 52 61 53 46 54 60 55 47 56
REMARK SMILES IDX 50 57 59 58 73 59 48 60 49 61 58 63 74 64 51 65 40 66 41 67
REMARK SMILES IDX 45 68 42 69 44 70 43 71 62 72 63 73 67 74 64 75 66 76 65 77
REMARK SMILES IDX 52 78 53 79 57 80 54 81 56 82 55 83
REMARK H PARENT 24 5 2 10 28 32 72 51 50 62
REMARK Flexibility Score: inf
ROOT
ATOM      1  C   UNL A   1      33.830  29.188  27.027  1.00  0.00     0.118 C 
ENDROOT
BRANCH   1   2
ATOM      2  N   UNL A   1      34.122  28.981  25.614  1.00  0.00    -0.351 N 
ATOM      3  C   UNL A   1      33.811  27.916  24.814  1.00  0.00     0.280 C 
ATOM      4  O   UNL A   1      34.151  27.958  23.628  1.00  0.00    -0.268 OA
ATOM      5  H   UNL A   1      34.611  29.713  25.172  1.00  0.00     0.163 HD
BRANCH   3   6
ATOM      6  C   UNL A   1      33.030  26.720  25.373  1.00  0.00     0.293 C 
ATOM      7  C   UNL A   1      30.872  27.473  24.523  1.00  0.00     0.333 C 
ATOM      8  N   UNL A   1      31.861  26.389  24.503  1.00  0.00    -0.324 N 
ATOM      9  C   UNL A   1      31.238  25.133  24.975  1.00  0.00     0.284 C 
ATOM     10  H   UNL A   1      32.188  26.272  23.543  1.00  0.00     0.348 HD
ATOM     11  C   UNL A   1      32.239  23.966  25.040  1.00  0.00     0.181 C 
ATOM     12  C   UNL A   1      34.039  25.568  25.585  1.00  0.00     0.195 C 
ATOM     13  N   UNL A   1      33.401  24.283  25.871  1.00  0.00    -0.326 N 
BRANCH  13  14
ATOM     14  C   UNL A   1      33.986  23.270  26.624  1.00  0.00     0.255 C 
ATOM     15  O   UNL A   1      33.846  23.158  27.839  1.00  0.00    -0.269 OA
BRANCH  14  16
ATOM     16  C   UNL A   1      34.788  22.239  25.932  1.00  0.00     0.060 A 
ATOM     17  C   UNL A   1      34.129  21.068  25.524  1.00  0.00     0.043 A 
ATOM     18  C   UNL A   1      36.170  22.378  25.744  1.00  0.00     0.053 A 
ATOM     19  C   UNL A   1      34.871  20.030  24.948  1.00  0.00     0.065 A 
ATOM     20  C   UNL A   1      36.880  21.378  25.076  1.00  0.00     0.023 A 
ATOM     21  Cl  UNL A   1      37.068  23.739  26.322  1.00  0.00    -0.083 Cl
ATOM     22  C   UNL A   1      36.239  20.200  24.694  1.00  0.00     0.030 A 
BRANCH  19  23
ATOM     23  N   UNL A   1      34.253  18.788  24.665  1.00  0.00    -0.241 N 
ATOM     24  C   UNL A   1      34.878  17.644  24.216  1.00  0.00     0.115 A 
ATOM     25  N   UNL A   1      32.926  18.590  24.851  1.00  0.00    -0.177 NA
ATOM     26  C   UNL A   1      33.905  16.688  24.060  1.00  0.00     0.042 A 
ATOM     27  C   UNL A   1      32.717  17.339  24.429  1.00  0.00     0.135 A 
ENDBRANCH  19  23
ENDBRANCH  14  16
ENDBRANCH  13  14
ENDBRANCH   3   6
ENDBRANCH   1   2
BRANCH   1  28
ATOM     28  C   UNL A   1      33.423  30.616  27.367  1.00  0.00     0.042 C 
BRANCH  28  29
ATOM     29  C   UNL A   1      34.616  31.491  27.687  1.00  0.00     0.118 C 
BRANCH  29  30
ATOM     30  N   UNL A   1      34.565  32.071  29.031  1.00  0.00    -0.352 N 
ATOM     31  C   UNL A   1      35.353  31.747  30.125  1.00  0.00     0.251 C 
ATOM     32  H   UNL A   1      33.893  32.775  29.174  1.00  0.00     0.163 HD
ATOM     33  O   UNL A   1      35.048  32.068  31.254  1.00  0.00    -0.269 OA
BRANCH  31  34
ATOM     34  C   UNL A   1      36.587  30.987  29.861  1.00  0.00     0.039 A 
ATOM     35  C   UNL A   1      37.810  31.627  29.650  1.00  0.00     0.014 A 
ATOM     36  C   UNL A   1      36.500  29.603  29.948  1.00  0.00     0.014 A 
ATOM     37  C   UNL A   1      38.968  30.853  29.624  1.00  0.00     0.010 A 
ATOM     38  C   UNL A   1      37.645  28.877  30.123  1.00  0.00     0.010 A 
ATOM     39  C   UNL A   1      38.878  29.479  29.888  1.00  0.00    -0.014 A 
BRANCH  39  40
ATOM     40  C   UNL A   1      40.065  28.643  30.008  1.00  0.00     0.031 A 
ATOM     41  C   UNL A   1      40.612  28.505  31.385  1.00  0.00     0.074 A 
ATOM     42  C   UNL A   1      40.479  27.851  28.995  1.00  0.00     0.049 A 
ATOM     43  N   UNL A   1      41.760  28.902  31.825  1.00  0.00    -0.248 NA
ATOM     44  C   UNL A   1      39.736  27.949  32.431  1.00  0.00     0.031 C 
ATOM     45  C   UNL A   1      39.832  27.621  27.695  1.00  0.00     0.029 A 
ATOM     46  N   UNL A   1      41.504  26.962  28.973  1.00  0.00    -0.354 N 
ATOM     47  C   UNL A   1      41.835  28.485  33.152  1.00  0.00     0.074 A 
ATOM     48  C   UNL A   1      40.507  28.058  33.515  1.00  0.00     0.031 C 
ATOM     49  C   UNL A   1      40.318  26.489  27.140  1.00  0.00     0.029 A 
ATOM     50  C   UNL A   1      41.437  26.035  27.941  1.00  0.00     0.049 A 
ATOM     51  H   UNL A   1      42.235  26.974  29.633  1.00  0.00     0.167 HD
ATOM     52  C   UNL A   1      43.035  28.299  33.774  1.00  0.00     0.031 A 
ATOM     53  C   UNL A   1      42.231  24.951  27.768  1.00  0.00     0.031 A 
ATOM     54  C   UNL A   1      44.114  28.881  33.017  1.00  0.00     0.049 A 
ATOM     55  C   UNL A   1      43.444  25.163  28.589  1.00  0.00     0.074 A 
ATOM     56  C   UNL A   1      44.437  30.155  32.597  1.00  0.00     0.029 A 
ATOM     57  N   UNL A   1      44.853  28.023  32.236  1.00  0.00    -0.354 N 
ATOM     58  N   UNL A   1      44.320  26.095  28.344  1.00  0.00    -0.248 NA
ATOM     59  C   UNL A   1      43.450  24.640  29.945  1.00  0.00     0.031 C 
ATOM     60  C   UNL A   1      44.965  29.981  31.285  1.00  0.00     0.029 A 
ATOM     61  C   UNL A   1      45.007  28.611  31.010  1.00  0.00     0.049 A 
ATOM     62  H   UNL A   1      45.206  27.145  32.509  1.00  0.00     0.167 HD
ATOM     63  C   UNL A   1      44.673  26.583  29.595  1.00  0.00     0.074 A 
ATOM     64  C   UNL A   1      44.190  25.578  30.542  1.00  0.00     0.031 C 
ATOM     65  C   UNL A   1      45.061  27.883  29.761  1.00  0.00     0.031 A 
BRANCH  52  66
ATOM     66  C   UNL A   1      43.297  27.247  34.826  1.00  0.00    -0.014 A 
ATOM     67  C   UNL A   1      43.140  25.892  34.476  1.00  0.00     0.009 A 
ATOM     68  C   UNL A   1      43.406  27.532  36.200  1.00  0.00     0.009 A 
ATOM     69  C   UNL A   1      43.004  24.895  35.449  1.00  0.00     0.001 A 
ATOM     70  C   UNL A   1      43.313  26.533  37.174  1.00  0.00     0.001 A 
ATOM     71  C   UNL A   1      43.079  25.218  36.799  1.00  0.00     0.000 A 
ENDBRANCH  52  66
BRANCH  53  72
ATOM     72  C   UNL A   1      41.903  23.652  27.149  1.00  0.00    -0.014 A 
ATOM     73  C   UNL A   1      42.757  23.069  26.202  1.00  0.00     0.009 A 
ATOM     74  C   UNL A   1      40.873  22.856  27.685  1.00  0.00     0.009 A 
ATOM     75  C   UNL A   1      42.608  21.724  25.834  1.00  0.00     0.001 A 
ATOM     76  C   UNL A   1      40.725  21.514  27.317  1.00  0.00     0.001 A 
ATOM     77  C   UNL A   1      41.603  20.944  26.402  1.00  0.00     0.000 A 
ENDBRANCH  53  72
BRANCH  65  78
ATOM     78  C   UNL A   1      45.323  28.711  28.526  1.00  0.00    -0.014 A 
ATOM     79  C   UNL A   1      44.317  29.427  27.853  1.00  0.00     0.009 A 
ATOM     80  C   UNL A   1      46.656  28.925  28.150  1.00  0.00     0.009 A 
ATOM     81  C   UNL A   1      44.640  30.320  26.824  1.00  0.00     0.001 A 
ATOM     82  C   UNL A   1      46.980  29.830  27.138  1.00  0.00     0.001 A 
ATOM     83  C   UNL A   1      45.972  30.526  26.474  1.00  0.00     0.000 A 
ENDBRANCH  65  78
ENDBRANCH  39  40
ENDBRANCH  31  34
ENDBRANCH  29  30
ENDBRANCH  28  29
ENDBRANCH   1  28
TORSDOF 13
ENDMDL
MODEL 2
REMARK VINA RESULT:     -11.9      2.037      2.754
REMARK SMILES C[N@@H+]1CCN(C(=O)c2cc(-n3cccn3)ccc2Cl)C[C@H]1C(=O)NCCCNC(=O)c1ccc(-c2c3nc(c(-c4ccccc4)c4ccc([nH]4)c(-c4ccccc4)c4nc(c(-c5ccccc5)c5ccc2[nH]5)C=C4)C=C3)cc1
REMARK SMILES IDX 25 1 24 2 22 3 23 4 21 6 1 7 2 8 3 9 4 11 20 12 5 13 6 14
REMARK SMILES IDX 7 15 8 16 9 17 18 18 10 19 17 20 19 21 16 22 11 23 12 24
REMARK SMILES IDX 15 25 13 26 14 27 26 28 27 29 28 30 29 31 30 33 31 34 32 35
REMARK SMILES IDX 78 36 33 37 77 38 34 39 35 40 36 41 71 42 37 43 76 44 70 45
REMARK SMILES IDX 72 46 38 47 75 48 69 49 68 50 39 52 61 53 46 54 60 55 47 56
REMARK SMILES IDX 50 57 59 58 73 59 48 60 49 61 58 63 74 64 51 65 40 66 41 67
REMARK SMILES IDX 45 68 42 69 44 70 43 71 62 72 63 73 67 74 64 75 66 76 65 77
REMARK SMILES IDX 52 78 53 79 57 80 54 81 56 82 55 83
REMARK H PARENT 24 5 2 10 28 32 72 51 50 62
REMARK Flexibility Score: inf
ROOT
ATOM      1  C   UNL A   1      33.970  28.956  25.753  1.00  0.00     0.118 C 
ENDROOT
BRANCH   1   2
ATOM      2  N   UNL A   1      33.547  29.242  24.388  1.00  0.00    -0.351 N 
ATOM      3  C   UNL A   1      32.934  28.421  23.483  1.00  0.00     0.280 C 
ATOM      4  O   UNL A   1      32.653  28.881  22.373  1.00  0.00    -0.268 OA
ATOM      5  H   UNL A   1      33.728  30.158  24.073  1.00  0.00     0.163 HD
BRANCH   3   6
ATOM      6  C   UNL A   1      32.577  26.976  23.855  1.00  0.00     0.293 C 
ATOM      7  C   UNL A   1      30.503  27.570  24.993  1.00  0.00     0.333 C 
ATOM      8  N   UNL A   1      31.094  26.786  23.902  1.00  0.00    -0.324 N 
ATOM      9  C   UNL A   1      30.790  25.352  24.092  1.00  0.00     0.284 C 
ATOM     10  H   UNL A   1      30.693  27.110  23.022  1.00  0.00     0.348 HD
ATOM     11  C   UNL A   1      31.437  24.463  23.015  1.00  0.00     0.181 C 
ATOM     12  C   UNL A   1      33.327  26.047  22.875  1.00  0.00     0.195 C 
ATOM     13  N   UNL A   1      32.886  24.653  22.941  1.00  0.00    -0.326 N 
BRANCH  13  14
ATOM     14  C   UNL A   1      33.693  23.562  22.640  1.00  0.00     0.255 C 
ATOM     15  O   UNL A   1      33.995  23.234  21.496  1.00  0.00    -0.269 OA
BRANCH  14  16
ATOM     16  C   UNL A   1      34.260  22.767  23.750  1.00  0.00     0.060 A 
ATOM     17  C   UNL A   1      35.460  23.215  24.324  1.00  0.00     0.043 A 
ATOM     18  C   UNL A   1      33.672  21.568  24.179  1.00  0.00     0.053 A 
ATOM     19  C   UNL A   1      36.077  22.441  25.314  1.00  0.00     0.065 A 
ATOM     20  C   UNL A   1      34.243  20.860  25.238  1.00  0.00     0.023 A 
ATOM     21  Cl  UNL A   1      32.259  20.895  23.443  1.00  0.00    -0.083 Cl
ATOM     22  C   UNL A   1      35.451  21.282  25.793  1.00  0.00     0.030 A 
BRANCH  19  23
ATOM     23  N   UNL A   1      37.358  22.800  25.800  1.00  0.00    -0.241 N 
ATOM     24  C   UNL A   1      38.456  21.973  25.905  1.00  0.00     0.115 A 
ATOM     25  N   UNL A   1      37.646  24.063  26.195  1.00  0.00    -0.177 NA
ATOM     26  C   UNL A   1      39.476  22.724  26.436  1.00  0.00     0.042 A 
ATOM     27  C   UNL A   1      38.907  23.992  26.630  1.00  0.00     0.135 A 
ENDBRANCH  19  23
ENDBRANCH  14  16
ENDBRANCH  13  14
ENDBRANCH   3   6
ENDBRANCH   1   2
BRANCH   1  28
ATOM     28  C   UNL A   1      33.016  29.489  26.816  1.00  0.00     0.042 C 
BRANCH  28  29
ATOM     29  C   UNL A   1      33.741  30.237  27.913  1.00  0.00     0.118 C 
BRANCH  29  30
ATOM     30  N   UNL A   1      34.302  31.516  27.471  1.00  0.00    -0.352 N 
ATOM     31  C   UNL A   1      35.542  32.051  27.784  1.00  0.00     0.251 C 
ATOM     32  H   UNL A   1      33.732  32.058  26.881  1.00  0.00     0.163 HD
ATOM     33  O   UNL A   1      35.797  33.224  27.612  1.00  0.00    -0.269 OA
BRANCH  31  34
ATOM     34  C   UNL A   1      36.549  31.131  28.341  1.00  0.00     0.039 A 
ATOM     35  C   UNL A   1      36.612  29.791  27.952  1.00  0.00     0.014 A 
ATOM     36  C   UNL A   1      37.506  31.686  29.182  1.00  0.00     0.014 A 
ATOM     37  C   UNL A   1      37.714  29.037  28.347  1.00  0.00     0.010 A 
ATOM     38  C   UNL A   1      38.673  31.008  29.395  1.00  0.00     0.010 A 
ATOM     39  C   UNL A   1      38.755  29.663  29.048  1.00  0.00    -0.014 A 
BRANCH  39  40
ATOM     40  C   UNL A   1      39.991  28.962  29.370  1.00  0.00     0.031 A 
ATOM     41  C   UNL A   1      40.260  28.776  30.823  1.00  0.00     0.074 A 
ATOM     42  C   UNL A   1      40.701  28.307  28.426  1.00  0.00     0.049 A 
ATOM     43  N   UNL A   1      41.233  29.266  31.516  1.00  0.00    -0.248 NA
ATOM     44  C   UNL A   1      39.269  28.042  31.627  1.00  0.00     0.031 C 
ATOM     45  C   UNL A   1      40.366  28.109  27.007  1.00  0.00     0.029 A 
ATOM     46  N   UNL A   1      41.814  27.546  28.572  1.00  0.00    -0.354 N 
ATOM     47  C   UNL A   1      41.091  28.753  32.804  1.00  0.00     0.074 A 
ATOM     48  C   UNL A   1      39.783  28.150  32.854  1.00  0.00     0.031 C 
ATOM     49  C   UNL A   1      41.096  27.090  26.506  1.00  0.00     0.029 A 
ATOM     50  C   UNL A   1      42.078  26.702  27.500  1.00  0.00     0.049 A 
ATOM     51  H   UNL A   1      42.388  27.588  29.372  1.00  0.00     0.167 HD
ATOM     52  C   UNL A   1      42.153  28.656  33.654  1.00  0.00     0.031 A 
ATOM     53  C   UNL A   1      43.023  25.734  27.439  1.00  0.00     0.031 A 
ATOM     54  C   UNL A   1      43.280  29.417  33.176  1.00  0.00     0.049 A 
ATOM     55  C   UNL A   1      44.007  26.017  28.508  1.00  0.00     0.074 A 
ATOM     56  C   UNL A   1      43.514  30.749  32.905  1.00  0.00     0.029 A 
ATOM     57  N   UNL A   1      44.265  28.715  32.523  1.00  0.00    -0.354 N 
ATOM     58  N   UNL A   1      44.787  27.060  28.506  1.00  0.00    -0.248 NA
ATOM     59  C   UNL A   1      43.804  25.390  29.804  1.00  0.00     0.031 C 
ATOM     60  C   UNL A   1      44.316  30.744  31.726  1.00  0.00     0.029 A 
ATOM     61  C   UNL A   1      44.589  29.414  31.391  1.00  0.00     0.049 A 
ATOM     62  H   UNL A   1      44.666  27.865  32.815  1.00  0.00     0.167 HD
ATOM     63  C   UNL A   1      44.812  27.482  29.828  1.00  0.00     0.074 A 
ATOM     64  C   UNL A   1      44.281  26.356  30.595  1.00  0.00     0.031 C 
ATOM     65  C   UNL A   1      44.989  28.800  30.144  1.00  0.00     0.031 A 
BRANCH  52  66
ATOM     66  C   UNL A   1      42.329  27.560  34.678  1.00  0.00    -0.014 A 
ATOM     67  C   UNL A   1      42.713  26.280  34.234  1.00  0.00     0.009 A 
ATOM     68  C   UNL A   1      41.861  27.651  36.002  1.00  0.00     0.009 A 
ATOM     69  C   UNL A   1      42.546  25.146  35.036  1.00  0.00     0.001 A 
ATOM     70  C   UNL A   1      41.733  26.526  36.822  1.00  0.00     0.001 A 
ATOM     71  C   UNL A   1      42.045  25.268  36.328  1.00  0.00     0.000 A 
ENDBRANCH  52  66
BRANCH  53  72
ATOM     72  C   UNL A   1      42.997  24.461  26.694  1.00  0.00    -0.014 A 
ATOM     73  C   UNL A   1      43.339  24.414  25.335  1.00  0.00     0.009 A 
ATOM     74  C   UNL A   1      42.888  23.240  27.387  1.00  0.00     0.009 A 
ATOM     75  C   UNL A   1      43.600  23.190  24.702  1.00  0.00     0.001 A 
ATOM     76  C   UNL A   1      43.148  22.020  26.755  1.00  0.00     0.001 A 
ATOM     77  C   UNL A   1      43.519  21.996  25.416  1.00  0.00     0.000 A 
ENDBRANCH  53  72
BRANCH  65  78
ATOM     78  C   UNL A   1      45.387  29.750  29.040  1.00  0.00    -0.014 A 
ATOM     79  C   UNL A   1      46.718  30.127  28.793  1.00  0.00     0.009 A 
ATOM     80  C   UNL A   1      44.406  30.121  28.109  1.00  0.00     0.009 A 
ATOM     81  C   UNL A   1      47.053  30.866  27.652  1.00  0.00     0.001 A 
ATOM     82  C   UNL A   1      44.743  30.840  26.961  1.00  0.00     0.001 A 
ATOM     83  C   UNL A   1      46.066  31.214  26.733  1.00  0.00     0.000 A 
ENDBRANCH  65  78
ENDBRANCH  39  40
ENDBRANCH  31  34
ENDBRANCH  29  30
ENDBRANCH  28  29
ENDBRANCH   1  28
TORSDOF 13
ENDMDL
MODEL 3
REMARK VINA RESULT:     -11.6      2.402      6.212
REMARK SMILES C[N@@H+]1CCN(C(=O)c2cc(-n3cccn3)ccc2Cl)C[C@H]1C(=O)NCCCNC(=O)c1ccc(-c2c3nc(c(-c4ccccc4)c4ccc([nH]4)c(-c4ccccc4)c4nc(c(-c5ccccc5)c5ccc2[nH]5)C=C4)C=C3)cc1
REMARK SMILES IDX 25 1 24 2 22 3 23 4 21 6 1 7 2 8 3 9 4 11 20 12 5 13 6 14
REMARK SMILES IDX 7 15 8 16 9 17 18 18 10 19 17 20 19 21 16 22 11 23 12 24
REMARK SMILES IDX 15 25 13 26 14 27 26 28 27 29 28 30 29 31 30 33 31 34 32 35
REMARK SMILES IDX 78 36 33 37 77 38 34 39 35 40 36 41 71 42 37 43 76 44 70 45
REMARK SMILES IDX 72 46 38 47 75 48 69 49 68 50 39 52 61 53 46 54 60 55 47 56
REMARK SMILES IDX 50 57 59 58 73 59 48 60 49 61 58 63 74 64 51 65 40 66 41 67
REMARK SMILES IDX 45 68 42 69 44 70 43 71 62 72 63 73 67 74 64 75 66 76 65 77
REMARK SMILES IDX 52 78 53 79 57 80 54 81 56 82 55 83
REMARK H PARENT 24 5 2 10 28 32 72 51 50 62
REMARK Flexibility Score: inf
ROOT
ATOM      1  C   UNL A   1      34.281  29.226  25.218  1.00  0.00     0.118 C 
ENDROOT
BRANCH   1   2
ATOM      2  N   UNL A   1      33.110  29.340  24.357  1.00  0.00    -0.351 N 
ATOM      3  C   UNL A   1      32.220  28.374  23.976  1.00  0.00     0.280 C 
ATOM      4  O   UNL A   1      31.284  28.700  23.241  1.00  0.00    -0.268 OA
ATOM      5  H   UNL A   1      32.934  30.241  24.000  1.00  0.00     0.163 HD
BRANCH   3   6
ATOM      6  C   UNL A   1      32.367  26.933  24.480  1.00  0.00     0.293 C 
ATOM      7  C   UNL A   1      31.029  27.285  26.489  1.00  0.00     0.333 C 
ATOM      8  N   UNL A   1      31.158  26.508  25.250  1.00  0.00    -0.324 N 
ATOM      9  C   UNL A   1      31.260  25.068  25.570  1.00  0.00     0.284 C 
ATOM     10  H   UNL A   1      30.329  26.677  24.679  1.00  0.00     0.348 HD
ATOM     11  C   UNL A   1      31.463  24.198  24.316  1.00  0.00     0.181 C 
ATOM     12  C   UNL A   1      32.713  26.049  23.261  1.00  0.00     0.195 C 
ATOM     13  N   UNL A   1      32.631  24.615  23.539  1.00  0.00    -0.326 N 
BRANCH  13  14
ATOM     14  C   UNL A   1      33.383  23.646  22.884  1.00  0.00     0.255 C 
ATOM     15  O   UNL A   1      33.585  23.645  21.672  1.00  0.00    -0.269 OA
BRANCH  14  16
ATOM     16  C   UNL A   1      34.017  22.575  23.681  1.00  0.00     0.060 A 
ATOM     17  C   UNL A   1      35.241  22.867  24.305  1.00  0.00     0.043 A 
ATOM     18  C   UNL A   1      33.467  21.289  23.765  1.00  0.00     0.053 A 
ATOM     19  C   UNL A   1      35.918  21.852  24.993  1.00  0.00     0.065 A 
ATOM     20  C   UNL A   1      34.101  20.316  24.539  1.00  0.00     0.023 A 
ATOM     21  Cl  UNL A   1      32.025  20.824  22.930  1.00  0.00    -0.083 Cl
ATOM     22  C   UNL A   1      35.331  20.587  25.138  1.00  0.00     0.030 A 
BRANCH  19  23
ATOM     23  N   UNL A   1      37.219  22.086  25.502  1.00  0.00    -0.241 N 
ATOM     24  C   UNL A   1      38.282  21.210  25.467  1.00  0.00     0.115 A 
ATOM     25  N   UNL A   1      37.563  23.266  26.071  1.00  0.00    -0.177 NA
ATOM     26  C   UNL A   1      39.338  21.835  26.083  1.00  0.00     0.042 A 
ATOM     27  C   UNL A   1      38.826  23.083  26.468  1.00  0.00     0.135 A 
ENDBRANCH  19  23
ENDBRANCH  14  16
ENDBRANCH  13  14
ENDBRANCH   3   6
ENDBRANCH   1   2
BRANCH   1  28
ATOM     28  C   UNL A   1      34.014  29.602  26.670  1.00  0.00     0.042 C 
BRANCH  28  29
ATOM     29  C   UNL A   1      35.083  29.077  27.604  1.00  0.00     0.118 C 
BRANCH  29  30
ATOM     30  N   UNL A   1      35.301  29.932  28.774  1.00  0.00    -0.352 N 
ATOM     31  C   UNL A   1      36.406  29.958  29.611  1.00  0.00     0.251 C 
ATOM     32  H   UNL A   1      34.577  30.562  28.991  1.00  0.00     0.163 HD
ATOM     33  O   UNL A   1      36.371  30.482  30.704  1.00  0.00    -0.269 OA
BRANCH  31  34
ATOM     34  C   UNL A   1      37.636  29.315  29.118  1.00  0.00     0.039 A 
ATOM     35  C   UNL A   1      38.296  29.775  27.976  1.00  0.00     0.014 A 
ATOM     36  C   UNL A   1      38.174  28.306  29.908  1.00  0.00     0.014 A 
ATOM     37  C   UNL A   1      39.561  29.266  27.692  1.00  0.00     0.010 A 
ATOM     38  C   UNL A   1      39.486  27.962  29.741  1.00  0.00     0.010 A 
ATOM     39  C   UNL A   1      40.160  28.378  28.597  1.00  0.00    -0.014 A 
BRANCH  39  40
ATOM     40  C   UNL A   1      41.532  27.918  28.423  1.00  0.00     0.031 A 
ATOM     41  C   UNL A   1      41.684  26.609  27.730  1.00  0.00     0.074 A 
ATOM     42  C   UNL A   1      42.586  28.736  28.638  1.00  0.00     0.049 A 
ATOM     43  N   UNL A   1      42.167  25.512  28.210  1.00  0.00    -0.248 NA
ATOM     44  C   UNL A   1      41.137  26.473  26.369  1.00  0.00     0.031 C 
ATOM     45  C   UNL A   1      42.575  30.164  28.988  1.00  0.00     0.029 A 
ATOM     46  N   UNL A   1      43.907  28.492  28.446  1.00  0.00    -0.354 N 
ATOM     47  C   UNL A   1      42.162  24.593  27.162  1.00  0.00     0.074 A 
ATOM     48  C   UNL A   1      41.368  25.184  26.114  1.00  0.00     0.031 C 
ATOM     49  C   UNL A   1      43.784  30.705  28.725  1.00  0.00     0.029 A 
ATOM     50  C   UNL A   1      44.698  29.632  28.384  1.00  0.00     0.049 A 
ATOM     51  H   UNL A   1      44.274  27.582  28.358  1.00  0.00     0.167 HD
ATOM     52  C   UNL A   1      43.008  23.524  27.148  1.00  0.00     0.031 A 
ATOM     53  C   UNL A   1      46.009  29.696  28.053  1.00  0.00     0.031 A 
ATOM     54  C   UNL A   1      43.617  23.318  28.438  1.00  0.00     0.049 A 
ATOM     55  C   UNL A   1      46.564  28.332  28.204  1.00  0.00     0.074 A 
ATOM     56  C   UNL A   1      43.149  23.035  29.704  1.00  0.00     0.029 A 
ATOM     57  N   UNL A   1      44.893  23.803  28.602  1.00  0.00    -0.354 N 
ATOM     58  N   UNL A   1      46.676  27.727  29.352  1.00  0.00    -0.248 NA
ATOM     59  C   UNL A   1      46.568  27.464  27.037  1.00  0.00     0.031 C 
ATOM     60  C   UNL A   1      43.968  23.812  30.575  1.00  0.00     0.029 A 
ATOM     61  C   UNL A   1      44.934  24.461  29.801  1.00  0.00     0.049 A 
ATOM     62  H   UNL A   1      45.642  23.696  27.971  1.00  0.00     0.167 HD
ATOM     63  C   UNL A   1      46.320  26.411  29.092  1.00  0.00     0.074 A 
ATOM     64  C   UNL A   1      46.371  26.287  27.636  1.00  0.00     0.031 C 
ATOM     65  C   UNL A   1      45.741  25.635  30.056  1.00  0.00     0.031 A 
BRANCH  52  66
ATOM     66  C   UNL A   1      43.609  22.927  25.897  1.00  0.00    -0.014 A 
ATOM     67  C   UNL A   1      43.647  21.525  25.772  1.00  0.00     0.009 A 
ATOM     68  C   UNL A   1      44.391  23.660  24.984  1.00  0.00     0.009 A 
ATOM     69  C   UNL A   1      44.490  20.894  24.851  1.00  0.00     0.001 A 
ATOM     70  C   UNL A   1      45.203  23.033  24.034  1.00  0.00     0.001 A 
ATOM     71  C   UNL A   1      45.277  21.649  23.988  1.00  0.00     0.000 A 
ENDBRANCH  52  66
BRANCH  53  72
ATOM     72  C   UNL A   1      46.742  30.787  27.383  1.00  0.00    -0.014 A 
ATOM     73  C   UNL A   1      46.058  31.855  26.785  1.00  0.00     0.009 A 
ATOM     74  C   UNL A   1      48.134  30.913  27.558  1.00  0.00     0.009 A 
ATOM     75  C   UNL A   1      46.737  33.024  26.413  1.00  0.00     0.001 A 
ATOM     76  C   UNL A   1      48.810  32.079  27.186  1.00  0.00     0.001 A 
ATOM     77  C   UNL A   1      48.109  33.141  26.627  1.00  0.00     0.000 A 
ENDBRANCH  53  72
BRANCH  65  78
ATOM     78  C   UNL A   1      45.710  26.160  31.471  1.00  0.00    -0.014 A 
ATOM     79  C   UNL A   1      44.657  26.940  31.979  1.00  0.00     0.009 A 
ATOM     80  C   UNL A   1      46.682  25.691  32.366  1.00  0.00     0.009 A 
ATOM     81  C   UNL A   1      44.588  27.251  33.342  1.00  0.00     0.001 A 
ATOM     82  C   UNL A   1      46.602  25.983  33.729  1.00  0.00     0.001 A 
ATOM     83  C   UNL A   1      45.557  26.764  34.217  1.00  0.00     0.000 A 
ENDBRANCH  65  78
ENDBRANCH  39  40
ENDBRANCH  31  34
ENDBRANCH  29  30
ENDBRANCH  28  29
ENDBRANCH   1  28
TORSDOF 13
ENDMDL
