MODEL 1
REMARK VINA RESULT:     -11.8      0.000      0.000
REMARK SMILES Cc1c(C(=O)NCCCNC(=O)c2ccc(-c3c4nc(c(-c5ccccc5)c5ccc([nH]5)c(-c5ccccc5)c5nc(c(-c6ccccc6)c6ccc3[nH]6)C=C5)C=C4)cc2)sc2ncnc(NCc3cn4c(n3)SCC4)c12
REMARK SMILES IDX 7 1 6 2 4 3 5 4 3 6 1 7 2 8 77 9 61 10 62 11 66 12 63 13
REMARK SMILES IDX 65 14 64 15 67 16 68 18 69 19 70 20 73 21 71 22 72 23 76 24
REMARK SMILES IDX 74 25 75 26 8 27 9 28 10 29 11 30 12 32 13 33 14 34 60 35
REMARK SMILES IDX 15 36 59 37 16 38 17 39 18 40 53 41 19 42 58 43 52 44 54 45
REMARK SMILES IDX 20 46 57 47 51 48 50 49 21 51 43 52 28 53 42 54 29 55 32 56
REMARK SMILES IDX 41 57 55 58 30 59 31 60 40 62 56 63 33 64 22 65 23 66 27 67
REMARK SMILES IDX 24 68 26 69 25 70 44 71 45 72 49 73 46 74 48 75 47 76 34 77
REMARK SMILES IDX 35 78 39 79 36 80 38 81 37 82
REMARK H PARENT 6 5 67 17 10 31 54 50 32 61
REMARK Flexibility Score: inf
ROOT
ATOM      1  C   UNL A   1      31.727  30.831  26.112  1.00  0.00     0.118 C 
ENDROOT
BRANCH   1   2
ATOM      2  N   UNL A   1      32.860  30.171  26.735  1.00  0.00    -0.351 N 
ATOM      3  C   UNL A   1      33.498  28.982  26.483  1.00  0.00     0.261 C 
ATOM      4  O   UNL A   1      34.475  28.788  27.215  1.00  0.00    -0.268 OA
ATOM      5  H   UNL A   1      33.247  30.676  27.486  1.00  0.00     0.163 HD
BRANCH   3   6
ATOM      6  C   UNL A   1      33.109  28.052  25.416  1.00  0.00     0.098 A 
ATOM      7  C   UNL A   1      31.074  27.145  26.571  1.00  0.00     0.047 C 
ATOM      8  C   UNL A   1      32.065  27.117  25.457  1.00  0.00    -0.014 A 
ATOM      9  C   UNL A   1      32.131  26.153  24.344  1.00  0.00     0.057 A 
ATOM     10  S   UNL A   1      33.805  28.056  23.868  1.00  0.00    -0.110 S 
ATOM     11  C   UNL A   1      33.071  26.611  23.427  1.00  0.00     0.129 A 
ATOM     12  C   UNL A   1      31.516  24.927  23.962  1.00  0.00     0.138 A 
ATOM     13  N   UNL A   1      33.449  26.060  22.266  1.00  0.00    -0.225 NA
ATOM     14  N   UNL A   1      31.899  24.352  22.790  1.00  0.00    -0.219 NA
ATOM     15  C   UNL A   1      32.820  24.925  22.020  1.00  0.00     0.225 A 
BRANCH  12  16
ATOM     16  N   UNL A   1      30.618  24.116  24.581  1.00  0.00    -0.364 N 
ATOM     17  H   UNL A   1      29.771  24.047  24.084  1.00  0.00     0.162 HD
BRANCH  16  18
ATOM     18  C   UNL A   1      30.611  23.340  25.781  1.00  0.00     0.172 C 
BRANCH  18  19
ATOM     19  C   UNL A   1      31.794  22.440  25.991  1.00  0.00     0.079 A 
ATOM     20  C   UNL A   1      33.010  22.681  26.622  1.00  0.00     0.113 A 
ATOM     21  N   UNL A   1      31.790  21.179  25.404  1.00  0.00    -0.226 NA
ATOM     22  N   UNL A   1      33.763  21.601  26.306  1.00  0.00    -0.325 N 
ATOM     23  C   UNL A   1      32.993  20.728  25.607  1.00  0.00     0.168 A 
ATOM     24  C   UNL A   1      35.198  21.419  26.218  1.00  0.00     0.135 C 
ATOM     25  S   UNL A   1      33.932  19.550  24.771  1.00  0.00    -0.086 SA
ATOM     26  C   UNL A   1      35.410  20.638  24.919  1.00  0.00     0.100 C 
ENDBRANCH  18  19
ENDBRANCH  16  18
ENDBRANCH  12  16
ENDBRANCH   3   6
ENDBRANCH   1   2
BRANCH   1  27
ATOM     27  C   UNL A   1      31.433  32.187  26.763  1.00  0.00     0.042 C 
BRANCH  27  28
ATOM     28  C   UNL A   1      32.709  32.848  27.241  1.00  0.00     0.118 C 
BRANCH  28  29
ATOM     29  N   UNL A   1      32.441  34.108  27.935  1.00  0.00    -0.352 N 
ATOM     30  C   UNL A   1      33.098  34.657  29.018  1.00  0.00     0.251 C 
ATOM     31  H   UNL A   1      31.689  34.636  27.583  1.00  0.00     0.163 HD
ATOM     32  O   UNL A   1      32.601  35.559  29.668  1.00  0.00    -0.269 OA
BRANCH  30  33
ATOM     33  C   UNL A   1      34.422  34.120  29.365  1.00  0.00     0.039 A 
ATOM     34  C   UNL A   1      34.574  33.152  30.359  1.00  0.00     0.014 A 
ATOM     35  C   UNL A   1      35.512  34.574  28.630  1.00  0.00     0.014 A 
ATOM     36  C   UNL A   1      35.835  32.603  30.557  1.00  0.00     0.010 A 
ATOM     37  C   UNL A   1      36.692  33.890  28.680  1.00  0.00     0.010 A 
ATOM     38  C   UNL A   1      36.884  32.970  29.697  1.00  0.00    -0.014 A 
BRANCH  38  39
ATOM     39  C   UNL A   1      38.186  32.333  29.781  1.00  0.00     0.031 A 
ATOM     40  C   UNL A   1      38.187  30.905  29.382  1.00  0.00     0.074 A 
ATOM     41  C   UNL A   1      39.325  33.024  30.006  1.00  0.00     0.049 A 
ATOM     42  N   UNL A   1      38.351  29.885  30.154  1.00  0.00    -0.248 NA
ATOM     43  C   UNL A   1      37.811  30.558  28.001  1.00  0.00     0.031 C 
ATOM     44  C   UNL A   1      39.523  34.477  30.107  1.00  0.00     0.029 A 
ATOM     45  N   UNL A   1      40.593  32.552  30.091  1.00  0.00    -0.354 N 
ATOM     46  C   UNL A   1      38.294  28.768  29.331  1.00  0.00     0.074 A 
ATOM     47  C   UNL A   1      37.789  29.225  28.061  1.00  0.00     0.031 C 
ATOM     48  C   UNL A   1      40.840  34.767  29.997  1.00  0.00     0.029 A 
ATOM     49  C   UNL A   1      41.585  33.522  30.010  1.00  0.00     0.049 A 
ATOM     50  H   UNL A   1      40.796  31.595  30.201  1.00  0.00     0.167 HD
ATOM     51  C   UNL A   1      38.901  27.603  29.689  1.00  0.00     0.031 A 
ATOM     52  C   UNL A   1      42.921  33.300  29.945  1.00  0.00     0.031 A 
ATOM     53  C   UNL A   1      39.260  27.601  31.086  1.00  0.00     0.049 A 
ATOM     54  C   UNL A   1      43.153  31.934  30.467  1.00  0.00     0.074 A 
ATOM     55  C   UNL A   1      38.551  27.691  32.267  1.00  0.00     0.029 A 
ATOM     56  N   UNL A   1      40.556  27.940  31.396  1.00  0.00    -0.354 N 
ATOM     57  N   UNL A   1      42.942  31.599  31.707  1.00  0.00    -0.248 NA
ATOM     58  C   UNL A   1      43.166  30.837  29.514  1.00  0.00     0.031 C 
ATOM     59  C   UNL A   1      39.337  28.540  33.101  1.00  0.00     0.029 A 
ATOM     60  C   UNL A   1      40.516  28.852  32.420  1.00  0.00     0.049 A 
ATOM     61  H   UNL A   1      41.367  27.590  30.961  1.00  0.00     0.167 HD
ATOM     62  C   UNL A   1      42.354  30.345  31.636  1.00  0.00     0.074 A 
ATOM     63  C   UNL A   1      42.605  29.888  30.269  1.00  0.00     0.031 C 
ATOM     64  C   UNL A   1      41.474  29.924  32.592  1.00  0.00     0.031 A 
BRANCH  51  65
ATOM     65  C   UNL A   1      39.528  26.658  28.701  1.00  0.00    -0.014 A 
ATOM     66  C   UNL A   1      40.498  27.152  27.812  1.00  0.00     0.009 A 
ATOM     67  C   UNL A   1      39.014  25.375  28.428  1.00  0.00     0.009 A 
ATOM     68  C   UNL A   1      40.888  26.422  26.680  1.00  0.00     0.001 A 
ATOM     69  C   UNL A   1      39.428  24.628  27.323  1.00  0.00     0.001 A 
ATOM     70  C   UNL A   1      40.348  25.163  26.435  1.00  0.00     0.000 A 
ENDBRANCH  51  65
BRANCH  52  71
ATOM     71  C   UNL A   1      43.962  34.026  29.183  1.00  0.00    -0.014 A 
ATOM     72  C   UNL A   1      44.026  33.906  27.785  1.00  0.00     0.009 A 
ATOM     73  C   UNL A   1      44.675  35.078  29.784  1.00  0.00     0.009 A 
ATOM     74  C   UNL A   1      44.724  34.843  27.011  1.00  0.00     0.001 A 
ATOM     75  C   UNL A   1      45.374  36.013  29.010  1.00  0.00     0.001 A 
ATOM     76  C   UNL A   1      45.380  35.908  27.624  1.00  0.00     0.000 A 
ENDBRANCH  52  71
BRANCH  64  77
ATOM     77  C   UNL A   1      41.313  30.779  33.831  1.00  0.00    -0.014 A 
ATOM     78  C   UNL A   1      41.982  30.522  35.043  1.00  0.00     0.009 A 
ATOM     79  C   UNL A   1      40.585  31.971  33.719  1.00  0.00     0.009 A 
ATOM     80  C   UNL A   1      41.904  31.422  36.113  1.00  0.00     0.001 A 
ATOM     81  C   UNL A   1      40.523  32.880  34.779  1.00  0.00     0.001 A 
ATOM     82  C   UNL A   1      41.179  32.604  35.976  1.00  0.00     0.000 A 
ENDBRANCH  64  77
ENDBRANCH  38  39
ENDBRANCH  30  33
ENDBRANCH  28  29
ENDBRANCH  27  28
ENDBRANCH   1  27
TORSDOF 13
ENDMDL
MODEL 2
REMARK VINA RESULT:     -11.8      3.916      9.071
REMARK SMILES Cc1c(C(=O)NCCCNC(=O)c2ccc(-c3c4nc(c(-c5ccccc5)c5ccc([nH]5)c(-c5ccccc5)c5nc(c(-c6ccccc6)c6ccc3[nH]6)C=C5)C=C4)cc2)sc2ncnc(NCc3cn4c(n3)SCC4)c12
REMARK SMILES IDX 7 1 6 2 4 3 5 4 3 6 1 7 2 8 77 9 61 10 62 11 66 12 63 13
REMARK SMILES IDX 65 14 64 15 67 16 68 18 69 19 70 20 73 21 71 22 72 23 76 24
REMARK SMILES IDX 74 25 75 26 8 27 9 28 10 29 11 30 12 32 13 33 14 34 60 35
REMARK SMILES IDX 15 36 59 37 16 38 17 39 18 40 53 41 19 42 58 43 52 44 54 45
REMARK SMILES IDX 20 46 57 47 51 48 50 49 21 51 43 52 28 53 42 54 29 55 32 56
REMARK SMILES IDX 41 57 55 58 30 59 31 60 40 62 56 63 33 64 22 65 23 66 27 67
REMARK SMILES IDX 24 68 26 69 25 70 44 71 45 72 49 73 46 74 48 75 47 76 34 77
REMARK SMILES IDX 35 78 39 79 36 80 38 81 37 82
REMARK H PARENT 6 5 67 17 10 31 54 50 32 61
REMARK Flexibility Score: inf
ROOT
ATOM      1  C   UNL A   1      36.888  20.573  24.959  1.00  0.00     0.118 C 
ENDROOT
BRANCH   1   2
ATOM      2  N   UNL A   1      37.302  21.886  25.418  1.00  0.00    -0.351 N 
ATOM      3  C   UNL A   1      36.600  23.000  25.806  1.00  0.00     0.261 C 
ATOM      4  O   UNL A   1      37.324  23.926  26.185  1.00  0.00    -0.268 OA
ATOM      5  H   UNL A   1      38.279  22.001  25.459  1.00  0.00     0.163 HD
BRANCH   3   6
ATOM      6  C   UNL A   1      35.134  23.078  25.832  1.00  0.00     0.098 A 
ATOM      7  C   UNL A   1      34.862  23.907  23.479  1.00  0.00     0.047 C 
ATOM      8  C   UNL A   1      34.303  23.586  24.822  1.00  0.00    -0.014 A 
ATOM      9  C   UNL A   1      32.917  23.783  25.284  1.00  0.00     0.057 A 
ATOM     10  S   UNL A   1      34.181  22.423  27.075  1.00  0.00    -0.110 S 
ATOM     11  C   UNL A   1      32.779  23.164  26.522  1.00  0.00     0.129 A 
ATOM     12  C   UNL A   1      31.723  24.409  24.826  1.00  0.00     0.138 A 
ATOM     13  N   UNL A   1      31.693  23.083  27.302  1.00  0.00    -0.225 NA
ATOM     14  N   UNL A   1      30.617  24.342  25.614  1.00  0.00    -0.219 NA
ATOM     15  C   UNL A   1      30.650  23.704  26.781  1.00  0.00     0.225 A 
BRANCH  12  16
ATOM     16  N   UNL A   1      31.442  25.163  23.731  1.00  0.00    -0.364 N 
ATOM     17  H   UNL A   1      30.895  24.678  23.071  1.00  0.00     0.162 HD
BRANCH  16  18
ATOM     18  C   UNL A   1      31.750  26.494  23.309  1.00  0.00     0.172 C 
BRANCH  18  19
ATOM     19  C   UNL A   1      30.633  27.491  23.407  1.00  0.00     0.079 A 
ATOM     20  C   UNL A   1      29.255  27.301  23.448  1.00  0.00     0.113 A 
ATOM     21  N   UNL A   1      30.938  28.848  23.356  1.00  0.00    -0.226 NA
ATOM     22  N   UNL A   1      28.748  28.549  23.304  1.00  0.00    -0.325 N 
ATOM     23  C   UNL A   1      29.778  29.433  23.280  1.00  0.00     0.168 A 
ATOM     24  C   UNL A   1      27.474  29.019  22.799  1.00  0.00     0.135 C 
ATOM     25  S   UNL A   1      29.308  30.969  22.657  1.00  0.00    -0.086 SA
ATOM     26  C   UNL A   1      27.831  30.192  21.883  1.00  0.00     0.100 C 
ENDBRANCH  18  19
ENDBRANCH  16  18
ENDBRANCH  12  16
ENDBRANCH   3   6
ENDBRANCH   1   2
BRANCH   1  27
ATOM     27  C   UNL A   1      38.048  19.571  24.991  1.00  0.00     0.042 C 
BRANCH  27  28
ATOM     28  C   UNL A   1      39.230  20.132  25.753  1.00  0.00     0.118 C 
BRANCH  28  29
ATOM     29  N   UNL A   1      40.388  19.240  25.693  1.00  0.00    -0.352 N 
ATOM     30  C   UNL A   1      41.723  19.540  25.875  1.00  0.00     0.251 C 
ATOM     31  H   UNL A   1      40.189  18.296  25.495  1.00  0.00     0.163 HD
ATOM     32  O   UNL A   1      42.599  18.770  25.520  1.00  0.00    -0.269 OA
BRANCH  30  33
ATOM     33  C   UNL A   1      42.061  20.821  26.513  1.00  0.00     0.039 A 
ATOM     34  C   UNL A   1      42.414  21.938  25.755  1.00  0.00     0.014 A 
ATOM     35  C   UNL A   1      41.964  20.893  27.899  1.00  0.00     0.014 A 
ATOM     36  C   UNL A   1      42.607  23.146  26.413  1.00  0.00     0.010 A 
ATOM     37  C   UNL A   1      41.946  22.112  28.512  1.00  0.00     0.010 A 
ATOM     38  C   UNL A   1      42.353  23.223  27.793  1.00  0.00    -0.014 A 
BRANCH  38  39
ATOM     39  C   UNL A   1      42.417  24.488  28.504  1.00  0.00     0.031 A 
ATOM     40  C   UNL A   1      41.289  25.404  28.209  1.00  0.00     0.074 A 
ATOM     41  C   UNL A   1      43.309  24.728  29.489  1.00  0.00     0.049 A 
ATOM     42  N   UNL A   1      41.339  26.507  27.545  1.00  0.00    -0.248 NA
ATOM     43  C   UNL A   1      39.923  24.974  28.556  1.00  0.00     0.031 C 
ATOM     44  C   UNL A   1      44.279  23.812  30.105  1.00  0.00     0.029 A 
ATOM     45  N   UNL A   1      43.460  25.852  30.232  1.00  0.00    -0.354 N 
ATOM     46  C   UNL A   1      40.048  27.019  27.551  1.00  0.00     0.074 A 
ATOM     47  C   UNL A   1      39.195  25.960  28.029  1.00  0.00     0.031 C 
ATOM     48  C   UNL A   1      44.732  24.341  31.265  1.00  0.00     0.029 A 
ATOM     49  C   UNL A   1      44.235  25.699  31.375  1.00  0.00     0.049 A 
ATOM     50  H   UNL A   1      43.050  26.712  29.982  1.00  0.00     0.167 HD
ATOM     51  C   UNL A   1      39.823  28.353  27.396  1.00  0.00     0.031 A 
ATOM     52  C   UNL A   1      44.434  26.630  32.340  1.00  0.00     0.031 A 
ATOM     53  C   UNL A   1      40.994  29.033  26.902  1.00  0.00     0.049 A 
ATOM     54  C   UNL A   1      44.113  27.945  31.740  1.00  0.00     0.074 A 
ATOM     55  C   UNL A   1      41.752  28.944  25.752  1.00  0.00     0.029 A 
ATOM     56  N   UNL A   1      41.792  29.654  27.834  1.00  0.00    -0.354 N 
ATOM     57  N   UNL A   1      44.812  28.480  30.781  1.00  0.00    -0.248 NA
ATOM     58  C   UNL A   1      42.753  28.438  31.877  1.00  0.00     0.031 C 
ATOM     59  C   UNL A   1      43.103  29.063  26.195  1.00  0.00     0.029 A 
ATOM     60  C   UNL A   1      43.093  29.304  27.571  1.00  0.00     0.049 A 
ATOM     61  H   UNL A   1      41.486  30.244  28.560  1.00  0.00     0.167 HD
ATOM     62  C   UNL A   1      43.869  29.030  29.925  1.00  0.00     0.074 A 
ATOM     63  C   UNL A   1      42.628  29.057  30.699  1.00  0.00     0.031 C 
ATOM     64  C   UNL A   1      44.112  29.139  28.586  1.00  0.00     0.031 A 
BRANCH  51  65
ATOM     65  C   UNL A   1      38.696  29.087  28.072  1.00  0.00    -0.014 A 
ATOM     66  C   UNL A   1      38.548  28.966  29.464  1.00  0.00     0.009 A 
ATOM     67  C   UNL A   1      37.623  29.668  27.369  1.00  0.00     0.009 A 
ATOM     68  C   UNL A   1      37.364  29.355  30.106  1.00  0.00     0.001 A 
ATOM     69  C   UNL A   1      36.458  30.093  28.009  1.00  0.00     0.001 A 
ATOM     70  C   UNL A   1      36.319  29.914  29.377  1.00  0.00     0.000 A 
ENDBRANCH  51  65
BRANCH  52  71
ATOM     71  C   UNL A   1      44.561  26.457  33.805  1.00  0.00    -0.014 A 
ATOM     72  C   UNL A   1      45.419  27.290  34.543  1.00  0.00     0.009 A 
ATOM     73  C   UNL A   1      43.611  25.703  34.515  1.00  0.00     0.009 A 
ATOM     74  C   UNL A   1      45.285  27.414  35.932  1.00  0.00     0.001 A 
ATOM     75  C   UNL A   1      43.479  25.826  35.903  1.00  0.00     0.001 A 
ATOM     76  C   UNL A   1      44.301  26.698  36.609  1.00  0.00     0.000 A 
ENDBRANCH  52  71
BRANCH  64  77
ATOM     77  C   UNL A   1      45.510  28.831  28.093  1.00  0.00    -0.014 A 
ATOM     78  C   UNL A   1      46.515  29.807  27.949  1.00  0.00     0.009 A 
ATOM     79  C   UNL A   1      45.866  27.486  27.920  1.00  0.00     0.009 A 
ATOM     80  C   UNL A   1      47.828  29.445  27.623  1.00  0.00     0.001 A 
ATOM     81  C   UNL A   1      47.180  27.123  27.614  1.00  0.00     0.001 A 
ATOM     82  C   UNL A   1      48.159  28.102  27.461  1.00  0.00     0.000 A 
ENDBRANCH  64  77
ENDBRANCH  38  39
ENDBRANCH  30  33
ENDBRANCH  28  29
ENDBRANCH  27  28
ENDBRANCH   1  27
TORSDOF 13
ENDMDL
MODEL 3
REMARK VINA RESULT:     -11.6      4.921     10.420
REMARK SMILES Cc1c(C(=O)NCCCNC(=O)c2ccc(-c3c4nc(c(-c5ccccc5)c5ccc([nH]5)c(-c5ccccc5)c5nc(c(-c6ccccc6)c6ccc3[nH]6)C=C5)C=C4)cc2)sc2ncnc(NCc3cn4c(n3)SCC4)c12
REMARK SMILES IDX 7 1 6 2 4 3 5 4 3 6 1 7 2 8 77 9 61 10 62 11 66 12 63 13
REMARK SMILES IDX 65 14 64 15 67 16 68 18 69 19 70 20 73 21 71 22 72 23 76 24
REMARK SMILES IDX 74 25 75 26 8 27 9 28 10 29 11 30 12 32 13 33 14 34 60 35
REMARK SMILES IDX 15 36 59 37 16 38 17 39 18 40 53 41 19 42 58 43 52 44 54 45
REMARK SMILES IDX 20 46 57 47 51 48 50 49 21 51 43 52 28 53 42 54 29 55 32 56
REMARK SMILES IDX 41 57 55 58 30 59 31 60 40 62 56 63 33 64 22 65 23 66 27 67
REMARK SMILES IDX 24 68 26 69 25 70 44 71 45 72 49 73 46 74 48 75 47 76 34 77
REMARK SMILES IDX 35 78 39 79 36 80 38 81 37 82
REMARK H PARENT 6 5 67 17 10 31 54 50 32 61
REMARK Flexibility Score: inf
ROOT
ATOM      1  C   UNL A   1      40.221  33.052  35.650  1.00  0.00     0.118 C 
ENDROOT
BRANCH   1   2
ATOM      2  N   UNL A   1      38.836  33.216  36.049  1.00  0.00    -0.351 N 
ATOM      3  C   UNL A   1      37.649  32.860  35.457  1.00  0.00     0.261 C 
ATOM      4  O   UNL A   1      36.660  33.133  36.145  1.00  0.00    -0.268 OA
ATOM      5  H   UNL A   1      38.724  33.671  36.914  1.00  0.00     0.163 HD
BRANCH   3   6
ATOM      6  C   UNL A   1      37.551  32.170  34.165  1.00  0.00     0.098 A 
ATOM      7  C   UNL A   1      37.215  34.234  32.777  1.00  0.00     0.047 C 
ATOM      8  C   UNL A   1      37.249  32.751  32.925  1.00  0.00    -0.014 A 
ATOM      9  C   UNL A   1      36.947  31.743  31.892  1.00  0.00     0.057 A 
ATOM     10  S   UNL A   1      37.928  30.530  33.946  1.00  0.00    -0.110 S 
ATOM     11  C   UNL A   1      37.300  30.493  32.389  1.00  0.00     0.129 A 
ATOM     12  C   UNL A   1      36.414  31.700  30.572  1.00  0.00     0.138 A 
ATOM     13  N   UNL A   1      37.209  29.297  31.792  1.00  0.00    -0.225 NA
ATOM     14  N   UNL A   1      36.306  30.491  29.960  1.00  0.00    -0.219 NA
ATOM     15  C   UNL A   1      36.695  29.378  30.578  1.00  0.00     0.225 A 
BRANCH  12  16
ATOM     16  N   UNL A   1      35.895  32.657  29.759  1.00  0.00    -0.364 N 
ATOM     17  H   UNL A   1      36.593  33.196  29.322  1.00  0.00     0.162 HD
BRANCH  16  18
ATOM     18  C   UNL A   1      34.576  33.065  29.386  1.00  0.00     0.172 C 
BRANCH  18  19
ATOM     19  C   UNL A   1      33.972  34.168  30.205  1.00  0.00     0.079 A 
ATOM     20  C   UNL A   1      33.397  35.373  29.813  1.00  0.00     0.113 A 
ATOM     21  N   UNL A   1      34.048  34.092  31.593  1.00  0.00    -0.226 NA
ATOM     22  N   UNL A   1      33.241  36.054  30.973  1.00  0.00    -0.325 N 
ATOM     23  C   UNL A   1      33.614  35.248  32.001  1.00  0.00     0.168 A 
ATOM     24  C   UNL A   1      33.162  37.473  31.254  1.00  0.00     0.135 C 
ATOM     25  S   UNL A   1      33.892  36.128  33.456  1.00  0.00    -0.086 SA
ATOM     26  C   UNL A   1      34.062  37.676  32.475  1.00  0.00     0.100 C 
ENDBRANCH  18  19
ENDBRANCH  16  18
ENDBRANCH  12  16
ENDBRANCH   3   6
ENDBRANCH   1   2
BRANCH   1  27
ATOM     27  C   UNL A   1      40.636  34.092  34.604  1.00  0.00     0.042 C 
BRANCH  27  28
ATOM     28  C   UNL A   1      41.020  33.426  33.299  1.00  0.00     0.118 C 
BRANCH  28  29
ATOM     29  N   UNL A   1      40.574  34.203  32.141  1.00  0.00    -0.352 N 
ATOM     30  C   UNL A   1      40.763  33.942  30.799  1.00  0.00     0.251 C 
ATOM     31  H   UNL A   1      40.071  35.023  32.347  1.00  0.00     0.163 HD
ATOM     32  O   UNL A   1      40.591  34.806  29.957  1.00  0.00    -0.269 OA
BRANCH  30  33
ATOM     33  C   UNL A   1      41.179  32.586  30.412  1.00  0.00     0.039 A 
ATOM     34  C   UNL A   1      42.518  32.281  30.166  1.00  0.00     0.014 A 
ATOM     35  C   UNL A   1      40.195  31.605  30.351  1.00  0.00     0.014 A 
ATOM     36  C   UNL A   1      42.858  30.957  29.919  1.00  0.00     0.010 A 
ATOM     37  C   UNL A   1      40.554  30.288  30.320  1.00  0.00     0.010 A 
ATOM     38  C   UNL A   1      41.867  29.966  30.016  1.00  0.00    -0.014 A 
BRANCH  38  39
ATOM     39  C   UNL A   1      42.192  28.556  29.892  1.00  0.00     0.031 A 
ATOM     40  C   UNL A   1      42.838  27.978  31.095  1.00  0.00     0.074 A 
ATOM     41  C   UNL A   1      41.768  27.796  28.859  1.00  0.00     0.049 A 
ATOM     42  N   UNL A   1      44.063  27.594  31.208  1.00  0.00    -0.248 NA
ATOM     43  C   UNL A   1      42.086  27.966  32.362  1.00  0.00     0.031 C 
ATOM     44  C   UNL A   1      40.861  28.150  27.758  1.00  0.00     0.029 A 
ATOM     45  N   UNL A   1      41.991  26.477  28.638  1.00  0.00    -0.354 N 
ATOM     46  C   UNL A   1      44.196  27.107  32.502  1.00  0.00     0.074 A 
ATOM     47  C   UNL A   1      43.012  27.519  33.213  1.00  0.00     0.031 C 
ATOM     48  C   UNL A   1      40.431  27.025  27.142  1.00  0.00     0.029 A 
ATOM     49  C   UNL A   1      41.172  25.898  27.676  1.00  0.00     0.049 A 
ATOM     50  H   UNL A   1      42.679  25.967  29.124  1.00  0.00     0.167 HD
ATOM     51  C   UNL A   1      45.157  26.194  32.812  1.00  0.00     0.031 A 
ATOM     52  C   UNL A   1      41.111  24.581  27.361  1.00  0.00     0.031 A 
ATOM     53  C   UNL A   1      46.152  26.101  31.772  1.00  0.00     0.049 A 
ATOM     54  C   UNL A   1      42.371  23.968  27.839  1.00  0.00     0.074 A 
ATOM     55  C   UNL A   1      47.055  26.984  31.215  1.00  0.00     0.029 A 
ATOM     56  N   UNL A   1      46.004  25.083  30.859  1.00  0.00    -0.354 N 
ATOM     57  N   UNL A   1      43.538  24.252  27.336  1.00  0.00    -0.248 NA
ATOM     58  C   UNL A   1      42.385  23.403  29.178  1.00  0.00     0.031 C 
ATOM     59  C   UNL A   1      47.020  26.707  29.816  1.00  0.00     0.029 A 
ATOM     60  C   UNL A   1      46.168  25.619  29.606  1.00  0.00     0.049 A 
ATOM     61  H   UNL A   1      45.815  24.140  31.066  1.00  0.00     0.167 HD
ATOM     62  C   UNL A   1      44.382  24.333  28.434  1.00  0.00     0.074 A 
ATOM     63  C   UNL A   1      43.638  23.707  29.528  1.00  0.00     0.031 C 
ATOM     64  C   UNL A   1      45.474  25.152  28.424  1.00  0.00     0.031 A 
BRANCH  51  65
ATOM     65  C   UNL A   1      44.971  25.113  33.841  1.00  0.00    -0.014 A 
ATOM     66  C   UNL A   1      44.136  24.024  33.538  1.00  0.00     0.009 A 
ATOM     67  C   UNL A   1      45.364  25.254  35.186  1.00  0.00     0.009 A 
ATOM     68  C   UNL A   1      43.675  23.159  34.540  1.00  0.00     0.001 A 
ATOM     69  C   UNL A   1      44.939  24.371  36.181  1.00  0.00     0.001 A 
ATOM     70  C   UNL A   1      44.073  23.337  35.861  1.00  0.00     0.000 A 
ENDBRANCH  51  65
BRANCH  52  71
ATOM     71  C   UNL A   1      39.942  23.755  26.982  1.00  0.00    -0.014 A 
ATOM     72  C   UNL A   1      38.744  24.370  26.582  1.00  0.00     0.009 A 
ATOM     73  C   UNL A   1      40.102  22.388  26.702  1.00  0.00     0.009 A 
ATOM     74  C   UNL A   1      37.770  23.657  25.869  1.00  0.00     0.001 A 
ATOM     75  C   UNL A   1      39.128  21.675  25.991  1.00  0.00     0.001 A 
ATOM     76  C   UNL A   1      37.973  22.315  25.556  1.00  0.00     0.000 A 
ENDBRANCH  52  71
BRANCH  64  77
ATOM     77  C   UNL A   1      45.850  25.815  27.116  1.00  0.00    -0.014 A 
ATOM     78  C   UNL A   1      46.789  25.277  26.215  1.00  0.00     0.009 A 
ATOM     79  C   UNL A   1      45.114  26.937  26.711  1.00  0.00     0.009 A 
ATOM     80  C   UNL A   1      46.996  25.860  24.959  1.00  0.00     0.001 A 
ATOM     81  C   UNL A   1      45.305  27.506  25.449  1.00  0.00     0.001 A 
ATOM     82  C   UNL A   1      46.248  26.971  24.575  1.00  0.00     0.000 A 
ENDBRANCH  64  77
ENDBRANCH  38  39
ENDBRANCH  30  33
ENDBRANCH  28  29
ENDBRANCH  27  28
ENDBRANCH   1  27
TORSDOF 13
ENDMDL
