MODEL 1
REMARK VINA RESULT:     -12.8      0.000      0.000
REMARK SMILES O=C(NCCCNC(=O)[C@H]1CCCN(C(=O)C2CCN(S(=O)(=O)c3ccccc3)CC2)C1)c1ccc(-c2c3nc(c(-c4ccccc4)c4ccc([nH]4)c(-c4ccccc4)c4nc(c(-c5ccccc5)c5ccc2[nH]5)C=C4)C=C3)cc1
REMARK SMILES IDX 6 1 5 2 4 3 3 4 1 5 2 6 33 8 34 9 80 10 35 11 79 12 36 13
REMARK SMILES IDX 37 14 38 15 73 16 39 17 78 18 72 19 74 20 40 21 77 22 71 23
REMARK SMILES IDX 70 24 41 26 63 27 48 28 62 29 49 30 52 31 61 32 75 33 50 34
REMARK SMILES IDX 51 35 60 37 76 38 53 39 42 40 43 41 47 42 44 43 46 44 45 45
REMARK SMILES IDX 64 46 65 47 69 48 66 49 68 50 67 51 54 52 55 53 59 54 56 55
REMARK SMILES IDX 58 56 57 57 7 58 8 59 9 61 10 62 11 63 32 64 12 65 14 66
REMARK SMILES IDX 13 67 15 68 16 69 17 70 18 71 31 72 19 73 30 74 20 75 21 76
REMARK SMILES IDX 22 77 23 78 24 79 25 80 29 81 26 82 28 83 27 84
REMARK H PARENT 3 7 74 25 52 36 7 60
REMARK Flexibility Score: inf
ROOT
ATOM      1  C   UNL A   1      36.181  20.567  25.092  1.00  0.00     0.117 C 
ENDROOT
BRANCH   1   2
ATOM      2  C   UNL A   1      37.521  19.976  24.691  1.00  0.00     0.042 C 
BRANCH   2   3
ATOM      3  C   UNL A   1      38.658  20.411  25.600  1.00  0.00     0.118 C 
BRANCH   3   4
ATOM      4  N   UNL A   1      39.727  19.424  25.678  1.00  0.00    -0.352 N 
ATOM      5  O   UNL A   1      41.848  18.693  25.921  1.00  0.00    -0.269 OA
ATOM      6  C   UNL A   1      41.035  19.600  26.057  1.00  0.00     0.251 C 
ATOM      7  H   UNL A   1      39.478  18.506  25.425  1.00  0.00     0.163 HD
BRANCH   6   8
ATOM      8  C   UNL A   1      41.457  20.905  26.607  1.00  0.00     0.039 A 
ATOM      9  C   UNL A   1      41.431  21.127  27.984  1.00  0.00     0.014 A 
ATOM     10  C   UNL A   1      41.866  21.916  25.733  1.00  0.00     0.014 A 
ATOM     11  C   UNL A   1      41.668  22.400  28.478  1.00  0.00     0.010 A 
ATOM     12  C   UNL A   1      42.200  23.173  26.242  1.00  0.00     0.010 A 
ATOM     13  C   UNL A   1      42.078  23.430  27.615  1.00  0.00    -0.014 A 
BRANCH  13  14
ATOM     14  C   UNL A   1      42.452  24.737  28.203  1.00  0.00     0.031 A 
ATOM     15  C   UNL A   1      43.880  25.076  28.515  1.00  0.00     0.074 A 
ATOM     16  C   UNL A   1      41.476  25.644  28.397  1.00  0.00     0.049 A 
ATOM     17  N   UNL A   1      44.371  26.197  28.982  1.00  0.00    -0.248 NA
ATOM     18  C   UNL A   1      44.889  24.030  28.284  1.00  0.00     0.031 C 
ATOM     19  C   UNL A   1      40.051  25.417  28.132  1.00  0.00     0.029 A 
ATOM     20  N   UNL A   1      41.530  26.945  28.819  1.00  0.00    -0.354 N 
ATOM     21  C   UNL A   1      45.736  25.985  29.123  1.00  0.00     0.074 A 
ATOM     22  C   UNL A   1      45.997  24.624  28.705  1.00  0.00     0.031 C 
ATOM     23  C   UNL A   1      39.381  26.561  28.324  1.00  0.00     0.029 A 
ATOM     24  C   UNL A   1      40.313  27.578  28.790  1.00  0.00     0.049 A 
ATOM     25  H   UNL A   1      42.362  27.383  29.115  1.00  0.00     0.167 HD
ATOM     26  C   UNL A   1      46.681  26.850  29.563  1.00  0.00     0.031 A 
ATOM     27  C   UNL A   1      39.978  28.840  29.110  1.00  0.00     0.031 A 
ATOM     28  C   UNL A   1      46.416  28.205  29.968  1.00  0.00     0.049 A 
ATOM     29  C   UNL A   1      41.047  29.772  29.593  1.00  0.00     0.074 A 
ATOM     30  C   UNL A   1      47.310  29.162  30.418  1.00  0.00     0.029 A 
ATOM     31  N   UNL A   1      45.163  28.798  29.968  1.00  0.00    -0.354 N 
ATOM     32  N   UNL A   1      42.333  29.553  29.719  1.00  0.00    -0.248 NA
ATOM     33  C   UNL A   1      40.616  31.119  29.987  1.00  0.00     0.031 C 
ATOM     34  C   UNL A   1      46.591  30.324  30.722  1.00  0.00     0.029 A 
ATOM     35  C   UNL A   1      45.257  30.101  30.425  1.00  0.00     0.049 A 
ATOM     36  H   UNL A   1      44.329  28.356  29.686  1.00  0.00     0.167 HD
ATOM     37  C   UNL A   1      42.866  30.733  30.212  1.00  0.00     0.074 A 
ATOM     38  C   UNL A   1      41.770  31.674  30.329  1.00  0.00     0.031 C 
ATOM     39  C   UNL A   1      44.149  31.011  30.549  1.00  0.00     0.031 A 
BRANCH  26  40
ATOM     40  C   UNL A   1      48.093  26.347  29.655  1.00  0.00    -0.014 A 
ATOM     41  C   UNL A   1      48.584  25.766  30.834  1.00  0.00     0.009 A 
ATOM     42  C   UNL A   1      48.926  26.403  28.527  1.00  0.00     0.009 A 
ATOM     43  C   UNL A   1      49.889  25.270  30.887  1.00  0.00     0.001 A 
ATOM     44  C   UNL A   1      50.224  25.890  28.576  1.00  0.00     0.001 A 
ATOM     45  C   UNL A   1      50.705  25.328  29.758  1.00  0.00     0.000 A 
ENDBRANCH  26  40
BRANCH  27  46
ATOM     46  C   UNL A   1      38.566  29.279  28.996  1.00  0.00    -0.014 A 
ATOM     47  C   UNL A   1      38.049  29.708  27.766  1.00  0.00     0.009 A 
ATOM     48  C   UNL A   1      37.720  29.240  30.117  1.00  0.00     0.009 A 
ATOM     49  C   UNL A   1      36.714  30.105  27.663  1.00  0.00     0.001 A 
ATOM     50  C   UNL A   1      36.380  29.612  30.004  1.00  0.00     0.001 A 
ATOM     51  C   UNL A   1      35.880  30.050  28.779  1.00  0.00     0.000 A 
ENDBRANCH  27  46
BRANCH  39  52
ATOM     52  C   UNL A   1      44.418  32.389  31.075  1.00  0.00    -0.014 A 
ATOM     53  C   UNL A   1      44.738  33.439  30.202  1.00  0.00     0.009 A 
ATOM     54  C   UNL A   1      44.345  32.638  32.453  1.00  0.00     0.009 A 
ATOM     55  C   UNL A   1      45.015  34.711  30.705  1.00  0.00     0.001 A 
ATOM     56  C   UNL A   1      44.603  33.916  32.950  1.00  0.00     0.001 A 
ATOM     57  C   UNL A   1      44.946  34.948  32.078  1.00  0.00     0.000 A 
ENDBRANCH  39  52
ENDBRANCH  13  14
ENDBRANCH   6   8
ENDBRANCH   3   4
ENDBRANCH   2   3
ENDBRANCH   1   2
BRANCH   1  58
ATOM     58  N   UNL A   1      35.113  19.584  24.985  1.00  0.00    -0.356 N 
ATOM     59  C   UNL A   1      33.763  19.788  24.904  1.00  0.00     0.224 C 
ATOM     60  H   UNL A   1      35.402  18.643  24.968  1.00  0.00     0.163 HD
ATOM     61  O   UNL A   1      33.009  18.820  24.959  1.00  0.00    -0.275 OA
BRANCH  59  62
ATOM     62  C   UNL A   1      33.278  21.201  24.664  1.00  0.00     0.098 C 
ATOM     63  C   UNL A   1      32.465  21.193  23.360  1.00  0.00     0.017 C 
ATOM     64  C   UNL A   1      32.421  21.737  25.820  1.00  0.00     0.133 C 
ATOM     65  C   UNL A   1      31.928  22.579  23.082  1.00  0.00     0.022 C 
ATOM     66  N   UNL A   1      31.873  23.072  25.484  1.00  0.00    -0.342 N 
ATOM     67  C   UNL A   1      31.085  23.064  24.260  1.00  0.00     0.119 C 
BRANCH  66  68
ATOM     68  C   UNL A   1      32.094  24.137  26.336  1.00  0.00     0.225 C 
ATOM     69  O   UNL A   1      31.301  24.343  27.268  1.00  0.00    -0.275 OA
BRANCH  68  70
ATOM     70  C   UNL A   1      33.333  25.074  26.275  1.00  0.00     0.081 C 
ATOM     71  C   UNL A   1      33.161  26.581  26.333  1.00  0.00     0.030 C 
ATOM     72  C   UNL A   1      34.376  24.675  25.248  1.00  0.00     0.030 C 
ATOM     73  C   UNL A   1      33.449  27.409  25.075  1.00  0.00     0.103 C 
ATOM     74  C   UNL A   1      34.081  25.250  23.883  1.00  0.00     0.103 C 
ATOM     75  N   UNL A   1      33.980  26.715  23.846  1.00  0.00    -0.198 NA
BRANCH  75  76
ATOM     76  S   UNL A   1      33.315  27.462  22.424  1.00  0.00     0.243 S 
ATOM     77  O   UNL A   1      33.856  28.811  22.355  1.00  0.00    -0.207 OA
ATOM     78  O   UNL A   1      33.569  26.541  21.344  1.00  0.00    -0.207 OA
BRANCH  76  79
ATOM     79  C   UNL A   1      31.550  27.682  22.556  1.00  0.00     0.082 A 
ATOM     80  C   UNL A   1      31.036  28.964  22.320  1.00  0.00     0.022 A 
ATOM     81  C   UNL A   1      30.723  26.712  23.132  1.00  0.00     0.022 A 
ATOM     82  C   UNL A   1      29.707  29.258  22.638  1.00  0.00     0.001 A 
ATOM     83  C   UNL A   1      29.384  26.996  23.408  1.00  0.00     0.001 A 
ATOM     84  C   UNL A   1      28.878  28.271  23.170  1.00  0.00     0.000 A 
ENDBRANCH  76  79
ENDBRANCH  75  76
ENDBRANCH  68  70
ENDBRANCH  66  68
ENDBRANCH  59  62
ENDBRANCH   1  58
TORSDOF 14
ENDMDL
MODEL 2
REMARK VINA RESULT:     -12.6      0.348      5.802
REMARK SMILES O=C(NCCCNC(=O)[C@H]1CCCN(C(=O)C2CCN(S(=O)(=O)c3ccccc3)CC2)C1)c1ccc(-c2c3nc(c(-c4ccccc4)c4ccc([nH]4)c(-c4ccccc4)c4nc(c(-c5ccccc5)c5ccc2[nH]5)C=C4)C=C3)cc1
REMARK SMILES IDX 6 1 5 2 4 3 3 4 1 5 2 6 33 8 34 9 80 10 35 11 79 12 36 13
REMARK SMILES IDX 37 14 38 15 73 16 39 17 78 18 72 19 74 20 40 21 77 22 71 23
REMARK SMILES IDX 70 24 41 26 63 27 48 28 62 29 49 30 52 31 61 32 75 33 50 34
REMARK SMILES IDX 51 35 60 37 76 38 53 39 42 40 43 41 47 42 44 43 46 44 45 45
REMARK SMILES IDX 64 46 65 47 69 48 66 49 68 50 67 51 54 52 55 53 59 54 56 55
REMARK SMILES IDX 58 56 57 57 7 58 8 59 9 61 10 62 11 63 32 64 12 65 14 66
REMARK SMILES IDX 13 67 15 68 16 69 17 70 18 71 31 72 19 73 30 74 20 75 21 76
REMARK SMILES IDX 22 77 23 78 24 79 25 80 29 81 26 82 28 83 27 84
REMARK H PARENT 3 7 74 25 52 36 7 60
REMARK Flexibility Score: inf
ROOT
ATOM      1  C   UNL A   1      36.311  20.364  25.037  1.00  0.00     0.117 C 
ENDROOT
BRANCH   1   2
ATOM      2  C   UNL A   1      37.672  19.744  24.773  1.00  0.00     0.042 C 
BRANCH   2   3
ATOM      3  C   UNL A   1      38.747  20.248  25.720  1.00  0.00     0.118 C 
BRANCH   3   4
ATOM      4  N   UNL A   1      39.919  19.381  25.756  1.00  0.00    -0.352 N 
ATOM      5  O   UNL A   1      42.114  18.882  25.913  1.00  0.00    -0.269 OA
ATOM      6  C   UNL A   1      41.214  19.697  26.081  1.00  0.00     0.251 C 
ATOM      7  H   UNL A   1      39.759  18.439  25.515  1.00  0.00     0.163 HD
BRANCH   6   8
ATOM      8  C   UNL A   1      41.516  21.043  26.612  1.00  0.00     0.039 A 
ATOM      9  C   UNL A   1      41.905  22.066  25.746  1.00  0.00     0.014 A 
ATOM     10  C   UNL A   1      41.424  21.273  27.986  1.00  0.00     0.014 A 
ATOM     11  C   UNL A   1      42.345  23.274  26.266  1.00  0.00     0.010 A 
ATOM     12  C   UNL A   1      41.774  22.524  28.501  1.00  0.00     0.010 A 
ATOM     13  C   UNL A   1      42.261  23.523  27.646  1.00  0.00    -0.014 A 
BRANCH  13  14
ATOM     14  C   UNL A   1      42.613  24.874  28.142  1.00  0.00     0.031 A 
ATOM     15  C   UNL A   1      41.566  25.926  28.362  1.00  0.00     0.074 A 
ATOM     16  C   UNL A   1      43.902  25.117  28.449  1.00  0.00     0.049 A 
ATOM     17  N   UNL A   1      41.711  27.136  28.842  1.00  0.00    -0.248 NA
ATOM     18  C   UNL A   1      40.182  25.588  27.995  1.00  0.00     0.031 C 
ATOM     19  C   UNL A   1      45.004  24.166  28.269  1.00  0.00     0.029 A 
ATOM     20  N   UNL A   1      44.499  26.213  29.012  1.00  0.00    -0.354 N 
ATOM     21  C   UNL A   1      40.448  27.711  28.812  1.00  0.00     0.074 A 
ATOM     22  C   UNL A   1      39.548  26.723  28.256  1.00  0.00     0.031 C 
ATOM     23  C   UNL A   1      46.125  24.690  28.782  1.00  0.00     0.029 A 
ATOM     24  C   UNL A   1      45.836  26.034  29.263  1.00  0.00     0.049 A 
ATOM     25  H   UNL A   1      44.016  27.046  29.217  1.00  0.00     0.167 HD
ATOM     26  C   UNL A   1      40.077  28.951  29.212  1.00  0.00     0.031 A 
ATOM     27  C   UNL A   1      46.739  26.865  29.813  1.00  0.00     0.031 A 
ATOM     28  C   UNL A   1      40.976  29.925  29.774  1.00  0.00     0.049 A 
ATOM     29  C   UNL A   1      46.298  28.229  30.246  1.00  0.00     0.074 A 
ATOM     30  C   UNL A   1      40.692  31.204  30.220  1.00  0.00     0.029 A 
ATOM     31  N   UNL A   1      42.333  29.725  29.970  1.00  0.00    -0.354 N 
ATOM     32  N   UNL A   1      45.097  28.755  30.211  1.00  0.00    -0.248 NA
ATOM     33  C   UNL A   1      47.336  29.117  30.784  1.00  0.00     0.031 C 
ATOM     34  C   UNL A   1      41.886  31.791  30.656  1.00  0.00     0.029 A 
ATOM     35  C   UNL A   1      42.904  30.862  30.516  1.00  0.00     0.049 A 
ATOM     36  H   UNL A   1      42.819  28.897  29.753  1.00  0.00     0.167 HD
ATOM     37  C   UNL A   1      45.236  30.037  30.716  1.00  0.00     0.074 A 
ATOM     38  C   UNL A   1      46.629  30.197  31.083  1.00  0.00     0.031 C 
ATOM     39  C   UNL A   1      44.295  31.003  30.855  1.00  0.00     0.031 A 
BRANCH  26  40
ATOM     40  C   UNL A   1      38.637  29.337  29.032  1.00  0.00    -0.014 A 
ATOM     41  C   UNL A   1      38.145  29.752  27.786  1.00  0.00     0.009 A 
ATOM     42  C   UNL A   1      37.748  29.228  30.113  1.00  0.00     0.009 A 
ATOM     43  C   UNL A   1      36.794  30.071  27.631  1.00  0.00     0.001 A 
ATOM     44  C   UNL A   1      36.394  29.529  29.951  1.00  0.00     0.001 A 
ATOM     45  C   UNL A   1      35.919  29.954  28.712  1.00  0.00     0.000 A 
ENDBRANCH  26  40
BRANCH  27  46
ATOM     46  C   UNL A   1      48.147  26.425  29.966  1.00  0.00    -0.014 A 
ATOM     47  C   UNL A   1      48.564  25.752  31.124  1.00  0.00     0.009 A 
ATOM     48  C   UNL A   1      49.076  26.652  28.937  1.00  0.00     0.009 A 
ATOM     49  C   UNL A   1      49.887  25.327  31.254  1.00  0.00     0.001 A 
ATOM     50  C   UNL A   1      50.391  26.202  29.060  1.00  0.00     0.001 A 
ATOM     51  C   UNL A   1      50.797  25.547  30.220  1.00  0.00     0.000 A 
ENDBRANCH  27  46
BRANCH  39  52
ATOM     52  C   UNL A   1      44.758  32.309  31.427  1.00  0.00    -0.014 A 
ATOM     53  C   UNL A   1      44.782  32.515  32.814  1.00  0.00     0.009 A 
ATOM     54  C   UNL A   1      45.177  33.337  30.571  1.00  0.00     0.009 A 
ATOM     55  C   UNL A   1      45.187  33.745  33.335  1.00  0.00     0.001 A 
ATOM     56  C   UNL A   1      45.602  34.559  31.096  1.00  0.00     0.001 A 
ATOM     57  C   UNL A   1      45.597  34.764  32.475  1.00  0.00     0.000 A 
ENDBRANCH  39  52
ENDBRANCH  13  14
ENDBRANCH   6   8
ENDBRANCH   3   4
ENDBRANCH   2   3
ENDBRANCH   1   2
BRANCH   1  58
ATOM     58  N   UNL A   1      35.246  19.380  24.916  1.00  0.00    -0.356 N 
ATOM     59  C   UNL A   1      33.895  19.582  24.838  1.00  0.00     0.224 C 
ATOM     60  H   UNL A   1      35.537  18.440  24.886  1.00  0.00     0.163 HD
ATOM     61  O   UNL A   1      33.143  18.611  24.879  1.00  0.00    -0.275 OA
BRANCH  59  62
ATOM     62  C   UNL A   1      33.407  20.997  24.618  1.00  0.00     0.098 C 
ATOM     63  C   UNL A   1      32.499  20.983  23.379  1.00  0.00     0.017 C 
ATOM     64  C   UNL A   1      32.643  21.554  25.828  1.00  0.00     0.133 C 
ATOM     65  C   UNL A   1      31.955  22.372  23.124  1.00  0.00     0.022 C 
ATOM     66  N   UNL A   1      32.083  22.890  25.518  1.00  0.00    -0.342 N 
ATOM     67  C   UNL A   1      31.206  22.877  24.357  1.00  0.00     0.119 C 
BRANCH  66  68
ATOM     68  C   UNL A   1      32.377  23.962  26.340  1.00  0.00     0.225 C 
ATOM     69  O   UNL A   1      31.673  24.171  27.340  1.00  0.00    -0.275 OA
BRANCH  68  70
ATOM     70  C   UNL A   1      33.599  24.905  26.158  1.00  0.00     0.081 C 
ATOM     71  C   UNL A   1      33.410  26.411  26.111  1.00  0.00     0.030 C 
ATOM     72  C   UNL A   1      34.604  24.443  25.119  1.00  0.00     0.030 C 
ATOM     73  C   UNL A   1      33.633  27.146  24.784  1.00  0.00     0.103 C 
ATOM     74  C   UNL A   1      34.245  24.911  23.729  1.00  0.00     0.103 C 
ATOM     75  N   UNL A   1      34.123  26.369  23.588  1.00  0.00    -0.198 NA
BRANCH  75  76
ATOM     76  S   UNL A   1      33.390  27.001  22.144  1.00  0.00     0.243 S 
ATOM     77  O   UNL A   1      34.053  28.260  21.842  1.00  0.00    -0.207 OA
ATOM     78  O   UNL A   1      33.434  25.928  21.183  1.00  0.00    -0.207 OA
BRANCH  76  79
ATOM     79  C   UNL A   1      31.679  27.434  22.406  1.00  0.00     0.082 A 
ATOM     80  C   UNL A   1      31.322  28.782  22.264  1.00  0.00     0.022 A 
ATOM     81  C   UNL A   1      30.771  26.548  22.994  1.00  0.00     0.022 A 
ATOM     82  C   UNL A   1      30.065  29.224  22.685  1.00  0.00     0.001 A 
ATOM     83  C   UNL A   1      29.499  26.983  23.373  1.00  0.00     0.001 A 
ATOM     84  C   UNL A   1      29.150  28.323  23.227  1.00  0.00     0.000 A 
ENDBRANCH  76  79
ENDBRANCH  75  76
ENDBRANCH  68  70
ENDBRANCH  66  68
ENDBRANCH  59  62
ENDBRANCH   1  58
TORSDOF 14
ENDMDL
MODEL 3
REMARK VINA RESULT:     -12.5      1.270      1.811
REMARK SMILES O=C(NCCCNC(=O)[C@H]1CCCN(C(=O)C2CCN(S(=O)(=O)c3ccccc3)CC2)C1)c1ccc(-c2c3nc(c(-c4ccccc4)c4ccc([nH]4)c(-c4ccccc4)c4nc(c(-c5ccccc5)c5ccc2[nH]5)C=C4)C=C3)cc1
REMARK SMILES IDX 6 1 5 2 4 3 3 4 1 5 2 6 33 8 34 9 80 10 35 11 79 12 36 13
REMARK SMILES IDX 37 14 38 15 73 16 39 17 78 18 72 19 74 20 40 21 77 22 71 23
REMARK SMILES IDX 70 24 41 26 63 27 48 28 62 29 49 30 52 31 61 32 75 33 50 34
REMARK SMILES IDX 51 35 60 37 76 38 53 39 42 40 43 41 47 42 44 43 46 44 45 45
REMARK SMILES IDX 64 46 65 47 69 48 66 49 68 50 67 51 54 52 55 53 59 54 56 55
REMARK SMILES IDX 58 56 57 57 7 58 8 59 9 61 10 62 11 63 32 64 12 65 14 66
REMARK SMILES IDX 13 67 15 68 16 69 17 70 18 71 31 72 19 73 30 74 20 75 21 76
REMARK SMILES IDX 22 77 23 78 24 79 25 80 29 81 26 82 28 83 27 84
REMARK H PARENT 3 7 74 25 52 36 7 60
REMARK Flexibility Score: inf
ROOT
ATOM      1  C   UNL A   1      36.617  20.418  25.036  1.00  0.00     0.117 C 
ENDROOT
BRANCH   1   2
ATOM      2  C   UNL A   1      37.885  19.606  24.842  1.00  0.00     0.042 C 
BRANCH   2   3
ATOM      3  C   UNL A   1      39.060  20.141  25.643  1.00  0.00     0.118 C 
BRANCH   3   4
ATOM      4  N   UNL A   1      40.145  19.175  25.766  1.00  0.00    -0.352 N 
ATOM      5  O   UNL A   1      42.276  18.490  26.056  1.00  0.00    -0.269 OA
ATOM      6  C   UNL A   1      41.446  19.386  26.153  1.00  0.00     0.251 C 
ATOM      7  H   UNL A   1      39.915  18.245  25.540  1.00  0.00     0.163 HD
BRANCH   6   8
ATOM      8  C   UNL A   1      41.839  20.715  26.664  1.00  0.00     0.039 A 
ATOM      9  C   UNL A   1      41.826  20.971  28.036  1.00  0.00     0.014 A 
ATOM     10  C   UNL A   1      42.206  21.715  25.760  1.00  0.00     0.014 A 
ATOM     11  C   UNL A   1      42.034  22.262  28.495  1.00  0.00     0.010 A 
ATOM     12  C   UNL A   1      42.513  22.993  26.233  1.00  0.00     0.010 A 
ATOM     13  C   UNL A   1      42.403  23.281  27.601  1.00  0.00    -0.014 A 
BRANCH  13  14
ATOM     14  C   UNL A   1      42.749  24.612  28.151  1.00  0.00     0.031 A 
ATOM     15  C   UNL A   1      44.173  25.006  28.412  1.00  0.00     0.074 A 
ATOM     16  C   UNL A   1      41.748  25.489  28.357  1.00  0.00     0.049 A 
ATOM     17  N   UNL A   1      44.639  26.152  28.841  1.00  0.00    -0.248 NA
ATOM     18  C   UNL A   1      45.210  23.991  28.171  1.00  0.00     0.031 C 
ATOM     19  C   UNL A   1      40.325  25.207  28.141  1.00  0.00     0.029 A 
ATOM     20  N   UNL A   1      41.770  26.799  28.753  1.00  0.00    -0.354 N 
ATOM     21  C   UNL A   1      46.014  25.990  28.944  1.00  0.00     0.074 A 
ATOM     22  C   UNL A   1      46.310  24.631  28.545  1.00  0.00     0.031 C 
ATOM     23  C   UNL A   1      39.621  26.331  28.332  1.00  0.00     0.029 A 
ATOM     24  C   UNL A   1      40.531  27.390  28.748  1.00  0.00     0.049 A 
ATOM     25  H   UNL A   1      42.594  27.271  29.013  1.00  0.00     0.167 HD
ATOM     26  C   UNL A   1      46.941  26.896  29.338  1.00  0.00     0.031 A 
ATOM     27  C   UNL A   1      40.162  28.645  29.054  1.00  0.00     0.031 A 
ATOM     28  C   UNL A   1      46.641  28.250  29.724  1.00  0.00     0.049 A 
ATOM     29  C   UNL A   1      41.212  29.623  29.485  1.00  0.00     0.074 A 
ATOM     30  C   UNL A   1      47.515  29.246  30.127  1.00  0.00     0.029 A 
ATOM     31  N   UNL A   1      45.369  28.799  29.751  1.00  0.00    -0.354 N 
ATOM     32  N   UNL A   1      42.508  29.452  29.575  1.00  0.00    -0.248 NA
ATOM     33  C   UNL A   1      40.747  30.963  29.866  1.00  0.00     0.031 C 
ATOM     34  C   UNL A   1      46.765  30.389  30.430  1.00  0.00     0.029 A 
ATOM     35  C   UNL A   1      45.431  30.114  30.180  1.00  0.00     0.049 A 
ATOM     36  H   UNL A   1      44.543  28.323  29.504  1.00  0.00     0.167 HD
ATOM     37  C   UNL A   1      43.015  30.659  30.028  1.00  0.00     0.074 A 
ATOM     38  C   UNL A   1      41.890  31.564  30.161  1.00  0.00     0.031 C 
ATOM     39  C   UNL A   1      44.296  30.988  30.320  1.00  0.00     0.031 A 
BRANCH  26  40
ATOM     40  C   UNL A   1      48.372  26.444  29.396  1.00  0.00    -0.014 A 
ATOM     41  C   UNL A   1      49.223  26.576  28.288  1.00  0.00     0.009 A 
ATOM     42  C   UNL A   1      48.891  25.931  30.595  1.00  0.00     0.009 A 
ATOM     43  C   UNL A   1      50.561  26.184  28.375  1.00  0.00     0.001 A 
ATOM     44  C   UNL A   1      50.234  25.557  30.685  1.00  0.00     0.001 A 
ATOM     45  C   UNL A   1      51.066  25.680  29.573  1.00  0.00     0.000 A 
ENDBRANCH  26  40
BRANCH  27  46
ATOM     46  C   UNL A   1      38.733  29.033  28.975  1.00  0.00    -0.014 A 
ATOM     47  C   UNL A   1      37.908  28.954  30.106  1.00  0.00     0.009 A 
ATOM     48  C   UNL A   1      38.195  29.514  27.770  1.00  0.00     0.009 A 
ATOM     49  C   UNL A   1      36.567  29.336  30.029  1.00  0.00     0.001 A 
ATOM     50  C   UNL A   1      36.862  29.920  27.703  1.00  0.00     0.001 A 
ATOM     51  C   UNL A   1      36.048  29.824  28.830  1.00  0.00     0.000 A 
ENDBRANCH  27  46
BRANCH  39  52
ATOM     52  C   UNL A   1      44.533  32.385  30.810  1.00  0.00    -0.014 A 
ATOM     53  C   UNL A   1      44.536  32.671  32.183  1.00  0.00     0.009 A 
ATOM     54  C   UNL A   1      44.758  33.420  29.890  1.00  0.00     0.009 A 
ATOM     55  C   UNL A   1      44.728  33.981  32.627  1.00  0.00     0.001 A 
ATOM     56  C   UNL A   1      44.971  34.724  30.339  1.00  0.00     0.001 A 
ATOM     57  C   UNL A   1      44.946  35.004  31.705  1.00  0.00     0.000 A 
ENDBRANCH  39  52
ENDBRANCH  13  14
ENDBRANCH   6   8
ENDBRANCH   3   4
ENDBRANCH   2   3
ENDBRANCH   1   2
BRANCH   1  58
ATOM     58  N   UNL A   1      35.435  19.570  25.015  1.00  0.00    -0.356 N 
ATOM     59  C   UNL A   1      34.128  19.923  24.815  1.00  0.00     0.224 C 
ATOM     60  H   UNL A   1      35.596  18.610  25.164  1.00  0.00     0.163 HD
ATOM     61  O   UNL A   1      33.251  19.077  24.971  1.00  0.00    -0.275 OA
BRANCH  59  62
ATOM     62  C   UNL A   1      33.845  21.326  24.325  1.00  0.00     0.098 C 
ATOM     63  C   UNL A   1      32.631  21.251  23.387  1.00  0.00     0.017 C 
ATOM     64  C   UNL A   1      33.569  22.309  25.473  1.00  0.00     0.133 C 
ATOM     65  C   UNL A   1      32.281  22.635  22.887  1.00  0.00     0.022 C 
ATOM     66  N   UNL A   1      33.180  23.634  24.938  1.00  0.00    -0.342 N 
ATOM     67  C   UNL A   1      32.017  23.570  24.066  1.00  0.00     0.119 C 
BRANCH  66  68
ATOM     68  C   UNL A   1      33.876  24.762  25.332  1.00  0.00     0.225 C 
ATOM     69  O   UNL A   1      35.094  24.832  25.106  1.00  0.00    -0.275 OA
BRANCH  68  70
ATOM     70  C   UNL A   1      33.228  26.019  25.976  1.00  0.00     0.081 C 
ATOM     71  C   UNL A   1      31.785  25.987  26.445  1.00  0.00     0.030 C 
ATOM     72  C   UNL A   1      33.551  27.325  25.276  1.00  0.00     0.030 C 
ATOM     73  C   UNL A   1      30.736  26.801  25.678  1.00  0.00     0.103 C 
ATOM     74  C   UNL A   1      32.596  27.617  24.143  1.00  0.00     0.103 C 
ATOM     75  N   UNL A   1      31.182  27.681  24.538  1.00  0.00    -0.198 NA
BRANCH  75  76
ATOM     76  S   UNL A   1      29.973  27.669  23.288  1.00  0.00     0.243 S 
ATOM     77  O   UNL A   1      30.663  27.445  22.027  1.00  0.00    -0.207 OA
ATOM     78  O   UNL A   1      28.970  26.730  23.724  1.00  0.00    -0.207 OA
BRANCH  76  79
ATOM     79  C   UNL A   1      29.193  29.263  23.108  1.00  0.00     0.082 A 
ATOM     80  C   UNL A   1      29.776  30.350  23.773  1.00  0.00     0.022 A 
ATOM     81  C   UNL A   1      27.911  29.404  22.567  1.00  0.00     0.022 A 
ATOM     82  C   UNL A   1      29.091  31.564  23.871  1.00  0.00     0.001 A 
ATOM     83  C   UNL A   1      27.247  30.631  22.627  1.00  0.00     0.001 A 
ATOM     84  C   UNL A   1      27.832  31.708  23.288  1.00  0.00     0.000 A 
ENDBRANCH  76  79
ENDBRANCH  75  76
ENDBRANCH  68  70
ENDBRANCH  66  68
ENDBRANCH  59  62
ENDBRANCH   1  58
TORSDOF 14
ENDMDL
