MODEL 1
REMARK VINA RESULT:     -11.1      0.000      0.000
REMARK SMILES C[C@H]1[C@H](C(=O)NCCCNC(=O)c2ccc(-c3c4nc(c(-c5ccccc5)c5ccc([nH]5)c(-c5ccccc5)c5nc(c(-c6ccccc6)c6ccc3[nH]6)C=C5)C=C4)cc2)CCN1c1ncnc2sccc12
REMARK SMILES IDX 8 1 7 2 6 3 4 4 5 5 3 7 1 8 2 9 63 10 61 11 62 12 64 13
REMARK SMILES IDX 65 14 72 15 66 16 68 17 71 18 67 19 69 20 70 21 9 22 10 23
REMARK SMILES IDX 11 24 12 26 13 27 14 28 60 29 15 30 59 31 16 32 17 33 18 34
REMARK SMILES IDX 53 35 19 36 58 37 52 38 54 39 20 40 57 41 51 42 50 43 21 45
REMARK SMILES IDX 43 46 28 47 42 48 29 49 32 50 41 51 55 52 30 53 31 54 40 56
REMARK SMILES IDX 56 57 33 58 22 59 23 60 27 61 24 62 26 63 25 64 44 65 45 66
REMARK SMILES IDX 49 67 46 68 48 69 47 70 34 71 35 72 39 73 36 74 38 75 37 76
REMARK H PARENT 6 6 10 25 54 44 32 55
REMARK Flexibility Score: inf
ROOT
ATOM      1  C   UNL A   1      37.567  19.757  24.659  1.00  0.00     0.042 C 
ENDROOT
BRANCH   1   2
ATOM      2  C   UNL A   1      36.158  20.191  25.040  1.00  0.00     0.117 C 
BRANCH   2   3
ATOM      3  N   UNL A   1      36.137  21.471  25.728  1.00  0.00    -0.356 N 
ATOM      4  C   UNL A   1      35.357  22.570  25.558  1.00  0.00     0.225 C 
ATOM      5  O   UNL A   1      35.598  23.544  26.277  1.00  0.00    -0.275 OA
ATOM      6  H   UNL A   1      36.807  21.558  26.444  1.00  0.00     0.163 HD
BRANCH   4   7
ATOM      7  C   UNL A   1      34.217  22.632  24.554  1.00  0.00     0.102 C 
ATOM      8  C   UNL A   1      31.781  22.777  25.170  1.00  0.00     0.032 C 
ATOM      9  C   UNL A   1      33.082  23.564  24.998  1.00  0.00     0.093 C 
ATOM     10  N   UNL A   1      32.966  24.554  23.921  1.00  0.00    -0.352 N 
ATOM     11  C   UNL A   1      34.655  23.069  23.160  1.00  0.00     0.037 C 
ATOM     12  C   UNL A   1      33.701  24.177  22.731  1.00  0.00     0.119 C 
BRANCH  10  13
ATOM     13  C   UNL A   1      32.259  25.723  24.100  1.00  0.00     0.141 A 
ATOM     14  N   UNL A   1      31.131  25.877  23.354  1.00  0.00    -0.219 NA
ATOM     15  C   UNL A   1      32.576  26.774  25.007  1.00  0.00     0.054 A 
ATOM     16  C   UNL A   1      30.383  26.981  23.473  1.00  0.00     0.225 A 
ATOM     17  C   UNL A   1      31.688  27.846  25.040  1.00  0.00     0.128 A 
ATOM     18  C   UNL A   1      33.646  27.017  25.943  1.00  0.00     0.026 A 
ATOM     19  N   UNL A   1      30.583  28.004  24.296  1.00  0.00    -0.225 NA
ATOM     20  S   UNL A   1      32.111  29.046  26.177  1.00  0.00    -0.124 S 
ATOM     21  C   UNL A   1      33.505  28.191  26.650  1.00  0.00     0.068 A 
ENDBRANCH  10  13
ENDBRANCH   4   7
ENDBRANCH   2   3
ENDBRANCH   1   2
BRANCH   1  22
ATOM     22  C   UNL A   1      38.647  20.260  25.611  1.00  0.00     0.118 C 
BRANCH  22  23
ATOM     23  N   UNL A   1      39.779  19.348  25.707  1.00  0.00    -0.352 N 
ATOM     24  C   UNL A   1      41.083  19.588  26.055  1.00  0.00     0.251 C 
ATOM     25  H   UNL A   1      39.575  18.410  25.489  1.00  0.00     0.163 HD
ATOM     26  O   UNL A   1      41.925  18.706  25.886  1.00  0.00    -0.269 OA
BRANCH  24  27
ATOM     27  C   UNL A   1      41.493  20.893  26.615  1.00  0.00     0.039 A 
ATOM     28  C   UNL A   1      41.989  21.871  25.748  1.00  0.00     0.014 A 
ATOM     29  C   UNL A   1      41.426  21.149  27.987  1.00  0.00     0.014 A 
ATOM     30  C   UNL A   1      42.360  23.121  26.247  1.00  0.00     0.010 A 
ATOM     31  C   UNL A   1      41.718  22.421  28.473  1.00  0.00     0.010 A 
ATOM     32  C   UNL A   1      42.194  23.418  27.609  1.00  0.00    -0.014 A 
BRANCH  32  33
ATOM     33  C   UNL A   1      42.513  24.767  28.142  1.00  0.00     0.031 A 
ATOM     34  C   UNL A   1      43.913  25.106  28.574  1.00  0.00     0.074 A 
ATOM     35  C   UNL A   1      41.525  25.672  28.289  1.00  0.00     0.049 A 
ATOM     36  N   UNL A   1      44.370  26.218  29.093  1.00  0.00    -0.248 NA
ATOM     37  C   UNL A   1      44.928  24.051  28.428  1.00  0.00     0.031 C 
ATOM     38  C   UNL A   1      40.116  25.452  27.956  1.00  0.00     0.029 A 
ATOM     39  N   UNL A   1      41.558  26.960  28.760  1.00  0.00    -0.354 N 
ATOM     40  C   UNL A   1      45.717  25.992  29.346  1.00  0.00     0.074 A 
ATOM     41  C   UNL A   1      45.991  24.620  28.975  1.00  0.00     0.031 C 
ATOM     42  C   UNL A   1      39.426  26.575  28.205  1.00  0.00     0.029 A 
ATOM     43  C   UNL A   1      40.333  27.581  28.748  1.00  0.00     0.049 A 
ATOM     44  H   UNL A   1      42.382  27.398  29.077  1.00  0.00     0.167 HD
ATOM     45  C   UNL A   1      46.647  26.851  29.826  1.00  0.00     0.031 A 
ATOM     46  C   UNL A   1      39.978  28.821  29.135  1.00  0.00     0.031 A 
ATOM     47  C   UNL A   1      46.379  28.216  30.189  1.00  0.00     0.049 A 
ATOM     48  C   UNL A   1      41.029  29.757  29.659  1.00  0.00     0.074 A 
ATOM     49  C   UNL A   1      47.265  29.181  30.636  1.00  0.00     0.029 A 
ATOM     50  N   UNL A   1      45.127  28.811  30.149  1.00  0.00    -0.354 N 
ATOM     51  N   UNL A   1      42.311  29.547  29.830  1.00  0.00    -0.248 NA
ATOM     52  C   UNL A   1      40.582  31.107  30.031  1.00  0.00     0.031 C 
ATOM     53  C   UNL A   1      46.542  30.348  30.910  1.00  0.00     0.029 A 
ATOM     54  C   UNL A   1      45.214  30.124  30.582  1.00  0.00     0.049 A 
ATOM     55  H   UNL A   1      44.300  28.366  29.857  1.00  0.00     0.167 HD
ATOM     56  C   UNL A   1      42.830  30.742  30.308  1.00  0.00     0.074 A 
ATOM     57  C   UNL A   1      41.726  31.679  30.379  1.00  0.00     0.031 C 
ATOM     58  C   UNL A   1      44.105  31.039  30.658  1.00  0.00     0.031 A 
BRANCH  45  59
ATOM     59  C   UNL A   1      48.049  26.328  29.984  1.00  0.00    -0.014 A 
ATOM     60  C   UNL A   1      48.968  26.383  28.923  1.00  0.00     0.009 A 
ATOM     61  C   UNL A   1      48.464  25.798  31.215  1.00  0.00     0.009 A 
ATOM     62  C   UNL A   1      50.262  25.880  29.080  1.00  0.00     0.001 A 
ATOM     63  C   UNL A   1      49.767  25.323  31.378  1.00  0.00     0.001 A 
ATOM     64  C   UNL A   1      50.661  25.355  30.308  1.00  0.00     0.000 A 
ENDBRANCH  45  59
BRANCH  46  65
ATOM     65  C   UNL A   1      38.562  29.255  29.018  1.00  0.00    -0.014 A 
ATOM     66  C   UNL A   1      37.704  29.191  30.127  1.00  0.00     0.009 A 
ATOM     67  C   UNL A   1      38.062  29.738  27.799  1.00  0.00     0.009 A 
ATOM     68  C   UNL A   1      36.368  29.580  30.011  1.00  0.00     0.001 A 
ATOM     69  C   UNL A   1      36.732  30.152  27.693  1.00  0.00     0.001 A 
ATOM     70  C   UNL A   1      35.884  30.065  28.795  1.00  0.00     0.000 A 
ENDBRANCH  46  65
BRANCH  58  71
ATOM     71  C   UNL A   1      44.375  32.441  31.126  1.00  0.00    -0.014 A 
ATOM     72  C   UNL A   1      44.307  32.780  32.487  1.00  0.00     0.009 A 
ATOM     73  C   UNL A   1      44.726  33.430  30.195  1.00  0.00     0.009 A 
ATOM     74  C   UNL A   1      44.548  34.091  32.900  1.00  0.00     0.001 A 
ATOM     75  C   UNL A   1      44.993  34.734  30.615  1.00  0.00     0.001 A 
ATOM     76  C   UNL A   1      44.894  35.066  31.965  1.00  0.00     0.000 A 
ENDBRANCH  58  71
ENDBRANCH  32  33
ENDBRANCH  24  27
ENDBRANCH  22  23
ENDBRANCH   1  22
TORSDOF 11
ENDMDL
MODEL 2
REMARK VINA RESULT:     -11.0      3.531      8.756
REMARK SMILES C[C@H]1[C@H](C(=O)NCCCNC(=O)c2ccc(-c3c4nc(c(-c5ccccc5)c5ccc([nH]5)c(-c5ccccc5)c5nc(c(-c6ccccc6)c6ccc3[nH]6)C=C5)C=C4)cc2)CCN1c1ncnc2sccc12
REMARK SMILES IDX 8 1 7 2 6 3 4 4 5 5 3 7 1 8 2 9 63 10 61 11 62 12 64 13
REMARK SMILES IDX 65 14 72 15 66 16 68 17 71 18 67 19 69 20 70 21 9 22 10 23
REMARK SMILES IDX 11 24 12 26 13 27 14 28 60 29 15 30 59 31 16 32 17 33 18 34
REMARK SMILES IDX 53 35 19 36 58 37 52 38 54 39 20 40 57 41 51 42 50 43 21 45
REMARK SMILES IDX 43 46 28 47 42 48 29 49 32 50 41 51 55 52 30 53 31 54 40 56
REMARK SMILES IDX 56 57 33 58 22 59 23 60 27 61 24 62 26 63 25 64 44 65 45 66
REMARK SMILES IDX 49 67 46 68 48 69 47 70 34 71 35 72 39 73 36 74 38 75 37 76
REMARK H PARENT 6 6 10 25 54 44 32 55
REMARK Flexibility Score: inf
ROOT
ATOM      1  C   UNL A   1      31.392  32.284  26.781  1.00  0.00     0.042 C 
ENDROOT
BRANCH   1   2
ATOM      2  C   UNL A   1      31.720  30.823  26.500  1.00  0.00     0.117 C 
BRANCH   2   3
ATOM      3  N   UNL A   1      31.122  30.347  25.264  1.00  0.00    -0.356 N 
ATOM      4  C   UNL A   1      31.582  29.490  24.316  1.00  0.00     0.225 C 
ATOM      5  O   UNL A   1      30.857  29.299  23.335  1.00  0.00    -0.275 OA
ATOM      6  H   UNL A   1      30.225  30.710  25.081  1.00  0.00     0.163 HD
BRANCH   4   7
ATOM      7  C   UNL A   1      32.914  28.765  24.427  1.00  0.00     0.102 C 
ATOM      8  C   UNL A   1      34.023  28.148  26.601  1.00  0.00     0.032 C 
ATOM      9  C   UNL A   1      32.948  27.757  25.584  1.00  0.00     0.093 C 
ATOM     10  N   UNL A   1      33.258  26.470  24.951  1.00  0.00    -0.352 N 
ATOM     11  C   UNL A   1      33.312  28.022  23.157  1.00  0.00     0.037 C 
ATOM     12  C   UNL A   1      33.700  26.611  23.580  1.00  0.00     0.119 C 
BRANCH  10  13
ATOM     13  C   UNL A   1      33.078  25.282  25.627  1.00  0.00     0.141 A 
ATOM     14  N   UNL A   1      31.832  25.042  26.120  1.00  0.00    -0.219 NA
ATOM     15  C   UNL A   1      34.057  24.271  25.837  1.00  0.00     0.054 A 
ATOM     16  C   UNL A   1      31.572  23.908  26.784  1.00  0.00     0.225 A 
ATOM     17  C   UNL A   1      33.631  23.135  26.520  1.00  0.00     0.128 A 
ATOM     18  C   UNL A   1      35.454  24.127  25.506  1.00  0.00     0.026 A 
ATOM     19  N   UNL A   1      32.407  22.902  27.018  1.00  0.00    -0.225 NA
ATOM     20  S   UNL A   1      34.847  21.951  26.700  1.00  0.00    -0.124 S 
ATOM     21  C   UNL A   1      35.991  22.919  25.894  1.00  0.00     0.068 A 
ENDBRANCH  10  13
ENDBRANCH   4   7
ENDBRANCH   2   3
ENDBRANCH   1   2
BRANCH   1  22
ATOM     22  C   UNL A   1      32.619  33.181  26.897  1.00  0.00     0.118 C 
BRANCH  22  23
ATOM     23  N   UNL A   1      32.443  34.248  27.875  1.00  0.00    -0.352 N 
ATOM     24  C   UNL A   1      33.154  34.534  29.012  1.00  0.00     0.251 C 
ATOM     25  H   UNL A   1      31.696  34.861  27.689  1.00  0.00     0.163 HD
ATOM     26  O   UNL A   1      32.718  35.371  29.802  1.00  0.00    -0.269 OA
BRANCH  24  27
ATOM     27  C   UNL A   1      34.427  33.842  29.307  1.00  0.00     0.039 A 
ATOM     28  C   UNL A   1      35.566  34.191  28.575  1.00  0.00     0.014 A 
ATOM     29  C   UNL A   1      34.500  32.832  30.269  1.00  0.00     0.014 A 
ATOM     30  C   UNL A   1      36.787  33.571  28.850  1.00  0.00     0.010 A 
ATOM     31  C   UNL A   1      35.732  32.273  30.599  1.00  0.00     0.010 A 
ATOM     32  C   UNL A   1      36.887  32.632  29.889  1.00  0.00    -0.014 A 
BRANCH  32  33
ATOM     33  C   UNL A   1      38.192  32.020  30.243  1.00  0.00     0.031 A 
ATOM     34  C   UNL A   1      39.147  32.734  31.160  1.00  0.00     0.074 A 
ATOM     35  C   UNL A   1      38.544  30.842  29.691  1.00  0.00     0.049 A 
ATOM     36  N   UNL A   1      40.341  32.370  31.554  1.00  0.00    -0.248 NA
ATOM     37  C   UNL A   1      38.713  34.038  31.686  1.00  0.00     0.031 C 
ATOM     38  C   UNL A   1      37.732  30.072  28.746  1.00  0.00     0.029 A 
ATOM     39  N   UNL A   1      39.680  30.088  29.844  1.00  0.00    -0.354 N 
ATOM     40  C   UNL A   1      40.805  33.403  32.358  1.00  0.00     0.074 A 
ATOM     41  C   UNL A   1      39.787  34.431  32.354  1.00  0.00     0.031 C 
ATOM     42  C   UNL A   1      38.383  28.942  28.427  1.00  0.00     0.029 A 
ATOM     43  C   UNL A   1      39.671  28.924  29.115  1.00  0.00     0.049 A 
ATOM     44  H   UNL A   1      40.431  30.356  30.422  1.00  0.00     0.167 HD
ATOM     45  C   UNL A   1      41.964  33.482  33.055  1.00  0.00     0.031 A 
ATOM     46  C   UNL A   1      40.595  27.952  29.009  1.00  0.00     0.031 A 
ATOM     47  C   UNL A   1      42.975  32.459  33.066  1.00  0.00     0.049 A 
ATOM     48  C   UNL A   1      41.870  28.060  29.794  1.00  0.00     0.074 A 
ATOM     49  C   UNL A   1      44.160  32.425  33.780  1.00  0.00     0.029 A 
ATOM     50  N   UNL A   1      42.920  31.288  32.325  1.00  0.00    -0.354 N 
ATOM     51  N   UNL A   1      42.264  29.013  30.603  1.00  0.00    -0.248 NA
ATOM     52  C   UNL A   1      42.823  26.949  29.660  1.00  0.00     0.031 C 
ATOM     53  C   UNL A   1      44.844  31.253  33.437  1.00  0.00     0.029 A 
ATOM     54  C   UNL A   1      44.060  30.533  32.549  1.00  0.00     0.049 A 
ATOM     55  H   UNL A   1      42.181  31.033  31.728  1.00  0.00     0.167 HD
ATOM     56  C   UNL A   1      43.498  28.610  31.092  1.00  0.00     0.074 A 
ATOM     57  C   UNL A   1      43.778  27.314  30.505  1.00  0.00     0.031 C 
ATOM     58  C   UNL A   1      44.327  29.252  31.949  1.00  0.00     0.031 A 
BRANCH  45  59
ATOM     59  C   UNL A   1      42.196  34.729  33.864  1.00  0.00    -0.014 A 
ATOM     60  C   UNL A   1      41.818  34.798  35.215  1.00  0.00     0.009 A 
ATOM     61  C   UNL A   1      42.821  35.839  33.277  1.00  0.00     0.009 A 
ATOM     62  C   UNL A   1      42.026  35.968  35.950  1.00  0.00     0.001 A 
ATOM     63  C   UNL A   1      43.054  36.997  34.022  1.00  0.00     0.001 A 
ATOM     64  C   UNL A   1      42.647  37.064  35.354  1.00  0.00     0.000 A 
ENDBRANCH  45  59
BRANCH  46  65
ATOM     65  C   UNL A   1      40.336  26.777  28.137  1.00  0.00    -0.014 A 
ATOM     66  C   UNL A   1      40.834  26.739  26.825  1.00  0.00     0.009 A 
ATOM     67  C   UNL A   1      39.592  25.686  28.613  1.00  0.00     0.009 A 
ATOM     68  C   UNL A   1      40.572  25.643  26.000  1.00  0.00     0.001 A 
ATOM     69  C   UNL A   1      39.355  24.579  27.795  1.00  0.00     0.001 A 
ATOM     70  C   UNL A   1      39.838  24.562  26.487  1.00  0.00     0.000 A 
ENDBRANCH  46  65
BRANCH  58  71
ATOM     71  C   UNL A   1      45.603  28.551  32.320  1.00  0.00    -0.014 A 
ATOM     72  C   UNL A   1      45.659  27.667  33.409  1.00  0.00     0.009 A 
ATOM     73  C   UNL A   1      46.760  28.761  31.553  1.00  0.00     0.009 A 
ATOM     74  C   UNL A   1      46.858  27.036  33.744  1.00  0.00     0.001 A 
ATOM     75  C   UNL A   1      47.951  28.107  31.875  1.00  0.00     0.001 A 
ATOM     76  C   UNL A   1      48.001  27.254  32.976  1.00  0.00     0.000 A 
ENDBRANCH  58  71
ENDBRANCH  32  33
ENDBRANCH  24  27
ENDBRANCH  22  23
ENDBRANCH   1  22
TORSDOF 11
ENDMDL
MODEL 3
REMARK VINA RESULT:     -10.9      0.425      6.055
REMARK SMILES C[C@H]1[C@H](C(=O)NCCCNC(=O)c2ccc(-c3c4nc(c(-c5ccccc5)c5ccc([nH]5)c(-c5ccccc5)c5nc(c(-c6ccccc6)c6ccc3[nH]6)C=C5)C=C4)cc2)CCN1c1ncnc2sccc12
REMARK SMILES IDX 8 1 7 2 6 3 4 4 5 5 3 7 1 8 2 9 63 10 61 11 62 12 64 13
REMARK SMILES IDX 65 14 72 15 66 16 68 17 71 18 67 19 69 20 70 21 9 22 10 23
REMARK SMILES IDX 11 24 12 26 13 27 14 28 60 29 15 30 59 31 16 32 17 33 18 34
REMARK SMILES IDX 53 35 19 36 58 37 52 38 54 39 20 40 57 41 51 42 50 43 21 45
REMARK SMILES IDX 43 46 28 47 42 48 29 49 32 50 41 51 55 52 30 53 31 54 40 56
REMARK SMILES IDX 56 57 33 58 22 59 23 60 27 61 24 62 26 63 25 64 44 65 45 66
REMARK SMILES IDX 49 67 46 68 48 69 47 70 34 71 35 72 39 73 36 74 38 75 37 76
REMARK H PARENT 6 6 10 25 54 44 32 55
REMARK Flexibility Score: inf
ROOT
ATOM      1  C   UNL A   1      37.605  20.088  24.618  1.00  0.00     0.042 C 
ENDROOT
BRANCH   1   2
ATOM      2  C   UNL A   1      36.143  20.275  25.004  1.00  0.00     0.117 C 
BRANCH   2   3
ATOM      3  N   UNL A   1      35.939  21.425  25.869  1.00  0.00    -0.356 N 
ATOM      4  C   UNL A   1      35.065  22.462  25.794  1.00  0.00     0.225 C 
ATOM      5  O   UNL A   1      35.150  23.331  26.667  1.00  0.00    -0.275 OA
ATOM      6  H   UNL A   1      36.542  21.459  26.647  1.00  0.00     0.163 HD
BRANCH   4   7
ATOM      7  C   UNL A   1      34.003  22.577  24.712  1.00  0.00     0.102 C 
ATOM      8  C   UNL A   1      31.537  22.820  25.154  1.00  0.00     0.032 C 
ATOM      9  C   UNL A   1      32.879  23.553  25.081  1.00  0.00     0.093 C 
ATOM     10  N   UNL A   1      32.881  24.552  24.006  1.00  0.00    -0.352 N 
ATOM     11  C   UNL A   1      34.557  23.002  23.356  1.00  0.00     0.037 C 
ATOM     12  C   UNL A   1      33.682  24.151  22.869  1.00  0.00     0.119 C 
BRANCH  10  13
ATOM     13  C   UNL A   1      32.212  25.749  24.145  1.00  0.00     0.141 A 
ATOM     14  N   UNL A   1      31.115  25.931  23.359  1.00  0.00    -0.219 NA
ATOM     15  C   UNL A   1      32.537  26.802  25.045  1.00  0.00     0.054 A 
ATOM     16  C   UNL A   1      30.405  27.064  23.436  1.00  0.00     0.225 A 
ATOM     17  C   UNL A   1      31.689  27.906  25.032  1.00  0.00     0.128 A 
ATOM     18  C   UNL A   1      33.584  27.022  26.013  1.00  0.00     0.026 A 
ATOM     19  N   UNL A   1      30.615  28.092  24.250  1.00  0.00    -0.225 NA
ATOM     20  S   UNL A   1      32.118  29.109  26.164  1.00  0.00    -0.124 S 
ATOM     21  C   UNL A   1      33.463  28.211  26.697  1.00  0.00     0.068 A 
ENDBRANCH  10  13
ENDBRANCH   4   7
ENDBRANCH   2   3
ENDBRANCH   1   2
BRANCH   1  22
ATOM     22  C   UNL A   1      38.585  20.400  25.743  1.00  0.00     0.118 C 
BRANCH  22  23
ATOM     23  N   UNL A   1      39.679  19.439  25.816  1.00  0.00    -0.352 N 
ATOM     24  C   UNL A   1      41.003  19.625  26.120  1.00  0.00     0.251 C 
ATOM     25  H   UNL A   1      39.427  18.509  25.616  1.00  0.00     0.163 HD
ATOM     26  O   UNL A   1      41.799  18.705  25.936  1.00  0.00    -0.269 OA
BRANCH  24  27
ATOM     27  C   UNL A   1      41.487  20.917  26.650  1.00  0.00     0.039 A 
ATOM     28  C   UNL A   1      41.994  21.863  25.755  1.00  0.00     0.014 A 
ATOM     29  C   UNL A   1      41.479  21.190  28.020  1.00  0.00     0.014 A 
ATOM     30  C   UNL A   1      42.435  23.102  26.226  1.00  0.00     0.010 A 
ATOM     31  C   UNL A   1      41.841  22.453  28.481  1.00  0.00     0.010 A 
ATOM     32  C   UNL A   1      42.330  23.419  27.590  1.00  0.00    -0.014 A 
BRANCH  32  33
ATOM     33  C   UNL A   1      42.724  24.758  28.095  1.00  0.00     0.031 A 
ATOM     34  C   UNL A   1      41.690  25.830  28.307  1.00  0.00     0.074 A 
ATOM     35  C   UNL A   1      44.026  25.029  28.310  1.00  0.00     0.049 A 
ATOM     36  N   UNL A   1      41.852  27.065  28.710  1.00  0.00    -0.248 NA
ATOM     37  C   UNL A   1      40.294  25.475  28.005  1.00  0.00     0.031 C 
ATOM     38  C   UNL A   1      45.134  24.095  28.095  1.00  0.00     0.029 A 
ATOM     39  N   UNL A   1      44.639  26.172  28.758  1.00  0.00    -0.354 N 
ATOM     40  C   UNL A   1      40.585  27.637  28.695  1.00  0.00     0.074 A 
ATOM     41  C   UNL A   1      39.674  26.631  28.194  1.00  0.00     0.031 C 
ATOM     42  C   UNL A   1      46.285  24.693  28.437  1.00  0.00     0.029 A 
ATOM     43  C   UNL A   1      46.004  26.061  28.861  1.00  0.00     0.049 A 
ATOM     44  H   UNL A   1      44.146  26.995  28.982  1.00  0.00     0.167 HD
ATOM     45  C   UNL A   1      40.209  28.879  29.082  1.00  0.00     0.031 A 
ATOM     46  C   UNL A   1      46.926  26.959  29.251  1.00  0.00     0.031 A 
ATOM     47  C   UNL A   1      41.112  29.878  29.587  1.00  0.00     0.049 A 
ATOM     48  C   UNL A   1      46.485  28.329  29.680  1.00  0.00     0.074 A 
ATOM     49  C   UNL A   1      40.820  31.148  30.053  1.00  0.00     0.029 A 
ATOM     50  N   UNL A   1      42.485  29.720  29.690  1.00  0.00    -0.354 N 
ATOM     51  N   UNL A   1      45.275  28.831  29.724  1.00  0.00    -0.248 NA
ATOM     52  C   UNL A   1      47.538  29.251  30.127  1.00  0.00     0.031 C 
ATOM     53  C   UNL A   1      42.023  31.777  30.397  1.00  0.00     0.029 A 
ATOM     54  C   UNL A   1      43.058  30.877  30.194  1.00  0.00     0.049 A 
ATOM     55  H   UNL A   1      42.980  28.907  29.441  1.00  0.00     0.167 HD
ATOM     56  C   UNL A   1      45.416  30.118  30.222  1.00  0.00     0.074 A 
ATOM     57  C   UNL A   1      46.828  30.312  30.486  1.00  0.00     0.031 C 
ATOM     58  C   UNL A   1      44.465  31.058  30.441  1.00  0.00     0.031 A 
BRANCH  45  59
ATOM     59  C   UNL A   1      38.749  29.221  28.970  1.00  0.00    -0.014 A 
ATOM     60  C   UNL A   1      38.205  29.698  27.767  1.00  0.00     0.009 A 
ATOM     61  C   UNL A   1      37.901  29.041  30.074  1.00  0.00     0.009 A 
ATOM     62  C   UNL A   1      36.849  30.026  27.683  1.00  0.00     0.001 A 
ATOM     63  C   UNL A   1      36.541  29.342  29.979  1.00  0.00     0.001 A 
ATOM     64  C   UNL A   1      36.019  29.844  28.787  1.00  0.00     0.000 A 
ENDBRANCH  45  59
BRANCH  46  65
ATOM     65  C   UNL A   1      48.363  26.581  29.274  1.00  0.00    -0.014 A 
ATOM     66  C   UNL A   1      49.183  26.831  28.162  1.00  0.00     0.009 A 
ATOM     67  C   UNL A   1      48.923  25.973  30.408  1.00  0.00     0.009 A 
ATOM     68  C   UNL A   1      50.529  26.456  28.177  1.00  0.00     0.001 A 
ATOM     69  C   UNL A   1      50.275  25.625  30.431  1.00  0.00     0.001 A 
ATOM     70  C   UNL A   1      51.075  25.858  29.313  1.00  0.00     0.000 A 
ENDBRANCH  46  65
BRANCH  58  71
ATOM     71  C   UNL A   1      44.919  32.369  31.015  1.00  0.00    -0.014 A 
ATOM     72  C   UNL A   1      45.244  33.455  30.185  1.00  0.00     0.009 A 
ATOM     73  C   UNL A   1      45.002  32.528  32.407  1.00  0.00     0.009 A 
ATOM     74  C   UNL A   1      45.678  34.660  30.739  1.00  0.00     0.001 A 
ATOM     75  C   UNL A   1      45.410  33.744  32.958  1.00  0.00     0.001 A 
ATOM     76  C   UNL A   1      45.757  34.805  32.124  1.00  0.00     0.000 A 
ENDBRANCH  58  71
ENDBRANCH  32  33
ENDBRANCH  24  27
ENDBRANCH  22  23
ENDBRANCH   1  22
TORSDOF 11
ENDMDL
