MODEL 1
REMARK VINA RESULT:      -9.5      0.000      0.000
REMARK SMILES CC(C)c1cc(=O)[nH]c(SCC(=O)NCCCNC(=O)c2ccc(-c3c4nc(c(-c5ccccc5)c5ccc([nH]5)c(-c5ccccc5)c5nc(c(-c6ccccc6)c6ccc3[nH]6)C=C5)C=C4)cc2)n1
REMARK SMILES IDX 15 1 14 2 12 3 13 4 11 6 10 7 9 8 4 9 5 10 69 11 6 12 7 13
REMARK SMILES IDX 8 14 2 16 1 17 3 18 16 19 17 20 18 21 19 22 20 24 21 25
REMARK SMILES IDX 22 26 68 27 23 28 67 29 24 30 25 31 26 32 61 33 27 34 66 35
REMARK SMILES IDX 60 36 62 37 28 38 65 39 59 40 58 41 29 43 51 44 36 45 50 46
REMARK SMILES IDX 37 47 40 48 49 49 63 50 38 51 39 52 48 54 64 55 41 56 30 57
REMARK SMILES IDX 31 58 35 59 32 60 34 61 33 62 52 63 53 64 57 65 54 66 56 67
REMARK SMILES IDX 55 68 42 69 43 70 47 71 44 72 46 73 45 74
REMARK H PARENT 14 5 8 15 18 23 62 42 40 53
REMARK Flexibility Score: inf
ROOT
ATOM      1  C   UNL A   1      32.839  36.185  30.883  1.00  0.00     0.117 C 
ENDROOT
BRANCH   1   2
ATOM      2  N   UNL A   1      33.012  36.783  32.192  1.00  0.00    -0.355 N 
ATOM      3  C   UNL A   1      33.933  36.537  33.165  1.00  0.00     0.230 C 
ATOM      4  O   UNL A   1      33.915  37.291  34.142  1.00  0.00    -0.274 OA
ATOM      5  H   UNL A   1      32.355  37.481  32.416  1.00  0.00     0.163 HD
BRANCH   3   6
ATOM      6  C   UNL A   1      35.019  35.490  32.997  1.00  0.00     0.178 C 
BRANCH   6   7
ATOM      7  S   UNL A   1      34.581  33.829  33.558  1.00  0.00    -0.078 SA
BRANCH   7   8
ATOM      8  C   UNL A   1      36.102  33.189  34.083  1.00  0.00     0.168 A 
ATOM      9  C   UNL A   1      37.762  31.636  34.308  1.00  0.00     0.051 A 
ATOM     10  C   UNL A   1      38.536  32.488  35.004  1.00  0.00     0.095 A 
ATOM     11  N   UNL A   1      36.506  31.990  33.846  1.00  0.00    -0.229 NA
ATOM     12  C   UNL A   1      38.033  33.839  35.287  1.00  0.00     0.251 A 
ATOM     13  O   UNL A   1      38.688  34.647  35.935  1.00  0.00    -0.269 OA
ATOM     14  N   UNL A   1      36.807  34.115  34.780  1.00  0.00    -0.301 N 
ATOM     15  H   UNL A   1      36.419  35.008  34.921  1.00  0.00     0.172 HD
BRANCH   9  16
ATOM     16  C   UNL A   1      38.202  30.204  33.977  1.00  0.00     0.032 C 
ATOM     17  C   UNL A   1      37.432  29.622  32.783  1.00  0.00     0.014 C 
ATOM     18  C   UNL A   1      39.704  30.035  33.703  1.00  0.00     0.014 C 
ENDBRANCH   9  16
ENDBRANCH   7   8
ENDBRANCH   6   7
ENDBRANCH   3   6
ENDBRANCH   1   2
BRANCH   1  19
ATOM     19  C   UNL A   1      33.179  37.162  29.760  1.00  0.00     0.042 C 
BRANCH  19  20
ATOM     20  C   UNL A   1      33.675  36.499  28.475  1.00  0.00     0.118 C 
BRANCH  20  21
ATOM     21  N   UNL A   1      32.925  35.300  28.129  1.00  0.00    -0.352 N 
ATOM     22  C   UNL A   1      33.304  33.980  28.115  1.00  0.00     0.251 C 
ATOM     23  H   UNL A   1      31.991  35.462  27.860  1.00  0.00     0.163 HD
ATOM     24  O   UNL A   1      32.554  33.141  27.623  1.00  0.00    -0.269 OA
BRANCH  22  25
ATOM     25  C   UNL A   1      34.615  33.559  28.656  1.00  0.00     0.039 A 
ATOM     26  C   UNL A   1      34.642  32.810  29.838  1.00  0.00     0.014 A 
ATOM     27  C   UNL A   1      35.814  33.910  28.030  1.00  0.00     0.014 A 
ATOM     28  C   UNL A   1      35.858  32.342  30.339  1.00  0.00     0.010 A 
ATOM     29  C   UNL A   1      37.020  33.383  28.491  1.00  0.00     0.010 A 
ATOM     30  C   UNL A   1      37.053  32.582  29.641  1.00  0.00    -0.014 A 
BRANCH  30  31
ATOM     31  C   UNL A   1      38.329  31.949  30.071  1.00  0.00     0.031 A 
ATOM     32  C   UNL A   1      39.273  32.661  30.998  1.00  0.00     0.074 A 
ATOM     33  C   UNL A   1      38.667  30.746  29.564  1.00  0.00     0.049 A 
ATOM     34  N   UNL A   1      40.447  32.277  31.434  1.00  0.00    -0.248 NA
ATOM     35  C   UNL A   1      38.854  33.984  31.487  1.00  0.00     0.031 C 
ATOM     36  C   UNL A   1      37.857  29.963  28.627  1.00  0.00     0.029 A 
ATOM     37  N   UNL A   1      39.783  29.972  29.762  1.00  0.00    -0.354 N 
ATOM     38  C   UNL A   1      40.910  33.310  32.237  1.00  0.00     0.074 A 
ATOM     39  C   UNL A   1      39.913  34.357  32.193  1.00  0.00     0.031 C 
ATOM     40  C   UNL A   1      38.490  28.812  28.353  1.00  0.00     0.029 A 
ATOM     41  C   UNL A   1      39.769  28.794  29.053  1.00  0.00     0.049 A 
ATOM     42  H   UNL A   1      40.524  30.235  30.355  1.00  0.00     0.167 HD
ATOM     43  C   UNL A   1      42.055  33.376  32.959  1.00  0.00     0.031 A 
ATOM     44  C   UNL A   1      40.688  27.814  28.963  1.00  0.00     0.031 A 
ATOM     45  C   UNL A   1      43.053  32.338  32.997  1.00  0.00     0.049 A 
ATOM     46  C   UNL A   1      41.968  27.933  29.740  1.00  0.00     0.074 A 
ATOM     47  C   UNL A   1      44.221  32.293  33.740  1.00  0.00     0.029 A 
ATOM     48  N   UNL A   1      43.008  31.168  32.255  1.00  0.00    -0.354 N 
ATOM     49  N   UNL A   1      42.357  28.883  30.554  1.00  0.00    -0.248 NA
ATOM     50  C   UNL A   1      42.935  26.835  29.591  1.00  0.00     0.031 C 
ATOM     51  C   UNL A   1      44.913  31.127  33.398  1.00  0.00     0.029 A 
ATOM     52  C   UNL A   1      44.144  30.412  32.494  1.00  0.00     0.049 A 
ATOM     53  H   UNL A   1      42.276  30.912  31.648  1.00  0.00     0.167 HD
ATOM     54  C   UNL A   1      43.599  28.488  31.032  1.00  0.00     0.074 A 
ATOM     55  C   UNL A   1      43.889  27.201  30.435  1.00  0.00     0.031 C 
ATOM     56  C   UNL A   1      44.426  29.136  31.888  1.00  0.00     0.031 A 
BRANCH  43  57
ATOM     57  C   UNL A   1      42.303  34.627  33.759  1.00  0.00    -0.014 A 
ATOM     58  C   UNL A   1      42.885  35.763  33.175  1.00  0.00     0.009 A 
ATOM     59  C   UNL A   1      41.902  34.687  35.103  1.00  0.00     0.009 A 
ATOM     60  C   UNL A   1      43.092  36.920  33.929  1.00  0.00     0.001 A 
ATOM     61  C   UNL A   1      42.081  35.855  35.846  1.00  0.00     0.001 A 
ATOM     62  C   UNL A   1      42.684  36.968  35.261  1.00  0.00     0.000 A 
ENDBRANCH  43  57
BRANCH  44  63
ATOM     63  C   UNL A   1      40.433  26.630  28.099  1.00  0.00    -0.014 A 
ATOM     64  C   UNL A   1      39.673  25.551  28.574  1.00  0.00     0.009 A 
ATOM     65  C   UNL A   1      40.956  26.571  26.798  1.00  0.00     0.009 A 
ATOM     66  C   UNL A   1      39.470  24.422  27.775  1.00  0.00     0.001 A 
ATOM     67  C   UNL A   1      40.724  25.457  25.990  1.00  0.00     0.001 A 
ATOM     68  C   UNL A   1      39.990  24.379  26.482  1.00  0.00     0.000 A 
ENDBRANCH  44  63
BRANCH  56  69
ATOM     69  C   UNL A   1      45.713  28.447  32.253  1.00  0.00    -0.014 A 
ATOM     70  C   UNL A   1      46.903  28.703  31.555  1.00  0.00     0.009 A 
ATOM     71  C   UNL A   1      45.739  27.551  33.334  1.00  0.00     0.009 A 
ATOM     72  C   UNL A   1      48.084  28.047  31.907  1.00  0.00     0.001 A 
ATOM     73  C   UNL A   1      46.929  26.923  33.705  1.00  0.00     0.001 A 
ATOM     74  C   UNL A   1      48.098  27.162  32.985  1.00  0.00     0.000 A 
ENDBRANCH  56  69
ENDBRANCH  30  31
ENDBRANCH  22  25
ENDBRANCH  20  21
ENDBRANCH  19  20
ENDBRANCH   1  19
TORSDOF 13
ENDMDL
MODEL 2
REMARK VINA RESULT:      -9.3      0.270      6.180
REMARK SMILES CC(C)c1cc(=O)[nH]c(SCC(=O)NCCCNC(=O)c2ccc(-c3c4nc(c(-c5ccccc5)c5ccc([nH]5)c(-c5ccccc5)c5nc(c(-c6ccccc6)c6ccc3[nH]6)C=C5)C=C4)cc2)n1
REMARK SMILES IDX 15 1 14 2 12 3 13 4 11 6 10 7 9 8 4 9 5 10 69 11 6 12 7 13
REMARK SMILES IDX 8 14 2 16 1 17 3 18 16 19 17 20 18 21 19 22 20 24 21 25
REMARK SMILES IDX 22 26 68 27 23 28 67 29 24 30 25 31 26 32 61 33 27 34 66 35
REMARK SMILES IDX 60 36 62 37 28 38 65 39 59 40 58 41 29 43 51 44 36 45 50 46
REMARK SMILES IDX 37 47 40 48 49 49 63 50 38 51 39 52 48 54 64 55 41 56 30 57
REMARK SMILES IDX 31 58 35 59 32 60 34 61 33 62 52 63 53 64 57 65 54 66 56 67
REMARK SMILES IDX 55 68 42 69 43 70 47 71 44 72 46 73 45 74
REMARK H PARENT 14 5 8 15 18 23 62 42 40 53
REMARK Flexibility Score: inf
ROOT
ATOM      1  C   UNL A   1      32.826  36.108  30.950  1.00  0.00     0.117 C 
ENDROOT
BRANCH   1   2
ATOM      2  N   UNL A   1      32.991  36.723  32.252  1.00  0.00    -0.355 N 
ATOM      3  C   UNL A   1      33.921  36.508  33.224  1.00  0.00     0.230 C 
ATOM      4  O   UNL A   1      33.890  37.272  34.193  1.00  0.00    -0.274 OA
ATOM      5  H   UNL A   1      32.319  37.409  32.471  1.00  0.00     0.163 HD
BRANCH   3   6
ATOM      6  C   UNL A   1      35.029  35.485  33.062  1.00  0.00     0.178 C 
BRANCH   6   7
ATOM      7  S   UNL A   1      34.570  33.782  33.459  1.00  0.00    -0.078 SA
BRANCH   7   8
ATOM      8  C   UNL A   1      36.067  33.097  33.995  1.00  0.00     0.168 A 
ATOM      9  C   UNL A   1      37.705  31.517  34.182  1.00  0.00     0.051 A 
ATOM     10  C   UNL A   1      38.461  32.318  34.955  1.00  0.00     0.095 A 
ATOM     11  N   UNL A   1      36.470  31.911  33.701  1.00  0.00    -0.229 NA
ATOM     12  C   UNL A   1      37.959  33.654  35.302  1.00  0.00     0.251 A 
ATOM     13  O   UNL A   1      38.598  34.415  36.019  1.00  0.00    -0.269 OA
ATOM     14  N   UNL A   1      36.754  33.972  34.771  1.00  0.00    -0.301 N 
ATOM     15  H   UNL A   1      36.369  34.859  34.952  1.00  0.00     0.172 HD
BRANCH   9  16
ATOM     16  C   UNL A   1      38.146  30.103  33.780  1.00  0.00     0.032 C 
ATOM     17  C   UNL A   1      37.366  29.577  32.568  1.00  0.00     0.014 C 
ATOM     18  C   UNL A   1      39.646  29.952  33.485  1.00  0.00     0.014 C 
ENDBRANCH   9  16
ENDBRANCH   7   8
ENDBRANCH   6   7
ENDBRANCH   3   6
ENDBRANCH   1   2
BRANCH   1  19
ATOM     19  C   UNL A   1      33.085  37.096  29.815  1.00  0.00     0.042 C 
BRANCH  19  20
ATOM     20  C   UNL A   1      33.604  36.456  28.528  1.00  0.00     0.118 C 
BRANCH  20  21
ATOM     21  N   UNL A   1      32.894  35.235  28.174  1.00  0.00    -0.352 N 
ATOM     22  C   UNL A   1      33.316  33.929  28.154  1.00  0.00     0.251 C 
ATOM     23  H   UNL A   1      31.956  35.367  27.905  1.00  0.00     0.163 HD
ATOM     24  O   UNL A   1      32.595  33.068  27.656  1.00  0.00    -0.269 OA
BRANCH  22  25
ATOM     25  C   UNL A   1      34.640  33.548  28.694  1.00  0.00     0.039 A 
ATOM     26  C   UNL A   1      34.692  32.655  29.770  1.00  0.00     0.014 A 
ATOM     27  C   UNL A   1      35.825  34.075  28.173  1.00  0.00     0.014 A 
ATOM     28  C   UNL A   1      35.926  32.226  30.262  1.00  0.00     0.010 A 
ATOM     29  C   UNL A   1      37.055  33.591  28.616  1.00  0.00     0.010 A 
ATOM     30  C   UNL A   1      37.119  32.651  29.654  1.00  0.00    -0.014 A 
BRANCH  30  31
ATOM     31  C   UNL A   1      38.429  32.074  30.055  1.00  0.00     0.031 A 
ATOM     32  C   UNL A   1      38.873  30.731  29.547  1.00  0.00     0.074 A 
ATOM     33  C   UNL A   1      39.197  32.742  30.941  1.00  0.00     0.049 A 
ATOM     34  N   UNL A   1      39.961  30.060  29.833  1.00  0.00    -0.248 NA
ATOM     35  C   UNL A   1      37.972  30.044  28.609  1.00  0.00     0.031 C 
ATOM     36  C   UNL A   1      38.867  34.038  31.539  1.00  0.00     0.029 A 
ATOM     37  N   UNL A   1      40.410  32.422  31.496  1.00  0.00    -0.354 N 
ATOM     38  C   UNL A   1      39.871  28.871  29.121  1.00  0.00     0.074 A 
ATOM     39  C   UNL A   1      38.603  28.892  28.425  1.00  0.00     0.031 C 
ATOM     40  C   UNL A   1      39.863  34.413  32.355  1.00  0.00     0.029 A 
ATOM     41  C   UNL A   1      40.879  33.367  32.378  1.00  0.00     0.049 A 
ATOM     42  H   UNL A   1      40.899  31.594  31.283  1.00  0.00     0.167 HD
ATOM     43  C   UNL A   1      40.769  27.859  29.041  1.00  0.00     0.031 A 
ATOM     44  C   UNL A   1      41.993  33.385  33.133  1.00  0.00     0.031 A 
ATOM     45  C   UNL A   1      42.029  27.833  29.741  1.00  0.00     0.049 A 
ATOM     46  C   UNL A   1      42.951  32.230  33.059  1.00  0.00     0.074 A 
ATOM     47  C   UNL A   1      43.027  26.876  29.681  1.00  0.00     0.029 A 
ATOM     48  N   UNL A   1      42.459  28.802  30.634  1.00  0.00    -0.354 N 
ATOM     49  N   UNL A   1      42.886  31.148  32.322  1.00  0.00    -0.248 NA
ATOM     50  C   UNL A   1      44.144  32.305  33.916  1.00  0.00     0.031 C 
ATOM     51  C   UNL A   1      44.031  27.232  30.587  1.00  0.00     0.029 A 
ATOM     52  C   UNL A   1      43.691  28.447  31.160  1.00  0.00     0.049 A 
ATOM     53  H   UNL A   1      41.963  29.622  30.860  1.00  0.00     0.167 HD
ATOM     54  C   UNL A   1      44.037  30.426  32.608  1.00  0.00     0.074 A 
ATOM     55  C   UNL A   1      44.794  31.204  33.567  1.00  0.00     0.031 C 
ATOM     56  C   UNL A   1      44.431  29.225  32.120  1.00  0.00     0.031 A 
BRANCH  43  57
ATOM     57  C   UNL A   1      40.415  26.680  28.176  1.00  0.00    -0.014 A 
ATOM     58  C   UNL A   1      39.569  25.661  28.642  1.00  0.00     0.009 A 
ATOM     59  C   UNL A   1      40.892  26.613  26.857  1.00  0.00     0.009 A 
ATOM     60  C   UNL A   1      39.238  24.583  27.819  1.00  0.00     0.001 A 
ATOM     61  C   UNL A   1      40.535  25.550  26.025  1.00  0.00     0.001 A 
ATOM     62  C   UNL A   1      39.716  24.531  26.509  1.00  0.00     0.000 A 
ENDBRANCH  43  57
BRANCH  44  63
ATOM     63  C   UNL A   1      42.265  34.538  34.033  1.00  0.00    -0.014 A 
ATOM     64  C   UNL A   1      42.900  35.690  33.545  1.00  0.00     0.009 A 
ATOM     65  C   UNL A   1      41.900  34.488  35.387  1.00  0.00     0.009 A 
ATOM     66  C   UNL A   1      43.192  36.755  34.402  1.00  0.00     0.001 A 
ATOM     67  C   UNL A   1      42.162  35.566  36.234  1.00  0.00     0.001 A 
ATOM     68  C   UNL A   1      42.817  36.695  35.743  1.00  0.00     0.000 A 
ENDBRANCH  44  63
BRANCH  56  69
ATOM     69  C   UNL A   1      45.755  28.691  32.594  1.00  0.00    -0.014 A 
ATOM     70  C   UNL A   1      46.957  29.050  31.964  1.00  0.00     0.009 A 
ATOM     71  C   UNL A   1      45.802  27.840  33.710  1.00  0.00     0.009 A 
ATOM     72  C   UNL A   1      48.174  28.537  32.418  1.00  0.00     0.001 A 
ATOM     73  C   UNL A   1      47.023  27.356  34.182  1.00  0.00     0.001 A 
ATOM     74  C   UNL A   1      48.206  27.696  33.530  1.00  0.00     0.000 A 
ENDBRANCH  56  69
ENDBRANCH  30  31
ENDBRANCH  22  25
ENDBRANCH  20  21
ENDBRANCH  19  20
ENDBRANCH   1  19
TORSDOF 13
ENDMDL
MODEL 3
REMARK VINA RESULT:      -9.1      6.382     11.971
REMARK SMILES CC(C)c1cc(=O)[nH]c(SCC(=O)NCCCNC(=O)c2ccc(-c3c4nc(c(-c5ccccc5)c5ccc([nH]5)c(-c5ccccc5)c5nc(c(-c6ccccc6)c6ccc3[nH]6)C=C5)C=C4)cc2)n1
REMARK SMILES IDX 15 1 14 2 12 3 13 4 11 6 10 7 9 8 4 9 5 10 69 11 6 12 7 13
REMARK SMILES IDX 8 14 2 16 1 17 3 18 16 19 17 20 18 21 19 22 20 24 21 25
REMARK SMILES IDX 22 26 68 27 23 28 67 29 24 30 25 31 26 32 61 33 27 34 66 35
REMARK SMILES IDX 60 36 62 37 28 38 65 39 59 40 58 41 29 43 51 44 36 45 50 46
REMARK SMILES IDX 37 47 40 48 49 49 63 50 38 51 39 52 48 54 64 55 41 56 30 57
REMARK SMILES IDX 31 58 35 59 32 60 34 61 33 62 52 63 53 64 57 65 54 66 56 67
REMARK SMILES IDX 55 68 42 69 43 70 47 71 44 72 46 73 45 74
REMARK H PARENT 14 5 8 15 18 23 62 42 40 53
REMARK Flexibility Score: inf
ROOT
ATOM      1  C   UNL A   1      36.045  20.197  25.009  1.00  0.00     0.117 C 
ENDROOT
BRANCH   1   2
ATOM      2  N   UNL A   1      35.602  21.066  26.082  1.00  0.00    -0.355 N 
ATOM      3  C   UNL A   1      34.537  21.912  26.156  1.00  0.00     0.230 C 
ATOM      4  O   UNL A   1      34.332  22.443  27.252  1.00  0.00    -0.274 OA
ATOM      5  H   UNL A   1      36.164  21.041  26.890  1.00  0.00     0.163 HD
BRANCH   3   6
ATOM      6  C   UNL A   1      33.565  22.083  25.003  1.00  0.00     0.178 C 
BRANCH   6   7
ATOM      7  S   UNL A   1      32.011  21.175  25.165  1.00  0.00    -0.078 SA
BRANCH   7   8
ATOM      8  C   UNL A   1      32.420  19.606  24.557  1.00  0.00     0.168 A 
ATOM      9  C   UNL A   1      33.125  17.436  24.652  1.00  0.00     0.051 A 
ATOM     10  C   UNL A   1      32.941  17.264  23.331  1.00  0.00     0.095 A 
ATOM     11  N   UNL A   1      32.871  18.642  25.280  1.00  0.00    -0.229 NA
ATOM     12  C   UNL A   1      32.457  18.393  22.526  1.00  0.00     0.251 A 
ATOM     13  O   UNL A   1      32.292  18.296  21.315  1.00  0.00    -0.269 OA
ATOM     14  N   UNL A   1      32.209  19.530  23.219  1.00  0.00    -0.301 N 
ATOM     15  H   UNL A   1      31.867  20.319  22.741  1.00  0.00     0.172 HD
BRANCH   9  16
ATOM     16  C   UNL A   1      33.638  16.315  25.567  1.00  0.00     0.032 C 
ATOM     17  C   UNL A   1      32.707  15.094  25.564  1.00  0.00     0.014 C 
ATOM     18  C   UNL A   1      35.062  15.829  25.259  1.00  0.00     0.014 C 
ENDBRANCH   9  16
ENDBRANCH   7   8
ENDBRANCH   6   7
ENDBRANCH   3   6
ENDBRANCH   1   2
BRANCH   1  19
ATOM     19  C   UNL A   1      37.445  20.562  24.521  1.00  0.00     0.042 C 
BRANCH  19  20
ATOM     20  C   UNL A   1      38.469  20.766  25.637  1.00  0.00     0.118 C 
BRANCH  20  21
ATOM     21  N   UNL A   1      39.487  19.726  25.671  1.00  0.00    -0.352 N 
ATOM     22  C   UNL A   1      40.815  19.784  26.017  1.00  0.00     0.251 C 
ATOM     23  H   UNL A   1      39.171  18.832  25.403  1.00  0.00     0.163 HD
ATOM     24  O   UNL A   1      41.536  18.812  25.809  1.00  0.00    -0.269 OA
BRANCH  22  25
ATOM     25  C   UNL A   1      41.395  21.011  26.605  1.00  0.00     0.039 A 
ATOM     26  C   UNL A   1      41.968  21.957  25.749  1.00  0.00     0.014 A 
ATOM     27  C   UNL A   1      41.402  21.230  27.986  1.00  0.00     0.014 A 
ATOM     28  C   UNL A   1      42.466  23.155  26.267  1.00  0.00     0.010 A 
ATOM     29  C   UNL A   1      41.834  22.455  28.494  1.00  0.00     0.010 A 
ATOM     30  C   UNL A   1      42.356  23.436  27.639  1.00  0.00    -0.014 A 
BRANCH  30  31
ATOM     31  C   UNL A   1      42.727  24.771  28.178  1.00  0.00     0.031 A 
ATOM     32  C   UNL A   1      41.688  25.837  28.391  1.00  0.00     0.074 A 
ATOM     33  C   UNL A   1      44.026  25.045  28.415  1.00  0.00     0.049 A 
ATOM     34  N   UNL A   1      41.845  27.069  28.806  1.00  0.00    -0.248 NA
ATOM     35  C   UNL A   1      40.296  25.479  28.081  1.00  0.00     0.031 C 
ATOM     36  C   UNL A   1      45.138  24.112  28.217  1.00  0.00     0.029 A 
ATOM     37  N   UNL A   1      44.633  26.189  28.870  1.00  0.00    -0.354 N 
ATOM     38  C   UNL A   1      40.578  27.636  28.799  1.00  0.00     0.074 A 
ATOM     39  C   UNL A   1      39.669  26.628  28.295  1.00  0.00     0.031 C 
ATOM     40  C   UNL A   1      46.285  24.711  28.572  1.00  0.00     0.029 A 
ATOM     41  C   UNL A   1      45.999  26.083  28.977  1.00  0.00     0.049 A 
ATOM     42  H   UNL A   1      44.136  27.008  29.098  1.00  0.00     0.167 HD
ATOM     43  C   UNL A   1      40.200  28.877  29.190  1.00  0.00     0.031 A 
ATOM     44  C   UNL A   1      46.923  26.991  29.344  1.00  0.00     0.031 A 
ATOM     45  C   UNL A   1      41.105  29.884  29.684  1.00  0.00     0.049 A 
ATOM     46  C   UNL A   1      46.482  28.374  29.731  1.00  0.00     0.074 A 
ATOM     47  C   UNL A   1      40.808  31.152  30.153  1.00  0.00     0.029 A 
ATOM     48  N   UNL A   1      42.482  29.741  29.763  1.00  0.00    -0.354 N 
ATOM     49  N   UNL A   1      45.270  28.869  29.791  1.00  0.00    -0.248 NA
ATOM     50  C   UNL A   1      47.539  29.322  30.112  1.00  0.00     0.031 C 
ATOM     51  C   UNL A   1      42.011  31.800  30.454  1.00  0.00     0.029 A 
ATOM     52  C   UNL A   1      43.051  30.912  30.238  1.00  0.00     0.049 A 
ATOM     53  H   UNL A   1      42.981  28.929  29.519  1.00  0.00     0.167 HD
ATOM     54  C   UNL A   1      45.416  30.176  30.237  1.00  0.00     0.074 A 
ATOM     55  C   UNL A   1      46.832  30.388  30.456  1.00  0.00     0.031 C 
ATOM     56  C   UNL A   1      44.463  31.115  30.445  1.00  0.00     0.031 A 
BRANCH  43  57
ATOM     57  C   UNL A   1      38.741  29.227  29.084  1.00  0.00    -0.014 A 
ATOM     58  C   UNL A   1      37.867  29.053  30.169  1.00  0.00     0.009 A 
ATOM     59  C   UNL A   1      38.242  29.789  27.897  1.00  0.00     0.009 A 
ATOM     60  C   UNL A   1      36.520  29.400  30.057  1.00  0.00     0.001 A 
ATOM     61  C   UNL A   1      36.901  30.164  27.798  1.00  0.00     0.001 A 
ATOM     62  C   UNL A   1      36.038  29.960  28.874  1.00  0.00     0.000 A 
ENDBRANCH  43  57
BRANCH  44  63
ATOM     63  C   UNL A   1      48.364  26.622  29.361  1.00  0.00    -0.014 A 
ATOM     64  C   UNL A   1      48.947  26.074  30.513  1.00  0.00     0.009 A 
ATOM     65  C   UNL A   1      49.166  26.828  28.228  1.00  0.00     0.009 A 
ATOM     66  C   UNL A   1      50.311  25.767  30.539  1.00  0.00     0.001 A 
ATOM     67  C   UNL A   1      50.520  26.490  28.246  1.00  0.00     0.001 A 
ATOM     68  C   UNL A   1      51.094  25.970  29.405  1.00  0.00     0.000 A 
ENDBRANCH  44  63
BRANCH  56  69
ATOM     69  C   UNL A   1      44.917  32.452  30.963  1.00  0.00    -0.014 A 
ATOM     70  C   UNL A   1      45.072  32.689  32.338  1.00  0.00     0.009 A 
ATOM     71  C   UNL A   1      45.225  33.481  30.059  1.00  0.00     0.009 A 
ATOM     72  C   UNL A   1      45.489  33.941  32.797  1.00  0.00     0.001 A 
ATOM     73  C   UNL A   1      45.674  34.719  30.519  1.00  0.00     0.001 A 
ATOM     74  C   UNL A   1      45.795  34.952  31.887  1.00  0.00     0.000 A 
ENDBRANCH  56  69
ENDBRANCH  30  31
ENDBRANCH  22  25
ENDBRANCH  20  21
ENDBRANCH  19  20
ENDBRANCH   1  19
TORSDOF 13
ENDMDL
