MODEL 1
REMARK VINA RESULT:     -10.8      0.000      0.000
REMARK SMILES CCc1ccsc1CNC(=O)N1[C@H]2CC[C@@H]1[C@H](C(=O)NCCCNC(=O)c1ccc(-c3c4nc(c(-c5ccccc5)c5ccc([nH]5)c(-c5ccccc5)c5nc(c(-c6ccccc6)c6ccc3[nH]6)C=C5)C=C4)cc1)C2
REMARK SMILES IDX 21 1 20 2 18 3 19 4 17 6 12 7 13 8 16 9 14 10 75 11 15 12
REMARK SMILES IDX 10 13 9 14 11 16 8 17 7 18 3 19 4 20 5 21 6 22 2 23 1 24
REMARK SMILES IDX 22 25 23 26 24 27 25 28 26 30 27 31 28 32 74 33 29 34 73 35
REMARK SMILES IDX 30 36 31 37 32 38 67 39 33 40 72 41 66 42 68 43 34 44 71 45
REMARK SMILES IDX 65 46 64 47 35 49 57 50 42 51 56 52 43 53 46 54 55 55 69 56
REMARK SMILES IDX 44 57 45 58 54 60 70 61 47 62 36 63 37 64 41 65 38 66 40 67
REMARK SMILES IDX 39 68 58 69 59 70 63 71 60 72 62 73 61 74 48 75 49 76 53 77
REMARK SMILES IDX 50 78 52 79 51 80
REMARK H PARENT 20 5 9 15 24 29 68 48 46 59
REMARK Flexibility Score: inf
ROOT
ATOM      1  C   UNL A   1      32.850  28.855  24.820  1.00  0.00     0.117 C 
ENDROOT
BRANCH   1   2
ATOM      2  N   UNL A   1      33.102  28.307  23.506  1.00  0.00    -0.356 N 
ATOM      3  C   UNL A   1      33.282  27.046  23.050  1.00  0.00     0.225 C 
ATOM      4  O   UNL A   1      33.647  26.955  21.871  1.00  0.00    -0.275 OA
ATOM      5  H   UNL A   1      33.155  28.990  22.800  1.00  0.00     0.163 HD
BRANCH   3   6
ATOM      6  C   UNL A   1      33.076  25.780  23.859  1.00  0.00     0.103 C 
ATOM      7  N   UNL A   1      31.927  24.330  25.169  1.00  0.00    -0.318 N 
ATOM      8  C   UNL A   1      31.874  23.705  23.863  1.00  0.00     0.088 C 
ATOM      9  C   UNL A   1      31.840  25.725  24.784  1.00  0.00     0.099 C 
ATOM     10  C   UNL A   1      30.556  24.302  23.337  1.00  0.00     0.027 C 
ATOM     11  C   UNL A   1      33.097  24.374  23.212  1.00  0.00     0.040 C 
ATOM     12  C   UNL A   1      30.517  25.686  24.017  1.00  0.00     0.028 C 
BRANCH   7  13
ATOM     13  C   UNL A   1      31.598  23.826  26.379  1.00  0.00     0.318 C 
ATOM     14  N   UNL A   1      32.582  23.256  27.115  1.00  0.00    -0.333 N 
ATOM     15  H   UNL A   1      32.287  22.679  27.856  1.00  0.00     0.165 HD
ATOM     16  O   UNL A   1      30.469  23.921  26.853  1.00  0.00    -0.249 OA
BRANCH  14  17
ATOM     17  C   UNL A   1      34.009  23.388  26.946  1.00  0.00     0.165 C 
BRANCH  17  18
ATOM     18  C   UNL A   1      34.594  22.294  26.096  1.00  0.00     0.027 A 
ATOM     19  C   UNL A   1      35.864  22.247  25.530  1.00  0.00    -0.033 A 
ATOM     20  C   UNL A   1      36.097  20.977  24.900  1.00  0.00     0.016 A 
ATOM     21  C   UNL A   1      35.026  20.121  25.000  1.00  0.00     0.065 A 
ATOM     22  S   UNL A   1      33.739  20.818  25.867  1.00  0.00    -0.147 S 
BRANCH  19  23
ATOM     23  C   UNL A   1      36.891  23.346  25.628  1.00  0.00     0.033 C 
ATOM     24  C   UNL A   1      38.249  22.881  26.125  1.00  0.00     0.009 C 
ENDBRANCH  19  23
ENDBRANCH  17  18
ENDBRANCH  14  17
ENDBRANCH   7  13
ENDBRANCH   3   6
ENDBRANCH   1   2
BRANCH   1  25
ATOM     25  C   UNL A   1      34.019  28.603  25.755  1.00  0.00     0.042 C 
BRANCH  25  26
ATOM     26  C   UNL A   1      33.632  28.737  27.209  1.00  0.00     0.118 C 
BRANCH  26  27
ATOM     27  N   UNL A   1      33.597  30.129  27.633  1.00  0.00    -0.352 N 
ATOM     28  C   UNL A   1      34.539  30.857  28.316  1.00  0.00     0.251 C 
ATOM     29  H   UNL A   1      32.777  30.620  27.395  1.00  0.00     0.163 HD
ATOM     30  O   UNL A   1      34.240  31.947  28.793  1.00  0.00    -0.269 OA
BRANCH  28  31
ATOM     31  C   UNL A   1      35.905  30.317  28.494  1.00  0.00     0.039 A 
ATOM     32  C   UNL A   1      36.825  30.425  27.448  1.00  0.00     0.014 A 
ATOM     33  C   UNL A   1      36.278  29.700  29.690  1.00  0.00     0.014 A 
ATOM     34  C   UNL A   1      38.130  29.960  27.626  1.00  0.00     0.010 A 
ATOM     35  C   UNL A   1      37.605  29.363  29.912  1.00  0.00     0.010 A 
ATOM     36  C   UNL A   1      38.537  29.453  28.871  1.00  0.00    -0.014 A 
BRANCH  36  37
ATOM     37  C   UNL A   1      39.908  28.937  29.099  1.00  0.00     0.031 A 
ATOM     38  C   UNL A   1      40.952  29.853  29.684  1.00  0.00     0.074 A 
ATOM     39  C   UNL A   1      40.234  27.686  28.722  1.00  0.00     0.049 A 
ATOM     40  N   UNL A   1      42.230  29.641  29.867  1.00  0.00    -0.248 NA
ATOM     41  C   UNL A   1      40.509  31.201  30.081  1.00  0.00     0.031 C 
ATOM     42  C   UNL A   1      39.323  26.715  28.113  1.00  0.00     0.029 A 
ATOM     43  N   UNL A   1      41.432  27.019  28.793  1.00  0.00    -0.354 N 
ATOM     44  C   UNL A   1      42.740  30.833  30.367  1.00  0.00     0.074 A 
ATOM     45  C   UNL A   1      41.654  31.783  30.398  1.00  0.00     0.031 C 
ATOM     46  C   UNL A   1      39.986  25.567  27.895  1.00  0.00     0.029 A 
ATOM     47  C   UNL A   1      41.376  25.738  28.301  1.00  0.00     0.049 A 
ATOM     48  H   UNL A   1      42.252  27.422  29.159  1.00  0.00     0.167 HD
ATOM     49  C   UNL A   1      43.996  31.107  30.791  1.00  0.00     0.031 A 
ATOM     50  C   UNL A   1      42.344  24.808  28.184  1.00  0.00     0.031 A 
ATOM     51  C   UNL A   1      45.069  30.152  30.783  1.00  0.00     0.049 A 
ATOM     52  C   UNL A   1      43.736  25.139  28.650  1.00  0.00     0.074 A 
ATOM     53  C   UNL A   1      46.363  30.307  31.243  1.00  0.00     0.029 A 
ATOM     54  N   UNL A   1      44.966  28.859  30.293  1.00  0.00    -0.354 N 
ATOM     55  N   UNL A   1      44.188  26.251  29.177  1.00  0.00    -0.248 NA
ATOM     56  C   UNL A   1      44.748  24.083  28.513  1.00  0.00     0.031 C 
ATOM     57  C   UNL A   1      47.062  29.125  30.980  1.00  0.00     0.029 A 
ATOM     58  C   UNL A   1      46.182  28.212  30.418  1.00  0.00     0.049 A 
ATOM     59  H   UNL A   1      44.151  28.461  29.911  1.00  0.00     0.167 HD
ATOM     60  C   UNL A   1      45.525  26.015  29.471  1.00  0.00     0.074 A 
ATOM     61  C   UNL A   1      45.807  24.652  29.072  1.00  0.00     0.031 C 
ATOM     62  C   UNL A   1      46.437  26.850  30.027  1.00  0.00     0.031 A 
BRANCH  49  63
ATOM     63  C   UNL A   1      44.272  32.499  31.291  1.00  0.00    -0.014 A 
ATOM     64  C   UNL A   1      44.137  32.828  32.650  1.00  0.00     0.009 A 
ATOM     65  C   UNL A   1      44.699  33.490  30.395  1.00  0.00     0.009 A 
ATOM     66  C   UNL A   1      44.379  34.130  33.092  1.00  0.00     0.001 A 
ATOM     67  C   UNL A   1      44.975  34.783  30.844  1.00  0.00     0.001 A 
ATOM     68  C   UNL A   1      44.804  35.104  32.190  1.00  0.00     0.000 A 
ENDBRANCH  49  63
BRANCH  50  69
ATOM     69  C   UNL A   1      42.029  23.469  27.619  1.00  0.00    -0.014 A 
ATOM     70  C   UNL A   1      41.460  22.470  28.425  1.00  0.00     0.009 A 
ATOM     71  C   UNL A   1      42.301  23.178  26.273  1.00  0.00     0.009 A 
ATOM     72  C   UNL A   1      41.200  21.202  27.905  1.00  0.00     0.001 A 
ATOM     73  C   UNL A   1      42.010  21.917  25.746  1.00  0.00     0.001 A 
ATOM     74  C   UNL A   1      41.471  20.926  26.565  1.00  0.00     0.000 A 
ENDBRANCH  50  69
BRANCH  62  75
ATOM     75  C   UNL A   1      47.810  26.299  30.291  1.00  0.00    -0.014 A 
ATOM     76  C   UNL A   1      48.167  25.785  31.547  1.00  0.00     0.009 A 
ATOM     77  C   UNL A   1      48.738  26.235  29.239  1.00  0.00     0.009 A 
ATOM     78  C   UNL A   1      49.438  25.245  31.751  1.00  0.00     0.001 A 
ATOM     79  C   UNL A   1      49.995  25.665  29.437  1.00  0.00     0.001 A 
ATOM     80  C   UNL A   1      50.348  25.179  30.695  1.00  0.00     0.000 A 
ENDBRANCH  62  75
ENDBRANCH  36  37
ENDBRANCH  28  31
ENDBRANCH  26  27
ENDBRANCH  25  26
ENDBRANCH   1  25
TORSDOF 14
ENDMDL
MODEL 2
REMARK VINA RESULT:     -10.8      2.319      7.432
REMARK SMILES CCc1ccsc1CNC(=O)N1[C@H]2CC[C@@H]1[C@H](C(=O)NCCCNC(=O)c1ccc(-c3c4nc(c(-c5ccccc5)c5ccc([nH]5)c(-c5ccccc5)c5nc(c(-c6ccccc6)c6ccc3[nH]6)C=C5)C=C4)cc1)C2
REMARK SMILES IDX 21 1 20 2 18 3 19 4 17 6 12 7 13 8 16 9 14 10 75 11 15 12
REMARK SMILES IDX 10 13 9 14 11 16 8 17 7 18 3 19 4 20 5 21 6 22 2 23 1 24
REMARK SMILES IDX 22 25 23 26 24 27 25 28 26 30 27 31 28 32 74 33 29 34 73 35
REMARK SMILES IDX 30 36 31 37 32 38 67 39 33 40 72 41 66 42 68 43 34 44 71 45
REMARK SMILES IDX 65 46 64 47 35 49 57 50 42 51 56 52 43 53 46 54 55 55 69 56
REMARK SMILES IDX 44 57 45 58 54 60 70 61 47 62 36 63 37 64 41 65 38 66 40 67
REMARK SMILES IDX 39 68 58 69 59 70 63 71 60 72 62 73 61 74 48 75 49 76 53 77
REMARK SMILES IDX 50 78 52 79 51 80
REMARK H PARENT 20 5 9 15 24 29 68 48 46 59
REMARK Flexibility Score: inf
ROOT
ATOM      1  C   UNL A   1      36.334  20.701  25.020  1.00  0.00     0.117 C 
ENDROOT
BRANCH   1   2
ATOM      2  N   UNL A   1      36.157  21.738  24.028  1.00  0.00    -0.356 N 
ATOM      3  C   UNL A   1      35.379  22.844  23.975  1.00  0.00     0.225 C 
ATOM      4  O   UNL A   1      35.357  23.426  22.884  1.00  0.00    -0.275 OA
ATOM      5  H   UNL A   1      36.715  21.614  23.227  1.00  0.00     0.163 HD
BRANCH   3   6
ATOM      6  C   UNL A   1      34.557  23.397  25.124  1.00  0.00     0.103 C 
ATOM      7  N   UNL A   1      32.770  23.519  26.513  1.00  0.00    -0.318 N 
ATOM      8  C   UNL A   1      33.773  22.859  27.325  1.00  0.00     0.088 C 
ATOM      9  C   UNL A   1      33.082  22.949  25.217  1.00  0.00     0.099 C 
ATOM     10  C   UNL A   1      33.446  21.390  27.006  1.00  0.00     0.027 C 
ATOM     11  C   UNL A   1      35.042  23.328  26.592  1.00  0.00     0.040 C 
ATOM     12  C   UNL A   1      32.924  21.466  25.557  1.00  0.00     0.028 C 
BRANCH   7  13
ATOM     13  C   UNL A   1      31.580  24.048  26.874  1.00  0.00     0.318 C 
ATOM     14  N   UNL A   1      31.420  25.387  26.750  1.00  0.00    -0.333 N 
ATOM     15  H   UNL A   1      30.664  25.779  27.246  1.00  0.00     0.165 HD
ATOM     16  O   UNL A   1      30.633  23.359  27.246  1.00  0.00    -0.249 OA
BRANCH  14  17
ATOM     17  C   UNL A   1      32.220  26.311  25.983  1.00  0.00     0.165 C 
BRANCH  17  18
ATOM     18  C   UNL A   1      31.386  27.210  25.111  1.00  0.00     0.027 A 
ATOM     19  C   UNL A   1      31.573  28.567  24.870  1.00  0.00    -0.033 A 
ATOM     20  C   UNL A   1      30.650  29.042  23.875  1.00  0.00     0.016 A 
ATOM     21  C   UNL A   1      29.811  28.059  23.407  1.00  0.00     0.065 A 
ATOM     22  S   UNL A   1      30.131  26.555  24.133  1.00  0.00    -0.147 S 
BRANCH  19  23
ATOM     23  C   UNL A   1      32.646  29.414  25.503  1.00  0.00     0.033 C 
ATOM     24  C   UNL A   1      32.220  30.089  26.796  1.00  0.00     0.009 C 
ENDBRANCH  19  23
ENDBRANCH  17  18
ENDBRANCH  14  17
ENDBRANCH   7  13
ENDBRANCH   3   6
ENDBRANCH   1   2
BRANCH   1  25
ATOM     25  C   UNL A   1      37.636  19.951  24.804  1.00  0.00     0.042 C 
BRANCH  25  26
ATOM     26  C   UNL A   1      38.733  20.426  25.729  1.00  0.00     0.118 C 
BRANCH  26  27
ATOM     27  N   UNL A   1      39.801  19.444  25.850  1.00  0.00    -0.352 N 
ATOM     28  C   UNL A   1      41.133  19.632  26.125  1.00  0.00     0.251 C 
ATOM     29  H   UNL A   1      39.527  18.508  25.715  1.00  0.00     0.163 HD
ATOM     30  O   UNL A   1      41.926  18.713  25.955  1.00  0.00    -0.269 OA
BRANCH  28  31
ATOM     31  C   UNL A   1      41.610  20.947  26.604  1.00  0.00     0.039 A 
ATOM     32  C   UNL A   1      41.962  21.929  25.674  1.00  0.00     0.014 A 
ATOM     33  C   UNL A   1      41.716  21.213  27.971  1.00  0.00     0.014 A 
ATOM     34  C   UNL A   1      42.368  23.189  26.119  1.00  0.00     0.010 A 
ATOM     35  C   UNL A   1      41.987  22.501  28.408  1.00  0.00     0.010 A 
ATOM     36  C   UNL A   1      42.354  23.493  27.490  1.00  0.00    -0.014 A 
BRANCH  36  37
ATOM     37  C   UNL A   1      42.788  24.813  28.007  1.00  0.00     0.031 A 
ATOM     38  C   UNL A   1      41.755  25.874  28.282  1.00  0.00     0.074 A 
ATOM     39  C   UNL A   1      44.099  25.083  28.162  1.00  0.00     0.049 A 
ATOM     40  N   UNL A   1      41.924  27.123  28.634  1.00  0.00    -0.248 NA
ATOM     41  C   UNL A   1      40.343  25.492  28.099  1.00  0.00     0.031 C 
ATOM     42  C   UNL A   1      45.198  24.153  27.896  1.00  0.00     0.029 A 
ATOM     43  N   UNL A   1      44.728  26.230  28.576  1.00  0.00    -0.354 N 
ATOM     44  C   UNL A   1      40.649  27.674  28.683  1.00  0.00     0.074 A 
ATOM     45  C   UNL A   1      39.723  26.649  28.263  1.00  0.00     0.031 C 
ATOM     46  C   UNL A   1      46.363  24.755  28.185  1.00  0.00     0.029 A 
ATOM     47  C   UNL A   1      46.098  26.125  28.606  1.00  0.00     0.049 A 
ATOM     48  H   UNL A   1      44.244  27.050  28.826  1.00  0.00     0.167 HD
ATOM     49  C   UNL A   1      40.276  28.916  29.070  1.00  0.00     0.031 A 
ATOM     50  C   UNL A   1      47.033  27.039  28.929  1.00  0.00     0.031 A 
ATOM     51  C   UNL A   1      41.197  29.926  29.512  1.00  0.00     0.049 A 
ATOM     52  C   UNL A   1      46.596  28.417  29.344  1.00  0.00     0.074 A 
ATOM     53  C   UNL A   1      40.922  31.197  29.981  1.00  0.00     0.029 A 
ATOM     54  N   UNL A   1      42.575  29.773  29.544  1.00  0.00    -0.354 N 
ATOM     55  N   UNL A   1      45.383  28.905  29.444  1.00  0.00    -0.248 NA
ATOM     56  C   UNL A   1      47.658  29.368  29.701  1.00  0.00     0.031 C 
ATOM     57  C   UNL A   1      42.137  31.835  30.244  1.00  0.00     0.029 A 
ATOM     58  C   UNL A   1      43.165  30.937  30.003  1.00  0.00     0.049 A 
ATOM     59  H   UNL A   1      43.061  28.959  29.277  1.00  0.00     0.167 HD
ATOM     60  C   UNL A   1      45.534  30.203  29.912  1.00  0.00     0.074 A 
ATOM     61  C   UNL A   1      46.954  30.424  30.084  1.00  0.00     0.031 C 
ATOM     62  C   UNL A   1      44.580  31.130  30.180  1.00  0.00     0.031 A 
BRANCH  49  63
ATOM     63  C   UNL A   1      38.809  29.247  29.024  1.00  0.00    -0.014 A 
ATOM     64  C   UNL A   1      38.001  29.149  30.169  1.00  0.00     0.009 A 
ATOM     65  C   UNL A   1      38.231  29.688  27.825  1.00  0.00     0.009 A 
ATOM     66  C   UNL A   1      36.638  29.441  30.102  1.00  0.00     0.001 A 
ATOM     67  C   UNL A   1      36.875  30.015  27.768  1.00  0.00     0.001 A 
ATOM     68  C   UNL A   1      36.077  29.881  28.903  1.00  0.00     0.000 A 
ENDBRANCH  49  63
BRANCH  50  69
ATOM     69  C   UNL A   1      48.475  26.676  28.891  1.00  0.00    -0.014 A 
ATOM     70  C   UNL A   1      49.241  26.917  27.739  1.00  0.00     0.009 A 
ATOM     71  C   UNL A   1      49.093  26.081  30.002  1.00  0.00     0.009 A 
ATOM     72  C   UNL A   1      50.585  26.541  27.691  1.00  0.00     0.001 A 
ATOM     73  C   UNL A   1      50.446  25.736  29.962  1.00  0.00     0.001 A 
ATOM     74  C   UNL A   1      51.188  25.955  28.802  1.00  0.00     0.000 A 
ENDBRANCH  50  69
BRANCH  62  75
ATOM     75  C   UNL A   1      45.035  32.447  30.744  1.00  0.00    -0.014 A 
ATOM     76  C   UNL A   1      45.321  33.542  29.916  1.00  0.00     0.009 A 
ATOM     77  C   UNL A   1      45.111  32.607  32.137  1.00  0.00     0.009 A 
ATOM     78  C   UNL A   1      45.705  34.764  30.472  1.00  0.00     0.001 A 
ATOM     79  C   UNL A   1      45.464  33.838  32.691  1.00  0.00     0.001 A 
ATOM     80  C   UNL A   1      45.769  34.912  31.858  1.00  0.00     0.000 A 
ENDBRANCH  62  75
ENDBRANCH  36  37
ENDBRANCH  28  31
ENDBRANCH  26  27
ENDBRANCH  25  26
ENDBRANCH   1  25
TORSDOF 14
ENDMDL
MODEL 3
REMARK VINA RESULT:     -10.6      1.022      1.336
REMARK SMILES CCc1ccsc1CNC(=O)N1[C@H]2CC[C@@H]1[C@H](C(=O)NCCCNC(=O)c1ccc(-c3c4nc(c(-c5ccccc5)c5ccc([nH]5)c(-c5ccccc5)c5nc(c(-c6ccccc6)c6ccc3[nH]6)C=C5)C=C4)cc1)C2
REMARK SMILES IDX 21 1 20 2 18 3 19 4 17 6 12 7 13 8 16 9 14 10 75 11 15 12
REMARK SMILES IDX 10 13 9 14 11 16 8 17 7 18 3 19 4 20 5 21 6 22 2 23 1 24
REMARK SMILES IDX 22 25 23 26 24 27 25 28 26 30 27 31 28 32 74 33 29 34 73 35
REMARK SMILES IDX 30 36 31 37 32 38 67 39 33 40 72 41 66 42 68 43 34 44 71 45
REMARK SMILES IDX 65 46 64 47 35 49 57 50 42 51 56 52 43 53 46 54 55 55 69 56
REMARK SMILES IDX 44 57 45 58 54 60 70 61 47 62 36 63 37 64 41 65 38 66 40 67
REMARK SMILES IDX 39 68 58 69 59 70 63 71 60 72 62 73 61 74 48 75 49 76 53 77
REMARK SMILES IDX 50 78 52 79 51 80
REMARK H PARENT 20 5 9 15 24 29 68 48 46 59
REMARK Flexibility Score: inf
ROOT
ATOM      1  C   UNL A   1      32.934  28.793  24.093  1.00  0.00     0.117 C 
ENDROOT
BRANCH   1   2
ATOM      2  N   UNL A   1      33.174  28.080  22.858  1.00  0.00    -0.356 N 
ATOM      3  C   UNL A   1      33.301  26.767  22.559  1.00  0.00     0.225 C 
ATOM      4  O   UNL A   1      33.674  26.518  21.406  1.00  0.00    -0.275 OA
ATOM      5  H   UNL A   1      33.265  28.670  22.077  1.00  0.00     0.163 HD
BRANCH   3   6
ATOM      6  C   UNL A   1      33.029  25.617  23.512  1.00  0.00     0.103 C 
ATOM      7  N   UNL A   1      31.801  24.388  24.967  1.00  0.00    -0.318 N 
ATOM      8  C   UNL A   1      31.734  23.613  23.744  1.00  0.00     0.088 C 
ATOM      9  C   UNL A   1      31.782  25.729  24.416  1.00  0.00     0.099 C 
ATOM     10  C   UNL A   1      30.450  24.200  23.130  1.00  0.00     0.027 C 
ATOM     11  C   UNL A   1      32.993  24.145  23.037  1.00  0.00     0.040 C 
ATOM     12  C   UNL A   1      30.467  25.656  23.639  1.00  0.00     0.028 C 
BRANCH   7  13
ATOM     13  C   UNL A   1      31.437  24.048  26.223  1.00  0.00     0.318 C 
ATOM     14  N   UNL A   1      32.394  23.560  27.048  1.00  0.00    -0.333 N 
ATOM     15  H   UNL A   1      32.072  23.088  27.850  1.00  0.00     0.165 HD
ATOM     16  O   UNL A   1      30.300  24.222  26.655  1.00  0.00    -0.249 OA
BRANCH  14  17
ATOM     17  C   UNL A   1      33.827  23.646  26.897  1.00  0.00     0.165 C 
BRANCH  17  18
ATOM     18  C   UNL A   1      34.385  22.535  26.050  1.00  0.00     0.027 A 
ATOM     19  C   UNL A   1      35.558  22.548  25.303  1.00  0.00    -0.033 A 
ATOM     20  C   UNL A   1      35.819  21.252  24.738  1.00  0.00     0.016 A 
ATOM     21  C   UNL A   1      34.862  20.320  25.062  1.00  0.00     0.065 A 
ATOM     22  S   UNL A   1      33.653  20.978  26.062  1.00  0.00    -0.147 S 
BRANCH  19  23
ATOM     23  C   UNL A   1      36.477  23.734  25.163  1.00  0.00     0.033 C 
ATOM     24  C   UNL A   1      37.793  23.588  25.908  1.00  0.00     0.009 C 
ENDBRANCH  19  23
ENDBRANCH  17  18
ENDBRANCH  14  17
ENDBRANCH   7  13
ENDBRANCH   3   6
ENDBRANCH   1   2
BRANCH   1  25
ATOM     25  C   UNL A   1      34.064  28.575  25.083  1.00  0.00     0.042 C 
BRANCH  25  26
ATOM     26  C   UNL A   1      33.609  28.725  26.516  1.00  0.00     0.118 C 
BRANCH  26  27
ATOM     27  N   UNL A   1      33.535  30.122  26.917  1.00  0.00    -0.352 N 
ATOM     28  C   UNL A   1      34.368  30.840  27.741  1.00  0.00     0.251 C 
ATOM     29  H   UNL A   1      32.777  30.627  26.543  1.00  0.00     0.163 HD
ATOM     30  O   UNL A   1      34.018  31.941  28.152  1.00  0.00    -0.269 OA
BRANCH  28  31
ATOM     31  C   UNL A   1      35.673  30.274  28.146  1.00  0.00     0.039 A 
ATOM     32  C   UNL A   1      36.756  30.352  27.266  1.00  0.00     0.014 A 
ATOM     33  C   UNL A   1      35.830  29.662  29.391  1.00  0.00     0.014 A 
ATOM     34  C   UNL A   1      38.003  29.862  27.661  1.00  0.00     0.010 A 
ATOM     35  C   UNL A   1      37.094  29.302  29.833  1.00  0.00     0.010 A 
ATOM     36  C   UNL A   1      38.188  29.361  28.960  1.00  0.00    -0.014 A 
BRANCH  36  37
ATOM     37  C   UNL A   1      39.491  28.821  29.416  1.00  0.00     0.031 A 
ATOM     38  C   UNL A   1      40.347  29.645  30.341  1.00  0.00     0.074 A 
ATOM     39  C   UNL A   1      39.934  27.636  28.952  1.00  0.00     0.049 A 
ATOM     40  N   UNL A   1      41.560  29.411  30.775  1.00  0.00    -0.248 NA
ATOM     41  C   UNL A   1      39.783  30.923  30.811  1.00  0.00     0.031 C 
ATOM     42  C   UNL A   1      39.214  26.760  28.026  1.00  0.00     0.029 A 
ATOM     43  N   UNL A   1      41.107  26.969  29.196  1.00  0.00    -0.354 N 
ATOM     44  C   UNL A   1      41.906  30.521  31.537  1.00  0.00     0.074 A 
ATOM     45  C   UNL A   1      40.808  31.455  31.454  1.00  0.00     0.031 C 
ATOM     46  C   UNL A   1      39.946  25.657  27.805  1.00  0.00     0.029 A 
ATOM     47  C   UNL A   1      41.206  25.770  28.532  1.00  0.00     0.049 A 
ATOM     48  H   UNL A   1      41.813  27.316  29.789  1.00  0.00     0.167 HD
ATOM     49  C   UNL A   1      43.027  30.734  32.265  1.00  0.00     0.031 A 
ATOM     50  C   UNL A   1      42.206  24.869  28.507  1.00  0.00     0.031 A 
ATOM     51  C   UNL A   1      44.106  29.791  32.365  1.00  0.00     0.049 A 
ATOM     52  C   UNL A   1      43.448  25.132  29.314  1.00  0.00     0.074 A 
ATOM     53  C   UNL A   1      45.261  29.882  33.120  1.00  0.00     0.029 A 
ATOM     54  N   UNL A   1      44.158  28.581  31.690  1.00  0.00    -0.354 N 
ATOM     55  N   UNL A   1      43.734  26.158  30.078  1.00  0.00    -0.248 NA
ATOM     56  C   UNL A   1      44.500  24.108  29.263  1.00  0.00     0.031 C 
ATOM     57  C   UNL A   1      46.039  28.751  32.859  1.00  0.00     0.029 A 
ATOM     58  C   UNL A   1      45.337  27.925  31.994  1.00  0.00     0.049 A 
ATOM     59  H   UNL A   1      43.461  28.241  31.084  1.00  0.00     0.167 HD
ATOM     60  C   UNL A   1      44.980  25.885  30.629  1.00  0.00     0.074 A 
ATOM     61  C   UNL A   1      45.389  24.593  30.117  1.00  0.00     0.031 C 
ATOM     62  C   UNL A   1      45.718  26.634  31.485  1.00  0.00     0.031 A 
BRANCH  49  63
ATOM     63  C   UNL A   1      43.138  32.041  33.001  1.00  0.00    -0.014 A 
ATOM     64  C   UNL A   1      42.724  32.164  34.339  1.00  0.00     0.009 A 
ATOM     65  C   UNL A   1      43.689  33.159  32.359  1.00  0.00     0.009 A 
ATOM     66  C   UNL A   1      42.818  33.390  35.000  1.00  0.00     0.001 A 
ATOM     67  C   UNL A   1      43.814  34.376  33.032  1.00  0.00     0.001 A 
ATOM     68  C   UNL A   1      43.369  34.493  34.348  1.00  0.00     0.000 A 
ENDBRANCH  49  63
BRANCH  50  69
ATOM     69  C   UNL A   1      42.069  23.623  27.705  1.00  0.00    -0.014 A 
ATOM     70  C   UNL A   1      41.472  22.480  28.260  1.00  0.00     0.009 A 
ATOM     71  C   UNL A   1      42.540  23.566  26.384  1.00  0.00     0.009 A 
ATOM     72  C   UNL A   1      41.379  21.299  27.521  1.00  0.00     0.001 A 
ATOM     73  C   UNL A   1      42.416  22.393  25.636  1.00  0.00     0.001 A 
ATOM     74  C   UNL A   1      41.847  21.257  26.209  1.00  0.00     0.000 A 
ENDBRANCH  50  69
BRANCH  62  75
ATOM     75  C   UNL A   1      47.015  26.053  31.971  1.00  0.00    -0.014 A 
ATOM     76  C   UNL A   1      48.217  26.251  31.275  1.00  0.00     0.009 A 
ATOM     77  C   UNL A   1      47.039  25.349  33.186  1.00  0.00     0.009 A 
ATOM     78  C   UNL A   1      49.413  25.729  31.772  1.00  0.00     0.001 A 
ATOM     79  C   UNL A   1      48.240  24.857  33.697  1.00  0.00     0.001 A 
ATOM     80  C   UNL A   1      49.425  25.040  32.986  1.00  0.00     0.000 A 
ENDBRANCH  62  75
ENDBRANCH  36  37
ENDBRANCH  28  31
ENDBRANCH  26  27
ENDBRANCH  25  26
ENDBRANCH   1  25
TORSDOF 14
ENDMDL
