MODEL 1
REMARK VINA RESULT:     -10.8      0.000      0.000
REMARK SMILES CO[C@H](C(=O)NCCCNC(=O)c1ccc(-c2c3nc(c(-c4ccccc4)c4ccc([nH]4)c(-c4ccccc4)c4nc(c(-c5ccccc5)c5ccc2[nH]5)C=C4)C=C3)cc1)c1ccc2ccccc2c1
REMARK SMILES IDX 8 1 7 2 6 3 4 4 5 5 3 7 2 8 1 9 61 10 62 11 70 12 63 13
REMARK SMILES IDX 69 14 64 15 68 16 65 17 67 18 66 19 9 20 10 21 11 22 12 24
REMARK SMILES IDX 13 25 14 26 60 27 15 28 59 29 16 30 17 31 18 32 53 33 19 34
REMARK SMILES IDX 58 35 52 36 54 37 20 38 57 39 51 40 50 41 21 43 43 44 28 45
REMARK SMILES IDX 42 46 29 47 32 48 41 49 55 50 30 51 31 52 40 54 56 55 33 56
REMARK SMILES IDX 22 57 23 58 27 59 24 60 26 61 25 62 44 63 45 64 49 65 46 66
REMARK SMILES IDX 48 67 47 68 34 69 35 70 39 71 36 72 38 73 37 74
REMARK H PARENT 6 6 10 23 54 42 32 53
REMARK Flexibility Score: inf
ROOT
ATOM      1  C   UNL A   1      34.006  28.226  25.927  1.00  0.00     0.042 C 
ENDROOT
BRANCH   1   2
ATOM      2  C   UNL A   1      33.012  28.354  24.771  1.00  0.00     0.117 C 
BRANCH   2   3
ATOM      3  N   UNL A   1      33.487  27.699  23.561  1.00  0.00    -0.353 N 
ATOM      4  C   UNL A   1      33.523  26.403  23.140  1.00  0.00     0.253 C 
ATOM      5  O   UNL A   1      33.992  26.261  21.998  1.00  0.00    -0.272 OA
ATOM      6  H   UNL A   1      33.865  28.328  22.904  1.00  0.00     0.163 HD
BRANCH   4   7
ATOM      7  C   UNL A   1      32.979  25.157  23.909  1.00  0.00     0.236 C 
BRANCH   7   8
ATOM      8  O   UNL A   1      32.014  24.506  23.064  1.00  0.00    -0.367 OA
ATOM      9  C   UNL A   1      30.678  24.891  23.344  1.00  0.00     0.196 C 
ENDBRANCH   7   8
BRANCH   7  10
ATOM     10  C   UNL A   1      33.960  24.091  24.342  1.00  0.00    -0.009 A 
ATOM     11  C   UNL A   1      33.685  22.740  24.124  1.00  0.00     0.007 A 
ATOM     12  C   UNL A   1      35.166  24.435  24.977  1.00  0.00     0.015 A 
ATOM     13  C   UNL A   1      34.681  21.779  24.302  1.00  0.00     0.009 A 
ATOM     14  C   UNL A   1      36.154  23.467  25.230  1.00  0.00    -0.018 A 
ATOM     15  C   UNL A   1      35.937  22.138  24.804  1.00  0.00    -0.018 A 
ATOM     16  C   UNL A   1      37.365  23.788  25.865  1.00  0.00     0.009 A 
ATOM     17  C   UNL A   1      36.979  21.204  24.894  1.00  0.00     0.009 A 
ATOM     18  C   UNL A   1      38.375  22.832  25.998  1.00  0.00     0.001 A 
ATOM     19  C   UNL A   1      38.196  21.554  25.477  1.00  0.00     0.001 A 
ENDBRANCH   7  10
ENDBRANCH   4   7
ENDBRANCH   2   3
ENDBRANCH   1   2
BRANCH   1  20
ATOM     20  C   UNL A   1      33.449  28.566  27.302  1.00  0.00     0.118 C 
BRANCH  20  21
ATOM     21  N   UNL A   1      33.523  29.989  27.594  1.00  0.00    -0.352 N 
ATOM     22  C   UNL A   1      34.519  30.732  28.173  1.00  0.00     0.251 C 
ATOM     23  H   UNL A   1      32.725  30.503  27.334  1.00  0.00     0.163 HD
ATOM     24  O   UNL A   1      34.267  31.890  28.524  1.00  0.00    -0.269 OA
BRANCH  22  25
ATOM     25  C   UNL A   1      35.883  30.195  28.395  1.00  0.00     0.039 A 
ATOM     26  C   UNL A   1      36.201  29.664  29.653  1.00  0.00     0.014 A 
ATOM     27  C   UNL A   1      36.881  30.282  27.422  1.00  0.00     0.014 A 
ATOM     28  C   UNL A   1      37.491  29.189  29.917  1.00  0.00     0.010 A 
ATOM     29  C   UNL A   1      38.143  29.733  27.656  1.00  0.00     0.010 A 
ATOM     30  C   UNL A   1      38.469  29.200  28.912  1.00  0.00    -0.014 A 
BRANCH  30  31
ATOM     31  C   UNL A   1      39.853  28.712  29.159  1.00  0.00     0.031 A 
ATOM     32  C   UNL A   1      40.878  29.634  29.766  1.00  0.00     0.074 A 
ATOM     33  C   UNL A   1      40.215  27.473  28.775  1.00  0.00     0.049 A 
ATOM     34  N   UNL A   1      42.161  29.443  29.949  1.00  0.00    -0.248 NA
ATOM     35  C   UNL A   1      40.400  30.958  30.198  1.00  0.00     0.031 C 
ATOM     36  C   UNL A   1      39.332  26.484  28.155  1.00  0.00     0.029 A 
ATOM     37  N   UNL A   1      41.431  26.839  28.837  1.00  0.00    -0.354 N 
ATOM     38  C   UNL A   1      42.647  30.631  30.482  1.00  0.00     0.074 A 
ATOM     39  C   UNL A   1      41.531  31.550  30.554  1.00  0.00     0.031 C 
ATOM     40  C   UNL A   1      40.032  25.365  27.908  1.00  0.00     0.029 A 
ATOM     41  C   UNL A   1      41.420  25.571  28.310  1.00  0.00     0.049 A 
ATOM     42  H   UNL A   1      42.237  27.255  29.222  1.00  0.00     0.167 HD
ATOM     43  C   UNL A   1      43.903  30.930  30.890  1.00  0.00     0.031 A 
ATOM     44  C   UNL A   1      42.415  24.678  28.155  1.00  0.00     0.031 A 
ATOM     45  C   UNL A   1      45.011  30.013  30.841  1.00  0.00     0.049 A 
ATOM     46  C   UNL A   1      43.803  25.030  28.610  1.00  0.00     0.074 A 
ATOM     47  C   UNL A   1      46.309  30.203  31.283  1.00  0.00     0.029 A 
ATOM     48  N   UNL A   1      44.948  28.731  30.319  1.00  0.00    -0.354 N 
ATOM     49  N   UNL A   1      44.236  26.142  29.155  1.00  0.00    -0.248 NA
ATOM     50  C   UNL A   1      44.839  24.001  28.436  1.00  0.00     0.031 C 
ATOM     51  C   UNL A   1      47.043  29.049  30.988  1.00  0.00     0.029 A 
ATOM     52  C   UNL A   1      46.189  28.124  30.411  1.00  0.00     0.049 A 
ATOM     53  H   UNL A   1      44.140  28.314  29.940  1.00  0.00     0.167 HD
ATOM     54  C   UNL A   1      45.584  25.934  29.417  1.00  0.00     0.074 A 
ATOM     55  C   UNL A   1      45.895  24.589  28.980  1.00  0.00     0.031 C 
ATOM     56  C   UNL A   1      46.482  26.783  29.974  1.00  0.00     0.031 A 
BRANCH  43  57
ATOM     57  C   UNL A   1      44.145  32.321  31.414  1.00  0.00    -0.014 A 
ATOM     58  C   UNL A   1      44.592  33.352  30.571  1.00  0.00     0.009 A 
ATOM     59  C   UNL A   1      43.910  32.607  32.768  1.00  0.00     0.009 A 
ATOM     60  C   UNL A   1      44.845  34.625  31.084  1.00  0.00     0.001 A 
ATOM     61  C   UNL A   1      44.134  33.890  33.271  1.00  0.00     0.001 A 
ATOM     62  C   UNL A   1      44.614  34.894  32.431  1.00  0.00     0.000 A 
ENDBRANCH  43  57
BRANCH  44  63
ATOM     63  C   UNL A   1      42.128  23.351  27.550  1.00  0.00    -0.014 A 
ATOM     64  C   UNL A   1      42.446  23.100  26.206  1.00  0.00     0.009 A 
ATOM     65  C   UNL A   1      41.547  22.326  28.312  1.00  0.00     0.009 A 
ATOM     66  C   UNL A   1      42.172  21.856  25.634  1.00  0.00     0.001 A 
ATOM     67  C   UNL A   1      41.298  21.075  27.745  1.00  0.00     0.001 A 
ATOM     68  C   UNL A   1      41.603  20.843  26.404  1.00  0.00     0.000 A 
ENDBRANCH  44  63
BRANCH  56  69
ATOM     69  C   UNL A   1      47.879  26.270  30.182  1.00  0.00    -0.014 A 
ATOM     70  C   UNL A   1      48.831  26.301  29.151  1.00  0.00     0.009 A 
ATOM     71  C   UNL A   1      48.260  25.792  31.446  1.00  0.00     0.009 A 
ATOM     72  C   UNL A   1      50.128  25.837  29.375  1.00  0.00     0.001 A 
ATOM     73  C   UNL A   1      49.564  25.354  31.675  1.00  0.00     0.001 A 
ATOM     74  C   UNL A   1      50.496  25.369  30.637  1.00  0.00     0.000 A 
ENDBRANCH  56  69
ENDBRANCH  30  31
ENDBRANCH  22  25
ENDBRANCH  20  21
ENDBRANCH   1  20
TORSDOF 12
ENDMDL
MODEL 2
REMARK VINA RESULT:     -10.7      2.582      7.982
REMARK SMILES CO[C@H](C(=O)NCCCNC(=O)c1ccc(-c2c3nc(c(-c4ccccc4)c4ccc([nH]4)c(-c4ccccc4)c4nc(c(-c5ccccc5)c5ccc2[nH]5)C=C4)C=C3)cc1)c1ccc2ccccc2c1
REMARK SMILES IDX 8 1 7 2 6 3 4 4 5 5 3 7 2 8 1 9 61 10 62 11 70 12 63 13
REMARK SMILES IDX 69 14 64 15 68 16 65 17 67 18 66 19 9 20 10 21 11 22 12 24
REMARK SMILES IDX 13 25 14 26 60 27 15 28 59 29 16 30 17 31 18 32 53 33 19 34
REMARK SMILES IDX 58 35 52 36 54 37 20 38 57 39 51 40 50 41 21 43 43 44 28 45
REMARK SMILES IDX 42 46 29 47 32 48 41 49 55 50 30 51 31 52 40 54 56 55 33 56
REMARK SMILES IDX 22 57 23 58 27 59 24 60 26 61 25 62 44 63 45 64 49 65 46 66
REMARK SMILES IDX 48 67 47 68 34 69 35 70 39 71 36 72 38 73 37 74
REMARK H PARENT 6 6 10 23 54 42 32 53
REMARK Flexibility Score: inf
ROOT
ATOM      1  C   UNL A   1      35.933  23.699  26.106  1.00  0.00     0.042 C 
ENDROOT
BRANCH   1   2
ATOM      2  C   UNL A   1      34.867  22.603  26.049  1.00  0.00     0.117 C 
BRANCH   2   3
ATOM      3  N   UNL A   1      33.659  22.972  26.770  1.00  0.00    -0.353 N 
ATOM      4  C   UNL A   1      32.631  23.832  26.516  1.00  0.00     0.253 C 
ATOM      5  O   UNL A   1      31.752  23.834  27.395  1.00  0.00    -0.272 OA
ATOM      6  H   UNL A   1      33.562  22.500  27.629  1.00  0.00     0.163 HD
BRANCH   4   7
ATOM      7  C   UNL A   1      32.445  24.712  25.239  1.00  0.00     0.236 C 
BRANCH   7   8
ATOM      8  O   UNL A   1      31.191  24.351  24.636  1.00  0.00    -0.367 OA
ATOM      9  C   UNL A   1      31.325  23.373  23.617  1.00  0.00     0.196 C 
ENDBRANCH   7   8
BRANCH   7  10
ATOM     10  C   UNL A   1      32.430  26.216  25.394  1.00  0.00    -0.009 A 
ATOM     11  C   UNL A   1      31.403  26.979  24.837  1.00  0.00     0.007 A 
ATOM     12  C   UNL A   1      33.451  26.879  26.097  1.00  0.00     0.015 A 
ATOM     13  C   UNL A   1      31.257  28.324  25.177  1.00  0.00     0.009 A 
ATOM     14  C   UNL A   1      33.357  28.251  26.388  1.00  0.00    -0.018 A 
ATOM     15  C   UNL A   1      32.199  28.958  25.996  1.00  0.00    -0.018 A 
ATOM     16  C   UNL A   1      34.365  28.935  27.088  1.00  0.00     0.009 A 
ATOM     17  C   UNL A   1      32.015  30.279  26.428  1.00  0.00     0.009 A 
ATOM     18  C   UNL A   1      34.193  30.269  27.464  1.00  0.00     0.001 A 
ATOM     19  C   UNL A   1      33.002  30.927  27.169  1.00  0.00     0.001 A 
ENDBRANCH   7  10
ENDBRANCH   4   7
ENDBRANCH   2   3
ENDBRANCH   1   2
BRANCH   1  20
ATOM     20  C   UNL A   1      37.020  23.602  25.043  1.00  0.00     0.118 C 
BRANCH  20  21
ATOM     21  N   UNL A   1      38.096  22.704  25.430  1.00  0.00    -0.352 N 
ATOM     22  C   UNL A   1      39.270  22.949  26.096  1.00  0.00     0.251 C 
ATOM     23  H   UNL A   1      37.959  21.765  25.171  1.00  0.00     0.163 HD
ATOM     24  O   UNL A   1      40.135  22.067  26.114  1.00  0.00    -0.269 OA
BRANCH  22  25
ATOM     25  C   UNL A   1      39.536  24.233  26.788  1.00  0.00     0.039 A 
ATOM     26  C   UNL A   1      40.274  25.218  26.118  1.00  0.00     0.014 A 
ATOM     27  C   UNL A   1      39.153  24.454  28.112  1.00  0.00     0.014 A 
ATOM     28  C   UNL A   1      40.586  26.426  26.753  1.00  0.00     0.010 A 
ATOM     29  C   UNL A   1      39.390  25.689  28.717  1.00  0.00     0.010 A 
ATOM     30  C   UNL A   1      40.129  26.680  28.054  1.00  0.00    -0.014 A 
BRANCH  30  31
ATOM     31  C   UNL A   1      40.448  27.948  28.764  1.00  0.00     0.031 A 
ATOM     32  C   UNL A   1      41.770  28.101  29.469  1.00  0.00     0.074 A 
ATOM     33  C   UNL A   1      39.534  28.933  28.841  1.00  0.00     0.049 A 
ATOM     34  N   UNL A   1      42.191  29.071  30.243  1.00  0.00    -0.248 NA
ATOM     35  C   UNL A   1      42.736  27.001  29.307  1.00  0.00     0.031 C 
ATOM     36  C   UNL A   1      38.206  28.910  28.225  1.00  0.00     0.029 A 
ATOM     37  N   UNL A   1      39.578  30.144  29.488  1.00  0.00    -0.354 N 
ATOM     38  C   UNL A   1      43.450  28.683  30.685  1.00  0.00     0.074 A 
ATOM     39  C   UNL A   1      43.707  27.372  30.128  1.00  0.00     0.031 C 
ATOM     40  C   UNL A   1      37.569  30.057  28.511  1.00  0.00     0.029 A 
ATOM     41  C   UNL A   1      38.423  30.877  29.365  1.00  0.00     0.049 A 
ATOM     42  H   UNL A   1      40.363  30.456  29.994  1.00  0.00     0.167 HD
ATOM     43  C   UNL A   1      44.323  29.358  31.470  1.00  0.00     0.031 A 
ATOM     44  C   UNL A   1      38.083  32.069  29.890  1.00  0.00     0.031 A 
ATOM     45  C   UNL A   1      44.082  30.671  32.007  1.00  0.00     0.049 A 
ATOM     46  C   UNL A   1      39.064  32.801  30.762  1.00  0.00     0.074 A 
ATOM     47  C   UNL A   1      44.926  31.462  32.766  1.00  0.00     0.029 A 
ATOM     48  N   UNL A   1      42.906  31.386  31.838  1.00  0.00    -0.354 N 
ATOM     49  N   UNL A   1      40.269  32.440  31.132  1.00  0.00    -0.248 NA
ATOM     50  C   UNL A   1      38.640  34.109  31.282  1.00  0.00     0.031 C 
ATOM     51  C   UNL A   1      44.244  32.638  33.094  1.00  0.00     0.029 A 
ATOM     52  C   UNL A   1      42.996  32.601  32.494  1.00  0.00     0.049 A 
ATOM     53  H   UNL A   1      42.124  31.074  31.327  1.00  0.00     0.167 HD
ATOM     54  C   UNL A   1      40.758  33.488  31.901  1.00  0.00     0.074 A 
ATOM     55  C   UNL A   1      39.724  34.501  31.937  1.00  0.00     0.031 C 
ATOM     56  C   UNL A   1      41.959  33.601  32.518  1.00  0.00     0.031 A 
BRANCH  43  57
ATOM     57  C   UNL A   1      45.621  28.673  31.805  1.00  0.00    -0.014 A 
ATOM     58  C   UNL A   1      45.755  27.889  32.963  1.00  0.00     0.009 A 
ATOM     59  C   UNL A   1      46.722  28.804  30.944  1.00  0.00     0.009 A 
ATOM     60  C   UNL A   1      46.978  27.292  33.275  1.00  0.00     0.001 A 
ATOM     61  C   UNL A   1      47.935  28.179  31.243  1.00  0.00     0.001 A 
ATOM     62  C   UNL A   1      48.065  27.434  32.415  1.00  0.00     0.000 A 
ENDBRANCH  43  57
BRANCH  44  63
ATOM     63  C   UNL A   1      36.750  32.654  29.590  1.00  0.00    -0.014 A 
ATOM     64  C   UNL A   1      35.684  32.488  30.489  1.00  0.00     0.009 A 
ATOM     65  C   UNL A   1      36.537  33.388  28.413  1.00  0.00     0.009 A 
ATOM     66  C   UNL A   1      34.429  33.031  30.206  1.00  0.00     0.001 A 
ATOM     67  C   UNL A   1      35.288  33.952  28.146  1.00  0.00     0.001 A 
ATOM     68  C   UNL A   1      34.233  33.767  29.038  1.00  0.00     0.000 A 
ENDBRANCH  44  63
BRANCH  56  69
ATOM     69  C   UNL A   1      42.239  34.881  33.253  1.00  0.00    -0.014 A 
ATOM     70  C   UNL A   1      41.763  35.097  34.555  1.00  0.00     0.009 A 
ATOM     71  C   UNL A   1      43.035  35.867  32.646  1.00  0.00     0.009 A 
ATOM     72  C   UNL A   1      42.055  36.288  35.224  1.00  0.00     0.001 A 
ATOM     73  C   UNL A   1      43.347  37.044  33.327  1.00  0.00     0.001 A 
ATOM     74  C   UNL A   1      42.850  37.257  34.612  1.00  0.00     0.000 A 
ENDBRANCH  56  69
ENDBRANCH  30  31
ENDBRANCH  22  25
ENDBRANCH  20  21
ENDBRANCH   1  20
TORSDOF 12
ENDMDL
MODEL 3
REMARK VINA RESULT:     -10.6      1.000      1.576
REMARK SMILES CO[C@H](C(=O)NCCCNC(=O)c1ccc(-c2c3nc(c(-c4ccccc4)c4ccc([nH]4)c(-c4ccccc4)c4nc(c(-c5ccccc5)c5ccc2[nH]5)C=C4)C=C3)cc1)c1ccc2ccccc2c1
REMARK SMILES IDX 8 1 7 2 6 3 4 4 5 5 3 7 2 8 1 9 61 10 62 11 70 12 63 13
REMARK SMILES IDX 69 14 64 15 68 16 65 17 67 18 66 19 9 20 10 21 11 22 12 24
REMARK SMILES IDX 13 25 14 26 60 27 15 28 59 29 16 30 17 31 18 32 53 33 19 34
REMARK SMILES IDX 58 35 52 36 54 37 20 38 57 39 51 40 50 41 21 43 43 44 28 45
REMARK SMILES IDX 42 46 29 47 32 48 41 49 55 50 30 51 31 52 40 54 56 55 33 56
REMARK SMILES IDX 22 57 23 58 27 59 24 60 26 61 25 62 44 63 45 64 49 65 46 66
REMARK SMILES IDX 48 67 47 68 34 69 35 70 39 71 36 72 38 73 37 74
REMARK H PARENT 6 6 10 23 54 42 32 53
REMARK Flexibility Score: inf
ROOT
ATOM      1  C   UNL A   1      31.990  27.975  27.270  1.00  0.00     0.042 C 
ENDROOT
BRANCH   1   2
ATOM      2  C   UNL A   1      31.693  26.902  26.221  1.00  0.00     0.117 C 
BRANCH   2   3
ATOM      3  N   UNL A   1      31.292  25.639  26.824  1.00  0.00    -0.353 N 
ATOM      4  C   UNL A   1      31.398  24.334  26.444  1.00  0.00     0.253 C 
ATOM      5  O   UNL A   1      30.947  23.532  27.279  1.00  0.00    -0.272 OA
ATOM      6  H   UNL A   1      30.848  25.752  27.696  1.00  0.00     0.163 HD
BRANCH   4   7
ATOM      7  C   UNL A   1      32.075  23.793  25.145  1.00  0.00     0.236 C 
BRANCH   7   8
ATOM      8  O   UNL A   1      31.745  24.690  24.071  1.00  0.00    -0.367 OA
ATOM      9  C   UNL A   1      30.552  24.332  23.393  1.00  0.00     0.196 C 
ENDBRANCH   7   8
BRANCH   7  10
ATOM     10  C   UNL A   1      33.579  23.635  25.126  1.00  0.00    -0.009 A 
ATOM     11  C   UNL A   1      34.412  24.733  25.343  1.00  0.00     0.007 A 
ATOM     12  C   UNL A   1      34.170  22.382  24.886  1.00  0.00     0.015 A 
ATOM     13  C   UNL A   1      35.778  24.550  25.562  1.00  0.00     0.009 A 
ATOM     14  C   UNL A   1      35.555  22.194  25.032  1.00  0.00    -0.018 A 
ATOM     15  C   UNL A   1      36.353  23.278  25.463  1.00  0.00    -0.018 A 
ATOM     16  C   UNL A   1      36.168  20.953  24.796  1.00  0.00     0.009 A 
ATOM     17  C   UNL A   1      37.702  23.062  25.777  1.00  0.00     0.009 A 
ATOM     18  C   UNL A   1      37.526  20.765  25.061  1.00  0.00     0.001 A 
ATOM     19  C   UNL A   1      38.282  21.808  25.589  1.00  0.00     0.001 A 
ENDBRANCH   7  10
ENDBRANCH   4   7
ENDBRANCH   2   3
ENDBRANCH   1   2
BRANCH   1  20
ATOM     20  C   UNL A   1      33.415  28.514  27.260  1.00  0.00     0.118 C 
BRANCH  20  21
ATOM     21  N   UNL A   1      33.474  29.932  27.577  1.00  0.00    -0.352 N 
ATOM     22  C   UNL A   1      34.463  30.676  28.167  1.00  0.00     0.251 C 
ATOM     23  H   UNL A   1      32.670  30.442  27.327  1.00  0.00     0.163 HD
ATOM     24  O   UNL A   1      34.199  31.825  28.539  1.00  0.00    -0.269 OA
BRANCH  22  25
ATOM     25  C   UNL A   1      35.833  30.150  28.377  1.00  0.00     0.039 A 
ATOM     26  C   UNL A   1      36.185  29.675  29.647  1.00  0.00     0.014 A 
ATOM     27  C   UNL A   1      36.806  30.195  27.375  1.00  0.00     0.014 A 
ATOM     28  C   UNL A   1      37.482  29.212  29.899  1.00  0.00     0.010 A 
ATOM     29  C   UNL A   1      38.074  29.657  27.599  1.00  0.00     0.010 A 
ATOM     30  C   UNL A   1      38.434  29.180  28.869  1.00  0.00    -0.014 A 
BRANCH  30  31
ATOM     31  C   UNL A   1      39.824  28.704  29.101  1.00  0.00     0.031 A 
ATOM     32  C   UNL A   1      40.853  29.641  29.677  1.00  0.00     0.074 A 
ATOM     33  C   UNL A   1      40.188  27.462  28.730  1.00  0.00     0.049 A 
ATOM     34  N   UNL A   1      42.140  29.462  29.841  1.00  0.00    -0.248 NA
ATOM     35  C   UNL A   1      40.375  30.969  30.095  1.00  0.00     0.031 C 
ATOM     36  C   UNL A   1      39.301  26.457  28.140  1.00  0.00     0.029 A 
ATOM     37  N   UNL A   1      41.409  26.836  28.783  1.00  0.00    -0.354 N 
ATOM     38  C   UNL A   1      42.627  30.660  30.348  1.00  0.00     0.074 A 
ATOM     39  C   UNL A   1      41.507  31.573  30.423  1.00  0.00     0.031 C 
ATOM     40  C   UNL A   1      40.004  25.339  27.899  1.00  0.00     0.029 A 
ATOM     41  C   UNL A   1      41.397  25.560  28.276  1.00  0.00     0.049 A 
ATOM     42  H   UNL A   1      42.218  27.263  29.148  1.00  0.00     0.167 HD
ATOM     43  C   UNL A   1      43.888  30.974  30.731  1.00  0.00     0.031 A 
ATOM     44  C   UNL A   1      42.395  24.670  28.118  1.00  0.00     0.031 A 
ATOM     45  C   UNL A   1      45.001  30.063  30.678  1.00  0.00     0.049 A 
ATOM     46  C   UNL A   1      43.788  25.038  28.545  1.00  0.00     0.074 A 
ATOM     47  C   UNL A   1      46.304  30.267  31.096  1.00  0.00     0.029 A 
ATOM     48  N   UNL A   1      44.937  28.772  30.177  1.00  0.00    -0.354 N 
ATOM     49  N   UNL A   1      44.223  26.160  29.066  1.00  0.00    -0.248 NA
ATOM     50  C   UNL A   1      44.827  24.012  28.371  1.00  0.00     0.031 C 
ATOM     51  C   UNL A   1      47.041  29.113  30.806  1.00  0.00     0.029 A 
ATOM     52  C   UNL A   1      46.183  28.173  30.258  1.00  0.00     0.049 A 
ATOM     53  H   UNL A   1      44.126  28.344  29.818  1.00  0.00     0.167 HD
ATOM     54  C   UNL A   1      45.576  25.965  29.309  1.00  0.00     0.074 A 
ATOM     55  C   UNL A   1      45.888  24.615  28.888  1.00  0.00     0.031 C 
ATOM     56  C   UNL A   1      46.478  26.828  29.838  1.00  0.00     0.031 A 
BRANCH  43  57
ATOM     57  C   UNL A   1      44.130  32.373  31.228  1.00  0.00    -0.014 A 
ATOM     58  C   UNL A   1      44.490  33.409  30.350  1.00  0.00     0.009 A 
ATOM     59  C   UNL A   1      43.984  32.663  32.594  1.00  0.00     0.009 A 
ATOM     60  C   UNL A   1      44.745  34.693  30.837  1.00  0.00     0.001 A 
ATOM     61  C   UNL A   1      44.209  33.955  33.073  1.00  0.00     0.001 A 
ATOM     62  C   UNL A   1      44.602  34.966  32.196  1.00  0.00     0.000 A 
ENDBRANCH  43  57
BRANCH  44  63
ATOM     63  C   UNL A   1      42.107  23.332  27.539  1.00  0.00    -0.014 A 
ATOM     64  C   UNL A   1      42.406  23.061  26.195  1.00  0.00     0.009 A 
ATOM     65  C   UNL A   1      41.542  22.316  28.326  1.00  0.00     0.009 A 
ATOM     66  C   UNL A   1      42.130  21.807  25.647  1.00  0.00     0.001 A 
ATOM     67  C   UNL A   1      41.292  21.055  27.783  1.00  0.00     0.001 A 
ATOM     68  C   UNL A   1      41.578  20.803  26.442  1.00  0.00     0.000 A 
ENDBRANCH  44  63
BRANCH  56  69
ATOM     69  C   UNL A   1      47.881  26.326  30.030  1.00  0.00    -0.014 A 
ATOM     70  C   UNL A   1      48.309  25.805  31.262  1.00  0.00     0.009 A 
ATOM     71  C   UNL A   1      48.772  26.330  28.945  1.00  0.00     0.009 A 
ATOM     72  C   UNL A   1      49.613  25.326  31.409  1.00  0.00     0.001 A 
ATOM     73  C   UNL A   1      50.065  25.825  29.088  1.00  0.00     0.001 A 
ATOM     74  C   UNL A   1      50.487  25.331  30.322  1.00  0.00     0.000 A 
ENDBRANCH  56  69
ENDBRANCH  30  31
ENDBRANCH  22  25
ENDBRANCH  20  21
ENDBRANCH   1  20
TORSDOF 12
ENDMDL
