MODEL 1
REMARK VINA RESULT:     -11.3      0.000      0.000
REMARK SMILES CC(C)(C)c1csc(C[C@H](C(=O)NCCCNC(=O)c2ccc(-c3c4nc(c(-c5ccccc5)c5ccc([nH]5)c(-c5ccccc5)c5nc(c(-c6ccccc6)c6ccc3[nH]6)C=C5)C=C4)cc2)c2ccccc2Cl)n1
REMARK SMILES IDX 14 1 13 2 11 3 12 4 10 6 9 7 8 8 5 9 6 10 75 11 7 12 2 13
REMARK SMILES IDX 1 14 3 15 4 16 68 17 69 18 73 19 70 20 72 21 74 22 71 23
REMARK SMILES IDX 15 24 16 25 17 26 18 27 19 29 20 30 21 31 67 32 22 33 66 34
REMARK SMILES IDX 23 35 24 36 25 37 60 38 26 39 65 40 59 41 61 42 27 43 64 44
REMARK SMILES IDX 58 45 57 46 28 48 50 49 35 50 49 51 36 52 39 53 48 54 62 55
REMARK SMILES IDX 37 56 38 57 47 59 63 60 40 61 29 62 30 63 34 64 31 65 33 66
REMARK SMILES IDX 32 67 51 68 52 69 56 70 53 71 55 72 54 73 41 74 42 75 46 76
REMARK SMILES IDX 43 77 45 78 44 79
REMARK H PARENT 13 5 17 28 61 47 39 58
REMARK Flexibility Score: inf
ROOT
ATOM      1  C   UNL A   1      33.672  27.112  25.478  1.00  0.00     0.117 C 
ENDROOT
BRANCH   1   2
ATOM      2  N   UNL A   1      32.478  26.554  26.075  1.00  0.00    -0.355 N 
ATOM      3  C   UNL A   1      31.203  26.425  25.608  1.00  0.00     0.228 C 
ATOM      4  O   UNL A   1      30.366  26.222  26.484  1.00  0.00    -0.274 OA
ATOM      5  H   UNL A   1      32.610  26.203  26.986  1.00  0.00     0.163 HD
BRANCH   3   6
ATOM      6  C   UNL A   1      30.941  26.418  24.100  1.00  0.00     0.117 C 
BRANCH   6   7
ATOM      7  C   UNL A   1      30.571  25.018  23.571  1.00  0.00     0.086 C 
BRANCH   7   8
ATOM      8  C   UNL A   1      31.714  24.056  23.482  1.00  0.00     0.094 A 
ATOM      9  C   UNL A   1      33.039  22.334  23.939  1.00  0.00     0.057 A 
ATOM     10  C   UNL A   1      33.798  22.956  22.964  1.00  0.00     0.091 A 
ATOM     11  N   UNL A   1      31.834  22.973  24.214  1.00  0.00    -0.246 NA
ATOM     12  S   UNL A   1      32.950  24.283  22.304  1.00  0.00    -0.127 S 
BRANCH   9  13
ATOM     13  C   UNL A   1      33.364  21.062  24.702  1.00  0.00     0.005 C 
ATOM     14  C   UNL A   1      34.874  20.746  24.689  1.00  0.00     0.017 C 
ATOM     15  C   UNL A   1      32.622  19.878  24.049  1.00  0.00     0.017 C 
ATOM     16  C   UNL A   1      32.913  21.193  26.168  1.00  0.00     0.017 C 
ENDBRANCH   9  13
ENDBRANCH   7   8
ENDBRANCH   6   7
BRANCH   6  17
ATOM     17  C   UNL A   1      30.152  27.567  23.461  1.00  0.00    -0.016 A 
ATOM     18  C   UNL A   1      28.741  27.491  23.622  1.00  0.00     0.006 A 
ATOM     19  C   UNL A   1      30.643  28.680  22.761  1.00  0.00     0.045 A 
ATOM     20  C   UNL A   1      27.868  28.412  23.042  1.00  0.00     0.000 A 
ATOM     21  C   UNL A   1      29.757  29.576  22.134  1.00  0.00     0.021 A 
ATOM     22  Cl  UNL A   1      32.301  29.130  22.666  1.00  0.00    -0.084 Cl
ATOM     23  C   UNL A   1      28.377  29.439  22.264  1.00  0.00     0.002 A 
ENDBRANCH   6  17
ENDBRANCH   3   6
ENDBRANCH   1   2
BRANCH   1  24
ATOM     24  C   UNL A   1      33.876  28.549  25.946  1.00  0.00     0.042 C 
BRANCH  24  25
ATOM     25  C   UNL A   1      33.515  28.782  27.413  1.00  0.00     0.118 C 
BRANCH  25  26
ATOM     26  N   UNL A   1      33.580  30.186  27.799  1.00  0.00    -0.352 N 
ATOM     27  C   UNL A   1      34.603  30.889  28.387  1.00  0.00     0.251 C 
ATOM     28  H   UNL A   1      32.769  30.709  27.610  1.00  0.00     0.163 HD
ATOM     29  O   UNL A   1      34.414  32.031  28.787  1.00  0.00    -0.269 OA
BRANCH  27  30
ATOM     30  C   UNL A   1      35.925  30.253  28.563  1.00  0.00     0.039 A 
ATOM     31  C   UNL A   1      36.833  30.284  27.502  1.00  0.00     0.014 A 
ATOM     32  C   UNL A   1      36.272  29.639  29.769  1.00  0.00     0.014 A 
ATOM     33  C   UNL A   1      38.117  29.766  27.676  1.00  0.00     0.010 A 
ATOM     34  C   UNL A   1      37.576  29.199  29.968  1.00  0.00     0.010 A 
ATOM     35  C   UNL A   1      38.513  29.259  28.924  1.00  0.00    -0.014 A 
BRANCH  35  36
ATOM     36  C   UNL A   1      39.905  28.805  29.163  1.00  0.00     0.031 A 
ATOM     37  C   UNL A   1      40.903  29.721  29.814  1.00  0.00     0.074 A 
ATOM     38  C   UNL A   1      40.290  27.589  28.732  1.00  0.00     0.049 A 
ATOM     39  N   UNL A   1      42.171  29.513  30.068  1.00  0.00    -0.248 NA
ATOM     40  C   UNL A   1      40.420  31.053  30.208  1.00  0.00     0.031 C 
ATOM     41  C   UNL A   1      39.428  26.616  28.056  1.00  0.00     0.029 A 
ATOM     42  N   UNL A   1      41.510  26.964  28.797  1.00  0.00    -0.354 N 
ATOM     43  C   UNL A   1      42.638  30.693  30.635  1.00  0.00     0.074 A 
ATOM     44  C   UNL A   1      41.534  31.627  30.633  1.00  0.00     0.031 C 
ATOM     45  C   UNL A   1      40.134  25.502  27.811  1.00  0.00     0.029 A 
ATOM     46  C   UNL A   1      41.508  25.698  28.264  1.00  0.00     0.049 A 
ATOM     47  H   UNL A   1      42.311  27.382  29.190  1.00  0.00     0.167 HD
ATOM     48  C   UNL A   1      43.869  30.969  31.127  1.00  0.00     0.031 A 
ATOM     49  C   UNL A   1      42.500  24.796  28.150  1.00  0.00     0.031 A 
ATOM     50  C   UNL A   1      44.971  30.042  31.120  1.00  0.00     0.049 A 
ATOM     51  C   UNL A   1      43.870  25.139  28.661  1.00  0.00     0.074 A 
ATOM     52  C   UNL A   1      46.241  30.206  31.644  1.00  0.00     0.029 A 
ATOM     53  N   UNL A   1      44.935  28.781  30.543  1.00  0.00    -0.354 N 
ATOM     54  N   UNL A   1      44.278  26.231  29.261  1.00  0.00    -0.248 NA
ATOM     55  C   UNL A   1      44.913  24.121  28.483  1.00  0.00     0.031 C 
ATOM     56  C   UNL A   1      46.993  29.070  31.327  1.00  0.00     0.029 A 
ATOM     57  C   UNL A   1      46.172  28.170  30.665  1.00  0.00     0.049 A 
ATOM     58  H   UNL A   1      44.147  28.379  30.111  1.00  0.00     0.167 HD
ATOM     59  C   UNL A   1      45.618  26.021  29.559  1.00  0.00     0.074 A 
ATOM     60  C   UNL A   1      45.948  24.692  29.085  1.00  0.00     0.031 C 
ATOM     61  C   UNL A   1      46.494  26.852  30.178  1.00  0.00     0.031 A 
BRANCH  48  62
ATOM     62  C   UNL A   1      44.086  32.349  31.691  1.00  0.00    -0.014 A 
ATOM     63  C   UNL A   1      43.842  32.636  33.045  1.00  0.00     0.009 A 
ATOM     64  C   UNL A   1      44.534  33.382  30.852  1.00  0.00     0.009 A 
ATOM     65  C   UNL A   1      43.983  33.937  33.530  1.00  0.00     0.001 A 
ATOM     66  C   UNL A   1      44.709  34.674  31.349  1.00  0.00     0.001 A 
ATOM     67  C   UNL A   1      44.417  34.955  32.683  1.00  0.00     0.000 A 
ENDBRANCH  48  62
BRANCH  49  68
ATOM     68  C   UNL A   1      42.219  23.462  27.559  1.00  0.00    -0.014 A 
ATOM     69  C   UNL A   1      41.651  22.447  28.345  1.00  0.00     0.009 A 
ATOM     70  C   UNL A   1      42.492  23.200  26.208  1.00  0.00     0.009 A 
ATOM     71  C   UNL A   1      41.377  21.194  27.795  1.00  0.00     0.001 A 
ATOM     72  C   UNL A   1      42.191  21.954  25.653  1.00  0.00     0.001 A 
ATOM     73  C   UNL A   1      41.640  20.951  26.448  1.00  0.00     0.000 A 
ENDBRANCH  49  68
BRANCH  61  74
ATOM     74  C   UNL A   1      47.889  26.337  30.403  1.00  0.00    -0.014 A 
ATOM     75  C   UNL A   1      48.271  25.765  31.628  1.00  0.00     0.009 A 
ATOM     76  C   UNL A   1      48.825  26.391  29.359  1.00  0.00     0.009 A 
ATOM     77  C   UNL A   1      49.571  25.290  31.810  1.00  0.00     0.001 A 
ATOM     78  C   UNL A   1      50.114  25.885  29.533  1.00  0.00     0.001 A 
ATOM     79  C   UNL A   1      50.489  25.345  30.762  1.00  0.00     0.000 A 
ENDBRANCH  61  74
ENDBRANCH  35  36
ENDBRANCH  27  30
ENDBRANCH  25  26
ENDBRANCH  24  25
ENDBRANCH   1  24
TORSDOF 14
ENDMDL
MODEL 2
REMARK VINA RESULT:     -11.1      2.523      7.879
REMARK SMILES CC(C)(C)c1csc(C[C@H](C(=O)NCCCNC(=O)c2ccc(-c3c4nc(c(-c5ccccc5)c5ccc([nH]5)c(-c5ccccc5)c5nc(c(-c6ccccc6)c6ccc3[nH]6)C=C5)C=C4)cc2)c2ccccc2Cl)n1
REMARK SMILES IDX 14 1 13 2 11 3 12 4 10 6 9 7 8 8 5 9 6 10 75 11 7 12 2 13
REMARK SMILES IDX 1 14 3 15 4 16 68 17 69 18 73 19 70 20 72 21 74 22 71 23
REMARK SMILES IDX 15 24 16 25 17 26 18 27 19 29 20 30 21 31 67 32 22 33 66 34
REMARK SMILES IDX 23 35 24 36 25 37 60 38 26 39 65 40 59 41 61 42 27 43 64 44
REMARK SMILES IDX 58 45 57 46 28 48 50 49 35 50 49 51 36 52 39 53 48 54 62 55
REMARK SMILES IDX 37 56 38 57 47 59 63 60 40 61 29 62 30 63 34 64 31 65 33 66
REMARK SMILES IDX 32 67 51 68 52 69 56 70 53 71 55 72 54 73 41 74 42 75 46 76
REMARK SMILES IDX 43 77 45 78 44 79
REMARK H PARENT 13 5 17 28 61 47 39 58
REMARK Flexibility Score: inf
ROOT
ATOM      1  C   UNL A   1      36.489  21.009  24.796  1.00  0.00     0.117 C 
ENDROOT
BRANCH   1   2
ATOM      2  N   UNL A   1      35.645  21.003  25.972  1.00  0.00    -0.355 N 
ATOM      3  C   UNL A   1      34.333  21.329  26.151  1.00  0.00     0.228 C 
ATOM      4  O   UNL A   1      34.022  21.538  27.321  1.00  0.00    -0.274 OA
ATOM      5  H   UNL A   1      36.102  20.709  26.794  1.00  0.00     0.163 HD
BRANCH   3   6
ATOM      6  C   UNL A   1      33.369  21.291  24.961  1.00  0.00     0.117 C 
BRANCH   6   7
ATOM      7  C   UNL A   1      33.577  22.476  23.996  1.00  0.00     0.086 C 
BRANCH   7   8
ATOM      8  C   UNL A   1      32.841  23.725  24.365  1.00  0.00     0.094 A 
ATOM      9  C   UNL A   1      32.445  25.860  24.831  1.00  0.00     0.057 A 
ATOM     10  C   UNL A   1      31.206  25.325  25.132  1.00  0.00     0.091 A 
ATOM     11  N   UNL A   1      33.371  24.926  24.376  1.00  0.00    -0.246 NA
ATOM     12  S   UNL A   1      31.159  23.666  24.735  1.00  0.00    -0.127 S 
BRANCH   9  13
ATOM     13  C   UNL A   1      32.881  27.312  24.925  1.00  0.00     0.005 C 
ATOM     14  C   UNL A   1      33.701  27.753  23.695  1.00  0.00     0.017 C 
ATOM     15  C   UNL A   1      33.761  27.495  26.178  1.00  0.00     0.017 C 
ATOM     16  C   UNL A   1      31.650  28.229  25.036  1.00  0.00     0.017 C 
ENDBRANCH   9  13
ENDBRANCH   7   8
ENDBRANCH   6   7
BRANCH   6  17
ATOM     17  C   UNL A   1      33.067  19.955  24.272  1.00  0.00    -0.016 A 
ATOM     18  C   UNL A   1      33.409  18.798  25.025  1.00  0.00     0.006 A 
ATOM     19  C   UNL A   1      32.486  19.734  23.013  1.00  0.00     0.045 A 
ATOM     20  C   UNL A   1      33.270  17.506  24.519  1.00  0.00     0.000 A 
ATOM     21  C   UNL A   1      32.398  18.432  22.488  1.00  0.00     0.021 A 
ATOM     22  Cl  UNL A   1      31.753  20.950  22.041  1.00  0.00    -0.084 Cl
ATOM     23  C   UNL A   1      32.796  17.323  23.231  1.00  0.00     0.002 A 
ENDBRANCH   6  17
ENDBRANCH   3   6
ENDBRANCH   1   2
BRANCH   1  24
ATOM     24  C   UNL A   1      37.588  19.959  24.928  1.00  0.00     0.042 C 
BRANCH  24  25
ATOM     25  C   UNL A   1      38.811  20.436  25.711  1.00  0.00     0.118 C 
BRANCH  25  26
ATOM     26  N   UNL A   1      39.879  19.445  25.757  1.00  0.00    -0.352 N 
ATOM     27  C   UNL A   1      41.206  19.597  26.080  1.00  0.00     0.251 C 
ATOM     28  H   UNL A   1      39.609  18.529  25.521  1.00  0.00     0.163 HD
ATOM     29  O   UNL A   1      41.991  18.674  25.905  1.00  0.00    -0.269 OA
BRANCH  27  30
ATOM     30  C   UNL A   1      41.688  20.887  26.612  1.00  0.00     0.039 A 
ATOM     31  C   UNL A   1      42.174  21.844  25.719  1.00  0.00     0.014 A 
ATOM     32  C   UNL A   1      41.653  21.157  27.983  1.00  0.00     0.014 A 
ATOM     33  C   UNL A   1      42.554  23.101  26.192  1.00  0.00     0.010 A 
ATOM     34  C   UNL A   1      41.953  22.435  28.442  1.00  0.00     0.010 A 
ATOM     35  C   UNL A   1      42.405  23.421  27.551  1.00  0.00    -0.014 A 
BRANCH  35  36
ATOM     36  C   UNL A   1      42.698  24.785  28.056  1.00  0.00     0.031 A 
ATOM     37  C   UNL A   1      44.098  25.170  28.441  1.00  0.00     0.074 A 
ATOM     38  C   UNL A   1      41.687  25.658  28.234  1.00  0.00     0.049 A 
ATOM     39  N   UNL A   1      44.537  26.299  28.938  1.00  0.00    -0.248 NA
ATOM     40  C   UNL A   1      45.137  24.143  28.269  1.00  0.00     0.031 C 
ATOM     41  C   UNL A   1      40.279  25.398  27.930  1.00  0.00     0.029 A 
ATOM     42  N   UNL A   1      41.693  26.943  28.714  1.00  0.00    -0.354 N 
ATOM     43  C   UNL A   1      45.897  26.112  29.152  1.00  0.00     0.074 A 
ATOM     44  C   UNL A   1      46.196  24.745  28.788  1.00  0.00     0.031 C 
ATOM     45  C   UNL A   1      39.563  26.504  28.189  1.00  0.00     0.029 A 
ATOM     46  C   UNL A   1      40.452  27.532  28.723  1.00  0.00     0.049 A 
ATOM     47  H   UNL A   1      42.509  27.401  29.023  1.00  0.00     0.167 HD
ATOM     48  C   UNL A   1      46.817  27.001  29.598  1.00  0.00     0.031 A 
ATOM     49  C   UNL A   1      40.070  28.760  29.118  1.00  0.00     0.031 A 
ATOM     50  C   UNL A   1      46.516  28.359  29.970  1.00  0.00     0.049 A 
ATOM     51  C   UNL A   1      41.099  29.715  29.652  1.00  0.00     0.074 A 
ATOM     52  C   UNL A   1      47.386  29.354  30.380  1.00  0.00     0.029 A 
ATOM     53  N   UNL A   1      45.242  28.906  29.993  1.00  0.00    -0.354 N 
ATOM     54  N   UNL A   1      42.392  29.549  29.781  1.00  0.00    -0.248 NA
ATOM     55  C   UNL A   1      40.612  31.030  30.090  1.00  0.00     0.031 C 
ATOM     56  C   UNL A   1      46.630  30.483  30.714  1.00  0.00     0.029 A 
ATOM     57  C   UNL A   1      45.296  30.213  30.447  1.00  0.00     0.049 A 
ATOM     58  H   UNL A   1      44.420  28.434  29.727  1.00  0.00     0.167 HD
ATOM     59  C   UNL A   1      42.880  30.747  30.286  1.00  0.00     0.074 A 
ATOM     60  C   UNL A   1      41.743  31.634  30.428  1.00  0.00     0.031 C 
ATOM     61  C   UNL A   1      44.157  31.084  30.597  1.00  0.00     0.031 A 
BRANCH  48  62
ATOM     62  C   UNL A   1      48.234  26.510  29.728  1.00  0.00    -0.014 A 
ATOM     63  C   UNL A   1      48.693  25.893  30.905  1.00  0.00     0.009 A 
ATOM     64  C   UNL A   1      49.130  26.674  28.659  1.00  0.00     0.009 A 
ATOM     65  C   UNL A   1      50.029  25.508  31.030  1.00  0.00     0.001 A 
ATOM     66  C   UNL A   1      50.456  26.254  28.774  1.00  0.00     0.001 A 
ATOM     67  C   UNL A   1      50.910  25.687  29.965  1.00  0.00     0.000 A 
ENDBRANCH  48  62
BRANCH  49  68
ATOM     68  C   UNL A   1      38.647  29.168  28.985  1.00  0.00    -0.014 A 
ATOM     69  C   UNL A   1      37.789  29.105  30.095  1.00  0.00     0.009 A 
ATOM     70  C   UNL A   1      38.143  29.642  27.765  1.00  0.00     0.009 A 
ATOM     71  C   UNL A   1      36.453  29.494  29.980  1.00  0.00     0.001 A 
ATOM     72  C   UNL A   1      36.813  30.056  27.660  1.00  0.00     0.001 A 
ATOM     73  C   UNL A   1      35.969  29.976  28.766  1.00  0.00     0.000 A 
ENDBRANCH  49  68
BRANCH  61  74
ATOM     74  C   UNL A   1      44.397  32.482  31.095  1.00  0.00    -0.014 A 
ATOM     75  C   UNL A   1      44.366  32.788  32.466  1.00  0.00     0.009 A 
ATOM     76  C   UNL A   1      44.697  33.503  30.179  1.00  0.00     0.009 A 
ATOM     77  C   UNL A   1      44.598  34.094  32.903  1.00  0.00     0.001 A 
ATOM     78  C   UNL A   1      44.961  34.800  30.621  1.00  0.00     0.001 A 
ATOM     79  C   UNL A   1      44.901  35.096  31.982  1.00  0.00     0.000 A 
ENDBRANCH  61  74
ENDBRANCH  35  36
ENDBRANCH  27  30
ENDBRANCH  25  26
ENDBRANCH  24  25
ENDBRANCH   1  24
TORSDOF 14
ENDMDL
MODEL 3
REMARK VINA RESULT:     -11.1      3.127      4.638
REMARK SMILES CC(C)(C)c1csc(C[C@H](C(=O)NCCCNC(=O)c2ccc(-c3c4nc(c(-c5ccccc5)c5ccc([nH]5)c(-c5ccccc5)c5nc(c(-c6ccccc6)c6ccc3[nH]6)C=C5)C=C4)cc2)c2ccccc2Cl)n1
REMARK SMILES IDX 14 1 13 2 11 3 12 4 10 6 9 7 8 8 5 9 6 10 75 11 7 12 2 13
REMARK SMILES IDX 1 14 3 15 4 16 68 17 69 18 73 19 70 20 72 21 74 22 71 23
REMARK SMILES IDX 15 24 16 25 17 26 18 27 19 29 20 30 21 31 67 32 22 33 66 34
REMARK SMILES IDX 23 35 24 36 25 37 60 38 26 39 65 40 59 41 61 42 27 43 64 44
REMARK SMILES IDX 58 45 57 46 28 48 50 49 35 50 49 51 36 52 39 53 48 54 62 55
REMARK SMILES IDX 37 56 38 57 47 59 63 60 40 61 29 62 30 63 34 64 31 65 33 66
REMARK SMILES IDX 32 67 51 68 52 69 56 70 53 71 55 72 54 73 41 74 42 75 46 76
REMARK SMILES IDX 43 77 45 78 44 79
REMARK H PARENT 13 5 17 28 61 47 39 58
REMARK Flexibility Score: inf
ROOT
ATOM      1  C   UNL A   1      31.396  30.574  26.361  1.00  0.00     0.117 C 
ENDROOT
BRANCH   1   2
ATOM      2  N   UNL A   1      32.743  30.059  26.233  1.00  0.00    -0.355 N 
ATOM      3  C   UNL A   1      33.275  29.095  25.428  1.00  0.00     0.228 C 
ATOM      4  O   UNL A   1      34.363  28.670  25.807  1.00  0.00    -0.274 OA
ATOM      5  H   UNL A   1      33.394  30.483  26.838  1.00  0.00     0.163 HD
BRANCH   3   6
ATOM      6  C   UNL A   1      32.574  28.725  24.118  1.00  0.00     0.117 C 
BRANCH   6   7
ATOM      7  C   UNL A   1      33.556  28.202  23.050  1.00  0.00     0.086 C 
BRANCH   7   8
ATOM      8  C   UNL A   1      33.563  26.716  22.875  1.00  0.00     0.094 A 
ATOM      9  C   UNL A   1      34.043  24.573  23.201  1.00  0.00     0.057 A 
ATOM     10  C   UNL A   1      33.308  24.469  22.034  1.00  0.00     0.091 A 
ATOM     11  N   UNL A   1      34.167  25.874  23.680  1.00  0.00    -0.246 NA
ATOM     12  S   UNL A   1      32.670  25.989  21.594  1.00  0.00    -0.127 S 
BRANCH   9  13
ATOM     13  C   UNL A   1      34.692  23.454  23.997  1.00  0.00     0.005 C 
ATOM     14  C   UNL A   1      36.052  23.032  23.404  1.00  0.00     0.017 C 
ATOM     15  C   UNL A   1      33.763  22.224  23.988  1.00  0.00     0.017 C 
ATOM     16  C   UNL A   1      34.920  23.902  25.452  1.00  0.00     0.017 C 
ENDBRANCH   9  13
ENDBRANCH   7   8
ENDBRANCH   6   7
BRANCH   6  17
ATOM     17  C   UNL A   1      31.229  27.989  24.159  1.00  0.00    -0.016 A 
ATOM     18  C   UNL A   1      31.114  27.001  25.175  1.00  0.00     0.006 A 
ATOM     19  C   UNL A   1      30.105  28.177  23.339  1.00  0.00     0.045 A 
ATOM     20  C   UNL A   1      29.988  26.187  25.307  1.00  0.00     0.000 A 
ATOM     21  C   UNL A   1      28.995  27.320  23.443  1.00  0.00     0.021 A 
ATOM     22  Cl  UNL A   1      29.905  29.476  22.228  1.00  0.00    -0.084 Cl
ATOM     23  C   UNL A   1      28.938  26.323  24.414  1.00  0.00     0.002 A 
ENDBRANCH   6  17
ENDBRANCH   3   6
ENDBRANCH   1   2
BRANCH   1  24
ATOM     24  C   UNL A   1      31.416  32.098  26.433  1.00  0.00     0.042 C 
BRANCH  24  25
ATOM     25  C   UNL A   1      32.564  32.665  27.267  1.00  0.00     0.118 C 
BRANCH  25  26
ATOM     26  N   UNL A   1      32.363  34.060  27.638  1.00  0.00    -0.352 N 
ATOM     27  C   UNL A   1      33.033  34.831  28.557  1.00  0.00     0.251 C 
ATOM     28  H   UNL A   1      31.638  34.520  27.157  1.00  0.00     0.163 HD
ATOM     29  O   UNL A   1      32.614  35.944  28.848  1.00  0.00    -0.269 OA
BRANCH  27  30
ATOM     30  C   UNL A   1      34.245  34.301  29.214  1.00  0.00     0.039 A 
ATOM     31  C   UNL A   1      34.105  33.572  30.397  1.00  0.00     0.014 A 
ATOM     32  C   UNL A   1      35.512  34.512  28.663  1.00  0.00     0.014 A 
ATOM     33  C   UNL A   1      35.228  32.990  30.987  1.00  0.00     0.010 A 
ATOM     34  C   UNL A   1      36.616  33.864  29.205  1.00  0.00     0.010 A 
ATOM     35  C   UNL A   1      36.486  33.095  30.371  1.00  0.00    -0.014 A 
BRANCH  35  36
ATOM     36  C   UNL A   1      37.672  32.392  30.921  1.00  0.00     0.031 A 
ATOM     37  C   UNL A   1      38.358  32.907  32.154  1.00  0.00     0.074 A 
ATOM     38  C   UNL A   1      38.172  31.325  30.268  1.00  0.00     0.049 A 
ATOM     39  N   UNL A   1      39.428  32.450  32.755  1.00  0.00    -0.248 NA
ATOM     40  C   UNL A   1      37.783  34.108  32.778  1.00  0.00     0.031 C 
ATOM     41  C   UNL A   1      37.620  30.744  29.043  1.00  0.00     0.029 A 
ATOM     42  N   UNL A   1      39.263  30.540  30.547  1.00  0.00    -0.354 N 
ATOM     43  C   UNL A   1      39.662  33.317  33.816  1.00  0.00     0.074 A 
ATOM     44  C   UNL A   1      38.659  34.356  33.739  1.00  0.00     0.031 C 
ATOM     45  C   UNL A   1      38.347  29.669  28.701  1.00  0.00     0.029 A 
ATOM     46  C   UNL A   1      39.444  29.515  29.651  1.00  0.00     0.049 A 
ATOM     47  H   UNL A   1      39.858  30.696  31.316  1.00  0.00     0.167 HD
ATOM     48  C   UNL A   1      40.614  33.246  34.777  1.00  0.00     0.031 A 
ATOM     49  C   UNL A   1      40.388  28.557  29.598  1.00  0.00     0.031 A 
ATOM     50  C   UNL A   1      41.618  32.216  34.847  1.00  0.00     0.049 A 
ATOM     51  C   UNL A   1      41.463  28.524  30.647  1.00  0.00     0.074 A 
ATOM     52  C   UNL A   1      42.592  32.024  35.811  1.00  0.00     0.029 A 
ATOM     53  N   UNL A   1      41.785  31.213  33.903  1.00  0.00    -0.354 N 
ATOM     54  N   UNL A   1      41.628  29.306  31.686  1.00  0.00    -0.248 NA
ATOM     55  C   UNL A   1      42.477  27.470  30.517  1.00  0.00     0.031 C 
ATOM     56  C   UNL A   1      43.389  30.944  35.416  1.00  0.00     0.029 A 
ATOM     57  C   UNL A   1      42.870  30.422  34.242  1.00  0.00     0.049 A 
ATOM     58  H   UNL A   1      41.216  31.083  33.110  1.00  0.00     0.167 HD
ATOM     59  C   UNL A   1      42.747  28.822  32.351  1.00  0.00     0.074 A 
ATOM     60  C   UNL A   1      43.212  27.671  31.604  1.00  0.00     0.031 C 
ATOM     61  C   UNL A   1      43.332  29.285  33.483  1.00  0.00     0.031 A 
BRANCH  48  62
ATOM     62  C   UNL A   1      40.621  34.338  35.814  1.00  0.00    -0.014 A 
ATOM     63  C   UNL A   1      39.798  34.276  36.951  1.00  0.00     0.009 A 
ATOM     64  C   UNL A   1      41.459  35.453  35.647  1.00  0.00     0.009 A 
ATOM     65  C   UNL A   1      39.769  35.332  37.864  1.00  0.00     0.001 A 
ATOM     66  C   UNL A   1      41.454  36.490  36.581  1.00  0.00     0.001 A 
ATOM     67  C   UNL A   1      40.598  36.437  37.679  1.00  0.00     0.000 A 
ENDBRANCH  48  62
BRANCH  49  68
ATOM     68  C   UNL A   1      40.334  27.526  28.530  1.00  0.00    -0.014 A 
ATOM     69  C   UNL A   1      39.617  26.336  28.734  1.00  0.00     0.009 A 
ATOM     70  C   UNL A   1      40.973  27.730  27.297  1.00  0.00     0.009 A 
ATOM     71  C   UNL A   1      39.554  25.366  27.731  1.00  0.00     0.001 A 
ATOM     72  C   UNL A   1      40.885  26.769  26.286  1.00  0.00     0.001 A 
ATOM     73  C   UNL A   1      40.182  25.587  26.507  1.00  0.00     0.000 A 
ENDBRANCH  49  68
BRANCH  61  74
ATOM     74  C   UNL A   1      44.524  28.529  34.001  1.00  0.00    -0.014 A 
ATOM     75  C   UNL A   1      45.833  28.885  33.637  1.00  0.00     0.009 A 
ATOM     76  C   UNL A   1      44.335  27.467  34.899  1.00  0.00     0.009 A 
ATOM     77  C   UNL A   1      46.924  28.169  34.136  1.00  0.00     0.001 A 
ATOM     78  C   UNL A   1      45.428  26.774  35.421  1.00  0.00     0.001 A 
ATOM     79  C   UNL A   1      46.721  27.120  35.031  1.00  0.00     0.000 A 
ENDBRANCH  61  74
ENDBRANCH  35  36
ENDBRANCH  27  30
ENDBRANCH  25  26
ENDBRANCH  24  25
ENDBRANCH   1  24
TORSDOF 14
ENDMDL
