MODEL 1
REMARK VINA RESULT:     -12.3      0.000      0.000
REMARK SMILES COc1ccc(-n2c(SCC(=O)NCCCNC(=O)c3ccc(-c4c5nc(c(-c6ccccc6)c6ccc([nH]6)c(-c6ccccc6)c6nc(c(-c7ccccc7)c7ccc4[nH]7)C=C6)C=C5)cc3)nc3sc4c(c3c2=O)CC[N@H+](C)C4)cc1
REMARK SMILES IDX 14 1 13 2 11 3 12 4 10 6 9 7 8 8 7 9 74 10 68 11 73 12 75 13
REMARK SMILES IDX 69 14 72 15 70 16 71 17 76 18 80 19 77 20 78 21 79 22 6 24
REMARK SMILES IDX 3 25 4 26 82 27 5 28 81 29 2 30 1 31 15 32 16 33 17 34 18 35
REMARK SMILES IDX 19 37 20 38 21 39 67 40 22 41 66 42 23 43 24 44 25 45 60 46
REMARK SMILES IDX 26 47 65 48 59 49 61 50 27 51 64 52 58 53 57 54 28 56 50 57
REMARK SMILES IDX 35 58 49 59 36 60 39 61 48 62 62 63 37 64 38 65 47 67 63 68
REMARK SMILES IDX 40 69 29 70 30 71 34 72 31 73 33 74 32 75 51 76 52 77 56 78
REMARK SMILES IDX 53 79 55 80 54 81 41 82 42 83 46 84 43 85 45 86 44 87
REMARK H PARENT 13 5 78 23 17 36 61 55 39 66
REMARK Flexibility Score: inf
ROOT
ATOM      1  C   UNL A   1      37.744  23.740  26.344  1.00  0.00     0.117 C 
ENDROOT
BRANCH   1   2
ATOM      2  N   UNL A   1      36.662  22.798  26.107  1.00  0.00    -0.355 N 
ATOM      3  C   UNL A   1      35.810  22.745  25.039  1.00  0.00     0.230 C 
ATOM      4  O   UNL A   1      35.499  21.614  24.647  1.00  0.00    -0.274 OA
ATOM      5  H   UNL A   1      36.526  22.114  26.802  1.00  0.00     0.163 HD
BRANCH   3   6
ATOM      6  C   UNL A   1      35.288  23.965  24.295  1.00  0.00     0.178 C 
BRANCH   6   7
ATOM      7  S   UNL A   1      34.521  25.238  25.264  1.00  0.00    -0.077 SA
BRANCH   7   8
ATOM      8  C   UNL A   1      32.982  25.814  24.669  1.00  0.00     0.177 A 
ATOM      9  N   UNL A   1      31.893  25.052  24.226  1.00  0.00    -0.255 N 
ATOM     10  C   UNL A   1      30.703  25.673  23.785  1.00  0.00     0.267 A 
ATOM     11  N   UNL A   1      32.977  27.117  24.703  1.00  0.00    -0.212 NA
ATOM     12  C   UNL A   1      30.698  27.113  23.886  1.00  0.00     0.081 A 
ATOM     13  O   UNL A   1      29.713  25.076  23.362  1.00  0.00    -0.268 OA
ATOM     14  C   UNL A   1      31.842  27.731  24.317  1.00  0.00     0.132 A 
ATOM     15  C   UNL A   1      29.646  28.037  23.628  1.00  0.00    -0.008 A 
ATOM     16  S   UNL A   1      31.683  29.431  24.338  1.00  0.00    -0.114 S 
ATOM     17  C   UNL A   1      30.074  29.341  23.796  1.00  0.00     0.065 A 
ATOM     18  C   UNL A   1      28.247  27.737  23.181  1.00  0.00     0.099 C 
ATOM     19  C   UNL A   1      29.222  30.555  23.562  1.00  0.00     0.310 C 
ATOM     20  C   UNL A   1      27.368  29.008  23.213  1.00  0.00     0.267 C 
ATOM     21  N   UNL A   1      28.030  30.245  22.734  1.00  0.00    -0.333 N 
ATOM     22  C   UNL A   1      28.376  30.154  21.314  1.00  0.00     0.333 C 
ATOM     23  H   UNL A   1      27.366  31.014  22.832  1.00  0.00     0.348 HD
BRANCH   9  24
ATOM     24  C   UNL A   1      31.806  23.643  24.264  1.00  0.00     0.052 A 
ATOM     25  C   UNL A   1      32.057  20.854  24.407  1.00  0.00     0.119 A 
ATOM     26  C   UNL A   1      31.752  21.597  25.551  1.00  0.00     0.048 A 
ATOM     27  C   UNL A   1      32.275  21.518  23.198  1.00  0.00     0.048 A 
ATOM     28  C   UNL A   1      31.641  22.987  25.490  1.00  0.00     0.030 A 
ATOM     29  C   UNL A   1      32.159  22.910  23.127  1.00  0.00     0.030 A 
BRANCH  25  30
ATOM     30  O   UNL A   1      32.126  19.503  24.605  1.00  0.00    -0.497 OA
ATOM     31  C   UNL A   1      32.507  18.712  23.486  1.00  0.00     0.278 C 
ENDBRANCH  25  30
ENDBRANCH   9  24
ENDBRANCH   7   8
ENDBRANCH   6   7
ENDBRANCH   3   6
ENDBRANCH   1   2
BRANCH   1  32
ATOM     32  C   UNL A   1      39.132  23.109  26.539  1.00  0.00     0.042 C 
BRANCH  32  33
ATOM     33  C   UNL A   1      39.298  21.631  26.130  1.00  0.00     0.118 C 
BRANCH  33  34
ATOM     34  N   UNL A   1      40.440  21.007  26.779  1.00  0.00    -0.352 N 
ATOM     35  C   UNL A   1      41.691  21.431  27.135  1.00  0.00     0.251 C 
ATOM     36  H   UNL A   1      40.275  20.066  27.016  1.00  0.00     0.163 HD
ATOM     37  O   UNL A   1      42.502  20.550  27.429  1.00  0.00    -0.269 OA
BRANCH  35  38
ATOM     38  C   UNL A   1      42.138  22.846  27.225  1.00  0.00     0.039 A 
ATOM     39  C   UNL A   1      41.786  23.540  28.396  1.00  0.00     0.014 A 
ATOM     40  C   UNL A   1      42.689  23.563  26.161  1.00  0.00     0.014 A 
ATOM     41  C   UNL A   1      41.984  24.920  28.511  1.00  0.00     0.010 A 
ATOM     42  C   UNL A   1      42.895  24.954  26.283  1.00  0.00     0.010 A 
ATOM     43  C   UNL A   1      42.547  25.647  27.457  1.00  0.00    -0.014 A 
BRANCH  43  44
ATOM     44  C   UNL A   1      42.899  27.069  27.705  1.00  0.00     0.031 A 
ATOM     45  C   UNL A   1      41.761  28.026  27.587  1.00  0.00     0.074 A 
ATOM     46  C   UNL A   1      43.983  27.485  28.403  1.00  0.00     0.049 A 
ATOM     47  N   UNL A   1      40.939  28.252  28.571  1.00  0.00    -0.248 NA
ATOM     48  C   UNL A   1      41.324  28.584  26.309  1.00  0.00     0.031 C 
ATOM     49  C   UNL A   1      44.565  26.735  29.521  1.00  0.00     0.029 A 
ATOM     50  N   UNL A   1      44.622  28.709  28.453  1.00  0.00    -0.354 N 
ATOM     51  C   UNL A   1      39.852  28.928  28.050  1.00  0.00     0.074 A 
ATOM     52  C   UNL A   1      40.143  29.129  26.646  1.00  0.00     0.031 C 
ATOM     53  C   UNL A   1      45.341  27.571  30.246  1.00  0.00     0.029 A 
ATOM     54  C   UNL A   1      45.455  28.862  29.564  1.00  0.00     0.049 A 
ATOM     55  H   UNL A   1      44.501  29.408  27.771  1.00  0.00     0.167 HD
ATOM     56  C   UNL A   1      38.770  29.263  28.801  1.00  0.00     0.031 A 
ATOM     57  C   UNL A   1      45.695  30.036  30.216  1.00  0.00     0.031 A 
ATOM     58  C   UNL A   1      38.835  28.881  30.182  1.00  0.00     0.049 A 
ATOM     59  C   UNL A   1      44.346  30.349  30.796  1.00  0.00     0.074 A 
ATOM     60  C   UNL A   1      38.391  27.845  30.974  1.00  0.00     0.029 A 
ATOM     61  N   UNL A   1      39.556  29.678  31.036  1.00  0.00    -0.354 N 
ATOM     62  N   UNL A   1      43.824  29.814  31.862  1.00  0.00    -0.248 NA
ATOM     63  C   UNL A   1      43.399  31.067  29.942  1.00  0.00     0.031 C 
ATOM     64  C   UNL A   1      39.260  27.839  32.113  1.00  0.00     0.029 A 
ATOM     65  C   UNL A   1      40.204  28.843  31.907  1.00  0.00     0.049 A 
ATOM     66  H   UNL A   1      39.599  30.662  31.026  1.00  0.00     0.167 HD
ATOM     67  C   UNL A   1      42.446  29.860  31.664  1.00  0.00     0.074 A 
ATOM     68  C   UNL A   1      42.251  30.676  30.478  1.00  0.00     0.031 C 
ATOM     69  C   UNL A   1      41.562  29.075  32.346  1.00  0.00     0.031 A 
BRANCH  56  70
ATOM     70  C   UNL A   1      37.629  30.078  28.338  1.00  0.00    -0.014 A 
ATOM     71  C   UNL A   1      37.597  31.431  28.710  1.00  0.00     0.009 A 
ATOM     72  C   UNL A   1      36.493  29.500  27.762  1.00  0.00     0.009 A 
ATOM     73  C   UNL A   1      36.433  32.182  28.564  1.00  0.00     0.001 A 
ATOM     74  C   UNL A   1      35.328  30.260  27.606  1.00  0.00     0.001 A 
ATOM     75  C   UNL A   1      35.295  31.592  28.022  1.00  0.00     0.000 A 
ENDBRANCH  56  70
BRANCH  57  76
ATOM     76  C   UNL A   1      46.516  31.090  29.535  1.00  0.00    -0.014 A 
ATOM     77  C   UNL A   1      47.503  30.688  28.616  1.00  0.00     0.009 A 
ATOM     78  C   UNL A   1      46.416  32.467  29.800  1.00  0.00     0.009 A 
ATOM     79  C   UNL A   1      48.282  31.624  27.922  1.00  0.00     0.001 A 
ATOM     80  C   UNL A   1      47.169  33.407  29.083  1.00  0.00     0.001 A 
ATOM     81  C   UNL A   1      48.093  32.985  28.134  1.00  0.00     0.000 A 
ENDBRANCH  57  76
BRANCH  69  82
ATOM     82  C   UNL A   1      42.152  28.210  33.420  1.00  0.00    -0.014 A 
ATOM     83  C   UNL A   1      43.074  27.203  33.108  1.00  0.00     0.009 A 
ATOM     84  C   UNL A   1      41.793  28.401  34.765  1.00  0.00     0.009 A 
ATOM     85  C   UNL A   1      43.639  26.421  34.118  1.00  0.00     0.001 A 
ATOM     86  C   UNL A   1      42.374  27.636  35.776  1.00  0.00     0.001 A 
ATOM     87  C   UNL A   1      43.299  26.647  35.452  1.00  0.00     0.000 A 
ENDBRANCH  69  82
ENDBRANCH  43  44
ENDBRANCH  35  38
ENDBRANCH  33  34
ENDBRANCH  32  33
ENDBRANCH   1  32
TORSDOF 14
ENDMDL
MODEL 2
REMARK VINA RESULT:     -11.8      2.542      7.723
REMARK SMILES COc1ccc(-n2c(SCC(=O)NCCCNC(=O)c3ccc(-c4c5nc(c(-c6ccccc6)c6ccc([nH]6)c(-c6ccccc6)c6nc(c(-c7ccccc7)c7ccc4[nH]7)C=C6)C=C5)cc3)nc3sc4c(c3c2=O)CC[N@H+](C)C4)cc1
REMARK SMILES IDX 14 1 13 2 11 3 12 4 10 6 9 7 8 8 7 9 74 10 68 11 73 12 75 13
REMARK SMILES IDX 69 14 72 15 70 16 71 17 76 18 80 19 77 20 78 21 79 22 6 24
REMARK SMILES IDX 3 25 4 26 82 27 5 28 81 29 2 30 1 31 15 32 16 33 17 34 18 35
REMARK SMILES IDX 19 37 20 38 21 39 67 40 22 41 66 42 23 43 24 44 25 45 60 46
REMARK SMILES IDX 26 47 65 48 59 49 61 50 27 51 64 52 58 53 57 54 28 56 50 57
REMARK SMILES IDX 35 58 49 59 36 60 39 61 48 62 62 63 37 64 38 65 47 67 63 68
REMARK SMILES IDX 40 69 29 70 30 71 34 72 31 73 33 74 32 75 51 76 52 77 56 78
REMARK SMILES IDX 53 79 55 80 54 81 41 82 42 83 46 84 43 85 45 86 44 87
REMARK H PARENT 13 5 78 23 17 36 61 55 39 66
REMARK Flexibility Score: inf
ROOT
ATOM      1  C   UNL A   1      33.823  30.368  27.544  1.00  0.00     0.117 C 
ENDROOT
BRANCH   1   2
ATOM      2  N   UNL A   1      33.213  30.243  26.231  1.00  0.00    -0.355 N 
ATOM      3  C   UNL A   1      32.310  29.306  25.806  1.00  0.00     0.230 C 
ATOM      4  O   UNL A   1      31.427  29.710  25.041  1.00  0.00    -0.274 OA
ATOM      5  H   UNL A   1      33.482  30.915  25.564  1.00  0.00     0.163 HD
BRANCH   3   6
ATOM      6  C   UNL A   1      32.302  27.854  26.260  1.00  0.00     0.178 C 
BRANCH   6   7
ATOM      7  S   UNL A   1      33.663  26.838  25.747  1.00  0.00    -0.077 SA
BRANCH   7   8
ATOM      8  C   UNL A   1      33.241  25.235  25.194  1.00  0.00     0.177 A 
ATOM      9  N   UNL A   1      32.174  24.866  24.364  1.00  0.00    -0.255 N 
ATOM     10  C   UNL A   1      31.973  23.518  23.993  1.00  0.00     0.267 A 
ATOM     11  N   UNL A   1      34.102  24.382  25.674  1.00  0.00    -0.212 NA
ATOM     12  C   UNL A   1      32.972  22.600  24.487  1.00  0.00     0.081 A 
ATOM     13  O   UNL A   1      31.050  23.112  23.287  1.00  0.00    -0.268 OA
ATOM     14  C   UNL A   1      33.950  23.094  25.308  1.00  0.00     0.132 A 
ATOM     15  C   UNL A   1      33.132  21.209  24.229  1.00  0.00    -0.008 A 
ATOM     16  S   UNL A   1      35.021  21.874  25.837  1.00  0.00    -0.114 S 
ATOM     17  C   UNL A   1      34.192  20.687  24.946  1.00  0.00     0.065 A 
ATOM     18  C   UNL A   1      32.286  20.332  23.354  1.00  0.00     0.099 C 
ATOM     19  C   UNL A   1      34.603  19.242  24.930  1.00  0.00     0.310 C 
ATOM     20  C   UNL A   1      32.922  18.932  23.190  1.00  0.00     0.267 C 
ATOM     21  N   UNL A   1      33.522  18.363  24.420  1.00  0.00    -0.333 N 
ATOM     22  C   UNL A   1      32.508  18.114  25.447  1.00  0.00     0.333 C 
ATOM     23  H   UNL A   1      33.933  17.461  24.179  1.00  0.00     0.348 HD
BRANCH   9  24
ATOM     24  C   UNL A   1      31.276  25.757  23.736  1.00  0.00     0.052 A 
ATOM     25  C   UNL A   1      29.635  27.815  22.770  1.00  0.00     0.119 A 
ATOM     26  C   UNL A   1      30.893  27.589  22.204  1.00  0.00     0.048 A 
ATOM     27  C   UNL A   1      29.218  27.032  23.848  1.00  0.00     0.048 A 
ATOM     28  C   UNL A   1      31.721  26.576  22.691  1.00  0.00     0.030 A 
ATOM     29  C   UNL A   1      30.039  26.011  24.337  1.00  0.00     0.030 A 
BRANCH  25  30
ATOM     30  O   UNL A   1      28.924  28.831  22.193  1.00  0.00    -0.497 OA
ATOM     31  C   UNL A   1      29.585  30.085  22.072  1.00  0.00     0.278 C 
ENDBRANCH  25  30
ENDBRANCH   9  24
ENDBRANCH   7   8
ENDBRANCH   6   7
ENDBRANCH   3   6
ENDBRANCH   1   2
BRANCH   1  32
ATOM     32  C   UNL A   1      35.024  31.324  27.620  1.00  0.00     0.042 C 
BRANCH  32  33
ATOM     33  C   UNL A   1      34.719  32.829  27.769  1.00  0.00     0.118 C 
BRANCH  33  34
ATOM     34  N   UNL A   1      34.431  33.197  29.146  1.00  0.00    -0.352 N 
ATOM     35  C   UNL A   1      34.872  32.765  30.366  1.00  0.00     0.251 C 
ATOM     36  H   UNL A   1      33.768  33.921  29.214  1.00  0.00     0.163 HD
ATOM     37  O   UNL A   1      34.208  33.121  31.343  1.00  0.00    -0.269 OA
BRANCH  35  38
ATOM     38  C   UNL A   1      36.084  31.940  30.612  1.00  0.00     0.039 A 
ATOM     39  C   UNL A   1      35.982  30.963  31.618  1.00  0.00     0.014 A 
ATOM     40  C   UNL A   1      37.340  32.207  30.065  1.00  0.00     0.014 A 
ATOM     41  C   UNL A   1      37.105  30.259  32.066  1.00  0.00     0.010 A 
ATOM     42  C   UNL A   1      38.470  31.492  30.513  1.00  0.00     0.010 A 
ATOM     43  C   UNL A   1      38.365  30.510  31.516  1.00  0.00    -0.014 A 
BRANCH  43  44
ATOM     44  C   UNL A   1      39.483  29.609  31.901  1.00  0.00     0.031 A 
ATOM     45  C   UNL A   1      39.582  28.355  31.098  1.00  0.00     0.074 A 
ATOM     46  C   UNL A   1      40.593  30.000  32.571  1.00  0.00     0.049 A 
ATOM     47  N   UNL A   1      40.191  28.314  29.949  1.00  0.00    -0.248 NA
ATOM     48  C   UNL A   1      38.801  27.157  31.400  1.00  0.00     0.031 C 
ATOM     49  C   UNL A   1      41.189  31.334  32.445  1.00  0.00     0.029 A 
ATOM     50  N   UNL A   1      41.539  29.276  33.272  1.00  0.00    -0.354 N 
ATOM     51  C   UNL A   1      39.841  27.121  29.343  1.00  0.00     0.074 A 
ATOM     52  C   UNL A   1      38.992  26.427  30.288  1.00  0.00     0.031 C 
ATOM     53  C   UNL A   1      42.463  31.283  32.892  1.00  0.00     0.029 A 
ATOM     54  C   UNL A   1      42.729  29.974  33.492  1.00  0.00     0.049 A 
ATOM     55  H   UNL A   1      41.388  28.356  33.586  1.00  0.00     0.167 HD
ATOM     56  C   UNL A   1      40.255  26.787  28.092  1.00  0.00     0.031 A 
ATOM     57  C   UNL A   1      43.972  29.416  33.554  1.00  0.00     0.031 A 
ATOM     58  C   UNL A   1      41.096  27.750  27.443  1.00  0.00     0.049 A 
ATOM     59  C   UNL A   1      44.159  28.921  32.148  1.00  0.00     0.074 A 
ATOM     60  C   UNL A   1      40.955  28.780  26.539  1.00  0.00     0.029 A 
ATOM     61  N   UNL A   1      42.427  27.769  27.775  1.00  0.00    -0.354 N 
ATOM     62  N   UNL A   1      44.488  29.643  31.116  1.00  0.00    -0.248 NA
ATOM     63  C   UNL A   1      43.628  27.596  31.828  1.00  0.00     0.031 C 
ATOM     64  C   UNL A   1      42.086  29.632  26.754  1.00  0.00     0.029 A 
ATOM     65  C   UNL A   1      42.810  29.084  27.812  1.00  0.00     0.049 A 
ATOM     66  H   UNL A   1      42.999  26.988  27.953  1.00  0.00     0.167 HD
ATOM     67  C   UNL A   1      43.926  28.996  30.017  1.00  0.00     0.074 A 
ATOM     68  C   UNL A   1      43.441  27.724  30.522  1.00  0.00     0.031 C 
ATOM     69  C   UNL A   1      43.707  29.609  28.817  1.00  0.00     0.031 A 
BRANCH  56  70
ATOM     70  C   UNL A   1      40.011  25.490  27.431  1.00  0.00    -0.014 A 
ATOM     71  C   UNL A   1      38.731  25.253  26.907  1.00  0.00     0.009 A 
ATOM     72  C   UNL A   1      40.918  24.430  27.526  1.00  0.00     0.009 A 
ATOM     73  C   UNL A   1      38.340  23.968  26.535  1.00  0.00     0.001 A 
ATOM     74  C   UNL A   1      40.527  23.142  27.140  1.00  0.00     0.001 A 
ATOM     75  C   UNL A   1      39.236  22.911  26.664  1.00  0.00     0.000 A 
ENDBRANCH  56  70
BRANCH  57  76
ATOM     76  C   UNL A   1      44.327  28.564  34.735  1.00  0.00    -0.014 A 
ATOM     77  C   UNL A   1      43.330  28.280  35.687  1.00  0.00     0.009 A 
ATOM     78  C   UNL A   1      45.618  28.075  35.002  1.00  0.00     0.009 A 
ATOM     79  C   UNL A   1      43.588  27.464  36.796  1.00  0.00     0.001 A 
ATOM     80  C   UNL A   1      45.871  27.230  36.091  1.00  0.00     0.001 A 
ATOM     81  C   UNL A   1      44.852  26.915  36.982  1.00  0.00     0.000 A 
ENDBRANCH  57  76
BRANCH  69  82
ATOM     82  C   UNL A   1      44.206  31.018  28.703  1.00  0.00    -0.014 A 
ATOM     83  C   UNL A   1      43.478  32.086  29.245  1.00  0.00     0.009 A 
ATOM     84  C   UNL A   1      45.421  31.292  28.053  1.00  0.00     0.009 A 
ATOM     85  C   UNL A   1      43.966  33.392  29.158  1.00  0.00     0.001 A 
ATOM     86  C   UNL A   1      45.919  32.594  27.986  1.00  0.00     0.001 A 
ATOM     87  C   UNL A   1      45.191  33.643  28.541  1.00  0.00     0.000 A 
ENDBRANCH  69  82
ENDBRANCH  43  44
ENDBRANCH  35  38
ENDBRANCH  33  34
ENDBRANCH  32  33
ENDBRANCH   1  32
TORSDOF 14
ENDMDL
MODEL 3
REMARK VINA RESULT:     -11.5      5.859     11.145
REMARK SMILES COc1ccc(-n2c(SCC(=O)NCCCNC(=O)c3ccc(-c4c5nc(c(-c6ccccc6)c6ccc([nH]6)c(-c6ccccc6)c6nc(c(-c7ccccc7)c7ccc4[nH]7)C=C6)C=C5)cc3)nc3sc4c(c3c2=O)CC[N@H+](C)C4)cc1
REMARK SMILES IDX 14 1 13 2 11 3 12 4 10 6 9 7 8 8 7 9 74 10 68 11 73 12 75 13
REMARK SMILES IDX 69 14 72 15 70 16 71 17 76 18 80 19 77 20 78 21 79 22 6 24
REMARK SMILES IDX 3 25 4 26 82 27 5 28 81 29 2 30 1 31 15 32 16 33 17 34 18 35
REMARK SMILES IDX 19 37 20 38 21 39 67 40 22 41 66 42 23 43 24 44 25 45 60 46
REMARK SMILES IDX 26 47 65 48 59 49 61 50 27 51 64 52 58 53 57 54 28 56 50 57
REMARK SMILES IDX 35 58 49 59 36 60 39 61 48 62 62 63 37 64 38 65 47 67 63 68
REMARK SMILES IDX 40 69 29 70 30 71 34 72 31 73 33 74 32 75 51 76 52 77 56 78
REMARK SMILES IDX 53 79 55 80 54 81 41 82 42 83 46 84 43 85 45 86 44 87
REMARK H PARENT 13 5 78 23 17 36 61 55 39 66
REMARK Flexibility Score: inf
ROOT
ATOM      1  C   UNL A   1      46.045  33.085  26.691  1.00  0.00     0.117 C 
ENDROOT
BRANCH   1   2
ATOM      2  N   UNL A   1      45.304  31.967  26.129  1.00  0.00    -0.355 N 
ATOM      3  C   UNL A   1      45.414  30.641  26.443  1.00  0.00     0.230 C 
ATOM      4  O   UNL A   1      44.358  29.996  26.457  1.00  0.00    -0.274 OA
ATOM      5  H   UNL A   1      44.642  32.193  25.437  1.00  0.00     0.163 HD
BRANCH   3   6
ATOM      6  C   UNL A   1      46.717  29.952  26.822  1.00  0.00     0.178 C 
BRANCH   6   7
ATOM      7  S   UNL A   1      46.611  28.585  27.947  1.00  0.00    -0.077 SA
BRANCH   7   8
ATOM      8  C   UNL A   1      45.802  27.163  27.332  1.00  0.00     0.177 A 
ATOM      9  N   UNL A   1      45.979  26.545  26.087  1.00  0.00    -0.255 N 
ATOM     10  C   UNL A   1      45.252  25.384  25.743  1.00  0.00     0.267 A 
ATOM     11  N   UNL A   1      44.974  26.724  28.238  1.00  0.00    -0.212 NA
ATOM     12  C   UNL A   1      44.385  24.882  26.782  1.00  0.00     0.081 A 
ATOM     13  O   UNL A   1      45.335  24.796  24.664  1.00  0.00    -0.268 OA
ATOM     14  C   UNL A   1      44.292  25.599  27.945  1.00  0.00     0.132 A 
ATOM     15  C   UNL A   1      43.596  23.696  26.811  1.00  0.00    -0.008 A 
ATOM     16  S   UNL A   1      43.196  24.895  29.047  1.00  0.00    -0.114 S 
ATOM     17  C   UNL A   1      42.863  23.613  27.980  1.00  0.00     0.065 A 
ATOM     18  C   UNL A   1      43.471  22.648  25.746  1.00  0.00     0.099 C 
ATOM     19  C   UNL A   1      41.900  22.508  28.306  1.00  0.00     0.310 C 
ATOM     20  C   UNL A   1      42.671  21.428  26.259  1.00  0.00     0.267 C 
ATOM     21  N   UNL A   1      41.492  21.753  27.096  1.00  0.00    -0.333 N 
ATOM     22  C   UNL A   1      40.475  22.480  26.333  1.00  0.00     0.333 C 
ATOM     23  H   UNL A   1      41.069  20.874  27.397  1.00  0.00     0.348 HD
BRANCH   9  24
ATOM     24  C   UNL A   1      46.932  26.916  25.114  1.00  0.00     0.052 A 
ATOM     25  C   UNL A   1      48.672  27.324  22.954  1.00  0.00     0.119 A 
ATOM     26  C   UNL A   1      47.445  27.993  23.010  1.00  0.00     0.048 A 
ATOM     27  C   UNL A   1      49.006  26.420  23.963  1.00  0.00     0.048 A 
ATOM     28  C   UNL A   1      46.568  27.781  24.076  1.00  0.00     0.030 A 
ATOM     29  C   UNL A   1      48.135  26.208  25.037  1.00  0.00     0.030 A 
BRANCH  25  30
ATOM     30  O   UNL A   1      49.438  27.630  21.863  1.00  0.00    -0.497 OA
ATOM     31  C   UNL A   1      48.919  27.253  20.593  1.00  0.00     0.278 C 
ENDBRANCH  25  30
ENDBRANCH   9  24
ENDBRANCH   7   8
ENDBRANCH   6   7
ENDBRANCH   3   6
ENDBRANCH   1   2
BRANCH   1  32
ATOM     32  C   UNL A   1      46.027  34.372  25.851  1.00  0.00     0.042 C 
BRANCH  32  33
ATOM     33  C   UNL A   1      44.649  34.987  25.533  1.00  0.00     0.118 C 
BRANCH  33  34
ATOM     34  N   UNL A   1      44.442  36.253  26.219  1.00  0.00    -0.352 N 
ATOM     35  C   UNL A   1      43.711  36.646  27.306  1.00  0.00     0.251 C 
ATOM     36  H   UNL A   1      44.941  36.994  25.807  1.00  0.00     0.163 HD
ATOM     37  O   UNL A   1      43.555  37.862  27.447  1.00  0.00    -0.269 OA
BRANCH  35  38
ATOM     38  C   UNL A   1      43.123  35.745  28.332  1.00  0.00     0.039 A 
ATOM     39  C   UNL A   1      44.022  34.917  29.027  1.00  0.00     0.014 A 
ATOM     40  C   UNL A   1      41.753  35.531  28.496  1.00  0.00     0.014 A 
ATOM     41  C   UNL A   1      43.569  33.900  29.874  1.00  0.00     0.010 A 
ATOM     42  C   UNL A   1      41.298  34.510  29.357  1.00  0.00     0.010 A 
ATOM     43  C   UNL A   1      42.200  33.686  30.056  1.00  0.00    -0.014 A 
BRANCH  43  44
ATOM     44  C   UNL A   1      41.782  32.716  31.102  1.00  0.00     0.031 A 
ATOM     45  C   UNL A   1      40.375  32.872  31.574  1.00  0.00     0.074 A 
ATOM     46  C   UNL A   1      42.379  31.521  31.329  1.00  0.00     0.049 A 
ATOM     47  N   UNL A   1      39.368  32.341  30.943  1.00  0.00    -0.248 NA
ATOM     48  C   UNL A   1      39.988  33.826  32.612  1.00  0.00     0.031 C 
ATOM     49  C   UNL A   1      43.011  30.717  30.278  1.00  0.00     0.029 A 
ATOM     50  N   UNL A   1      42.339  30.675  32.420  1.00  0.00    -0.354 N 
ATOM     51  C   UNL A   1      38.218  32.918  31.448  1.00  0.00     0.074 A 
ATOM     52  C   UNL A   1      38.650  33.819  32.494  1.00  0.00     0.031 C 
ATOM     53  C   UNL A   1      43.140  29.448  30.723  1.00  0.00     0.029 A 
ATOM     54  C   UNL A   1      42.763  29.374  32.137  1.00  0.00     0.049 A 
ATOM     55  H   UNL A   1      42.040  30.961  33.313  1.00  0.00     0.167 HD
ATOM     56  C   UNL A   1      36.982  32.633  30.959  1.00  0.00     0.031 A 
ATOM     57  C   UNL A   1      42.287  28.241  32.727  1.00  0.00     0.031 A 
ATOM     58  C   UNL A   1      36.945  31.679  29.890  1.00  0.00     0.049 A 
ATOM     59  C   UNL A   1      40.865  28.215  32.243  1.00  0.00     0.074 A 
ATOM     60  C   UNL A   1      36.897  31.693  28.513  1.00  0.00     0.029 A 
ATOM     61  N   UNL A   1      37.019  30.347  30.214  1.00  0.00    -0.354 N 
ATOM     62  N   UNL A   1      40.459  27.825  31.070  1.00  0.00    -0.248 NA
ATOM     63  C   UNL A   1      39.881  28.978  33.013  1.00  0.00     0.031 C 
ATOM     64  C   UNL A   1      37.421  30.425  28.101  1.00  0.00     0.029 A 
ATOM     65  C   UNL A   1      37.798  29.748  29.259  1.00  0.00     0.049 A 
ATOM     66  H   UNL A   1      36.594  29.906  30.985  1.00  0.00     0.167 HD
ATOM     67  C   UNL A   1      39.292  28.546  30.823  1.00  0.00     0.074 A 
ATOM     68  C   UNL A   1      38.974  29.210  32.074  1.00  0.00     0.031 C 
ATOM     69  C   UNL A   1      38.768  28.723  29.575  1.00  0.00     0.031 A 
BRANCH  56  70
ATOM     70  C   UNL A   1      35.709  33.127  31.521  1.00  0.00    -0.014 A 
ATOM     71  C   UNL A   1      35.091  34.215  30.886  1.00  0.00     0.009 A 
ATOM     72  C   UNL A   1      35.241  32.710  32.772  1.00  0.00     0.009 A 
ATOM     73  C   UNL A   1      34.060  34.914  31.511  1.00  0.00     0.001 A 
ATOM     74  C   UNL A   1      34.198  33.407  33.393  1.00  0.00     0.001 A 
ATOM     75  C   UNL A   1      33.623  34.516  32.771  1.00  0.00     0.000 A 
ENDBRANCH  56  70
BRANCH  57  76
ATOM     76  C   UNL A   1      42.628  27.971  34.162  1.00  0.00    -0.014 A 
ATOM     77  C   UNL A   1      42.454  26.667  34.664  1.00  0.00     0.009 A 
ATOM     78  C   UNL A   1      43.052  28.952  35.074  1.00  0.00     0.009 A 
ATOM     79  C   UNL A   1      42.784  26.342  35.985  1.00  0.00     0.001 A 
ATOM     80  C   UNL A   1      43.416  28.623  36.387  1.00  0.00     0.001 A 
ATOM     81  C   UNL A   1      43.293  27.314  36.839  1.00  0.00     0.000 A 
ENDBRANCH  57  76
BRANCH  69  82
ATOM     82  C   UNL A   1      39.472  28.002  28.464  1.00  0.00    -0.014 A 
ATOM     83  C   UNL A   1      40.346  28.680  27.605  1.00  0.00     0.009 A 
ATOM     84  C   UNL A   1      39.269  26.625  28.270  1.00  0.00     0.009 A 
ATOM     85  C   UNL A   1      41.018  27.992  26.591  1.00  0.00     0.001 A 
ATOM     86  C   UNL A   1      39.957  25.934  27.272  1.00  0.00     0.001 A 
ATOM     87  C   UNL A   1      40.833  26.619  26.434  1.00  0.00     0.000 A 
ENDBRANCH  69  82
ENDBRANCH  43  44
ENDBRANCH  35  38
ENDBRANCH  33  34
ENDBRANCH  32  33
ENDBRANCH   1  32
TORSDOF 14
ENDMDL
