MODEL 1
REMARK VINA RESULT:     -12.0      0.000      0.000
REMARK SMILES COc1ccc2[nH]c(C(=O)c3cc(C)ccn3)c(CC(=O)NCCCNC(=O)c3ccc(-c4c5nc(c(-c6ccccc6)c6ccc([nH]6)c(-c6ccccc6)c6nc(c(-c7ccccc7)c7ccc4[nH]7)C=C6)C=C5)cc3)c2c1
REMARK SMILES IDX 23 1 22 2 20 3 21 4 19 6 18 7 3 8 4 9 78 10 5 11 77 12 6 13
REMARK SMILES IDX 7 14 8 15 2 17 1 18 9 19 10 20 11 21 12 22 17 23 13 24 16 25
REMARK SMILES IDX 14 26 15 27 24 28 25 29 26 30 27 31 28 33 29 34 30 35 76 36
REMARK SMILES IDX 31 37 75 38 32 39 33 40 34 41 69 42 35 43 74 44 68 45 70 46
REMARK SMILES IDX 36 47 73 48 67 49 66 50 37 52 59 53 44 54 58 55 45 56 48 57
REMARK SMILES IDX 57 58 71 59 46 60 47 61 56 63 72 64 49 65 38 66 39 67 43 68
REMARK SMILES IDX 40 69 42 70 41 71 60 72 61 73 65 74 62 75 64 76 63 77 50 78
REMARK SMILES IDX 51 79 55 80 52 81 54 82 53 83
REMARK H PARENT 22 5 7 16 26 32 70 51 48 62
REMARK Flexibility Score: inf
ROOT
ATOM      1  C   UNL A   1      34.785  23.667  24.140  1.00  0.00     0.117 C 
ENDROOT
BRANCH   1   2
ATOM      2  N   UNL A   1      34.352  24.422  22.983  1.00  0.00    -0.356 N 
ATOM      3  C   UNL A   1      33.633  25.580  22.909  1.00  0.00     0.224 C 
ATOM      4  O   UNL A   1      33.581  26.127  21.805  1.00  0.00    -0.275 OA
ATOM      5  H   UNL A   1      34.618  24.041  22.114  1.00  0.00     0.163 HD
BRANCH   3   6
ATOM      6  C   UNL A   1      33.037  26.228  24.155  1.00  0.00     0.138 C 
BRANCH   6   7
ATOM      7  C   UNL A   1      31.534  26.158  24.256  1.00  0.00    -0.002 A 
ATOM      8  C   UNL A   1      29.646  28.889  22.337  1.00  0.00     0.119 A 
ATOM      9  C   UNL A   1      28.373  28.512  22.760  1.00  0.00     0.048 A 
ATOM     10  C   UNL A   1      30.766  28.149  22.731  1.00  0.00     0.057 A 
ATOM     11  C   UNL A   1      28.193  27.411  23.607  1.00  0.00     0.030 A 
ATOM     12  C   UNL A   1      30.618  27.054  23.608  1.00  0.00     0.008 A 
ATOM     13  C   UNL A   1      29.334  26.709  24.016  1.00  0.00     0.046 A 
ATOM     14  N   UNL A   1      29.455  25.616  24.837  1.00  0.00    -0.352 N 
ATOM     15  C   UNL A   1      30.769  25.208  24.937  1.00  0.00     0.093 A 
ATOM     16  H   UNL A   1      28.701  25.179  25.296  1.00  0.00     0.167 HD
BRANCH   8  17
ATOM     17  O   UNL A   1      29.908  29.941  21.501  1.00  0.00    -0.497 OA
ATOM     18  C   UNL A   1      28.815  30.833  21.305  1.00  0.00     0.278 C 
ENDBRANCH   8  17
BRANCH  15  19
ATOM     19  C   UNL A   1      31.224  24.015  25.645  1.00  0.00     0.227 C 
ATOM     20  O   UNL A   1      31.352  23.960  26.867  1.00  0.00    -0.285 OA
BRANCH  19  21
ATOM     21  C   UNL A   1      31.622  22.816  24.861  1.00  0.00     0.113 A 
ATOM     22  C   UNL A   1      32.072  21.677  25.524  1.00  0.00     0.036 A 
ATOM     23  N   UNL A   1      31.502  22.912  23.514  1.00  0.00    -0.253 NA
ATOM     24  C   UNL A   1      32.419  20.562  24.759  1.00  0.00    -0.047 A 
ATOM     25  C   UNL A   1      31.806  21.808  22.804  1.00  0.00     0.112 A 
ATOM     26  C   UNL A   1      32.913  19.300  25.402  1.00  0.00     0.044 C 
ATOM     27  C   UNL A   1      32.266  20.629  23.372  1.00  0.00     0.023 A 
ENDBRANCH  19  21
ENDBRANCH  15  19
ENDBRANCH   6   7
ENDBRANCH   3   6
ENDBRANCH   1   2
BRANCH   1  28
ATOM     28  C   UNL A   1      36.255  23.266  24.073  1.00  0.00     0.042 C 
BRANCH  28  29
ATOM     29  C   UNL A   1      37.081  23.683  25.286  1.00  0.00     0.118 C 
BRANCH  29  30
ATOM     30  N   UNL A   1      38.212  22.801  25.533  1.00  0.00    -0.352 N 
ATOM     31  C   UNL A   1      39.423  23.046  26.130  1.00  0.00     0.251 C 
ATOM     32  H   UNL A   1      38.089  21.875  25.218  1.00  0.00     0.163 HD
ATOM     33  O   UNL A   1      40.304  22.190  26.085  1.00  0.00    -0.269 OA
BRANCH  31  34
ATOM     34  C   UNL A   1      39.695  24.331  26.814  1.00  0.00     0.039 A 
ATOM     35  C   UNL A   1      39.205  24.512  28.113  1.00  0.00     0.014 A 
ATOM     36  C   UNL A   1      40.372  25.372  26.176  1.00  0.00     0.014 A 
ATOM     37  C   UNL A   1      39.447  25.710  28.791  1.00  0.00     0.010 A 
ATOM     38  C   UNL A   1      40.665  26.544  26.874  1.00  0.00     0.010 A 
ATOM     39  C   UNL A   1      40.206  26.725  28.187  1.00  0.00    -0.014 A 
BRANCH  39  40
ATOM     40  C   UNL A   1      40.524  27.984  28.906  1.00  0.00     0.031 A 
ATOM     41  C   UNL A   1      41.842  28.139  29.613  1.00  0.00     0.074 A 
ATOM     42  C   UNL A   1      39.603  28.965  28.979  1.00  0.00     0.049 A 
ATOM     43  N   UNL A   1      42.257  29.113  30.384  1.00  0.00    -0.248 NA
ATOM     44  C   UNL A   1      42.815  27.047  29.446  1.00  0.00     0.031 C 
ATOM     45  C   UNL A   1      38.281  28.938  28.351  1.00  0.00     0.029 A 
ATOM     46  N   UNL A   1      39.639  30.175  29.627  1.00  0.00    -0.354 N 
ATOM     47  C   UNL A   1      43.526  28.742  30.810  1.00  0.00     0.074 A 
ATOM     48  C   UNL A   1      43.801  27.442  30.240  1.00  0.00     0.031 C 
ATOM     49  C   UNL A   1      37.639  30.085  28.630  1.00  0.00     0.029 A 
ATOM     50  C   UNL A   1      38.485  30.907  29.489  1.00  0.00     0.049 A 
ATOM     51  H   UNL A   1      40.418  30.489  30.142  1.00  0.00     0.167 HD
ATOM     52  C   UNL A   1      44.391  29.428  31.594  1.00  0.00     0.031 A 
ATOM     53  C   UNL A   1      38.141  32.102  30.006  1.00  0.00     0.031 A 
ATOM     54  C   UNL A   1      44.130  30.728  32.152  1.00  0.00     0.049 A 
ATOM     55  C   UNL A   1      39.112  32.833  30.890  1.00  0.00     0.074 A 
ATOM     56  C   UNL A   1      44.959  31.513  32.935  1.00  0.00     0.029 A 
ATOM     57  N   UNL A   1      42.954  31.438  31.978  1.00  0.00    -0.354 N 
ATOM     58  N   UNL A   1      40.317  32.479  31.262  1.00  0.00    -0.248 NA
ATOM     59  C   UNL A   1      38.675  34.133  31.419  1.00  0.00     0.031 C 
ATOM     60  C   UNL A   1      44.271  32.687  33.260  1.00  0.00     0.029 A 
ATOM     61  C   UNL A   1      43.031  32.648  32.645  1.00  0.00     0.049 A 
ATOM     62  H   UNL A   1      42.178  31.128  31.457  1.00  0.00     0.167 HD
ATOM     63  C   UNL A   1      40.794  33.523  32.042  1.00  0.00     0.074 A 
ATOM     64  C   UNL A   1      39.751  34.527  32.084  1.00  0.00     0.031 C 
ATOM     65  C   UNL A   1      41.990  33.641  32.667  1.00  0.00     0.031 A 
BRANCH  52  66
ATOM     66  C   UNL A   1      45.710  28.777  31.901  1.00  0.00    -0.014 A 
ATOM     67  C   UNL A   1      46.842  29.035  31.115  1.00  0.00     0.009 A 
ATOM     68  C   UNL A   1      45.830  27.929  33.013  1.00  0.00     0.009 A 
ATOM     69  C   UNL A   1      48.064  28.432  31.418  1.00  0.00     0.001 A 
ATOM     70  C   UNL A   1      47.059  27.347  33.328  1.00  0.00     0.001 A 
ATOM     71  C   UNL A   1      48.173  27.592  32.527  1.00  0.00     0.000 A 
ENDBRANCH  52  66
BRANCH  53  72
ATOM     72  C   UNL A   1      36.813  32.694  29.699  1.00  0.00    -0.014 A 
ATOM     73  C   UNL A   1      35.742  32.524  30.590  1.00  0.00     0.009 A 
ATOM     74  C   UNL A   1      36.605  33.409  28.511  1.00  0.00     0.009 A 
ATOM     75  C   UNL A   1      34.480  33.037  30.282  1.00  0.00     0.001 A 
ATOM     76  C   UNL A   1      35.348  33.942  28.218  1.00  0.00     0.001 A 
ATOM     77  C   UNL A   1      34.285  33.749  29.098  1.00  0.00     0.000 A 
ENDBRANCH  53  72
BRANCH  65  78
ATOM     78  C   UNL A   1      42.254  34.919  33.408  1.00  0.00    -0.014 A 
ATOM     79  C   UNL A   1      41.836  35.089  34.737  1.00  0.00     0.009 A 
ATOM     80  C   UNL A   1      42.971  35.949  32.780  1.00  0.00     0.009 A 
ATOM     81  C   UNL A   1      42.108  36.280  35.412  1.00  0.00     0.001 A 
ATOM     82  C   UNL A   1      43.260  37.128  33.465  1.00  0.00     0.001 A 
ATOM     83  C   UNL A   1      42.822  37.296  34.777  1.00  0.00     0.000 A 
ENDBRANCH  65  78
ENDBRANCH  39  40
ENDBRANCH  31  34
ENDBRANCH  29  30
ENDBRANCH  28  29
ENDBRANCH   1  28
TORSDOF 14
ENDMDL
MODEL 2
REMARK VINA RESULT:     -12.0      2.657      4.001
REMARK SMILES COc1ccc2[nH]c(C(=O)c3cc(C)ccn3)c(CC(=O)NCCCNC(=O)c3ccc(-c4c5nc(c(-c6ccccc6)c6ccc([nH]6)c(-c6ccccc6)c6nc(c(-c7ccccc7)c7ccc4[nH]7)C=C6)C=C5)cc3)c2c1
REMARK SMILES IDX 23 1 22 2 20 3 21 4 19 6 18 7 3 8 4 9 78 10 5 11 77 12 6 13
REMARK SMILES IDX 7 14 8 15 2 17 1 18 9 19 10 20 11 21 12 22 17 23 13 24 16 25
REMARK SMILES IDX 14 26 15 27 24 28 25 29 26 30 27 31 28 33 29 34 30 35 76 36
REMARK SMILES IDX 31 37 75 38 32 39 33 40 34 41 69 42 35 43 74 44 68 45 70 46
REMARK SMILES IDX 36 47 73 48 67 49 66 50 37 52 59 53 44 54 58 55 45 56 48 57
REMARK SMILES IDX 57 58 71 59 46 60 47 61 56 63 72 64 49 65 38 66 39 67 43 68
REMARK SMILES IDX 40 69 42 70 41 71 60 72 61 73 65 74 62 75 64 76 63 77 50 78
REMARK SMILES IDX 51 79 55 80 52 81 54 82 53 83
REMARK H PARENT 22 5 7 16 26 32 70 51 48 62
REMARK Flexibility Score: inf
ROOT
ATOM      1  C   UNL A   1      37.340  21.338  24.252  1.00  0.00     0.117 C 
ENDROOT
BRANCH   1   2
ATOM      2  N   UNL A   1      37.653  22.399  25.186  1.00  0.00    -0.356 N 
ATOM      3  C   UNL A   1      37.020  23.589  25.406  1.00  0.00     0.224 C 
ATOM      4  O   UNL A   1      37.366  24.220  26.407  1.00  0.00    -0.275 OA
ATOM      5  H   UNL A   1      38.444  22.238  25.750  1.00  0.00     0.163 HD
BRANCH   3   6
ATOM      6  C   UNL A   1      35.858  24.048  24.531  1.00  0.00     0.138 C 
BRANCH   6   7
ATOM      7  C   UNL A   1      34.523  24.123  25.227  1.00  0.00    -0.002 A 
ATOM      8  C   UNL A   1      32.898  27.596  25.257  1.00  0.00     0.119 A 
ATOM      9  C   UNL A   1      31.799  27.237  26.033  1.00  0.00     0.048 A 
ATOM     10  C   UNL A   1      33.843  26.633  24.886  1.00  0.00     0.057 A 
ATOM     11  C   UNL A   1      31.633  25.920  26.480  1.00  0.00     0.030 A 
ATOM     12  C   UNL A   1      33.717  25.306  25.347  1.00  0.00     0.008 A 
ATOM     13  C   UNL A   1      32.611  24.983  26.124  1.00  0.00     0.046 A 
ATOM     14  N   UNL A   1      32.708  23.647  26.425  1.00  0.00    -0.352 N 
ATOM     15  C   UNL A   1      33.815  23.079  25.828  1.00  0.00     0.093 A 
ATOM     16  H   UNL A   1      32.071  23.157  26.994  1.00  0.00     0.167 HD
BRANCH   8  17
ATOM     17  O   UNL A   1      33.129  28.855  24.769  1.00  0.00    -0.497 OA
ATOM     18  C   UNL A   1      32.560  29.907  25.543  1.00  0.00     0.278 C 
ENDBRANCH   8  17
BRANCH  15  19
ATOM     19  C   UNL A   1      34.147  21.657  25.859  1.00  0.00     0.227 C 
ATOM     20  O   UNL A   1      34.929  21.163  26.669  1.00  0.00    -0.285 OA
BRANCH  19  21
ATOM     21  C   UNL A   1      33.572  20.757  24.826  1.00  0.00     0.113 A 
ATOM     22  C   UNL A   1      33.969  19.424  24.776  1.00  0.00     0.036 A 
ATOM     23  N   UNL A   1      32.663  21.310  23.985  1.00  0.00    -0.253 NA
ATOM     24  C   UNL A   1      33.396  18.599  23.805  1.00  0.00    -0.047 A 
ATOM     25  C   UNL A   1      32.097  20.483  23.085  1.00  0.00     0.112 A 
ATOM     26  C   UNL A   1      33.774  17.153  23.689  1.00  0.00     0.044 C 
ATOM     27  C   UNL A   1      32.429  19.142  22.954  1.00  0.00     0.023 A 
ENDBRANCH  19  21
ENDBRANCH  15  19
ENDBRANCH   6   7
ENDBRANCH   3   6
ENDBRANCH   1   2
BRANCH   1  28
ATOM     28  C   UNL A   1      37.906  19.986  24.676  1.00  0.00     0.042 C 
BRANCH  28  29
ATOM     29  C   UNL A   1      38.754  20.026  25.944  1.00  0.00     0.118 C 
BRANCH  29  30
ATOM     30  N   UNL A   1      39.984  19.256  25.827  1.00  0.00    -0.352 N 
ATOM     31  C   UNL A   1      41.292  19.629  26.008  1.00  0.00     0.251 C 
ATOM     32  H   UNL A   1      39.857  18.311  25.576  1.00  0.00     0.163 HD
ATOM     33  O   UNL A   1      42.191  18.851  25.693  1.00  0.00    -0.269 OA
BRANCH  31  34
ATOM     34  C   UNL A   1      41.642  20.957  26.559  1.00  0.00     0.039 A 
ATOM     35  C   UNL A   1      42.100  21.946  25.680  1.00  0.00     0.014 A 
ATOM     36  C   UNL A   1      41.578  21.222  27.930  1.00  0.00     0.014 A 
ATOM     37  C   UNL A   1      42.434  23.213  26.165  1.00  0.00     0.010 A 
ATOM     38  C   UNL A   1      41.854  22.504  28.404  1.00  0.00     0.010 A 
ATOM     39  C   UNL A   1      42.285  23.512  27.528  1.00  0.00    -0.014 A 
BRANCH  39  40
ATOM     40  C   UNL A   1      42.580  24.866  28.060  1.00  0.00     0.031 A 
ATOM     41  C   UNL A   1      43.970  25.214  28.517  1.00  0.00     0.074 A 
ATOM     42  C   UNL A   1      41.585  25.764  28.193  1.00  0.00     0.049 A 
ATOM     43  N   UNL A   1      44.398  26.299  29.111  1.00  0.00    -0.248 NA
ATOM     44  C   UNL A   1      45.013  24.199  28.293  1.00  0.00     0.031 C 
ATOM     45  C   UNL A   1      40.190  25.552  27.803  1.00  0.00     0.029 A 
ATOM     46  N   UNL A   1      41.596  27.037  28.708  1.00  0.00    -0.354 N 
ATOM     47  C   UNL A   1      45.750  26.091  29.351  1.00  0.00     0.074 A 
ATOM     48  C   UNL A   1      46.066  24.764  28.868  1.00  0.00     0.031 C 
ATOM     49  C   UNL A   1      39.484  26.662  28.075  1.00  0.00     0.029 A 
ATOM     50  C   UNL A   1      40.365  27.646  28.697  1.00  0.00     0.049 A 
ATOM     51  H   UNL A   1      42.410  27.473  29.052  1.00  0.00     0.167 HD
ATOM     52  C   UNL A   1      46.651  26.932  29.909  1.00  0.00     0.031 A 
ATOM     53  C   UNL A   1      39.984  28.856  29.149  1.00  0.00     0.031 A 
ATOM     54  C   UNL A   1      46.347  28.259  30.376  1.00  0.00     0.049 A 
ATOM     55  C   UNL A   1      41.001  29.763  29.783  1.00  0.00     0.074 A 
ATOM     56  C   UNL A   1      47.204  29.195  30.930  1.00  0.00     0.029 A 
ATOM     57  N   UNL A   1      45.091  28.839  30.336  1.00  0.00    -0.354 N 
ATOM     58  N   UNL A   1      42.280  29.559  29.978  1.00  0.00    -0.248 NA
ATOM     59  C   UNL A   1      40.519  31.070  30.252  1.00  0.00     0.031 C 
ATOM     60  C   UNL A   1      46.457  30.334  31.253  1.00  0.00     0.029 A 
ATOM     61  C   UNL A   1      45.145  30.118  30.863  1.00  0.00     0.049 A 
ATOM     62  H   UNL A   1      44.279  28.406  29.985  1.00  0.00     0.167 HD
ATOM     63  C   UNL A   1      42.762  30.721  30.564  1.00  0.00     0.074 A 
ATOM     64  C   UNL A   1      41.640  31.629  30.686  1.00  0.00     0.031 C 
ATOM     65  C   UNL A   1      44.023  31.012  30.965  1.00  0.00     0.031 A 
BRANCH  52  66
ATOM     66  C   UNL A   1      48.063  26.437  30.050  1.00  0.00    -0.014 A 
ATOM     67  C   UNL A   1      48.491  25.799  31.223  1.00  0.00     0.009 A 
ATOM     68  C   UNL A   1      48.963  26.573  28.981  1.00  0.00     0.009 A 
ATOM     69  C   UNL A   1      49.802  25.334  31.336  1.00  0.00     0.001 A 
ATOM     70  C   UNL A   1      50.266  26.086  29.088  1.00  0.00     0.001 A 
ATOM     71  C   UNL A   1      50.687  25.473  30.267  1.00  0.00     0.000 A 
ENDBRANCH  52  66
BRANCH  53  72
ATOM     72  C   UNL A   1      38.570  29.291  29.016  1.00  0.00    -0.014 A 
ATOM     73  C   UNL A   1      38.099  29.801  27.796  1.00  0.00     0.009 A 
ATOM     74  C   UNL A   1      37.692  29.218  30.107  1.00  0.00     0.009 A 
ATOM     75  C   UNL A   1      36.784  30.256  27.681  1.00  0.00     0.001 A 
ATOM     76  C   UNL A   1      36.370  29.651  29.982  1.00  0.00     0.001 A 
ATOM     77  C   UNL A   1      35.920  30.177  28.772  1.00  0.00     0.000 A 
ENDBRANCH  53  72
BRANCH  65  78
ATOM     78  C   UNL A   1      44.266  32.382  31.526  1.00  0.00    -0.014 A 
ATOM     79  C   UNL A   1      44.171  32.632  32.903  1.00  0.00     0.009 A 
ATOM     80  C   UNL A   1      44.639  33.427  30.666  1.00  0.00     0.009 A 
ATOM     81  C   UNL A   1      44.418  33.911  33.405  1.00  0.00     0.001 A 
ATOM     82  C   UNL A   1      44.908  34.698  31.173  1.00  0.00     0.001 A 
ATOM     83  C   UNL A   1      44.789  34.941  32.540  1.00  0.00     0.000 A 
ENDBRANCH  65  78
ENDBRANCH  39  40
ENDBRANCH  31  34
ENDBRANCH  29  30
ENDBRANCH  28  29
ENDBRANCH   1  28
TORSDOF 14
ENDMDL
MODEL 3
REMARK VINA RESULT:     -12.0      2.373      7.951
REMARK SMILES COc1ccc2[nH]c(C(=O)c3cc(C)ccn3)c(CC(=O)NCCCNC(=O)c3ccc(-c4c5nc(c(-c6ccccc6)c6ccc([nH]6)c(-c6ccccc6)c6nc(c(-c7ccccc7)c7ccc4[nH]7)C=C6)C=C5)cc3)c2c1
REMARK SMILES IDX 23 1 22 2 20 3 21 4 19 6 18 7 3 8 4 9 78 10 5 11 77 12 6 13
REMARK SMILES IDX 7 14 8 15 2 17 1 18 9 19 10 20 11 21 12 22 17 23 13 24 16 25
REMARK SMILES IDX 14 26 15 27 24 28 25 29 26 30 27 31 28 33 29 34 30 35 76 36
REMARK SMILES IDX 31 37 75 38 32 39 33 40 34 41 69 42 35 43 74 44 68 45 70 46
REMARK SMILES IDX 36 47 73 48 67 49 66 50 37 52 59 53 44 54 58 55 45 56 48 57
REMARK SMILES IDX 57 58 71 59 46 60 47 61 56 63 72 64 49 65 38 66 39 67 43 68
REMARK SMILES IDX 40 69 42 70 41 71 60 72 61 73 65 74 62 75 64 76 63 77 50 78
REMARK SMILES IDX 51 79 55 80 52 81 54 82 53 83
REMARK H PARENT 22 5 7 16 26 32 70 51 48 62
REMARK Flexibility Score: inf
ROOT
ATOM      1  C   UNL A   1      32.346  27.224  25.944  1.00  0.00     0.117 C 
ENDROOT
BRANCH   1   2
ATOM      2  N   UNL A   1      31.724  26.059  26.539  1.00  0.00    -0.356 N 
ATOM      3  C   UNL A   1      32.084  24.743  26.474  1.00  0.00     0.224 C 
ATOM      4  O   UNL A   1      31.506  23.976  27.247  1.00  0.00    -0.275 OA
ATOM      5  H   UNL A   1      30.918  26.245  27.074  1.00  0.00     0.163 HD
BRANCH   3   6
ATOM      6  C   UNL A   1      33.231  24.274  25.586  1.00  0.00     0.138 C 
BRANCH   6   7
ATOM      7  C   UNL A   1      32.815  23.528  24.344  1.00  0.00    -0.002 A 
ATOM      8  C   UNL A   1      32.483  19.730  24.762  1.00  0.00     0.119 A 
ATOM      9  C   UNL A   1      32.188  19.461  23.428  1.00  0.00     0.048 A 
ATOM     10  C   UNL A   1      32.662  21.050  25.191  1.00  0.00     0.057 A 
ATOM     11  C   UNL A   1      32.095  20.496  22.489  1.00  0.00     0.030 A 
ATOM     12  C   UNL A   1      32.604  22.109  24.261  1.00  0.00     0.008 A 
ATOM     13  C   UNL A   1      32.313  21.805  22.936  1.00  0.00     0.046 A 
ATOM     14  N   UNL A   1      32.296  22.992  22.247  1.00  0.00    -0.352 N 
ATOM     15  C   UNL A   1      32.516  24.063  23.088  1.00  0.00     0.093 A 
ATOM     16  H   UNL A   1      32.146  23.069  21.277  1.00  0.00     0.167 HD
BRANCH   8  17
ATOM     17  O   UNL A   1      32.579  18.781  25.745  1.00  0.00    -0.497 OA
ATOM     18  C   UNL A   1      32.563  17.436  25.277  1.00  0.00     0.278 C 
ENDBRANCH   8  17
BRANCH  15  19
ATOM     19  C   UNL A   1      32.454  25.467  22.691  1.00  0.00     0.227 C 
ATOM     20  O   UNL A   1      33.407  26.076  22.207  1.00  0.00    -0.285 OA
BRANCH  19  21
ATOM     21  C   UNL A   1      31.205  26.233  22.938  1.00  0.00     0.113 A 
ATOM     22  C   UNL A   1      31.099  27.544  22.480  1.00  0.00     0.036 A 
ATOM     23  N   UNL A   1      30.219  25.580  23.602  1.00  0.00    -0.253 NA
ATOM     24  C   UNL A   1      29.906  28.231  22.711  1.00  0.00    -0.047 A 
ATOM     25  C   UNL A   1      29.065  26.252  23.776  1.00  0.00     0.112 A 
ATOM     26  C   UNL A   1      29.718  29.645  22.248  1.00  0.00     0.044 C 
ATOM     27  C   UNL A   1      28.865  27.561  23.360  1.00  0.00     0.023 A 
ENDBRANCH  19  21
ENDBRANCH  15  19
ENDBRANCH   6   7
ENDBRANCH   3   6
ENDBRANCH   1   2
BRANCH   1  28
ATOM     28  C   UNL A   1      33.003  28.138  26.973  1.00  0.00     0.042 C 
BRANCH  28  29
ATOM     29  C   UNL A   1      33.948  29.180  26.380  1.00  0.00     0.118 C 
BRANCH  29  30
ATOM     30  N   UNL A   1      33.836  30.480  27.027  1.00  0.00    -0.352 N 
ATOM     31  C   UNL A   1      34.630  31.079  27.972  1.00  0.00     0.251 C 
ATOM     32  H   UNL A   1      33.062  31.018  26.739  1.00  0.00     0.163 HD
ATOM     33  O   UNL A   1      34.255  32.121  28.504  1.00  0.00    -0.269 OA
BRANCH  31  34
ATOM     34  C   UNL A   1      35.925  30.484  28.375  1.00  0.00     0.039 A 
ATOM     35  C   UNL A   1      37.021  30.625  27.516  1.00  0.00     0.014 A 
ATOM     36  C   UNL A   1      36.056  29.745  29.554  1.00  0.00     0.014 A 
ATOM     37  C   UNL A   1      38.260  30.080  27.867  1.00  0.00     0.010 A 
ATOM     38  C   UNL A   1      37.306  29.254  29.931  1.00  0.00     0.010 A 
ATOM     39  C   UNL A   1      38.419  29.416  29.093  1.00  0.00    -0.014 A 
BRANCH  39  40
ATOM     40  C   UNL A   1      39.736  28.877  29.514  1.00  0.00     0.031 A 
ATOM     41  C   UNL A   1      40.640  29.692  30.399  1.00  0.00     0.074 A 
ATOM     42  C   UNL A   1      40.151  27.682  29.050  1.00  0.00     0.049 A 
ATOM     43  N   UNL A   1      41.867  29.443  30.781  1.00  0.00    -0.248 NA
ATOM     44  C   UNL A   1      40.098  30.963  30.906  1.00  0.00     0.031 C 
ATOM     45  C   UNL A   1      39.381  26.796  28.176  1.00  0.00     0.029 A 
ATOM     46  N   UNL A   1      41.333  27.012  29.244  1.00  0.00    -0.354 N 
ATOM     47  C   UNL A   1      42.251  30.533  31.552  1.00  0.00     0.074 A 
ATOM     48  C   UNL A   1      41.140  31.459  31.558  1.00  0.00     0.031 C 
ATOM     49  C   UNL A   1      40.103  25.692  27.923  1.00  0.00     0.029 A 
ATOM     50  C   UNL A   1      41.400  25.811  28.581  1.00  0.00     0.049 A 
ATOM     51  H   UNL A   1      42.065  27.359  29.806  1.00  0.00     0.167 HD
ATOM     52  C   UNL A   1      43.417  30.738  32.208  1.00  0.00     0.031 A 
ATOM     53  C   UNL A   1      42.399  24.911  28.501  1.00  0.00     0.031 A 
ATOM     54  C   UNL A   1      44.519  29.814  32.219  1.00  0.00     0.049 A 
ATOM     55  C   UNL A   1      43.691  25.173  29.223  1.00  0.00     0.074 A 
ATOM     56  C   UNL A   1      45.730  29.924  32.881  1.00  0.00     0.029 A 
ATOM     57  N   UNL A   1      44.541  28.605  31.544  1.00  0.00    -0.354 N 
ATOM     58  N   UNL A   1      44.027  26.197  29.968  1.00  0.00    -0.248 NA
ATOM     59  C   UNL A   1      44.739  24.150  29.096  1.00  0.00     0.031 C 
ATOM     60  C   UNL A   1      46.498  28.793  32.580  1.00  0.00     0.029 A 
ATOM     61  C   UNL A   1      45.747  27.963  31.765  1.00  0.00     0.049 A 
ATOM     62  H   UNL A   1      43.806  28.255  30.989  1.00  0.00     0.167 HD
ATOM     63  C   UNL A   1      45.310  25.928  30.423  1.00  0.00     0.074 A 
ATOM     64  C   UNL A   1      45.690  24.642  29.876  1.00  0.00     0.031 C 
ATOM     65  C   UNL A   1      46.103  26.679  31.224  1.00  0.00     0.031 A 
BRANCH  52  66
ATOM     66  C   UNL A   1      43.562  32.024  32.972  1.00  0.00    -0.014 A 
ATOM     67  C   UNL A   1      43.173  32.113  34.316  1.00  0.00     0.009 A 
ATOM     68  C   UNL A   1      44.134  33.146  32.352  1.00  0.00     0.009 A 
ATOM     69  C   UNL A   1      43.324  33.311  35.017  1.00  0.00     0.001 A 
ATOM     70  C   UNL A   1      44.306  34.335  33.061  1.00  0.00     0.001 A 
ATOM     71  C   UNL A   1      43.894  34.419  34.391  1.00  0.00     0.000 A 
ENDBRANCH  52  66
BRANCH  53  72
ATOM     72  C   UNL A   1      42.221  23.667  27.709  1.00  0.00    -0.014 A 
ATOM     73  C   UNL A   1      41.722  22.506  28.319  1.00  0.00     0.009 A 
ATOM     74  C   UNL A   1      42.566  23.627  26.350  1.00  0.00     0.009 A 
ATOM     75  C   UNL A   1      41.598  21.322  27.590  1.00  0.00     0.001 A 
ATOM     76  C   UNL A   1      42.418  22.448  25.617  1.00  0.00     0.001 A 
ATOM     77  C   UNL A   1      41.943  21.295  26.238  1.00  0.00     0.000 A 
ENDBRANCH  53  72
BRANCH  65  78
ATOM     78  C   UNL A   1      47.440  26.107  31.597  1.00  0.00    -0.014 A 
ATOM     79  C   UNL A   1      47.627  25.425  32.809  1.00  0.00     0.009 A 
ATOM     80  C   UNL A   1      48.514  26.216  30.700  1.00  0.00     0.009 A 
ATOM     81  C   UNL A   1      48.875  24.887  33.127  1.00  0.00     0.001 A 
ATOM     82  C   UNL A   1      49.753  25.657  31.012  1.00  0.00     0.001 A 
ATOM     83  C   UNL A   1      49.936  25.001  32.227  1.00  0.00     0.000 A 
ENDBRANCH  65  78
ENDBRANCH  39  40
ENDBRANCH  31  34
ENDBRANCH  29  30
ENDBRANCH  28  29
ENDBRANCH   1  28
TORSDOF 14
ENDMDL
