MODEL 1
REMARK VINA RESULT:     -10.3      0.000      0.000
REMARK SMILES CCn1ccc2cc(S(=O)(=O)N3CCC[C@@H](C(=O)NCCCNC(=O)c4ccc(-c5c6nc(c(-c7ccccc7)c7ccc([nH]7)c(-c7ccccc7)c7nc(c(-c8ccccc8)c8ccc5[nH]8)C=C7)C=C6)cc4)C3)ccc21
REMARK SMILES IDX 20 1 19 2 17 3 18 4 16 6 12 7 13 8 74 9 14 10 15 11 9 12
REMARK SMILES IDX 10 13 11 14 8 15 3 16 4 17 77 18 5 19 6 20 76 21 7 22 75 23
REMARK SMILES IDX 2 24 1 25 21 26 22 27 23 28 24 29 25 31 26 32 27 33 73 34
REMARK SMILES IDX 28 35 72 36 29 37 30 38 31 39 66 40 32 41 71 42 65 43 67 44
REMARK SMILES IDX 33 45 70 46 64 47 63 48 34 50 56 51 41 52 55 53 42 54 45 55
REMARK SMILES IDX 54 56 68 57 43 58 44 59 53 61 69 62 46 63 35 64 36 65 40 66
REMARK SMILES IDX 37 67 39 68 38 69 57 70 58 71 62 72 59 73 61 74 60 75 47 76
REMARK SMILES IDX 48 77 52 78 49 79 51 80 50 81
REMARK H PARENT 19 5 23 30 67 49 45 60
REMARK Flexibility Score: inf
ROOT
ATOM      1  C   UNL A   1      32.944  35.005  29.778  1.00  0.00     0.117 C 
ENDROOT
BRANCH   1   2
ATOM      2  N   UNL A   1      33.134  35.421  31.155  1.00  0.00    -0.356 N 
ATOM      3  C   UNL A   1      34.120  35.144  32.052  1.00  0.00     0.224 C 
ATOM      4  O   UNL A   1      34.107  35.783  33.108  1.00  0.00    -0.275 OA
ATOM      5  H   UNL A   1      32.423  36.008  31.503  1.00  0.00     0.163 HD
BRANCH   3   6
ATOM      6  C   UNL A   1      35.162  34.054  31.825  1.00  0.00     0.093 C 
ATOM      7  N   UNL A   1      37.471  33.389  32.599  1.00  0.00    -0.197 NA
ATOM      8  C   UNL A   1      36.978  32.049  32.974  1.00  0.00     0.102 C 
ATOM      9  C   UNL A   1      36.477  34.485  32.473  1.00  0.00     0.116 C 
ATOM     10  C   UNL A   1      35.816  31.640  32.082  1.00  0.00     0.018 C 
ATOM     11  C   UNL A   1      34.677  32.646  32.169  1.00  0.00     0.016 C 
BRANCH   7  12
ATOM     12  S   UNL A   1      39.025  33.837  33.160  1.00  0.00     0.243 S 
ATOM     13  O   UNL A   1      39.655  32.635  33.671  1.00  0.00    -0.207 OA
ATOM     14  O   UNL A   1      38.876  35.017  33.980  1.00  0.00    -0.207 OA
BRANCH  12  15
ATOM     15  C   UNL A   1      39.989  34.329  31.740  1.00  0.00     0.083 A 
ATOM     16  N   UNL A   1      42.621  35.263  28.686  1.00  0.00    -0.348 N 
ATOM     17  C   UNL A   1      43.823  35.287  29.346  1.00  0.00     0.087 A 
ATOM     18  C   UNL A   1      41.602  34.994  29.579  1.00  0.00     0.048 A 
ATOM     19  C   UNL A   1      43.590  34.990  30.669  1.00  0.00     0.028 A 
ATOM     20  C   UNL A   1      42.194  34.784  30.829  1.00  0.00     0.001 A 
ATOM     21  C   UNL A   1      40.218  34.912  29.393  1.00  0.00     0.028 A 
ATOM     22  C   UNL A   1      41.377  34.444  31.927  1.00  0.00     0.032 A 
ATOM     23  C   UNL A   1      39.426  34.571  30.490  1.00  0.00     0.024 A 
BRANCH  16  24
ATOM     24  C   UNL A   1      42.458  35.521  27.264  1.00  0.00     0.119 C 
ATOM     25  C   UNL A   1      42.300  36.998  26.928  1.00  0.00     0.027 C 
ENDBRANCH  16  24
ENDBRANCH  12  15
ENDBRANCH   7  12
ENDBRANCH   3   6
ENDBRANCH   1   2
BRANCH   1  26
ATOM     26  C   UNL A   1      33.954  35.598  28.799  1.00  0.00     0.042 C 
BRANCH  26  27
ATOM     27  C   UNL A   1      34.947  34.614  28.178  1.00  0.00     0.118 C 
BRANCH  27  28
ATOM     28  N   UNL A   1      34.363  33.386  27.679  1.00  0.00    -0.352 N 
ATOM     29  C   UNL A   1      34.598  32.054  27.879  1.00  0.00     0.251 C 
ATOM     30  H   UNL A   1      33.625  33.548  27.048  1.00  0.00     0.163 HD
ATOM     31  O   UNL A   1      33.723  31.287  27.471  1.00  0.00    -0.269 OA
BRANCH  29  32
ATOM     32  C   UNL A   1      35.834  31.470  28.467  1.00  0.00     0.039 A 
ATOM     33  C   UNL A   1      37.003  32.169  28.763  1.00  0.00     0.014 A 
ATOM     34  C   UNL A   1      35.831  30.070  28.633  1.00  0.00     0.014 A 
ATOM     35  C   UNL A   1      38.168  31.483  29.095  1.00  0.00     0.010 A 
ATOM     36  C   UNL A   1      36.984  29.380  28.986  1.00  0.00     0.010 A 
ATOM     37  C   UNL A   1      38.168  30.086  29.159  1.00  0.00    -0.014 A 
BRANCH  37  38
ATOM     38  C   UNL A   1      39.425  29.417  29.488  1.00  0.00     0.031 A 
ATOM     39  C   UNL A   1      39.753  29.363  30.936  1.00  0.00     0.074 A 
ATOM     40  C   UNL A   1      40.199  28.785  28.583  1.00  0.00     0.049 A 
ATOM     41  N   UNL A   1      40.771  29.877  31.543  1.00  0.00    -0.248 NA
ATOM     42  C   UNL A   1      38.774  28.727  31.831  1.00  0.00     0.031 C 
ATOM     43  C   UNL A   1      39.853  28.466  27.195  1.00  0.00     0.029 A 
ATOM     44  N   UNL A   1      41.420  28.188  28.746  1.00  0.00    -0.354 N 
ATOM     45  C   UNL A   1      40.663  29.474  32.873  1.00  0.00     0.074 A 
ATOM     46  C   UNL A   1      39.352  28.896  33.020  1.00  0.00     0.031 C 
ATOM     47  C   UNL A   1      40.713  27.535  26.726  1.00  0.00     0.029 A 
ATOM     48  C   UNL A   1      41.757  27.324  27.715  1.00  0.00     0.049 A 
ATOM     49  H   UNL A   1      42.002  28.355  29.522  1.00  0.00     0.167 HD
ATOM     50  C   UNL A   1      41.748  29.425  33.693  1.00  0.00     0.031 A 
ATOM     51  C   UNL A   1      42.788  26.448  27.688  1.00  0.00     0.031 A 
ATOM     52  C   UNL A   1      42.865  30.148  33.147  1.00  0.00     0.049 A 
ATOM     53  C   UNL A   1      43.821  26.899  28.644  1.00  0.00     0.074 A 
ATOM     54  C   UNL A   1      43.253  31.462  33.035  1.00  0.00     0.029 A 
ATOM     55  N   UNL A   1      43.653  29.409  32.306  1.00  0.00    -0.354 N 
ATOM     56  N   UNL A   1      44.490  28.008  28.509  1.00  0.00    -0.248 NA
ATOM     57  C   UNL A   1      43.945  26.249  29.944  1.00  0.00     0.031 C 
ATOM     58  C   UNL A   1      44.163  31.511  31.937  1.00  0.00     0.029 A 
ATOM     59  C   UNL A   1      44.321  30.222  31.429  1.00  0.00     0.049 A 
ATOM     60  H   UNL A   1      43.729  28.428  32.329  1.00  0.00     0.167 HD
ATOM     61  C   UNL A   1      44.756  28.407  29.804  1.00  0.00     0.074 A 
ATOM     62  C   UNL A   1      44.572  27.215  30.619  1.00  0.00     0.031 C 
ATOM     63  C   UNL A   1      44.773  29.726  30.144  1.00  0.00     0.031 A 
BRANCH  50  64
ATOM     64  C   UNL A   1      41.965  28.361  34.748  1.00  0.00    -0.014 A 
ATOM     65  C   UNL A   1      41.712  26.993  34.538  1.00  0.00     0.009 A 
ATOM     66  C   UNL A   1      42.726  28.688  35.889  1.00  0.00     0.009 A 
ATOM     67  C   UNL A   1      42.202  26.004  35.397  1.00  0.00     0.001 A 
ATOM     68  C   UNL A   1      43.248  27.699  36.732  1.00  0.00     0.001 A 
ATOM     69  C   UNL A   1      42.991  26.356  36.482  1.00  0.00     0.000 A 
ENDBRANCH  50  64
BRANCH  51  70
ATOM     70  C   UNL A   1      42.788  25.085  27.114  1.00  0.00    -0.014 A 
ATOM     71  C   UNL A   1      43.449  24.840  25.896  1.00  0.00     0.009 A 
ATOM     72  C   UNL A   1      41.913  24.100  27.595  1.00  0.00     0.009 A 
ATOM     73  C   UNL A   1      43.209  23.678  25.160  1.00  0.00     0.001 A 
ATOM     74  C   UNL A   1      41.669  22.936  26.854  1.00  0.00     0.001 A 
ATOM     75  C   UNL A   1      42.302  22.734  25.630  1.00  0.00     0.000 A 
ENDBRANCH  51  70
BRANCH  63  76
ATOM     76  C   UNL A   1      45.037  30.739  29.065  1.00  0.00    -0.014 A 
ATOM     77  C   UNL A   1      46.350  31.219  28.928  1.00  0.00     0.009 A 
ATOM     78  C   UNL A   1      44.031  31.308  28.270  1.00  0.00     0.009 A 
ATOM     79  C   UNL A   1      46.648  32.252  28.038  1.00  0.00     0.001 A 
ATOM     80  C   UNL A   1      44.335  32.324  27.357  1.00  0.00     0.001 A 
ATOM     81  C   UNL A   1      45.640  32.803  27.251  1.00  0.00     0.000 A 
ENDBRANCH  63  76
ENDBRANCH  37  38
ENDBRANCH  29  32
ENDBRANCH  27  28
ENDBRANCH  26  27
ENDBRANCH   1  26
TORSDOF 13
ENDMDL
MODEL 2
REMARK VINA RESULT:     -10.1      4.873      8.344
REMARK SMILES CCn1ccc2cc(S(=O)(=O)N3CCC[C@@H](C(=O)NCCCNC(=O)c4ccc(-c5c6nc(c(-c7ccccc7)c7ccc([nH]7)c(-c7ccccc7)c7nc(c(-c8ccccc8)c8ccc5[nH]8)C=C7)C=C6)cc4)C3)ccc21
REMARK SMILES IDX 20 1 19 2 17 3 18 4 16 6 12 7 13 8 74 9 14 10 15 11 9 12
REMARK SMILES IDX 10 13 11 14 8 15 3 16 4 17 77 18 5 19 6 20 76 21 7 22 75 23
REMARK SMILES IDX 2 24 1 25 21 26 22 27 23 28 24 29 25 31 26 32 27 33 73 34
REMARK SMILES IDX 28 35 72 36 29 37 30 38 31 39 66 40 32 41 71 42 65 43 67 44
REMARK SMILES IDX 33 45 70 46 64 47 63 48 34 50 56 51 41 52 55 53 42 54 45 55
REMARK SMILES IDX 54 56 68 57 43 58 44 59 53 61 69 62 46 63 35 64 36 65 40 66
REMARK SMILES IDX 37 67 39 68 38 69 57 70 58 71 62 72 59 73 61 74 60 75 47 76
REMARK SMILES IDX 48 77 52 78 49 79 51 80 50 81
REMARK H PARENT 19 5 23 30 67 49 45 60
REMARK Flexibility Score: inf
ROOT
ATOM      1  C   UNL A   1      32.330  29.611  27.243  1.00  0.00     0.117 C 
ENDROOT
BRANCH   1   2
ATOM      2  N   UNL A   1      31.741  28.292  27.378  1.00  0.00    -0.356 N 
ATOM      3  C   UNL A   1      31.397  27.360  26.447  1.00  0.00     0.224 C 
ATOM      4  O   UNL A   1      31.071  26.247  26.868  1.00  0.00    -0.275 OA
ATOM      5  H   UNL A   1      31.558  28.023  28.308  1.00  0.00     0.163 HD
BRANCH   3   6
ATOM      6  C   UNL A   1      31.337  27.665  24.954  1.00  0.00     0.093 C 
ATOM      7  N   UNL A   1      32.058  26.680  22.744  1.00  0.00    -0.197 NA
ATOM      8  C   UNL A   1      30.673  26.758  22.238  1.00  0.00     0.102 C 
ATOM      9  C   UNL A   1      32.263  26.699  24.215  1.00  0.00     0.116 C 
ATOM     10  C   UNL A   1      29.935  27.922  22.882  1.00  0.00     0.018 C 
ATOM     11  C   UNL A   1      29.918  27.789  24.399  1.00  0.00     0.016 C 
BRANCH   7  12
ATOM     12  S   UNL A   1      33.171  25.749  21.837  1.00  0.00     0.243 S 
ATOM     13  O   UNL A   1      34.474  26.362  22.004  1.00  0.00    -0.207 OA
ATOM     14  O   UNL A   1      32.603  25.532  20.526  1.00  0.00    -0.207 OA
BRANCH  12  15
ATOM     15  C   UNL A   1      33.284  24.142  22.608  1.00  0.00     0.083 A 
ATOM     16  N   UNL A   1      33.936  20.606  24.656  1.00  0.00    -0.348 N 
ATOM     17  C   UNL A   1      35.259  20.719  25.001  1.00  0.00     0.087 A 
ATOM     18  C   UNL A   1      33.549  21.709  23.921  1.00  0.00     0.048 A 
ATOM     19  C   UNL A   1      35.725  21.923  24.523  1.00  0.00     0.028 A 
ATOM     20  C   UNL A   1      34.650  22.569  23.854  1.00  0.00     0.001 A 
ATOM     21  C   UNL A   1      32.328  22.025  23.316  1.00  0.00     0.028 A 
ATOM     22  C   UNL A   1      34.517  23.805  23.190  1.00  0.00     0.032 A 
ATOM     23  C   UNL A   1      32.213  23.254  22.666  1.00  0.00     0.024 A 
BRANCH  16  24
ATOM     24  C   UNL A   1      33.093  19.470  24.992  1.00  0.00     0.119 C 
ATOM     25  C   UNL A   1      33.534  18.170  24.334  1.00  0.00     0.027 C 
ENDBRANCH  16  24
ENDBRANCH  12  15
ENDBRANCH   7  12
ENDBRANCH   3   6
ENDBRANCH   1   2
BRANCH   1  26
ATOM     26  C   UNL A   1      33.843  29.646  27.438  1.00  0.00     0.042 C 
BRANCH  26  27
ATOM     27  C   UNL A   1      34.484  31.034  27.489  1.00  0.00     0.118 C 
BRANCH  27  28
ATOM     28  N   UNL A   1      34.397  31.701  28.773  1.00  0.00    -0.352 N 
ATOM     29  C   UNL A   1      35.261  31.910  29.812  1.00  0.00     0.251 C 
ATOM     30  H   UNL A   1      33.510  32.095  28.934  1.00  0.00     0.163 HD
ATOM     31  O   UNL A   1      34.907  32.749  30.644  1.00  0.00    -0.269 OA
BRANCH  29  32
ATOM     32  C   UNL A   1      36.525  31.162  30.052  1.00  0.00     0.039 A 
ATOM     33  C   UNL A   1      37.811  31.634  29.797  1.00  0.00     0.014 A 
ATOM     34  C   UNL A   1      36.374  29.827  30.480  1.00  0.00     0.014 A 
ATOM     35  C   UNL A   1      38.901  30.769  29.845  1.00  0.00     0.010 A 
ATOM     36  C   UNL A   1      37.461  28.964  30.554  1.00  0.00     0.010 A 
ATOM     37  C   UNL A   1      38.717  29.423  30.177  1.00  0.00    -0.014 A 
BRANCH  37  38
ATOM     38  C   UNL A   1      39.892  28.555  30.190  1.00  0.00     0.031 A 
ATOM     39  C   UNL A   1      40.561  28.415  31.508  1.00  0.00     0.074 A 
ATOM     40  C   UNL A   1      40.302  27.830  29.129  1.00  0.00     0.049 A 
ATOM     41  N   UNL A   1      41.769  28.745  31.829  1.00  0.00    -0.248 NA
ATOM     42  C   UNL A   1      39.751  27.922  32.632  1.00  0.00     0.031 C 
ATOM     43  C   UNL A   1      39.570  27.604  27.879  1.00  0.00     0.029 A 
ATOM     44  N   UNL A   1      41.412  27.043  28.989  1.00  0.00    -0.354 N 
ATOM     45  C   UNL A   1      41.936  28.333  33.150  1.00  0.00     0.074 A 
ATOM     46  C   UNL A   1      40.630  27.968  33.634  1.00  0.00     0.031 C 
ATOM     47  C   UNL A   1      40.124  26.560  27.225  1.00  0.00     0.029 A 
ATOM     48  C   UNL A   1      41.336  26.162  27.921  1.00  0.00     0.049 A 
ATOM     49  H   UNL A   1      42.190  27.097  29.590  1.00  0.00     0.167 HD
ATOM     50  C   UNL A   1      43.171  28.093  33.670  1.00  0.00     0.031 A 
ATOM     51  C   UNL A   1      42.174  25.133  27.650  1.00  0.00     0.031 A 
ATOM     52  C   UNL A   1      44.214  28.642  32.847  1.00  0.00     0.049 A 
ATOM     53  C   UNL A   1      43.472  25.391  28.305  1.00  0.00     0.074 A 
ATOM     54  C   UNL A   1      44.767  29.879  32.618  1.00  0.00     0.029 A 
ATOM     55  N   UNL A   1      44.636  27.808  31.847  1.00  0.00    -0.354 N 
ATOM     56  N   UNL A   1      44.254  26.383  27.987  1.00  0.00    -0.248 NA
ATOM     57  C   UNL A   1      43.814  24.699  29.542  1.00  0.00     0.031 C 
ATOM     58  C   UNL A   1      45.366  29.810  31.326  1.00  0.00     0.029 A 
ATOM     59  C   UNL A   1      45.183  28.525  30.816  1.00  0.00     0.049 A 
ATOM     60  H   UNL A   1      44.558  26.826  31.867  1.00  0.00     0.167 HD
ATOM     61  C   UNL A   1      44.898  26.703  29.165  1.00  0.00     0.074 A 
ATOM     62  C   UNL A   1      44.737  25.537  30.020  1.00  0.00     0.031 C 
ATOM     63  C   UNL A   1      45.211  27.994  29.467  1.00  0.00     0.031 A 
BRANCH  50  64
ATOM     64  C   UNL A   1      43.474  26.982  34.654  1.00  0.00    -0.014 A 
ATOM     65  C   UNL A   1      43.973  27.206  35.950  1.00  0.00     0.009 A 
ATOM     66  C   UNL A   1      42.969  25.693  34.392  1.00  0.00     0.009 A 
ATOM     67  C   UNL A   1      43.954  26.214  36.937  1.00  0.00     0.001 A 
ATOM     68  C   UNL A   1      42.915  24.709  35.386  1.00  0.00     0.001 A 
ATOM     69  C   UNL A   1      43.403  24.972  36.662  1.00  0.00     0.000 A 
ENDBRANCH  50  64
BRANCH  51  70
ATOM     70  C   UNL A   1      41.811  23.802  27.118  1.00  0.00    -0.014 A 
ATOM     71  C   UNL A   1      40.957  22.963  27.858  1.00  0.00     0.009 A 
ATOM     72  C   UNL A   1      42.515  23.238  26.043  1.00  0.00     0.009 A 
ATOM     73  C   UNL A   1      40.848  21.601  27.569  1.00  0.00     0.001 A 
ATOM     74  C   UNL A   1      42.408  21.871  25.756  1.00  0.00     0.001 A 
ATOM     75  C   UNL A   1      41.590  21.050  26.530  1.00  0.00     0.000 A 
ENDBRANCH  51  70
BRANCH  63  76
ATOM     76  C   UNL A   1      45.353  28.978  28.339  1.00  0.00    -0.014 A 
ATOM     77  C   UNL A   1      46.636  29.173  27.801  1.00  0.00     0.009 A 
ATOM     78  C   UNL A   1      44.304  29.787  27.876  1.00  0.00     0.009 A 
ATOM     79  C   UNL A   1      46.870  30.160  26.843  1.00  0.00     0.001 A 
ATOM     80  C   UNL A   1      44.533  30.757  26.894  1.00  0.00     0.001 A 
ATOM     81  C   UNL A   1      45.818  30.950  26.388  1.00  0.00     0.000 A 
ENDBRANCH  63  76
ENDBRANCH  37  38
ENDBRANCH  29  32
ENDBRANCH  27  28
ENDBRANCH  26  27
ENDBRANCH   1  26
TORSDOF 13
ENDMDL
MODEL 3
REMARK VINA RESULT:     -10.1      4.826     10.612
REMARK SMILES CCn1ccc2cc(S(=O)(=O)N3CCC[C@@H](C(=O)NCCCNC(=O)c4ccc(-c5c6nc(c(-c7ccccc7)c7ccc([nH]7)c(-c7ccccc7)c7nc(c(-c8ccccc8)c8ccc5[nH]8)C=C7)C=C6)cc4)C3)ccc21
REMARK SMILES IDX 20 1 19 2 17 3 18 4 16 6 12 7 13 8 74 9 14 10 15 11 9 12
REMARK SMILES IDX 10 13 11 14 8 15 3 16 4 17 77 18 5 19 6 20 76 21 7 22 75 23
REMARK SMILES IDX 2 24 1 25 21 26 22 27 23 28 24 29 25 31 26 32 27 33 73 34
REMARK SMILES IDX 28 35 72 36 29 37 30 38 31 39 66 40 32 41 71 42 65 43 67 44
REMARK SMILES IDX 33 45 70 46 64 47 63 48 34 50 56 51 41 52 55 53 42 54 45 55
REMARK SMILES IDX 54 56 68 57 43 58 44 59 53 61 69 62 46 63 35 64 36 65 40 66
REMARK SMILES IDX 37 67 39 68 38 69 57 70 58 71 62 72 59 73 61 74 60 75 47 76
REMARK SMILES IDX 48 77 52 78 49 79 51 80 50 81
REMARK H PARENT 19 5 23 30 67 49 45 60
REMARK Flexibility Score: inf
ROOT
ATOM      1  C   UNL A   1      37.981  21.437  25.427  1.00  0.00     0.117 C 
ENDROOT
BRANCH   1   2
ATOM      2  N   UNL A   1      37.400  22.010  24.227  1.00  0.00    -0.356 N 
ATOM      3  C   UNL A   1      36.116  22.340  23.918  1.00  0.00     0.224 C 
ATOM      4  O   UNL A   1      35.941  22.975  22.874  1.00  0.00    -0.275 OA
ATOM      5  H   UNL A   1      38.050  22.191  23.509  1.00  0.00     0.163 HD
BRANCH   3   6
ATOM      6  C   UNL A   1      34.923  21.900  24.759  1.00  0.00     0.093 C 
ATOM      7  N   UNL A   1      32.453  22.356  25.008  1.00  0.00    -0.197 NA
ATOM      8  C   UNL A   1      32.154  20.918  24.858  1.00  0.00     0.102 C 
ATOM      9  C   UNL A   1      33.757  22.852  24.500  1.00  0.00     0.116 C 
ATOM     10  C   UNL A   1      33.308  20.077  25.384  1.00  0.00     0.018 C 
ATOM     11  C   UNL A   1      34.604  20.408  24.658  1.00  0.00     0.016 C 
BRANCH   7  12
ATOM     12  S   UNL A   1      31.135  23.444  24.902  1.00  0.00     0.243 S 
ATOM     13  O   UNL A   1      30.256  23.156  26.018  1.00  0.00    -0.207 OA
ATOM     14  O   UNL A   1      30.655  23.426  23.539  1.00  0.00    -0.207 OA
BRANCH  12  15
ATOM     15  C   UNL A   1      31.770  25.088  25.191  1.00  0.00     0.083 A 
ATOM     16  N   UNL A   1      33.088  29.006  25.389  1.00  0.00    -0.348 N 
ATOM     17  C   UNL A   1      33.272  29.309  24.064  1.00  0.00     0.087 A 
ATOM     18  C   UNL A   1      32.671  27.695  25.515  1.00  0.00     0.048 A 
ATOM     19  C   UNL A   1      32.934  28.202  23.320  1.00  0.00     0.028 A 
ATOM     20  C   UNL A   1      32.534  27.179  24.222  1.00  0.00     0.001 A 
ATOM     21  C   UNL A   1      32.400  26.924  26.650  1.00  0.00     0.028 A 
ATOM     22  C   UNL A   1      32.074  25.857  24.055  1.00  0.00     0.032 A 
ATOM     23  C   UNL A   1      31.943  25.619  26.466  1.00  0.00     0.024 A 
BRANCH  16  24
ATOM     24  C   UNL A   1      33.334  29.928  26.486  1.00  0.00     0.119 C 
ATOM     25  C   UNL A   1      34.618  29.634  27.251  1.00  0.00     0.027 C 
ENDBRANCH  16  24
ENDBRANCH  12  15
ENDBRANCH   7  12
ENDBRANCH   3   6
ENDBRANCH   1   2
BRANCH   1  26
ATOM     26  C   UNL A   1      38.971  22.353  26.144  1.00  0.00     0.042 C 
BRANCH  26  27
ATOM     27  C   UNL A   1      40.297  21.715  26.561  1.00  0.00     0.118 C 
BRANCH  27  28
ATOM     28  N   UNL A   1      41.462  22.207  25.855  1.00  0.00    -0.352 N 
ATOM     29  C   UNL A   1      42.189  23.364  25.880  1.00  0.00     0.251 C 
ATOM     30  H   UNL A   1      41.812  21.555  25.205  1.00  0.00     0.163 HD
ATOM     31  O   UNL A   1      43.281  23.325  25.308  1.00  0.00    -0.269 OA
BRANCH  29  32
ATOM     32  C   UNL A   1      41.739  24.658  26.461  1.00  0.00     0.039 A 
ATOM     33  C   UNL A   1      41.159  25.710  25.754  1.00  0.00     0.014 A 
ATOM     34  C   UNL A   1      42.028  24.848  27.827  1.00  0.00     0.014 A 
ATOM     35  C   UNL A   1      40.988  26.953  26.357  1.00  0.00     0.010 A 
ATOM     36  C   UNL A   1      41.838  26.080  28.443  1.00  0.00     0.010 A 
ATOM     37  C   UNL A   1      41.372  27.149  27.687  1.00  0.00    -0.014 A 
BRANCH  37  38
ATOM     38  C   UNL A   1      41.192  28.480  28.262  1.00  0.00     0.031 A 
ATOM     39  C   UNL A   1      42.300  29.436  28.005  1.00  0.00     0.074 A 
ATOM     40  C   UNL A   1      40.068  28.882  28.889  1.00  0.00     0.049 A 
ATOM     41  N   UNL A   1      43.065  30.020  28.867  1.00  0.00    -0.248 NA
ATOM     42  C   UNL A   1      42.653  29.705  26.603  1.00  0.00     0.031 C 
ATOM     43  C   UNL A   1      38.781  28.181  28.929  1.00  0.00     0.029 A 
ATOM     44  N   UNL A   1      39.801  30.064  29.526  1.00  0.00    -0.354 N 
ATOM     45  C   UNL A   1      43.880  30.877  28.130  1.00  0.00     0.074 A 
ATOM     46  C   UNL A   1      43.684  30.539  26.744  1.00  0.00     0.031 C 
ATOM     47  C   UNL A   1      37.820  29.042  29.330  1.00  0.00     0.029 A 
ATOM     48  C   UNL A   1      38.448  30.290  29.731  1.00  0.00     0.049 A 
ATOM     49  H   UNL A   1      40.502  30.693  29.810  1.00  0.00     0.167 HD
ATOM     50  C   UNL A   1      44.472  31.963  28.699  1.00  0.00     0.031 A 
ATOM     51  C   UNL A   1      37.866  31.440  30.145  1.00  0.00     0.031 A 
ATOM     52  C   UNL A   1      44.445  31.895  30.135  1.00  0.00     0.049 A 
ATOM     53  C   UNL A   1      38.869  32.247  30.869  1.00  0.00     0.074 A 
ATOM     54  C   UNL A   1      45.142  31.241  31.123  1.00  0.00     0.029 A 
ATOM     55  N   UNL A   1      43.307  32.405  30.699  1.00  0.00    -0.354 N 
ATOM     56  N   UNL A   1      39.417  31.878  31.991  1.00  0.00    -0.248 NA
ATOM     57  C   UNL A   1      39.504  33.382  30.210  1.00  0.00     0.031 C 
ATOM     58  C   UNL A   1      44.275  31.198  32.254  1.00  0.00     0.029 A 
ATOM     59  C   UNL A   1      43.084  31.849  31.931  1.00  0.00     0.049 A 
ATOM     60  H   UNL A   1      42.727  33.080  30.277  1.00  0.00     0.167 HD
ATOM     61  C   UNL A   1      40.679  32.434  31.956  1.00  0.00     0.074 A 
ATOM     62  C   UNL A   1      40.609  33.484  30.952  1.00  0.00     0.031 C 
ATOM     63  C   UNL A   1      41.749  31.784  32.494  1.00  0.00     0.031 A 
BRANCH  50  64
ATOM     64  C   UNL A   1      44.658  33.292  27.998  1.00  0.00    -0.014 A 
ATOM     65  C   UNL A   1      45.759  33.589  27.173  1.00  0.00     0.009 A 
ATOM     66  C   UNL A   1      43.559  34.170  27.914  1.00  0.00     0.009 A 
ATOM     67  C   UNL A   1      45.761  34.683  26.301  1.00  0.00     0.001 A 
ATOM     68  C   UNL A   1      43.543  35.245  27.017  1.00  0.00     0.001 A 
ATOM     69  C   UNL A   1      44.643  35.497  26.206  1.00  0.00     0.000 A 
ENDBRANCH  50  64
BRANCH  51  70
ATOM     70  C   UNL A   1      36.583  32.010  29.681  1.00  0.00    -0.014 A 
ATOM     71  C   UNL A   1      36.480  32.525  28.374  1.00  0.00     0.009 A 
ATOM     72  C   UNL A   1      35.557  32.313  30.588  1.00  0.00     0.009 A 
ATOM     73  C   UNL A   1      35.419  33.353  28.002  1.00  0.00     0.001 A 
ATOM     74  C   UNL A   1      34.495  33.147  30.216  1.00  0.00     0.001 A 
ATOM     75  C   UNL A   1      34.436  33.681  28.930  1.00  0.00     0.000 A 
ENDBRANCH  51  70
BRANCH  63  76
ATOM     76  C   UNL A   1      41.500  30.760  33.566  1.00  0.00    -0.014 A 
ATOM     77  C   UNL A   1      41.585  31.182  34.903  1.00  0.00     0.009 A 
ATOM     78  C   UNL A   1      41.299  29.396  33.307  1.00  0.00     0.009 A 
ATOM     79  C   UNL A   1      41.494  30.267  35.952  1.00  0.00     0.001 A 
ATOM     80  C   UNL A   1      41.179  28.482  34.360  1.00  0.00     0.001 A 
ATOM     81  C   UNL A   1      41.288  28.917  35.680  1.00  0.00     0.000 A 
ENDBRANCH  63  76
ENDBRANCH  37  38
ENDBRANCH  29  32
ENDBRANCH  27  28
ENDBRANCH  26  27
ENDBRANCH   1  26
TORSDOF 13
ENDMDL
