MODEL 1
REMARK VINA RESULT:     -12.8      0.000      0.000
REMARK SMILES O=C(NCCCNC(=O)c1ccc(-c2c3nc(c(-c4ccccc4)c4ccc([nH]4)c(-c4ccccc4)c4nc(c(-c5ccccc5)c5ccc2[nH]5)C=C4)C=C3)cc1)c1ccc(/[NH+]=C2\S[C@@H](Cc3ccc(F)cc3)C(=O)N2Cc2ccccc2)cc1
REMARK SMILES IDX 4 1 3 2 1 3 2 4 58 6 59 7 85 8 60 9 84 10 61 11 62 12 63 13
REMARK SMILES IDX 64 15 76 16 65 17 74 18 75 19 77 20 78 21 79 22 83 23 80 24
REMARK SMILES IDX 82 25 81 26 66 27 67 28 68 29 73 30 69 31 72 32 70 33 71 34
REMARK SMILES IDX 5 35 6 36 7 37 8 38 9 40 10 41 11 42 57 43 12 44 56 45 13 46
REMARK SMILES IDX 14 47 15 48 50 49 16 50 55 51 49 52 51 53 17 54 54 55 48 56
REMARK SMILES IDX 47 57 18 59 40 60 25 61 39 62 26 63 29 64 38 65 52 66 27 67
REMARK SMILES IDX 28 68 37 70 53 71 30 72 19 73 20 74 24 75 21 76 23 77 22 78
REMARK SMILES IDX 41 79 42 80 46 81 43 82 45 83 44 84 31 85 32 86 36 87 33 88
REMARK SMILES IDX 35 89 34 90
REMARK H PARENT 3 5 62 14 7 39 51 58 29 69
REMARK Flexibility Score: inf
ROOT
ATOM      1  C   UNL A   1      34.779  32.249  30.854  1.00  0.00     0.118 C 
ENDROOT
BRANCH   1   2
ATOM      2  N   UNL A   1      34.973  33.120  29.701  1.00  0.00    -0.352 N 
ATOM      3  O   UNL A   1      35.456  33.676  27.570  1.00  0.00    -0.269 OA
ATOM      4  C   UNL A   1      35.090  32.814  28.367  1.00  0.00     0.251 C 
ATOM      5  H   UNL A   1      35.028  34.080  29.912  1.00  0.00     0.163 HD
BRANCH   4   6
ATOM      6  C   UNL A   1      34.787  31.451  27.885  1.00  0.00     0.040 A 
ATOM      7  C   UNL A   1      35.811  30.519  27.732  1.00  0.00     0.018 A 
ATOM      8  C   UNL A   1      33.464  31.084  27.616  1.00  0.00     0.018 A 
ATOM      9  C   UNL A   1      35.530  29.282  27.167  1.00  0.00     0.052 A 
ATOM     10  C   UNL A   1      33.182  29.812  27.102  1.00  0.00     0.052 A 
ATOM     11  C   UNL A   1      34.223  28.923  26.826  1.00  0.00     0.125 A 
BRANCH  11  12
ATOM     12  N   UNL A   1      34.045  27.638  26.311  1.00  0.00    -0.235 N 
ATOM     13  C   UNL A   1      33.222  27.369  25.356  1.00  0.00     0.320 C 
ATOM     14  H   UNL A   1      34.574  26.902  26.695  1.00  0.00     0.313 HD
ATOM     15  S   UNL A   1      31.999  28.404  24.671  1.00  0.00    -0.022 SA
ATOM     16  N   UNL A   1      33.253  26.164  24.707  1.00  0.00    -0.186 N 
ATOM     17  C   UNL A   1      31.201  27.008  23.803  1.00  0.00     0.178 C 
ATOM     18  C   UNL A   1      32.285  25.941  23.750  1.00  0.00     0.324 C 
ATOM     19  O   UNL A   1      32.260  24.967  23.004  1.00  0.00    -0.245 OA
BRANCH  16  20
ATOM     20  C   UNL A   1      34.307  25.182  24.947  1.00  0.00     0.283 C 
BRANCH  20  21
ATOM     21  C   UNL A   1      33.924  24.125  25.966  1.00  0.00    -0.006 A 
ATOM     22  C   UNL A   1      32.603  23.983  26.409  1.00  0.00     0.008 A 
ATOM     23  C   UNL A   1      34.897  23.258  26.488  1.00  0.00     0.008 A 
ATOM     24  C   UNL A   1      32.269  22.997  27.343  1.00  0.00     0.000 A 
ATOM     25  C   UNL A   1      34.560  22.250  27.391  1.00  0.00     0.000 A 
ATOM     26  C   UNL A   1      33.244  22.121  27.823  1.00  0.00     0.000 A 
ENDBRANCH  20  21
ENDBRANCH  16  20
BRANCH  17  27
ATOM     27  C   UNL A   1      30.658  27.451  22.444  1.00  0.00     0.063 C 
BRANCH  27  28
ATOM     28  C   UNL A   1      29.714  28.633  22.501  1.00  0.00    -0.046 A 
ATOM     29  C   UNL A   1      28.453  28.488  23.105  1.00  0.00     0.007 A 
ATOM     30  C   UNL A   1      30.069  29.879  21.959  1.00  0.00     0.007 A 
ATOM     31  C   UNL A   1      27.576  29.570  23.185  1.00  0.00     0.039 A 
ATOM     32  C   UNL A   1      29.190  30.961  22.046  1.00  0.00     0.039 A 
ATOM     33  C   UNL A   1      27.955  30.798  22.661  1.00  0.00     0.123 A 
ATOM     34  F   UNL A   1      27.116  31.839  22.747  1.00  0.00    -0.207 F 
ENDBRANCH  27  28
ENDBRANCH  17  27
ENDBRANCH  11  12
ENDBRANCH   4   6
ENDBRANCH   1   2
BRANCH   1  35
ATOM     35  C   UNL A   1      34.665  33.023  32.157  1.00  0.00     0.042 C 
BRANCH  35  36
ATOM     36  C   UNL A   1      35.985  33.601  32.649  1.00  0.00     0.118 C 
BRANCH  36  37
ATOM     37  N   UNL A   1      36.417  33.027  33.917  1.00  0.00    -0.352 N 
ATOM     38  C   UNL A   1      37.337  32.045  34.187  1.00  0.00     0.251 C 
ATOM     39  H   UNL A   1      35.977  33.409  34.712  1.00  0.00     0.163 HD
ATOM     40  O   UNL A   1      37.422  31.587  35.323  1.00  0.00    -0.269 OA
BRANCH  38  41
ATOM     41  C   UNL A   1      38.205  31.512  33.115  1.00  0.00     0.039 A 
ATOM     42  C   UNL A   1      38.152  32.098  31.847  1.00  0.00     0.014 A 
ATOM     43  C   UNL A   1      39.063  30.436  33.349  1.00  0.00     0.014 A 
ATOM     44  C   UNL A   1      39.020  31.662  30.843  1.00  0.00     0.010 A 
ATOM     45  C   UNL A   1      39.988  30.064  32.381  1.00  0.00     0.010 A 
ATOM     46  C   UNL A   1      39.980  30.675  31.118  1.00  0.00    -0.014 A 
BRANCH  46  47
ATOM     47  C   UNL A   1      40.991  30.267  30.111  1.00  0.00     0.031 A 
ATOM     48  C   UNL A   1      40.844  28.960  29.382  1.00  0.00     0.074 A 
ATOM     49  C   UNL A   1      42.084  31.030  29.913  1.00  0.00     0.049 A 
ATOM     50  N   UNL A   1      41.677  28.375  28.559  1.00  0.00    -0.248 NA
ATOM     51  C   UNL A   1      39.608  28.198  29.629  1.00  0.00     0.031 C 
ATOM     52  C   UNL A   1      42.362  32.307  30.577  1.00  0.00     0.029 A 
ATOM     53  N   UNL A   1      43.174  30.833  29.103  1.00  0.00    -0.354 N 
ATOM     54  C   UNL A   1      41.078  27.172  28.208  1.00  0.00     0.074 A 
ATOM     55  C   UNL A   1      39.834  27.088  28.942  1.00  0.00     0.031 C 
ATOM     56  C   UNL A   1      43.532  32.790  30.127  1.00  0.00     0.029 A 
ATOM     57  C   UNL A   1      44.109  31.838  29.185  1.00  0.00     0.049 A 
ATOM     58  H   UNL A   1      43.277  30.048  28.518  1.00  0.00     0.167 HD
ATOM     59  C   UNL A   1      41.513  26.229  27.339  1.00  0.00     0.031 A 
ATOM     60  C   UNL A   1      45.305  31.970  28.581  1.00  0.00     0.031 A 
ATOM     61  C   UNL A   1      42.742  26.317  26.598  1.00  0.00     0.049 A 
ATOM     62  C   UNL A   1      45.781  30.892  27.648  1.00  0.00     0.074 A 
ATOM     63  C   UNL A   1      43.246  25.436  25.657  1.00  0.00     0.029 A 
ATOM     64  N   UNL A   1      43.660  27.349  26.713  1.00  0.00    -0.354 N 
ATOM     65  N   UNL A   1      45.179  29.783  27.291  1.00  0.00    -0.248 NA
ATOM     66  C   UNL A   1      47.103  31.085  27.035  1.00  0.00     0.031 C 
ATOM     67  C   UNL A   1      44.491  25.912  25.234  1.00  0.00     0.029 A 
ATOM     68  C   UNL A   1      44.738  27.115  25.877  1.00  0.00     0.049 A 
ATOM     69  H   UNL A   1      43.560  28.131  27.302  1.00  0.00     0.167 HD
ATOM     70  C   UNL A   1      46.036  29.161  26.392  1.00  0.00     0.074 A 
ATOM     71  C   UNL A   1      47.192  30.021  26.249  1.00  0.00     0.031 C 
ATOM     72  C   UNL A   1      45.879  27.983  25.743  1.00  0.00     0.031 A 
BRANCH  59  73
ATOM     73  C   UNL A   1      40.647  25.017  27.144  1.00  0.00    -0.014 A 
ATOM     74  C   UNL A   1      41.001  23.778  27.699  1.00  0.00     0.009 A 
ATOM     75  C   UNL A   1      39.444  25.123  26.429  1.00  0.00     0.009 A 
ATOM     76  C   UNL A   1      40.185  22.660  27.513  1.00  0.00     0.001 A 
ATOM     77  C   UNL A   1      38.617  24.010  26.267  1.00  0.00     0.001 A 
ATOM     78  C   UNL A   1      38.993  22.778  26.801  1.00  0.00     0.000 A 
ENDBRANCH  59  73
BRANCH  60  79
ATOM     79  C   UNL A   1      46.140  33.173  28.831  1.00  0.00    -0.014 A 
ATOM     80  C   UNL A   1      46.010  34.307  28.016  1.00  0.00     0.009 A 
ATOM     81  C   UNL A   1      47.082  33.188  29.872  1.00  0.00     0.009 A 
ATOM     82  C   UNL A   1      46.825  35.423  28.221  1.00  0.00     0.001 A 
ATOM     83  C   UNL A   1      47.876  34.316  30.092  1.00  0.00     0.001 A 
ATOM     84  C   UNL A   1      47.753  35.428  29.260  1.00  0.00     0.000 A 
ENDBRANCH  60  79
BRANCH  72  85
ATOM     85  C   UNL A   1      46.965  27.571  24.793  1.00  0.00    -0.014 A 
ATOM     86  C   UNL A   1      47.009  28.065  23.481  1.00  0.00     0.009 A 
ATOM     87  C   UNL A   1      47.987  26.715  25.235  1.00  0.00     0.009 A 
ATOM     88  C   UNL A   1      48.042  27.688  22.621  1.00  0.00     0.001 A 
ATOM     89  C   UNL A   1      49.031  26.362  24.382  1.00  0.00     0.001 A 
ATOM     90  C   UNL A   1      49.054  26.842  23.073  1.00  0.00     0.000 A 
ENDBRANCH  72  85
ENDBRANCH  46  47
ENDBRANCH  38  41
ENDBRANCH  36  37
ENDBRANCH  35  36
ENDBRANCH   1  35
TORSDOF 15
ENDMDL
MODEL 2
REMARK VINA RESULT:     -12.4      2.775      5.360
REMARK SMILES O=C(NCCCNC(=O)c1ccc(-c2c3nc(c(-c4ccccc4)c4ccc([nH]4)c(-c4ccccc4)c4nc(c(-c5ccccc5)c5ccc2[nH]5)C=C4)C=C3)cc1)c1ccc(/[NH+]=C2\S[C@@H](Cc3ccc(F)cc3)C(=O)N2Cc2ccccc2)cc1
REMARK SMILES IDX 4 1 3 2 1 3 2 4 58 6 59 7 85 8 60 9 84 10 61 11 62 12 63 13
REMARK SMILES IDX 64 15 76 16 65 17 74 18 75 19 77 20 78 21 79 22 83 23 80 24
REMARK SMILES IDX 82 25 81 26 66 27 67 28 68 29 73 30 69 31 72 32 70 33 71 34
REMARK SMILES IDX 5 35 6 36 7 37 8 38 9 40 10 41 11 42 57 43 12 44 56 45 13 46
REMARK SMILES IDX 14 47 15 48 50 49 16 50 55 51 49 52 51 53 17 54 54 55 48 56
REMARK SMILES IDX 47 57 18 59 40 60 25 61 39 62 26 63 29 64 38 65 52 66 27 67
REMARK SMILES IDX 28 68 37 70 53 71 30 72 19 73 20 74 24 75 21 76 23 77 22 78
REMARK SMILES IDX 41 79 42 80 46 81 43 82 45 83 44 84 31 85 32 86 36 87 33 88
REMARK SMILES IDX 35 89 34 90
REMARK H PARENT 3 5 62 14 7 39 51 58 29 69
REMARK Flexibility Score: inf
ROOT
ATOM      1  C   UNL A   1      34.703  32.328  30.904  1.00  0.00     0.118 C 
ENDROOT
BRANCH   1   2
ATOM      2  N   UNL A   1      34.855  33.201  29.747  1.00  0.00    -0.352 N 
ATOM      3  O   UNL A   1      35.289  33.762  27.606  1.00  0.00    -0.269 OA
ATOM      4  C   UNL A   1      34.957  32.894  28.411  1.00  0.00     0.251 C 
ATOM      5  H   UNL A   1      34.889  34.162  29.954  1.00  0.00     0.163 HD
BRANCH   4   6
ATOM      6  C   UNL A   1      34.682  31.522  27.939  1.00  0.00     0.040 A 
ATOM      7  C   UNL A   1      35.718  30.598  27.825  1.00  0.00     0.018 A 
ATOM      8  C   UNL A   1      33.370  31.138  27.638  1.00  0.00     0.018 A 
ATOM      9  C   UNL A   1      35.465  29.352  27.268  1.00  0.00     0.052 A 
ATOM     10  C   UNL A   1      33.114  29.857  27.131  1.00  0.00     0.052 A 
ATOM     11  C   UNL A   1      34.171  28.976  26.895  1.00  0.00     0.125 A 
BRANCH  11  12
ATOM     12  N   UNL A   1      34.020  27.683  26.391  1.00  0.00    -0.235 N 
ATOM     13  C   UNL A   1      33.203  27.390  25.438  1.00  0.00     0.320 C 
ATOM     14  H   UNL A   1      34.562  26.961  26.783  1.00  0.00     0.313 HD
ATOM     15  S   UNL A   1      31.961  28.393  24.742  1.00  0.00    -0.022 SA
ATOM     16  N   UNL A   1      33.259  26.179  24.799  1.00  0.00    -0.186 N 
ATOM     17  C   UNL A   1      31.193  26.975  23.885  1.00  0.00     0.178 C 
ATOM     18  C   UNL A   1      32.298  25.928  23.843  1.00  0.00     0.324 C 
ATOM     19  O   UNL A   1      32.293  24.948  23.106  1.00  0.00    -0.245 OA
BRANCH  16  20
ATOM     20  C   UNL A   1      34.332  25.221  25.049  1.00  0.00     0.283 C 
BRANCH  20  21
ATOM     21  C   UNL A   1      33.933  24.103  25.995  1.00  0.00    -0.006 A 
ATOM     22  C   UNL A   1      32.622  23.988  26.476  1.00  0.00     0.008 A 
ATOM     23  C   UNL A   1      34.879  23.151  26.407  1.00  0.00     0.008 A 
ATOM     24  C   UNL A   1      32.273  22.945  27.340  1.00  0.00     0.000 A 
ATOM     25  C   UNL A   1      34.523  22.089  27.239  1.00  0.00     0.000 A 
ATOM     26  C   UNL A   1      33.219  21.988  27.710  1.00  0.00     0.000 A 
ENDBRANCH  20  21
ENDBRANCH  16  20
BRANCH  17  27
ATOM     27  C   UNL A   1      30.643  27.394  22.521  1.00  0.00     0.063 C 
BRANCH  27  28
ATOM     28  C   UNL A   1      29.719  28.593  22.560  1.00  0.00    -0.046 A 
ATOM     29  C   UNL A   1      30.124  29.803  21.972  1.00  0.00     0.007 A 
ATOM     30  C   UNL A   1      28.460  28.525  23.178  1.00  0.00     0.007 A 
ATOM     31  C   UNL A   1      29.280  30.914  21.980  1.00  0.00     0.039 A 
ATOM     32  C   UNL A   1      27.615  29.638  23.179  1.00  0.00     0.039 A 
ATOM     33  C   UNL A   1      28.030  30.819  22.578  1.00  0.00     0.123 A 
ATOM     34  F   UNL A   1      27.217  31.883  22.577  1.00  0.00    -0.207 F 
ENDBRANCH  27  28
ENDBRANCH  17  27
ENDBRANCH  11  12
ENDBRANCH   4   6
ENDBRANCH   1   2
BRANCH   1  35
ATOM     35  C   UNL A   1      35.928  31.458  31.144  1.00  0.00     0.042 C 
BRANCH  35  36
ATOM     36  C   UNL A   1      36.432  31.486  32.580  1.00  0.00     0.118 C 
BRANCH  36  37
ATOM     37  N   UNL A   1      37.017  30.219  33.000  1.00  0.00    -0.352 N 
ATOM     38  C   UNL A   1      38.228  29.649  32.697  1.00  0.00     0.251 C 
ATOM     39  H   UNL A   1      36.449  29.683  33.601  1.00  0.00     0.163 HD
ATOM     40  O   UNL A   1      38.451  28.485  33.020  1.00  0.00    -0.269 OA
BRANCH  38  41
ATOM     41  C   UNL A   1      39.256  30.414  31.959  1.00  0.00     0.039 A 
ATOM     42  C   UNL A   1      40.156  31.208  32.679  1.00  0.00     0.014 A 
ATOM     43  C   UNL A   1      39.334  30.363  30.566  1.00  0.00     0.014 A 
ATOM     44  C   UNL A   1      41.183  31.875  32.008  1.00  0.00     0.010 A 
ATOM     45  C   UNL A   1      40.407  30.952  29.909  1.00  0.00     0.010 A 
ATOM     46  C   UNL A   1      41.347  31.712  30.623  1.00  0.00    -0.014 A 
BRANCH  46  47
ATOM     47  C   UNL A   1      42.491  32.315  29.896  1.00  0.00     0.031 A 
ATOM     48  C   UNL A   1      43.764  31.535  29.712  1.00  0.00     0.074 A 
ATOM     49  C   UNL A   1      42.418  33.594  29.478  1.00  0.00     0.049 A 
ATOM     50  N   UNL A   1      44.909  31.927  29.213  1.00  0.00    -0.248 NA
ATOM     51  C   UNL A   1      43.756  30.135  30.169  1.00  0.00     0.031 C 
ATOM     52  C   UNL A   1      41.253  34.471  29.620  1.00  0.00     0.029 A 
ATOM     53  N   UNL A   1      43.353  34.384  28.856  1.00  0.00    -0.354 N 
ATOM     54  C   UNL A   1      45.759  30.834  29.317  1.00  0.00     0.074 A 
ATOM     55  C   UNL A   1      45.015  29.778  29.966  1.00  0.00     0.031 C 
ATOM     56  C   UNL A   1      41.534  35.667  29.078  1.00  0.00     0.029 A 
ATOM     57  C   UNL A   1      42.910  35.659  28.596  1.00  0.00     0.049 A 
ATOM     58  H   UNL A   1      44.254  34.067  28.618  1.00  0.00     0.167 HD
ATOM     59  C   UNL A   1      47.039  30.713  28.892  1.00  0.00     0.031 A 
ATOM     60  C   UNL A   1      43.548  36.710  28.046  1.00  0.00     0.031 A 
ATOM     61  C   UNL A   1      47.777  31.757  28.233  1.00  0.00     0.049 A 
ATOM     62  C   UNL A   1      44.980  36.559  27.616  1.00  0.00     0.074 A 
ATOM     63  C   UNL A   1      49.063  31.714  27.723  1.00  0.00     0.029 A 
ATOM     64  N   UNL A   1      47.292  33.033  27.994  1.00  0.00    -0.354 N 
ATOM     65  N   UNL A   1      45.754  35.503  27.677  1.00  0.00    -0.248 NA
ATOM     66  C   UNL A   1      45.626  37.748  27.040  1.00  0.00     0.031 C 
ATOM     67  C   UNL A   1      49.373  32.977  27.212  1.00  0.00     0.029 A 
ATOM     68  C   UNL A   1      48.262  33.793  27.362  1.00  0.00     0.049 A 
ATOM     69  H   UNL A   1      46.394  33.351  28.236  1.00  0.00     0.167 HD
ATOM     70  C   UNL A   1      46.968  35.891  27.125  1.00  0.00     0.074 A 
ATOM     71  C   UNL A   1      46.823  37.275  26.722  1.00  0.00     0.031 C 
ATOM     72  C   UNL A   1      48.100  35.167  26.964  1.00  0.00     0.031 A 
BRANCH  59  73
ATOM     73  C   UNL A   1      47.724  29.396  29.130  1.00  0.00    -0.014 A 
ATOM     74  C   UNL A   1      48.438  29.155  30.314  1.00  0.00     0.009 A 
ATOM     75  C   UNL A   1      47.623  28.371  28.176  1.00  0.00     0.009 A 
ATOM     76  C   UNL A   1      49.066  27.926  30.523  1.00  0.00     0.001 A 
ATOM     77  C   UNL A   1      48.230  27.134  28.400  1.00  0.00     0.001 A 
ATOM     78  C   UNL A   1      48.958  26.917  29.569  1.00  0.00     0.000 A 
ENDBRANCH  59  73
BRANCH  60  79
ATOM     79  C   UNL A   1      42.837  38.002  27.861  1.00  0.00    -0.014 A 
ATOM     80  C   UNL A   1      42.147  38.267  26.669  1.00  0.00     0.009 A 
ATOM     81  C   UNL A   1      42.860  38.982  28.865  1.00  0.00     0.009 A 
ATOM     82  C   UNL A   1      41.517  39.497  26.474  1.00  0.00     0.001 A 
ATOM     83  C   UNL A   1      42.203  40.201  28.680  1.00  0.00     0.001 A 
ATOM     84  C   UNL A   1      41.541  40.461  27.481  1.00  0.00     0.000 A 
ENDBRANCH  60  79
BRANCH  72  85
ATOM     85  C   UNL A   1      49.261  35.844  26.296  1.00  0.00    -0.014 A 
ATOM     86  C   UNL A   1      50.261  36.480  27.046  1.00  0.00     0.009 A 
ATOM     87  C   UNL A   1      49.379  35.801  24.897  1.00  0.00     0.009 A 
ATOM     88  C   UNL A   1      51.345  37.084  26.406  1.00  0.00     0.001 A 
ATOM     89  C   UNL A   1      50.476  36.382  24.263  1.00  0.00     0.001 A 
ATOM     90  C   UNL A   1      51.454  37.029  25.016  1.00  0.00     0.000 A 
ENDBRANCH  72  85
ENDBRANCH  46  47
ENDBRANCH  38  41
ENDBRANCH  36  37
ENDBRANCH  35  36
ENDBRANCH   1  35
TORSDOF 15
ENDMDL
MODEL 3
REMARK VINA RESULT:     -12.3      4.447     10.004
REMARK SMILES O=C(NCCCNC(=O)c1ccc(-c2c3nc(c(-c4ccccc4)c4ccc([nH]4)c(-c4ccccc4)c4nc(c(-c5ccccc5)c5ccc2[nH]5)C=C4)C=C3)cc1)c1ccc(/[NH+]=C2\S[C@@H](Cc3ccc(F)cc3)C(=O)N2Cc2ccccc2)cc1
REMARK SMILES IDX 4 1 3 2 1 3 2 4 58 6 59 7 85 8 60 9 84 10 61 11 62 12 63 13
REMARK SMILES IDX 64 15 76 16 65 17 74 18 75 19 77 20 78 21 79 22 83 23 80 24
REMARK SMILES IDX 82 25 81 26 66 27 67 28 68 29 73 30 69 31 72 32 70 33 71 34
REMARK SMILES IDX 5 35 6 36 7 37 8 38 9 40 10 41 11 42 57 43 12 44 56 45 13 46
REMARK SMILES IDX 14 47 15 48 50 49 16 50 55 51 49 52 51 53 17 54 54 55 48 56
REMARK SMILES IDX 47 57 18 59 40 60 25 61 39 62 26 63 29 64 38 65 52 66 27 67
REMARK SMILES IDX 28 68 37 70 53 71 30 72 19 73 20 74 24 75 21 76 23 77 22 78
REMARK SMILES IDX 41 79 42 80 46 81 43 82 45 83 44 84 31 85 32 86 36 87 33 88
REMARK SMILES IDX 35 89 34 90
REMARK H PARENT 3 5 62 14 7 39 51 58 29 69
REMARK Flexibility Score: inf
ROOT
ATOM      1  C   UNL A   1      42.315  22.585  25.455  1.00  0.00     0.118 C 
ENDROOT
BRANCH   1   2
ATOM      2  N   UNL A   1      41.872  21.844  26.630  1.00  0.00    -0.352 N 
ATOM      3  O   UNL A   1      40.503  21.243  28.318  1.00  0.00    -0.269 OA
ATOM      4  C   UNL A   1      40.629  21.757  27.207  1.00  0.00     0.251 C 
ATOM      5  H   UNL A   1      42.575  21.322  27.080  1.00  0.00     0.163 HD
BRANCH   4   6
ATOM      6  C   UNL A   1      39.442  22.288  26.506  1.00  0.00     0.040 A 
ATOM      7  C   UNL A   1      38.768  21.500  25.575  1.00  0.00     0.018 A 
ATOM      8  C   UNL A   1      38.974  23.573  26.801  1.00  0.00     0.018 A 
ATOM      9  C   UNL A   1      37.730  22.052  24.838  1.00  0.00     0.052 A 
ATOM     10  C   UNL A   1      37.887  24.101  26.093  1.00  0.00     0.052 A 
ATOM     11  C   UNL A   1      37.293  23.359  25.070  1.00  0.00     0.125 A 
BRANCH  11  12
ATOM     12  N   UNL A   1      36.209  23.798  24.307  1.00  0.00    -0.235 N 
ATOM     13  C   UNL A   1      35.118  23.123  24.180  1.00  0.00     0.320 C 
ATOM     14  H   UNL A   1      36.282  24.663  23.845  1.00  0.00     0.313 HD
ATOM     15  S   UNL A   1      34.809  21.479  24.667  1.00  0.00    -0.022 SA
ATOM     16  N   UNL A   1      33.991  23.686  23.642  1.00  0.00    -0.186 N 
ATOM     17  C   UNL A   1      33.264  21.404  23.696  1.00  0.00     0.178 C 
ATOM     18  C   UNL A   1      32.895  22.865  23.478  1.00  0.00     0.324 C 
ATOM     19  O   UNL A   1      31.786  23.253  23.129  1.00  0.00    -0.245 OA
BRANCH  16  20
ATOM     20  C   UNL A   1      33.911  25.110  23.329  1.00  0.00     0.283 C 
BRANCH  20  21
ATOM     21  C   UNL A   1      33.237  25.928  24.416  1.00  0.00    -0.006 A 
ATOM     22  C   UNL A   1      33.920  26.293  25.583  1.00  0.00     0.008 A 
ATOM     23  C   UNL A   1      31.904  26.341  24.269  1.00  0.00     0.008 A 
ATOM     24  C   UNL A   1      33.284  27.054  26.569  1.00  0.00     0.000 A 
ATOM     25  C   UNL A   1      31.280  27.132  25.234  1.00  0.00     0.000 A 
ATOM     26  C   UNL A   1      31.969  27.485  26.389  1.00  0.00     0.000 A 
ENDBRANCH  20  21
ENDBRANCH  16  20
BRANCH  17  27
ATOM     27  C   UNL A   1      32.207  20.568  24.417  1.00  0.00     0.063 C 
BRANCH  27  28
ATOM     28  C   UNL A   1      32.530  19.091  24.504  1.00  0.00    -0.046 A 
ATOM     29  C   UNL A   1      32.807  18.368  23.331  1.00  0.00     0.007 A 
ATOM     30  C   UNL A   1      32.556  18.420  25.738  1.00  0.00     0.007 A 
ATOM     31  C   UNL A   1      33.125  17.011  23.392  1.00  0.00     0.039 A 
ATOM     32  C   UNL A   1      32.880  17.063  25.795  1.00  0.00     0.039 A 
ATOM     33  C   UNL A   1      33.165  16.372  24.623  1.00  0.00     0.123 A 
ATOM     34  F   UNL A   1      33.480  15.072  24.682  1.00  0.00    -0.207 F 
ENDBRANCH  27  28
ENDBRANCH  17  27
ENDBRANCH  11  12
ENDBRANCH   4   6
ENDBRANCH   1   2
BRANCH   1  35
ATOM     35  C   UNL A   1      43.780  22.339  25.129  1.00  0.00     0.042 C 
BRANCH  35  36
ATOM     36  C   UNL A   1      44.748  23.100  26.024  1.00  0.00     0.118 C 
BRANCH  36  37
ATOM     37  N   UNL A   1      45.481  24.139  25.313  1.00  0.00    -0.352 N 
ATOM     38  C   UNL A   1      45.397  25.506  25.391  1.00  0.00     0.251 C 
ATOM     39  H   UNL A   1      46.148  23.804  24.670  1.00  0.00     0.163 HD
ATOM     40  O   UNL A   1      45.989  26.201  24.569  1.00  0.00    -0.269 OA
BRANCH  38  41
ATOM     41  C   UNL A   1      44.577  26.151  26.440  1.00  0.00     0.039 A 
ATOM     42  C   UNL A   1      43.803  25.347  27.283  1.00  0.00     0.014 A 
ATOM     43  C   UNL A   1      44.558  27.538  26.591  1.00  0.00     0.014 A 
ATOM     44  C   UNL A   1      43.084  25.930  28.329  1.00  0.00     0.010 A 
ATOM     45  C   UNL A   1      43.917  28.108  27.684  1.00  0.00     0.010 A 
ATOM     46  C   UNL A   1      43.176  27.310  28.569  1.00  0.00    -0.014 A 
BRANCH  46  47
ATOM     47  C   UNL A   1      42.516  27.945  29.736  1.00  0.00     0.031 A 
ATOM     48  C   UNL A   1      41.157  28.573  29.585  1.00  0.00     0.074 A 
ATOM     49  C   UNL A   1      43.172  28.034  30.909  1.00  0.00     0.049 A 
ATOM     50  N   UNL A   1      40.472  29.277  30.450  1.00  0.00    -0.248 NA
ATOM     51  C   UNL A   1      40.492  28.409  28.282  1.00  0.00     0.031 C 
ATOM     52  C   UNL A   1      44.506  27.492  31.181  1.00  0.00     0.029 A 
ATOM     53  N   UNL A   1      42.808  28.626  32.093  1.00  0.00    -0.354 N 
ATOM     54  C   UNL A   1      39.309  29.655  29.791  1.00  0.00     0.074 A 
ATOM     55  C   UNL A   1      39.402  29.144  28.441  1.00  0.00     0.031 C 
ATOM     56  C   UNL A   1      44.836  27.755  32.456  1.00  0.00     0.029 A 
ATOM     57  C   UNL A   1      43.763  28.524  33.076  1.00  0.00     0.049 A 
ATOM     58  H   UNL A   1      41.945  29.081  32.225  1.00  0.00     0.167 HD
ATOM     59  C   UNL A   1      38.250  30.349  30.270  1.00  0.00     0.031 A 
ATOM     60  C   UNL A   1      43.780  29.009  34.332  1.00  0.00     0.031 A 
ATOM     61  C   UNL A   1      38.150  30.847  31.616  1.00  0.00     0.049 A 
ATOM     62  C   UNL A   1      42.607  29.807  34.827  1.00  0.00     0.074 A 
ATOM     63  C   UNL A   1      37.096  31.519  32.210  1.00  0.00     0.029 A 
ATOM     64  N   UNL A   1      39.140  30.724  32.577  1.00  0.00    -0.354 N 
ATOM     65  N   UNL A   1      41.494  30.114  34.206  1.00  0.00    -0.248 NA
ATOM     66  C   UNL A   1      42.694  30.326  36.201  1.00  0.00     0.031 C 
ATOM     67  C   UNL A   1      37.466  31.842  33.519  1.00  0.00     0.029 A 
ATOM     68  C   UNL A   1      38.732  31.328  33.753  1.00  0.00     0.049 A 
ATOM     69  H   UNL A   1      40.005  30.274  32.443  1.00  0.00     0.167 HD
ATOM     70  C   UNL A   1      40.739  30.838  35.119  1.00  0.00     0.074 A 
ATOM     71  C   UNL A   1      41.513  30.912  36.341  1.00  0.00     0.031 C 
ATOM     72  C   UNL A   1      39.512  31.390  34.961  1.00  0.00     0.031 A 
BRANCH  59  73
ATOM     73  C   UNL A   1      37.111  30.611  29.325  1.00  0.00    -0.014 A 
ATOM     74  C   UNL A   1      36.938  31.871  28.732  1.00  0.00     0.009 A 
ATOM     75  C   UNL A   1      36.222  29.576  28.996  1.00  0.00     0.009 A 
ATOM     76  C   UNL A   1      35.877  32.099  27.854  1.00  0.00     0.001 A 
ATOM     77  C   UNL A   1      35.178  29.800  28.097  1.00  0.00     0.001 A 
ATOM     78  C   UNL A   1      35.001  31.063  27.534  1.00  0.00     0.000 A 
ENDBRANCH  59  73
BRANCH  60  79
ATOM     79  C   UNL A   1      44.945  28.750  35.218  1.00  0.00    -0.014 A 
ATOM     80  C   UNL A   1      45.016  27.566  35.966  1.00  0.00     0.009 A 
ATOM     81  C   UNL A   1      45.980  29.691  35.333  1.00  0.00     0.009 A 
ATOM     82  C   UNL A   1      46.087  27.341  36.834  1.00  0.00     0.001 A 
ATOM     83  C   UNL A   1      47.065  29.450  36.180  1.00  0.00     0.001 A 
ATOM     84  C   UNL A   1      47.112  28.280  36.937  1.00  0.00     0.000 A 
ENDBRANCH  60  79
BRANCH  72  85
ATOM     85  C   UNL A   1      38.917  32.093  36.146  1.00  0.00    -0.014 A 
ATOM     86  C   UNL A   1      39.075  33.476  36.324  1.00  0.00     0.009 A 
ATOM     87  C   UNL A   1      38.146  31.369  37.069  1.00  0.00     0.009 A 
ATOM     88  C   UNL A   1      38.493  34.115  37.420  1.00  0.00     0.001 A 
ATOM     89  C   UNL A   1      37.544  32.015  38.147  1.00  0.00     0.001 A 
ATOM     90  C   UNL A   1      37.724  33.385  38.327  1.00  0.00     0.000 A 
ENDBRANCH  72  85
ENDBRANCH  46  47
ENDBRANCH  38  41
ENDBRANCH  36  37
ENDBRANCH  35  36
ENDBRANCH   1  35
TORSDOF 15
ENDMDL
