MODEL 1
REMARK VINA RESULT:     -10.8      0.000      0.000
REMARK SMILES Cc1nc(CSCC(=O)N2CCCC[C@@H]2C(=O)NCCCNC(=O)c2ccc(-c3c4nc(c(-c5ccccc5)c5ccc([nH]5)c(-c5ccccc5)c5nc(c(-c6ccccc6)c6ccc3[nH]6)C=C5)C=C4)cc2)cs1
REMARK SMILES IDX 16 1 17 2 18 3 15 5 10 6 11 7 12 8 14 9 13 10 8 11 9 12 7 13
REMARK SMILES IDX 6 14 5 15 4 16 1 17 2 18 3 19 74 20 73 21 19 22 20 23 21 24
REMARK SMILES IDX 22 25 23 26 24 28 25 29 26 30 72 31 27 32 71 33 28 34 29 35
REMARK SMILES IDX 30 36 65 37 31 38 70 39 64 40 66 41 32 42 69 43 63 44 62 45
REMARK SMILES IDX 33 47 55 48 40 49 54 50 41 51 44 52 53 53 67 54 42 55 43 56
REMARK SMILES IDX 52 58 68 59 45 60 34 61 35 62 39 63 36 64 38 65 37 66 56 67
REMARK SMILES IDX 57 68 61 69 58 70 60 71 59 72 46 73 47 74 51 75 48 76 50 77
REMARK SMILES IDX 49 78
REMARK H PARENT 18 4 22 27 66 46 44 57
REMARK Flexibility Score: inf
ROOT
ATOM      1  C   UNL A   1      31.821  24.881  26.415  1.00  0.00     0.242 C 
ATOM      2  O   UNL A   1      31.302  23.799  26.707  1.00  0.00    -0.273 OA
ATOM      3  N   UNL A   1      31.079  26.003  26.653  1.00  0.00    -0.354 N 
ATOM      4  H   UNL A   1      30.187  25.839  27.037  1.00  0.00     0.163 HD
ENDROOT
BRANCH   1   5
ATOM      5  C   UNL A   1      33.133  24.936  25.601  1.00  0.00     0.174 C 
ATOM      6  N   UNL A   1      32.986  24.626  24.163  1.00  0.00    -0.330 N 
ATOM      7  C   UNL A   1      34.153  24.071  23.479  1.00  0.00     0.120 C 
ATOM      8  C   UNL A   1      34.801  22.919  24.221  1.00  0.00     0.022 C 
ATOM      9  C   UNL A   1      34.017  23.908  26.366  1.00  0.00     0.035 C 
ATOM     10  C   UNL A   1      35.217  23.372  25.608  1.00  0.00     0.004 C 
BRANCH   6  11
ATOM     11  C   UNL A   1      32.047  25.200  23.305  1.00  0.00     0.233 C 
ATOM     12  O   UNL A   1      30.953  24.638  23.164  1.00  0.00    -0.274 OA
BRANCH  11  13
ATOM     13  C   UNL A   1      32.423  26.324  22.350  1.00  0.00     0.170 C 
BRANCH  13  14
ATOM     14  S   UNL A   1      32.081  28.042  22.791  1.00  0.00    -0.146 SA
BRANCH  14  15
ATOM     15  C   UNL A   1      30.328  28.220  22.389  1.00  0.00     0.127 C 
BRANCH  15  16
ATOM     16  C   UNL A   1      29.740  29.583  22.462  1.00  0.00     0.061 A 
ATOM     17  C   UNL A   1      27.937  32.074  20.484  1.00  0.00     0.079 C 
ATOM     18  C   UNL A   1      28.616  31.254  21.524  1.00  0.00     0.090 A 
ATOM     19  N   UNL A   1      29.231  30.117  21.284  1.00  0.00    -0.246 NA
ATOM     20  S   UNL A   1      28.617  31.755  23.167  1.00  0.00    -0.127 S 
ATOM     21  C   UNL A   1      29.486  30.339  23.590  1.00  0.00     0.091 A 
ENDBRANCH  15  16
ENDBRANCH  14  15
ENDBRANCH  13  14
ENDBRANCH  11  13
ENDBRANCH   6  11
ENDBRANCH   1   5
BRANCH   3  22
ATOM     22  C   UNL A   1      31.405  27.406  26.423  1.00  0.00     0.117 C 
BRANCH  22  23
ATOM     23  C   UNL A   1      31.992  28.068  27.654  1.00  0.00     0.042 C 
BRANCH  23  24
ATOM     24  C   UNL A   1      33.337  28.735  27.403  1.00  0.00     0.118 C 
BRANCH  24  25
ATOM     25  N   UNL A   1      33.362  30.162  27.689  1.00  0.00    -0.352 N 
ATOM     26  C   UNL A   1      34.414  30.906  28.178  1.00  0.00     0.251 C 
ATOM     27  H   UNL A   1      32.528  30.655  27.513  1.00  0.00     0.163 HD
ATOM     28  O   UNL A   1      34.280  32.090  28.470  1.00  0.00    -0.269 OA
BRANCH  26  29
ATOM     29  C   UNL A   1      35.722  30.243  28.380  1.00  0.00     0.039 A 
ATOM     30  C   UNL A   1      36.658  30.247  27.345  1.00  0.00     0.014 A 
ATOM     31  C   UNL A   1      36.043  29.680  29.619  1.00  0.00     0.014 A 
ATOM     32  C   UNL A   1      37.944  29.751  27.577  1.00  0.00     0.010 A 
ATOM     33  C   UNL A   1      37.350  29.278  29.875  1.00  0.00     0.010 A 
ATOM     34  C   UNL A   1      38.313  29.299  28.856  1.00  0.00    -0.014 A 
BRANCH  34  35
ATOM     35  C   UNL A   1      39.695  28.833  29.141  1.00  0.00     0.031 A 
ATOM     36  C   UNL A   1      40.679  29.753  29.812  1.00  0.00     0.074 A 
ATOM     37  C   UNL A   1      40.092  27.609  28.739  1.00  0.00     0.049 A 
ATOM     38  N   UNL A   1      41.937  29.541  30.113  1.00  0.00    -0.248 NA
ATOM     39  C   UNL A   1      40.198  31.100  30.159  1.00  0.00     0.031 C 
ATOM     40  C   UNL A   1      39.264  26.642  28.016  1.00  0.00     0.029 A 
ATOM     41  N   UNL A   1      41.301  26.974  28.876  1.00  0.00    -0.354 N 
ATOM     42  C   UNL A   1      42.397  30.731  30.663  1.00  0.00     0.074 A 
ATOM     43  C   UNL A   1      41.307  31.678  30.596  1.00  0.00     0.031 C 
ATOM     44  C   UNL A   1      39.981  25.528  27.798  1.00  0.00     0.029 A 
ATOM     45  C   UNL A   1      41.325  25.710  28.338  1.00  0.00     0.049 A 
ATOM     46  H   UNL A   1      42.079  27.385  29.319  1.00  0.00     0.167 HD
ATOM     47  C   UNL A   1      43.606  31.007  31.204  1.00  0.00     0.031 A 
ATOM     48  C   UNL A   1      42.315  24.800  28.284  1.00  0.00     0.031 A 
ATOM     49  C   UNL A   1      44.690  30.065  31.288  1.00  0.00     0.049 A 
ATOM     50  C   UNL A   1      43.644  25.115  28.910  1.00  0.00     0.074 A 
ATOM     51  C   UNL A   1      45.930  30.227  31.880  1.00  0.00     0.029 A 
ATOM     52  N   UNL A   1      44.660  28.784  30.761  1.00  0.00    -0.354 N 
ATOM     53  N   UNL A   1      44.034  26.215  29.507  1.00  0.00    -0.248 NA
ATOM     54  C   UNL A   1      44.664  24.058  28.868  1.00  0.00     0.031 C 
ATOM     55  C   UNL A   1      46.669  29.057  31.671  1.00  0.00     0.029 A 
ATOM     56  C   UNL A   1      45.868  28.150  30.993  1.00  0.00     0.049 A 
ATOM     57  H   UNL A   1      43.893  28.384  30.290  1.00  0.00     0.167 HD
ATOM     58  C   UNL A   1      45.335  25.975  29.931  1.00  0.00     0.074 A 
ATOM     59  C   UNL A   1      45.661  24.620  29.537  1.00  0.00     0.031 C 
ATOM     60  C   UNL A   1      46.183  26.804  30.587  1.00  0.00     0.031 A 
BRANCH  47  61
ATOM     61  C   UNL A   1      43.813  32.396  31.745  1.00  0.00    -0.014 A 
ATOM     62  C   UNL A   1      44.316  33.425  30.931  1.00  0.00     0.009 A 
ATOM     63  C   UNL A   1      43.502  32.680  33.083  1.00  0.00     0.009 A 
ATOM     64  C   UNL A   1      44.553  34.695  31.461  1.00  0.00     0.001 A 
ATOM     65  C   UNL A   1      43.709  33.960  33.601  1.00  0.00     0.001 A 
ATOM     66  C   UNL A   1      44.246  34.962  32.794  1.00  0.00     0.000 A 
ENDBRANCH  47  61
BRANCH  48  67
ATOM     67  C   UNL A   1      42.072  23.486  27.633  1.00  0.00    -0.014 A 
ATOM     68  C   UNL A   1      41.442  22.448  28.335  1.00  0.00     0.009 A 
ATOM     69  C   UNL A   1      42.451  23.272  26.299  1.00  0.00     0.009 A 
ATOM     70  C   UNL A   1      41.212  21.215  27.720  1.00  0.00     0.001 A 
ATOM     71  C   UNL A   1      42.197  22.047  25.678  1.00  0.00     0.001 A 
ATOM     72  C   UNL A   1      41.585  21.017  26.391  1.00  0.00     0.000 A 
ENDBRANCH  48  67
BRANCH  60  73
ATOM     73  C   UNL A   1      47.539  26.264  30.939  1.00  0.00    -0.014 A 
ATOM     74  C   UNL A   1      47.803  25.734  32.212  1.00  0.00     0.009 A 
ATOM     75  C   UNL A   1      48.553  26.244  29.969  1.00  0.00     0.009 A 
ATOM     76  C   UNL A   1      49.067  25.222  32.514  1.00  0.00     0.001 A 
ATOM     77  C   UNL A   1      49.807  25.707  30.266  1.00  0.00     0.001 A 
ATOM     78  C   UNL A   1      50.065  25.204  31.539  1.00  0.00     0.000 A 
ENDBRANCH  60  73
ENDBRANCH  34  35
ENDBRANCH  26  29
ENDBRANCH  24  25
ENDBRANCH  23  24
ENDBRANCH  22  23
ENDBRANCH   3  22
TORSDOF 15
ENDMDL
MODEL 2
REMARK VINA RESULT:     -10.3      1.947      4.092
REMARK SMILES Cc1nc(CSCC(=O)N2CCCC[C@@H]2C(=O)NCCCNC(=O)c2ccc(-c3c4nc(c(-c5ccccc5)c5ccc([nH]5)c(-c5ccccc5)c5nc(c(-c6ccccc6)c6ccc3[nH]6)C=C5)C=C4)cc2)cs1
REMARK SMILES IDX 16 1 17 2 18 3 15 5 10 6 11 7 12 8 14 9 13 10 8 11 9 12 7 13
REMARK SMILES IDX 6 14 5 15 4 16 1 17 2 18 3 19 74 20 73 21 19 22 20 23 21 24
REMARK SMILES IDX 22 25 23 26 24 28 25 29 26 30 72 31 27 32 71 33 28 34 29 35
REMARK SMILES IDX 30 36 65 37 31 38 70 39 64 40 66 41 32 42 69 43 63 44 62 45
REMARK SMILES IDX 33 47 55 48 40 49 54 50 41 51 44 52 53 53 67 54 42 55 43 56
REMARK SMILES IDX 52 58 68 59 45 60 34 61 35 62 39 63 36 64 38 65 37 66 56 67
REMARK SMILES IDX 57 68 61 69 58 70 60 71 59 72 46 73 47 74 51 75 48 76 50 77
REMARK SMILES IDX 49 78
REMARK H PARENT 18 4 22 27 66 46 44 57
REMARK Flexibility Score: inf
ROOT
ATOM      1  C   UNL A   1      31.880  25.465  25.919  1.00  0.00     0.242 C 
ATOM      2  O   UNL A   1      31.419  24.814  26.862  1.00  0.00    -0.273 OA
ATOM      3  N   UNL A   1      33.047  26.137  26.148  1.00  0.00    -0.354 N 
ATOM      4  H   UNL A   1      33.413  26.038  27.057  1.00  0.00     0.163 HD
ENDROOT
BRANCH   1   5
ATOM      5  C   UNL A   1      31.049  25.700  24.638  1.00  0.00     0.174 C 
ATOM      6  N   UNL A   1      31.793  25.517  23.373  1.00  0.00    -0.330 N 
ATOM      7  C   UNL A   1      31.323  26.269  22.209  1.00  0.00     0.120 C 
ATOM      8  C   UNL A   1      31.084  27.739  22.492  1.00  0.00     0.022 C 
ATOM      9  C   UNL A   1      30.551  27.159  24.854  1.00  0.00     0.035 C 
ATOM     10  C   UNL A   1      30.070  27.887  23.612  1.00  0.00     0.004 C 
BRANCH   6  11
ATOM     11  C   UNL A   1      32.579  24.410  23.051  1.00  0.00     0.233 C 
ATOM     12  O   UNL A   1      33.675  24.601  22.507  1.00  0.00    -0.274 OA
BRANCH  11  13
ATOM     13  C   UNL A   1      32.021  22.995  23.102  1.00  0.00     0.170 C 
BRANCH  13  14
ATOM     14  S   UNL A   1      32.221  21.994  24.591  1.00  0.00    -0.146 SA
BRANCH  14  15
ATOM     15  C   UNL A   1      33.861  21.269  24.373  1.00  0.00     0.127 C 
BRANCH  15  16
ATOM     16  C   UNL A   1      35.009  21.956  25.020  1.00  0.00     0.061 A 
ATOM     17  C   UNL A   1      38.587  21.616  25.695  1.00  0.00     0.079 C 
ATOM     18  C   UNL A   1      37.169  22.039  25.535  1.00  0.00     0.090 A 
ATOM     19  N   UNL A   1      36.213  21.263  25.073  1.00  0.00    -0.246 NA
ATOM     20  S   UNL A   1      36.684  23.637  25.941  1.00  0.00    -0.127 S 
ATOM     21  C   UNL A   1      35.085  23.269  25.444  1.00  0.00     0.091 A 
ENDBRANCH  15  16
ENDBRANCH  14  15
ENDBRANCH  13  14
ENDBRANCH  11  13
ENDBRANCH   6  11
ENDBRANCH   1   5
BRANCH   3  22
ATOM     22  C   UNL A   1      33.833  26.979  25.252  1.00  0.00     0.117 C 
BRANCH  22  23
ATOM     23  C   UNL A   1      33.851  28.428  25.696  1.00  0.00     0.042 C 
BRANCH  23  24
ATOM     24  C   UNL A   1      33.560  28.615  27.178  1.00  0.00     0.118 C 
BRANCH  24  25
ATOM     25  N   UNL A   1      33.510  30.004  27.610  1.00  0.00    -0.352 N 
ATOM     26  C   UNL A   1      34.508  30.733  28.221  1.00  0.00     0.251 C 
ATOM     27  H   UNL A   1      32.664  30.479  27.447  1.00  0.00     0.163 HD
ATOM     28  O   UNL A   1      34.309  31.874  28.627  1.00  0.00    -0.269 OA
BRANCH  26  29
ATOM     29  C   UNL A   1      35.834  30.105  28.415  1.00  0.00     0.039 A 
ATOM     30  C   UNL A   1      36.763  30.134  27.373  1.00  0.00     0.014 A 
ATOM     31  C   UNL A   1      36.177  29.550  29.651  1.00  0.00     0.014 A 
ATOM     32  C   UNL A   1      38.062  29.672  27.597  1.00  0.00     0.010 A 
ATOM     33  C   UNL A   1      37.496  29.183  29.899  1.00  0.00     0.010 A 
ATOM     34  C   UNL A   1      38.452  29.230  28.873  1.00  0.00    -0.014 A 
BRANCH  34  35
ATOM     35  C   UNL A   1      39.847  28.800  29.149  1.00  0.00     0.031 A 
ATOM     36  C   UNL A   1      40.808  29.741  29.826  1.00  0.00     0.074 A 
ATOM     37  C   UNL A   1      40.277  27.592  28.734  1.00  0.00     0.049 A 
ATOM     38  N   UNL A   1      42.072  29.562  30.120  1.00  0.00    -0.248 NA
ATOM     39  C   UNL A   1      40.290  31.070  30.187  1.00  0.00     0.031 C 
ATOM     40  C   UNL A   1      39.474  26.608  28.005  1.00  0.00     0.029 A 
ATOM     41  N   UNL A   1      41.504  26.990  28.861  1.00  0.00    -0.354 N 
ATOM     42  C   UNL A   1      42.500  30.759  30.680  1.00  0.00     0.074 A 
ATOM     43  C   UNL A   1      41.384  31.675  30.625  1.00  0.00     0.031 C 
ATOM     44  C   UNL A   1      40.221  25.516  27.774  1.00  0.00     0.029 A 
ATOM     45  C   UNL A   1      41.561  25.732  28.311  1.00  0.00     0.049 A 
ATOM     46  H   UNL A   1      42.272  27.418  29.305  1.00  0.00     0.167 HD
ATOM     47  C   UNL A   1      43.704  31.064  31.219  1.00  0.00     0.031 A 
ATOM     48  C   UNL A   1      42.576  24.850  28.246  1.00  0.00     0.031 A 
ATOM     49  C   UNL A   1      44.813  30.152  31.291  1.00  0.00     0.049 A 
ATOM     50  C   UNL A   1      43.898  25.197  28.870  1.00  0.00     0.074 A 
ATOM     51  C   UNL A   1      46.051  30.343  31.879  1.00  0.00     0.029 A 
ATOM     52  N   UNL A   1      44.818  28.875  30.751  1.00  0.00    -0.354 N 
ATOM     53  N   UNL A   1      44.260  26.301  29.476  1.00  0.00    -0.248 NA
ATOM     54  C   UNL A   1      44.947  24.169  28.814  1.00  0.00     0.031 C 
ATOM     55  C   UNL A   1      46.821  29.197  31.656  1.00  0.00     0.029 A 
ATOM     56  C   UNL A   1      46.044  28.274  30.973  1.00  0.00     0.049 A 
ATOM     57  H   UNL A   1      44.060  28.459  30.279  1.00  0.00     0.167 HD
ATOM     58  C   UNL A   1      45.569  26.094  29.892  1.00  0.00     0.074 A 
ATOM     59  C   UNL A   1      45.930  24.752  29.484  1.00  0.00     0.031 C 
ATOM     60  C   UNL A   1      46.395  26.941  30.554  1.00  0.00     0.031 A 
BRANCH  47  61
ATOM     61  C   UNL A   1      43.873  32.453  31.772  1.00  0.00    -0.014 A 
ATOM     62  C   UNL A   1      43.546  32.748  33.106  1.00  0.00     0.009 A 
ATOM     63  C   UNL A   1      44.364  33.478  30.951  1.00  0.00     0.009 A 
ATOM     64  C   UNL A   1      43.657  34.053  33.590  1.00  0.00     0.001 A 
ATOM     65  C   UNL A   1      44.506  34.776  31.448  1.00  0.00     0.001 A 
ATOM     66  C   UNL A   1      44.140  35.064  32.762  1.00  0.00     0.000 A 
ENDBRANCH  47  61
BRANCH  48  67
ATOM     67  C   UNL A   1      42.367  23.536  27.583  1.00  0.00    -0.014 A 
ATOM     68  C   UNL A   1      42.534  23.403  26.196  1.00  0.00     0.009 A 
ATOM     69  C   UNL A   1      42.019  22.405  28.337  1.00  0.00     0.009 A 
ATOM     70  C   UNL A   1      42.340  22.166  25.576  1.00  0.00     0.001 A 
ATOM     71  C   UNL A   1      41.851  21.165  27.717  1.00  0.00     0.001 A 
ATOM     72  C   UNL A   1      42.003  21.048  26.337  1.00  0.00     0.000 A 
ENDBRANCH  48  67
BRANCH  60  73
ATOM     73  C   UNL A   1      47.766  26.435  30.896  1.00  0.00    -0.014 A 
ATOM     74  C   UNL A   1      48.847  26.611  30.017  1.00  0.00     0.009 A 
ATOM     75  C   UNL A   1      47.990  25.813  32.135  1.00  0.00     0.009 A 
ATOM     76  C   UNL A   1      50.119  26.146  30.362  1.00  0.00     0.001 A 
ATOM     77  C   UNL A   1      49.267  25.374  32.487  1.00  0.00     0.001 A 
ATOM     78  C   UNL A   1      50.328  25.534  31.597  1.00  0.00     0.000 A 
ENDBRANCH  60  73
ENDBRANCH  34  35
ENDBRANCH  26  29
ENDBRANCH  24  25
ENDBRANCH  23  24
ENDBRANCH  22  23
ENDBRANCH   3  22
TORSDOF 15
ENDMDL
MODEL 3
REMARK VINA RESULT:     -10.3      2.245      6.723
REMARK SMILES Cc1nc(CSCC(=O)N2CCCC[C@@H]2C(=O)NCCCNC(=O)c2ccc(-c3c4nc(c(-c5ccccc5)c5ccc([nH]5)c(-c5ccccc5)c5nc(c(-c6ccccc6)c6ccc3[nH]6)C=C5)C=C4)cc2)cs1
REMARK SMILES IDX 16 1 17 2 18 3 15 5 10 6 11 7 12 8 14 9 13 10 8 11 9 12 7 13
REMARK SMILES IDX 6 14 5 15 4 16 1 17 2 18 3 19 74 20 73 21 19 22 20 23 21 24
REMARK SMILES IDX 22 25 23 26 24 28 25 29 26 30 72 31 27 32 71 33 28 34 29 35
REMARK SMILES IDX 30 36 65 37 31 38 70 39 64 40 66 41 32 42 69 43 63 44 62 45
REMARK SMILES IDX 33 47 55 48 40 49 54 50 41 51 44 52 53 53 67 54 42 55 43 56
REMARK SMILES IDX 52 58 68 59 45 60 34 61 35 62 39 63 36 64 38 65 37 66 56 67
REMARK SMILES IDX 57 68 61 69 58 70 60 71 59 72 46 73 47 74 51 75 48 76 50 77
REMARK SMILES IDX 49 78
REMARK H PARENT 18 4 22 27 66 46 44 57
REMARK Flexibility Score: inf
ROOT
ATOM      1  C   UNL A   1      31.657  27.037  26.182  1.00  0.00     0.242 C 
ATOM      2  O   UNL A   1      30.804  26.297  26.681  1.00  0.00    -0.273 OA
ATOM      3  N   UNL A   1      31.529  28.375  26.427  1.00  0.00    -0.354 N 
ATOM      4  H   UNL A   1      30.756  28.624  26.983  1.00  0.00     0.163 HD
ENDROOT
BRANCH   1   5
ATOM      5  C   UNL A   1      32.663  26.499  25.140  1.00  0.00     0.174 C 
ATOM      6  N   UNL A   1      32.086  25.577  24.138  1.00  0.00    -0.330 N 
ATOM      7  C   UNL A   1      32.988  24.591  23.543  1.00  0.00     0.120 C 
ATOM      8  C   UNL A   1      33.820  23.838  24.561  1.00  0.00     0.022 C 
ATOM      9  C   UNL A   1      33.728  25.827  26.055  1.00  0.00     0.035 C 
ATOM     10  C   UNL A   1      34.639  24.818  25.381  1.00  0.00     0.004 C 
BRANCH   6  11
ATOM     11  C   UNL A   1      30.937  25.820  23.384  1.00  0.00     0.233 C 
ATOM     12  O   UNL A   1      29.957  25.082  23.547  1.00  0.00    -0.274 OA
BRANCH  11  13
ATOM     13  C   UNL A   1      30.949  26.776  22.200  1.00  0.00     0.170 C 
BRANCH  13  14
ATOM     14  S   UNL A   1      31.353  28.519  22.444  1.00  0.00    -0.146 SA
BRANCH  14  15
ATOM     15  C   UNL A   1      29.918  29.143  23.345  1.00  0.00     0.127 C 
BRANCH  15  16
ATOM     16  C   UNL A   1      29.382  30.473  22.951  1.00  0.00     0.061 A 
ATOM     17  C   UNL A   1      27.899  32.287  20.144  1.00  0.00     0.079 C 
ATOM     18  C   UNL A   1      28.432  31.804  21.447  1.00  0.00     0.090 A 
ATOM     19  N   UNL A   1      29.021  30.641  21.620  1.00  0.00    -0.246 NA
ATOM     20  S   UNL A   1      28.284  32.767  22.862  1.00  0.00    -0.127 S 
ATOM     21  C   UNL A   1      29.044  31.530  23.774  1.00  0.00     0.091 A 
ENDBRANCH  15  16
ENDBRANCH  14  15
ENDBRANCH  13  14
ENDBRANCH  11  13
ENDBRANCH   6  11
ENDBRANCH   1   5
BRANCH   3  22
ATOM     22  C   UNL A   1      32.361  29.491  25.989  1.00  0.00     0.117 C 
BRANCH  22  23
ATOM     23  C   UNL A   1      31.842  30.825  26.488  1.00  0.00     0.042 C 
BRANCH  23  24
ATOM     24  C   UNL A   1      32.901  31.667  27.185  1.00  0.00     0.118 C 
BRANCH  24  25
ATOM     25  N   UNL A   1      32.485  33.030  27.481  1.00  0.00    -0.352 N 
ATOM     26  C   UNL A   1      33.129  33.956  28.273  1.00  0.00     0.251 C 
ATOM     27  H   UNL A   1      31.642  33.327  27.066  1.00  0.00     0.163 HD
ATOM     28  O   UNL A   1      32.624  35.046  28.524  1.00  0.00    -0.269 OA
BRANCH  26  29
ATOM     29  C   UNL A   1      34.444  33.605  28.854  1.00  0.00     0.039 A 
ATOM     30  C   UNL A   1      34.495  32.884  30.048  1.00  0.00     0.014 A 
ATOM     31  C   UNL A   1      35.624  33.933  28.177  1.00  0.00     0.014 A 
ATOM     32  C   UNL A   1      35.726  32.427  30.525  1.00  0.00     0.010 A 
ATOM     33  C   UNL A   1      36.833  33.393  28.602  1.00  0.00     0.010 A 
ATOM     34  C   UNL A   1      36.902  32.643  29.785  1.00  0.00    -0.014 A 
BRANCH  34  35
ATOM     35  C   UNL A   1      38.210  32.105  30.240  1.00  0.00     0.031 A 
ATOM     36  C   UNL A   1      38.720  30.797  29.695  1.00  0.00     0.074 A 
ATOM     37  C   UNL A   1      38.913  32.751  31.191  1.00  0.00     0.049 A 
ATOM     38  N   UNL A   1      39.818  30.149  29.994  1.00  0.00    -0.248 NA
ATOM     39  C   UNL A   1      37.867  30.111  28.712  1.00  0.00     0.031 C 
ATOM     40  C   UNL A   1      38.503  33.989  31.856  1.00  0.00     0.029 A 
ATOM     41  N   UNL A   1      40.119  32.446  31.770  1.00  0.00    -0.354 N 
ATOM     42  C   UNL A   1      39.775  28.976  29.252  1.00  0.00     0.074 A 
ATOM     43  C   UNL A   1      38.517  28.970  28.541  1.00  0.00     0.031 C 
ATOM     44  C   UNL A   1      39.455  34.352  32.731  1.00  0.00     0.029 A 
ATOM     45  C   UNL A   1      40.526  33.361  32.711  1.00  0.00     0.049 A 
ATOM     46  H   UNL A   1      40.645  31.648  31.533  1.00  0.00     0.167 HD
ATOM     47  C   UNL A   1      40.709  28.001  29.145  1.00  0.00     0.031 A 
ATOM     48  C   UNL A   1      41.635  33.399  33.473  1.00  0.00     0.031 A 
ATOM     49  C   UNL A   1      41.969  28.008  29.837  1.00  0.00     0.049 A 
ATOM     50  C   UNL A   1      42.671  32.321  33.325  1.00  0.00     0.074 A 
ATOM     51  C   UNL A   1      43.011  27.103  29.743  1.00  0.00     0.029 A 
ATOM     52  N   UNL A   1      42.356  28.971  30.756  1.00  0.00    -0.354 N 
ATOM     53  N   UNL A   1      42.656  31.263  32.551  1.00  0.00    -0.248 NA
ATOM     54  C   UNL A   1      43.885  32.451  34.143  1.00  0.00     0.031 C 
ATOM     55  C   UNL A   1      44.011  27.494  30.639  1.00  0.00     0.029 A 
ATOM     56  C   UNL A   1      43.612  28.671  31.254  1.00  0.00     0.049 A 
ATOM     57  H   UNL A   1      41.816  29.753  31.017  1.00  0.00     0.167 HD
ATOM     58  C   UNL A   1      43.863  30.613  32.773  1.00  0.00     0.074 A 
ATOM     59  C   UNL A   1      44.594  31.406  33.741  1.00  0.00     0.031 C 
ATOM     60  C   UNL A   1      44.324  29.463  32.223  1.00  0.00     0.031 A 
BRANCH  47  61
ATOM     61  C   UNL A   1      40.388  26.843  28.241  1.00  0.00    -0.014 A 
ATOM     62  C   UNL A   1      40.862  26.799  26.920  1.00  0.00     0.009 A 
ATOM     63  C   UNL A   1      39.601  25.782  28.714  1.00  0.00     0.009 A 
ATOM     64  C   UNL A   1      40.512  25.744  26.075  1.00  0.00     0.001 A 
ATOM     65  C   UNL A   1      39.279  24.712  27.877  1.00  0.00     0.001 A 
ATOM     66  C   UNL A   1      39.723  24.700  26.555  1.00  0.00     0.000 A 
ENDBRANCH  47  61
BRANCH  48  67
ATOM     67  C   UNL A   1      41.833  34.520  34.429  1.00  0.00    -0.014 A 
ATOM     68  C   UNL A   1      42.443  35.713  34.012  1.00  0.00     0.009 A 
ATOM     69  C   UNL A   1      41.395  34.409  35.758  1.00  0.00     0.009 A 
ATOM     70  C   UNL A   1      42.626  36.766  34.912  1.00  0.00     0.001 A 
ATOM     71  C   UNL A   1      41.556  35.473  36.648  1.00  0.00     0.001 A 
ATOM     72  C   UNL A   1      42.178  36.647  36.226  1.00  0.00     0.000 A 
ENDBRANCH  48  67
BRANCH  60  73
ATOM     73  C   UNL A   1      45.691  29.001  32.640  1.00  0.00    -0.014 A 
ATOM     74  C   UNL A   1      45.864  28.125  33.723  1.00  0.00     0.009 A 
ATOM     75  C   UNL A   1      46.817  29.415  31.911  1.00  0.00     0.009 A 
ATOM     76  C   UNL A   1      47.144  27.696  34.084  1.00  0.00     0.001 A 
ATOM     77  C   UNL A   1      48.091  28.962  32.258  1.00  0.00     0.001 A 
ATOM     78  C   UNL A   1      48.254  28.110  33.349  1.00  0.00     0.000 A 
ENDBRANCH  60  73
ENDBRANCH  34  35
ENDBRANCH  26  29
ENDBRANCH  24  25
ENDBRANCH  23  24
ENDBRANCH  22  23
ENDBRANCH   3  22
TORSDOF 15
ENDMDL
