MODEL 1
REMARK VINA RESULT:     -10.5      0.000      0.000
REMARK SMILES O=C(/C=C/c1cc(C(=O)NCCn2cccn2)cs1)NCCCNC(=O)c1ccc(-c2c3nc(c(-c4ccccc4)c4ccc([nH]4)c(-c4ccccc4)c4nc(c(-c5ccccc5)c5ccc2[nH]5)C=C4)C=C3)cc1
REMARK SMILES IDX 1 1 2 2 20 3 3 5 4 6 5 7 6 8 19 9 7 10 18 11 8 12 9 13 10 14
REMARK SMILES IDX 11 16 12 17 13 18 14 19 17 20 15 21 16 22 21 23 22 24 23 25
REMARK SMILES IDX 24 26 25 27 26 29 27 30 28 31 74 32 29 33 73 34 30 35 31 36
REMARK SMILES IDX 32 37 67 38 33 39 72 40 66 41 68 42 34 43 71 44 65 45 64 46
REMARK SMILES IDX 35 48 57 49 42 50 56 51 43 52 46 53 55 54 69 55 44 56 45 57
REMARK SMILES IDX 54 59 70 60 47 61 36 62 37 63 41 64 38 65 40 66 39 67 58 68
REMARK SMILES IDX 59 69 63 70 60 71 62 72 61 73 48 74 49 75 53 76 50 77 52 78
REMARK SMILES IDX 51 79
REMARK H PARENT 20 4 10 15 24 28 68 47 46 58
REMARK Flexibility Score: inf
ROOT
ATOM      1  O   UNL A   1      31.762  31.185  26.399  1.00  0.00    -0.270 OA
ATOM      2  C   UNL A   1      32.429  30.349  26.996  1.00  0.00     0.244 C 
ATOM      3  N   UNL A   1      33.490  30.642  27.811  1.00  0.00    -0.352 N 
ATOM      4  H   UNL A   1      33.934  29.912  28.302  1.00  0.00     0.163 HD
ENDROOT
BRANCH   2   5
ATOM      5  C   UNL A   1      32.172  28.911  26.755  1.00  0.00     0.072 C 
ATOM      6  C   UNL A   1      31.705  28.363  25.623  1.00  0.00     0.024 C 
BRANCH   6   7
ATOM      7  C   UNL A   1      31.525  26.952  25.559  1.00  0.00     0.028 A 
ATOM      8  C   UNL A   1      31.076  26.076  26.535  1.00  0.00     0.033 A 
ATOM      9  S   UNL A   1      31.877  26.103  24.125  1.00  0.00    -0.144 S 
ATOM     10  C   UNL A   1      31.234  24.692  26.205  1.00  0.00     0.051 A 
ATOM     11  C   UNL A   1      31.615  24.595  24.874  1.00  0.00     0.079 A 
BRANCH  10  12
ATOM     12  C   UNL A   1      31.067  23.474  26.999  1.00  0.00     0.252 C 
ATOM     13  O   UNL A   1      29.949  23.104  27.364  1.00  0.00    -0.269 OA
ATOM     14  N   UNL A   1      32.103  22.645  27.331  1.00  0.00    -0.350 N 
ATOM     15  H   UNL A   1      31.801  21.821  27.776  1.00  0.00     0.163 HD
BRANCH  14  16
ATOM     16  C   UNL A   1      33.551  22.702  27.176  1.00  0.00     0.140 C 
BRANCH  16  17
ATOM     17  C   UNL A   1      34.038  21.945  25.936  1.00  0.00     0.165 C 
BRANCH  17  18
ATOM     18  N   UNL A   1      35.365  22.340  25.488  1.00  0.00    -0.271 N 
ATOM     19  C   UNL A   1      36.071  23.466  25.808  1.00  0.00     0.108 A 
ATOM     20  N   UNL A   1      36.038  21.525  24.650  1.00  0.00    -0.181 NA
ATOM     21  C   UNL A   1      37.286  23.355  25.174  1.00  0.00     0.042 A 
ATOM     22  C   UNL A   1      37.205  22.147  24.464  1.00  0.00     0.135 A 
ENDBRANCH  17  18
ENDBRANCH  16  17
ENDBRANCH  14  16
ENDBRANCH  10  12
ENDBRANCH   6   7
ENDBRANCH   2   5
BRANCH   3  23
ATOM     23  C   UNL A   1      33.979  32.003  27.971  1.00  0.00     0.118 C 
BRANCH  23  24
ATOM     24  C   UNL A   1      35.499  32.133  27.854  1.00  0.00     0.042 C 
BRANCH  24  25
ATOM     25  C   UNL A   1      36.073  33.228  28.738  1.00  0.00     0.118 C 
BRANCH  25  26
ATOM     26  N   UNL A   1      35.562  33.219  30.119  1.00  0.00    -0.352 N 
ATOM     27  C   UNL A   1      35.700  32.248  31.108  1.00  0.00     0.251 C 
ATOM     28  H   UNL A   1      35.049  34.018  30.382  1.00  0.00     0.163 HD
ATOM     29  O   UNL A   1      34.960  32.228  32.074  1.00  0.00    -0.269 OA
BRANCH  27  30
ATOM     30  C   UNL A   1      36.780  31.247  30.975  1.00  0.00     0.039 A 
ATOM     31  C   UNL A   1      36.567  29.900  30.654  1.00  0.00     0.014 A 
ATOM     32  C   UNL A   1      38.067  31.717  31.157  1.00  0.00     0.014 A 
ATOM     33  C   UNL A   1      37.679  29.062  30.516  1.00  0.00     0.010 A 
ATOM     34  C   UNL A   1      39.109  31.008  30.655  1.00  0.00     0.010 A 
ATOM     35  C   UNL A   1      38.952  29.639  30.540  1.00  0.00    -0.014 A 
BRANCH  35  36
ATOM     36  C   UNL A   1      40.208  28.917  30.405  1.00  0.00     0.031 A 
ATOM     37  C   UNL A   1      40.878  28.651  31.699  1.00  0.00     0.074 A 
ATOM     38  C   UNL A   1      40.487  28.217  29.277  1.00  0.00     0.049 A 
ATOM     39  N   UNL A   1      41.985  29.148  32.139  1.00  0.00    -0.248 NA
ATOM     40  C   UNL A   1      40.132  27.869  32.706  1.00  0.00     0.031 C 
ATOM     41  C   UNL A   1      39.659  28.070  28.066  1.00  0.00     0.029 A 
ATOM     42  N   UNL A   1      41.506  27.353  29.029  1.00  0.00    -0.354 N 
ATOM     43  C   UNL A   1      42.179  28.561  33.384  1.00  0.00     0.074 A 
ATOM     44  C   UNL A   1      40.903  28.028  33.780  1.00  0.00     0.031 C 
ATOM     45  C   UNL A   1      40.091  27.010  27.342  1.00  0.00     0.029 A 
ATOM     46  C   UNL A   1      41.305  26.494  27.949  1.00  0.00     0.049 A 
ATOM     47  H   UNL A   1      42.327  27.335  29.572  1.00  0.00     0.167 HD
ATOM     48  C   UNL A   1      43.426  28.250  33.839  1.00  0.00     0.031 A 
ATOM     49  C   UNL A   1      42.058  25.412  27.617  1.00  0.00     0.031 A 
ATOM     50  C   UNL A   1      44.446  28.871  33.031  1.00  0.00     0.049 A 
ATOM     51  C   UNL A   1      43.332  25.516  28.364  1.00  0.00     0.074 A 
ATOM     52  C   UNL A   1      44.751  30.169  32.673  1.00  0.00     0.029 A 
ATOM     53  N   UNL A   1      45.076  28.066  32.109  1.00  0.00    -0.354 N 
ATOM     54  N   UNL A   1      44.224  26.436  28.136  1.00  0.00    -0.248 NA
ATOM     55  C   UNL A   1      43.392  24.898  29.680  1.00  0.00     0.031 C 
ATOM     56  C   UNL A   1      45.125  30.090  31.299  1.00  0.00     0.029 A 
ATOM     57  C   UNL A   1      45.120  28.746  30.921  1.00  0.00     0.049 A 
ATOM     58  H   UNL A   1      45.432  27.163  32.274  1.00  0.00     0.167 HD
ATOM     59  C   UNL A   1      44.647  26.831  29.395  1.00  0.00     0.074 A 
ATOM     60  C   UNL A   1      44.174  25.785  30.303  1.00  0.00     0.031 C 
ATOM     61  C   UNL A   1      45.068  28.110  29.623  1.00  0.00     0.031 A 
BRANCH  48  62
ATOM     62  C   UNL A   1      43.726  27.046  34.704  1.00  0.00    -0.014 A 
ATOM     63  C   UNL A   1      43.554  25.767  34.145  1.00  0.00     0.009 A 
ATOM     64  C   UNL A   1      43.908  27.099  36.100  1.00  0.00     0.009 A 
ATOM     65  C   UNL A   1      43.483  24.622  34.950  1.00  0.00     0.001 A 
ATOM     66  C   UNL A   1      43.882  25.955  36.902  1.00  0.00     0.001 A 
ATOM     67  C   UNL A   1      43.638  24.718  36.329  1.00  0.00     0.000 A 
ENDBRANCH  48  62
BRANCH  49  68
ATOM     68  C   UNL A   1      41.666  24.143  26.960  1.00  0.00    -0.014 A 
ATOM     69  C   UNL A   1      42.557  23.432  26.139  1.00  0.00     0.009 A 
ATOM     70  C   UNL A   1      40.510  23.472  27.392  1.00  0.00     0.009 A 
ATOM     71  C   UNL A   1      42.308  22.096  25.780  1.00  0.00     0.001 A 
ATOM     72  C   UNL A   1      40.272  22.135  27.047  1.00  0.00     0.001 A 
ATOM     73  C   UNL A   1      41.170  21.445  26.243  1.00  0.00     0.000 A 
ENDBRANCH  49  68
BRANCH  61  74
ATOM     74  C   UNL A   1      45.260  29.014  28.428  1.00  0.00    -0.014 A 
ATOM     75  C   UNL A   1      44.239  29.824  27.896  1.00  0.00     0.009 A 
ATOM     76  C   UNL A   1      46.560  29.174  27.930  1.00  0.00     0.009 A 
ATOM     77  C   UNL A   1      44.514  30.748  26.881  1.00  0.00     0.001 A 
ATOM     78  C   UNL A   1      46.837  30.110  26.933  1.00  0.00     0.001 A 
ATOM     79  C   UNL A   1      45.814  30.894  26.405  1.00  0.00     0.000 A 
ENDBRANCH  61  74
ENDBRANCH  35  36
ENDBRANCH  27  30
ENDBRANCH  25  26
ENDBRANCH  24  25
ENDBRANCH  23  24
ENDBRANCH   3  23
TORSDOF 15
ENDMDL
MODEL 2
REMARK VINA RESULT:     -10.5      2.894      7.988
REMARK SMILES O=C(/C=C/c1cc(C(=O)NCCn2cccn2)cs1)NCCCNC(=O)c1ccc(-c2c3nc(c(-c4ccccc4)c4ccc([nH]4)c(-c4ccccc4)c4nc(c(-c5ccccc5)c5ccc2[nH]5)C=C4)C=C3)cc1
REMARK SMILES IDX 1 1 2 2 20 3 3 5 4 6 5 7 6 8 19 9 7 10 18 11 8 12 9 13 10 14
REMARK SMILES IDX 11 16 12 17 13 18 14 19 17 20 15 21 16 22 21 23 22 24 23 25
REMARK SMILES IDX 24 26 25 27 26 29 27 30 28 31 74 32 29 33 73 34 30 35 31 36
REMARK SMILES IDX 32 37 67 38 33 39 72 40 66 41 68 42 34 43 71 44 65 45 64 46
REMARK SMILES IDX 35 48 57 49 42 50 56 51 43 52 46 53 55 54 69 55 44 56 45 57
REMARK SMILES IDX 54 59 70 60 47 61 36 62 37 63 41 64 38 65 40 66 39 67 58 68
REMARK SMILES IDX 59 69 63 70 60 71 62 72 61 73 48 74 49 75 53 76 50 77 52 78
REMARK SMILES IDX 51 79
REMARK H PARENT 20 4 10 15 24 28 68 47 46 58
REMARK Flexibility Score: inf
ROOT
ATOM      1  O   UNL A   1      37.343  20.572  24.846  1.00  0.00    -0.270 OA
ATOM      2  C   UNL A   1      37.184  21.634  25.435  1.00  0.00     0.244 C 
ATOM      3  N   UNL A   1      38.174  22.306  26.101  1.00  0.00    -0.352 N 
ATOM      4  H   UNL A   1      37.975  23.187  26.495  1.00  0.00     0.163 HD
ENDROOT
BRANCH   2   5
ATOM      5  C   UNL A   1      35.822  22.201  25.549  1.00  0.00     0.072 C 
ATOM      6  C   UNL A   1      35.385  23.041  26.501  1.00  0.00     0.024 C 
BRANCH   6   7
ATOM      7  C   UNL A   1      34.038  23.500  26.453  1.00  0.00     0.028 A 
ATOM      8  C   UNL A   1      33.533  24.704  25.987  1.00  0.00     0.033 A 
ATOM      9  S   UNL A   1      32.771  22.512  27.021  1.00  0.00    -0.144 S 
ATOM     10  C   UNL A   1      32.153  24.926  26.299  1.00  0.00     0.051 A 
ATOM     11  C   UNL A   1      31.623  23.755  26.819  1.00  0.00     0.079 A 
BRANCH  10  12
ATOM     12  C   UNL A   1      31.300  26.107  26.160  1.00  0.00     0.252 C 
ATOM     13  O   UNL A   1      31.296  26.991  27.020  1.00  0.00    -0.269 OA
ATOM     14  N   UNL A   1      30.512  26.340  25.067  1.00  0.00    -0.350 N 
ATOM     15  H   UNL A   1      30.085  27.226  25.091  1.00  0.00     0.163 HD
BRANCH  14  16
ATOM     16  C   UNL A   1      30.159  25.578  23.876  1.00  0.00     0.140 C 
BRANCH  16  17
ATOM     17  C   UNL A   1      31.274  25.585  22.825  1.00  0.00     0.165 C 
BRANCH  17  18
ATOM     18  N   UNL A   1      32.078  24.371  22.811  1.00  0.00    -0.271 N 
ATOM     19  C   UNL A   1      31.710  23.104  23.166  1.00  0.00     0.108 A 
ATOM     20  N   UNL A   1      33.360  24.444  22.397  1.00  0.00    -0.181 NA
ATOM     21  C   UNL A   1      32.802  22.303  22.931  1.00  0.00     0.042 A 
ATOM     22  C   UNL A   1      33.794  23.183  22.471  1.00  0.00     0.135 A 
ENDBRANCH  17  18
ENDBRANCH  16  17
ENDBRANCH  14  16
ENDBRANCH  10  12
ENDBRANCH   6   7
ENDBRANCH   2   5
BRANCH   3  23
ATOM     23  C   UNL A   1      39.513  21.755  26.242  1.00  0.00     0.118 C 
BRANCH  23  24
ATOM     24  C   UNL A   1      40.266  22.260  27.474  1.00  0.00     0.042 C 
BRANCH  24  25
ATOM     25  C   UNL A   1      41.679  21.710  27.576  1.00  0.00     0.118 C 
BRANCH  25  26
ATOM     26  N   UNL A   1      42.499  21.926  26.372  1.00  0.00    -0.352 N 
ATOM     27  C   UNL A   1      42.721  23.096  25.649  1.00  0.00     0.251 C 
ATOM     28  H   UNL A   1      42.958  21.125  26.028  1.00  0.00     0.163 HD
ATOM     29  O   UNL A   1      43.146  23.058  24.509  1.00  0.00    -0.269 OA
BRANCH  27  30
ATOM     30  C   UNL A   1      42.451  24.395  26.301  1.00  0.00     0.039 A 
ATOM     31  C   UNL A   1      41.416  25.262  25.926  1.00  0.00     0.014 A 
ATOM     32  C   UNL A   1      43.275  24.724  27.361  1.00  0.00     0.014 A 
ATOM     33  C   UNL A   1      41.239  26.445  26.651  1.00  0.00     0.010 A 
ATOM     34  C   UNL A   1      42.859  25.650  28.261  1.00  0.00     0.010 A 
ATOM     35  C   UNL A   1      41.992  26.629  27.814  1.00  0.00    -0.014 A 
BRANCH  35  36
ATOM     36  C   UNL A   1      41.927  27.793  28.685  1.00  0.00     0.031 A 
ATOM     37  C   UNL A   1      42.919  28.840  28.346  1.00  0.00     0.074 A 
ATOM     38  C   UNL A   1      40.816  28.045  29.423  1.00  0.00     0.049 A 
ATOM     39  N   UNL A   1      43.943  29.217  29.034  1.00  0.00    -0.248 NA
ATOM     40  C   UNL A   1      42.865  29.416  26.988  1.00  0.00     0.031 C 
ATOM     41  C   UNL A   1      39.572  27.259  29.496  1.00  0.00     0.029 A 
ATOM     42  N   UNL A   1      40.497  29.149  30.150  1.00  0.00    -0.354 N 
ATOM     43  C   UNL A   1      44.527  30.237  28.290  1.00  0.00     0.074 A 
ATOM     44  C   UNL A   1      44.001  30.112  26.957  1.00  0.00     0.031 C 
ATOM     45  C   UNL A   1      38.581  28.018  30.022  1.00  0.00     0.029 A 
ATOM     46  C   UNL A   1      39.144  29.284  30.457  1.00  0.00     0.049 A 
ATOM     47  H   UNL A   1      41.173  29.803  30.440  1.00  0.00     0.167 HD
ATOM     48  C   UNL A   1      45.122  31.306  28.889  1.00  0.00     0.031 A 
ATOM     49  C   UNL A   1      38.534  30.379  30.983  1.00  0.00     0.031 A 
ATOM     50  C   UNL A   1      45.318  31.072  30.298  1.00  0.00     0.049 A 
ATOM     51  C   UNL A   1      39.596  31.259  31.520  1.00  0.00     0.074 A 
ATOM     52  C   UNL A   1      45.975  30.115  31.046  1.00  0.00     0.029 A 
ATOM     53  N   UNL A   1      44.419  31.669  31.154  1.00  0.00    -0.354 N 
ATOM     54  N   UNL A   1      40.332  30.950  32.548  1.00  0.00    -0.248 NA
ATOM     55  C   UNL A   1      40.160  32.257  30.624  1.00  0.00     0.031 C 
ATOM     56  C   UNL A   1      45.107  29.855  32.148  1.00  0.00     0.029 A 
ATOM     57  C   UNL A   1      44.022  30.727  32.065  1.00  0.00     0.049 A 
ATOM     58  H   UNL A   1      44.117  32.605  31.116  1.00  0.00     0.167 HD
ATOM     59  C   UNL A   1      41.610  31.352  32.194  1.00  0.00     0.074 A 
ATOM     60  C   UNL A   1      41.429  32.237  31.043  1.00  0.00     0.031 C 
ATOM     61  C   UNL A   1      42.708  30.691  32.669  1.00  0.00     0.031 A 
BRANCH  48  62
ATOM     62  C   UNL A   1      45.103  32.706  28.315  1.00  0.00    -0.014 A 
ATOM     63  C   UNL A   1      43.863  33.360  28.200  1.00  0.00     0.009 A 
ATOM     64  C   UNL A   1      46.189  33.301  27.644  1.00  0.00     0.009 A 
ATOM     65  C   UNL A   1      43.708  34.493  27.390  1.00  0.00     0.001 A 
ATOM     66  C   UNL A   1      46.048  34.457  26.870  1.00  0.00     0.001 A 
ATOM     67  C   UNL A   1      44.799  35.035  26.719  1.00  0.00     0.000 A 
ENDBRANCH  48  62
BRANCH  49  68
ATOM     68  C   UNL A   1      37.154  30.885  30.793  1.00  0.00    -0.014 A 
ATOM     69  C   UNL A   1      36.384  31.348  31.873  1.00  0.00     0.009 A 
ATOM     70  C   UNL A   1      36.706  31.198  29.499  1.00  0.00     0.009 A 
ATOM     71  C   UNL A   1      35.221  32.110  31.664  1.00  0.00     0.001 A 
ATOM     72  C   UNL A   1      35.557  31.972  29.293  1.00  0.00     0.001 A 
ATOM     73  C   UNL A   1      34.815  32.430  30.373  1.00  0.00     0.000 A 
ENDBRANCH  49  68
BRANCH  61  74
ATOM     74  C   UNL A   1      42.498  29.657  33.749  1.00  0.00    -0.014 A 
ATOM     75  C   UNL A   1      42.550  29.950  35.125  1.00  0.00     0.009 A 
ATOM     76  C   UNL A   1      42.069  28.381  33.360  1.00  0.00     0.009 A 
ATOM     77  C   UNL A   1      42.204  28.985  36.077  1.00  0.00     0.001 A 
ATOM     78  C   UNL A   1      41.704  27.425  34.309  1.00  0.00     0.001 A 
ATOM     79  C   UNL A   1      41.775  27.725  35.668  1.00  0.00     0.000 A 
ENDBRANCH  61  74
ENDBRANCH  35  36
ENDBRANCH  27  30
ENDBRANCH  25  26
ENDBRANCH  24  25
ENDBRANCH  23  24
ENDBRANCH   3  23
TORSDOF 15
ENDMDL
MODEL 3
REMARK VINA RESULT:     -10.4      3.382      8.355
REMARK SMILES O=C(/C=C/c1cc(C(=O)NCCn2cccn2)cs1)NCCCNC(=O)c1ccc(-c2c3nc(c(-c4ccccc4)c4ccc([nH]4)c(-c4ccccc4)c4nc(c(-c5ccccc5)c5ccc2[nH]5)C=C4)C=C3)cc1
REMARK SMILES IDX 1 1 2 2 20 3 3 5 4 6 5 7 6 8 19 9 7 10 18 11 8 12 9 13 10 14
REMARK SMILES IDX 11 16 12 17 13 18 14 19 17 20 15 21 16 22 21 23 22 24 23 25
REMARK SMILES IDX 24 26 25 27 26 29 27 30 28 31 74 32 29 33 73 34 30 35 31 36
REMARK SMILES IDX 32 37 67 38 33 39 72 40 66 41 68 42 34 43 71 44 65 45 64 46
REMARK SMILES IDX 35 48 57 49 42 50 56 51 43 52 46 53 55 54 69 55 44 56 45 57
REMARK SMILES IDX 54 59 70 60 47 61 36 62 37 63 41 64 38 65 40 66 39 67 58 68
REMARK SMILES IDX 59 69 63 70 60 71 62 72 61 73 48 74 49 75 53 76 50 77 52 78
REMARK SMILES IDX 51 79
REMARK H PARENT 20 4 10 15 24 28 68 47 46 58
REMARK Flexibility Score: inf
ROOT
ATOM      1  O   UNL A   1      38.405  24.636  26.440  1.00  0.00    -0.270 OA
ATOM      2  C   UNL A   1      37.852  23.639  25.992  1.00  0.00     0.244 C 
ATOM      3  N   UNL A   1      38.314  22.359  26.153  1.00  0.00    -0.352 N 
ATOM      4  H   UNL A   1      37.774  21.609  25.813  1.00  0.00     0.163 HD
ENDROOT
BRANCH   2   5
ATOM      5  C   UNL A   1      36.667  23.799  25.119  1.00  0.00     0.072 C 
ATOM      6  C   UNL A   1      35.384  23.803  25.510  1.00  0.00     0.024 C 
BRANCH   6   7
ATOM      7  C   UNL A   1      34.363  23.980  24.533  1.00  0.00     0.028 A 
ATOM      8  C   UNL A   1      34.388  24.710  23.355  1.00  0.00     0.033 A 
ATOM      9  S   UNL A   1      32.846  23.231  24.728  1.00  0.00    -0.144 S 
ATOM     10  C   UNL A   1      33.111  24.856  22.724  1.00  0.00     0.051 A 
ATOM     11  C   UNL A   1      32.201  24.032  23.369  1.00  0.00     0.079 A 
BRANCH  10  12
ATOM     12  C   UNL A   1      32.668  25.678  21.597  1.00  0.00     0.252 C 
ATOM     13  O   UNL A   1      33.131  25.507  20.467  1.00  0.00    -0.269 OA
ATOM     14  N   UNL A   1      31.689  26.628  21.699  1.00  0.00    -0.350 N 
ATOM     15  H   UNL A   1      31.443  27.013  20.827  1.00  0.00     0.163 HD
BRANCH  14  16
ATOM     16  C   UNL A   1      30.925  27.200  22.800  1.00  0.00     0.140 C 
BRANCH  16  17
ATOM     17  C   UNL A   1      30.816  28.725  22.708  1.00  0.00     0.165 C 
BRANCH  17  18
ATOM     18  N   UNL A   1      29.460  29.229  22.862  1.00  0.00    -0.271 N 
ATOM     19  C   UNL A   1      29.036  30.528  22.917  1.00  0.00     0.108 A 
ATOM     20  N   UNL A   1      28.444  28.347  22.964  1.00  0.00    -0.181 NA
ATOM     21  C   UNL A   1      27.666  30.485  23.018  1.00  0.00     0.042 A 
ATOM     22  C   UNL A   1      27.357  29.117  23.058  1.00  0.00     0.135 A 
ENDBRANCH  17  18
ENDBRANCH  16  17
ENDBRANCH  14  16
ENDBRANCH  10  12
ENDBRANCH   6   7
ENDBRANCH   2   5
BRANCH   3  23
ATOM     23  C   UNL A   1      39.579  22.080  26.813  1.00  0.00     0.118 C 
BRANCH  23  24
ATOM     24  C   UNL A   1      40.375  20.941  26.172  1.00  0.00     0.042 C 
BRANCH  24  25
ATOM     25  C   UNL A   1      41.837  20.927  26.590  1.00  0.00     0.118 C 
BRANCH  25  26
ATOM     26  N   UNL A   1      42.773  21.332  25.528  1.00  0.00    -0.352 N 
ATOM     27  C   UNL A   1      43.233  22.603  25.191  1.00  0.00     0.251 C 
ATOM     28  H   UNL A   1      43.125  20.596  24.976  1.00  0.00     0.163 HD
ATOM     29  O   UNL A   1      43.735  22.820  24.104  1.00  0.00    -0.269 OA
BRANCH  27  30
ATOM     30  C   UNL A   1      43.122  23.687  26.190  1.00  0.00     0.039 A 
ATOM     31  C   UNL A   1      43.977  23.832  27.291  1.00  0.00     0.014 A 
ATOM     32  C   UNL A   1      42.118  24.612  25.972  1.00  0.00     0.014 A 
ATOM     33  C   UNL A   1      43.793  24.927  28.141  1.00  0.00     0.010 A 
ATOM     34  C   UNL A   1      42.199  25.830  26.562  1.00  0.00     0.010 A 
ATOM     35  C   UNL A   1      42.876  25.913  27.765  1.00  0.00    -0.014 A 
BRANCH  35  36
ATOM     36  C   UNL A   1      42.569  27.115  28.526  1.00  0.00     0.031 A 
ATOM     37  C   UNL A   1      43.526  28.221  28.293  1.00  0.00     0.074 A 
ATOM     38  C   UNL A   1      41.328  27.313  29.038  1.00  0.00     0.049 A 
ATOM     39  N   UNL A   1      44.379  28.722  29.122  1.00  0.00    -0.248 NA
ATOM     40  C   UNL A   1      43.677  28.714  26.910  1.00  0.00     0.031 C 
ATOM     41  C   UNL A   1      40.152  26.429  28.947  1.00  0.00     0.029 A 
ATOM     42  N   UNL A   1      40.803  28.424  29.619  1.00  0.00    -0.354 N 
ATOM     43  C   UNL A   1      45.011  29.744  28.422  1.00  0.00     0.074 A 
ATOM     44  C   UNL A   1      44.745  29.500  27.030  1.00  0.00     0.031 C 
ATOM     45  C   UNL A   1      39.030  27.130  29.236  1.00  0.00     0.029 A 
ATOM     46  C   UNL A   1      39.411  28.461  29.673  1.00  0.00     0.049 A 
ATOM     47  H   UNL A   1      41.365  29.149  29.975  1.00  0.00     0.167 HD
ATOM     48  C   UNL A   1      45.408  30.892  29.040  1.00  0.00     0.031 A 
ATOM     49  C   UNL A   1      38.637  29.528  30.005  1.00  0.00     0.031 A 
ATOM     50  C   UNL A   1      45.364  30.755  30.474  1.00  0.00     0.049 A 
ATOM     51  C   UNL A   1      39.517  30.524  30.657  1.00  0.00     0.074 A 
ATOM     52  C   UNL A   1      45.943  29.901  31.391  1.00  0.00     0.029 A 
ATOM     53  N   UNL A   1      44.284  31.320  31.115  1.00  0.00    -0.354 N 
ATOM     54  N   UNL A   1      40.076  30.336  31.818  1.00  0.00    -0.248 NA
ATOM     55  C   UNL A   1      40.158  31.515  29.806  1.00  0.00     0.031 C 
ATOM     56  C   UNL A   1      44.912  29.630  32.339  1.00  0.00     0.029 A 
ATOM     57  C   UNL A   1      43.798  30.401  32.006  1.00  0.00     0.049 A 
ATOM     58  H   UNL A   1      43.925  32.224  30.959  1.00  0.00     0.167 HD
ATOM     59  C   UNL A   1      41.364  30.825  31.666  1.00  0.00     0.074 A 
ATOM     60  C   UNL A   1      41.329  31.625  30.441  1.00  0.00     0.031 C 
ATOM     61  C   UNL A   1      42.404  30.288  32.371  1.00  0.00     0.031 A 
BRANCH  48  62
ATOM     62  C   UNL A   1      45.390  32.251  28.374  1.00  0.00    -0.014 A 
ATOM     63  C   UNL A   1      46.562  33.028  28.418  1.00  0.00     0.009 A 
ATOM     64  C   UNL A   1      44.220  32.908  27.948  1.00  0.00     0.009 A 
ATOM     65  C   UNL A   1      46.539  34.399  28.134  1.00  0.00     0.001 A 
ATOM     66  C   UNL A   1      44.201  34.267  27.621  1.00  0.00     0.001 A 
ATOM     67  C   UNL A   1      45.357  35.020  27.744  1.00  0.00     0.000 A 
ENDBRANCH  48  62
BRANCH  49  68
ATOM     68  C   UNL A   1      37.280  29.904  29.541  1.00  0.00    -0.014 A 
ATOM     69  C   UNL A   1      36.531  30.903  30.186  1.00  0.00     0.009 A 
ATOM     70  C   UNL A   1      36.847  29.490  28.271  1.00  0.00     0.009 A 
ATOM     71  C   UNL A   1      35.403  31.475  29.573  1.00  0.00     0.001 A 
ATOM     72  C   UNL A   1      35.733  30.073  27.654  1.00  0.00     0.001 A 
ATOM     73  C   UNL A   1      35.011  31.067  28.302  1.00  0.00     0.000 A 
ENDBRANCH  49  68
BRANCH  61  74
ATOM     74  C   UNL A   1      42.078  29.301  33.468  1.00  0.00    -0.014 A 
ATOM     75  C   UNL A   1      41.922  27.919  33.247  1.00  0.00     0.009 A 
ATOM     76  C   UNL A   1      42.095  29.763  34.790  1.00  0.00     0.009 A 
ATOM     77  C   UNL A   1      41.766  27.036  34.321  1.00  0.00     0.001 A 
ATOM     78  C   UNL A   1      41.960  28.879  35.862  1.00  0.00     0.001 A 
ATOM     79  C   UNL A   1      41.791  27.516  35.628  1.00  0.00     0.000 A 
ENDBRANCH  61  74
ENDBRANCH  35  36
ENDBRANCH  27  30
ENDBRANCH  25  26
ENDBRANCH  24  25
ENDBRANCH  23  24
ENDBRANCH   3  23
TORSDOF 15
ENDMDL
