MODEL 1
REMARK VINA RESULT:     -11.5      0.000      0.000
REMARK SMILES O=C(NCCCNC(=O)c1ccc(C(F)(F)F)cc1NC(=O)c1ccon1)c1ccc(-c2c3nc(c(-c4ccccc4)c4ccc([nH]4)c(-c4ccccc4)c4nc(c(-c5ccccc5)c5ccc2[nH]5)C=C4)C=C3)cc1
REMARK SMILES IDX 5 1 4 2 3 3 1 4 2 5 28 7 29 8 75 9 30 10 74 11 31 12 32 13
REMARK SMILES IDX 33 14 68 15 34 16 73 17 67 18 69 19 35 20 72 21 66 22 65 23
REMARK SMILES IDX 36 25 58 26 43 27 57 28 44 29 47 30 56 31 70 32 45 33 46 34
REMARK SMILES IDX 55 36 71 37 48 38 37 39 38 40 42 41 39 42 41 43 40 44 59 45
REMARK SMILES IDX 60 46 64 47 61 48 63 49 62 50 49 51 50 52 54 53 51 54 53 55
REMARK SMILES IDX 52 56 6 57 7 58 8 59 9 61 10 62 11 63 19 64 12 65 18 66
REMARK SMILES IDX 13 67 20 68 21 69 22 71 23 72 24 73 27 74 25 75 26 76 14 77
REMARK SMILES IDX 15 78 16 79 17 80
REMARK H PARENT 3 6 69 24 47 35 7 60 20 70
REMARK Flexibility Score: inf
ROOT
ATOM      1  C   UNL A   1      32.310  27.903  26.987  1.00  0.00     0.042 C 
ENDROOT
BRANCH   1   2
ATOM      2  C   UNL A   1      33.684  28.507  27.235  1.00  0.00     0.118 C 
BRANCH   2   3
ATOM      3  N   UNL A   1      33.627  29.916  27.598  1.00  0.00    -0.352 N 
ATOM      4  O   UNL A   1      34.265  31.836  28.589  1.00  0.00    -0.269 OA
ATOM      5  C   UNL A   1      34.566  30.706  28.215  1.00  0.00     0.251 C 
ATOM      6  H   UNL A   1      32.787  30.373  27.365  1.00  0.00     0.163 HD
BRANCH   5   7
ATOM      7  C   UNL A   1      35.931  30.194  28.450  1.00  0.00     0.039 A 
ATOM      8  C   UNL A   1      36.909  30.287  27.458  1.00  0.00     0.014 A 
ATOM      9  C   UNL A   1      36.247  29.645  29.697  1.00  0.00     0.014 A 
ATOM     10  C   UNL A   1      38.153  29.705  27.655  1.00  0.00     0.010 A 
ATOM     11  C   UNL A   1      37.533  29.151  29.931  1.00  0.00     0.010 A 
ATOM     12  C   UNL A   1      38.490  29.163  28.904  1.00  0.00    -0.014 A 
BRANCH  12  13
ATOM     13  C   UNL A   1      39.886  28.731  29.150  1.00  0.00     0.031 A 
ATOM     14  C   UNL A   1      40.894  29.652  29.772  1.00  0.00     0.074 A 
ATOM     15  C   UNL A   1      40.233  27.480  28.790  1.00  0.00     0.049 A 
ATOM     16  N   UNL A   1      42.157  29.427  30.030  1.00  0.00    -0.248 NA
ATOM     17  C   UNL A   1      40.435  30.998  30.151  1.00  0.00     0.031 C 
ATOM     18  C   UNL A   1      39.335  26.503  28.162  1.00  0.00     0.029 A 
ATOM     19  N   UNL A   1      41.422  26.809  28.902  1.00  0.00    -0.354 N 
ATOM     20  C   UNL A   1      42.651  30.605  30.572  1.00  0.00     0.074 A 
ATOM     21  C   UNL A   1      41.555  31.550  30.602  1.00  0.00     0.031 C 
ATOM     22  C   UNL A   1      39.996  25.353  27.976  1.00  0.00     0.029 A 
ATOM     23  C   UNL A   1      41.378  25.531  28.401  1.00  0.00     0.049 A 
ATOM     24  H   UNL A   1      42.230  27.205  29.302  1.00  0.00     0.167 HD
ATOM     25  C   UNL A   1      43.908  30.871  31.002  1.00  0.00     0.031 A 
ATOM     26  C   UNL A   1      42.349  24.612  28.259  1.00  0.00     0.031 A 
ATOM     27  C   UNL A   1      44.989  29.919  30.978  1.00  0.00     0.049 A 
ATOM     28  C   UNL A   1      43.738  24.954  28.706  1.00  0.00     0.074 A 
ATOM     29  C   UNL A   1      46.278  30.070  31.461  1.00  0.00     0.029 A 
ATOM     30  N   UNL A   1      44.912  28.648  30.432  1.00  0.00    -0.354 N 
ATOM     31  N   UNL A   1      44.171  26.049  29.282  1.00  0.00    -0.248 NA
ATOM     32  C   UNL A   1      44.775  23.939  28.475  1.00  0.00     0.031 C 
ATOM     33  C   UNL A   1      46.999  28.913  31.149  1.00  0.00     0.029 A 
ATOM     34  C   UNL A   1      46.145  28.023  30.520  1.00  0.00     0.049 A 
ATOM     35  H   UNL A   1      44.103  28.250  30.038  1.00  0.00     0.167 HD
ATOM     36  C   UNL A   1      45.528  25.856  29.486  1.00  0.00     0.074 A 
ATOM     37  C   UNL A   1      45.841  24.527  29.000  1.00  0.00     0.031 C 
ATOM     38  C   UNL A   1      46.437  26.706  30.020  1.00  0.00     0.031 A 
BRANCH  25  39
ATOM     39  C   UNL A   1      44.207  32.253  31.508  1.00  0.00    -0.014 A 
ATOM     40  C   UNL A   1      44.092  32.577  32.867  1.00  0.00     0.009 A 
ATOM     41  C   UNL A   1      44.700  33.221  30.617  1.00  0.00     0.009 A 
ATOM     42  C   UNL A   1      44.451  33.849  33.322  1.00  0.00     0.001 A 
ATOM     43  C   UNL A   1      45.077  34.484  31.078  1.00  0.00     0.001 A 
ATOM     44  C   UNL A   1      44.948  34.797  32.429  1.00  0.00     0.000 A 
ENDBRANCH  25  39
BRANCH  26  45
ATOM     45  C   UNL A   1      42.048  23.310  27.611  1.00  0.00    -0.014 A 
ATOM     46  C   UNL A   1      41.471  22.261  28.340  1.00  0.00     0.009 A 
ATOM     47  C   UNL A   1      42.335  23.116  26.250  1.00  0.00     0.009 A 
ATOM     48  C   UNL A   1      41.209  21.035  27.723  1.00  0.00     0.001 A 
ATOM     49  C   UNL A   1      42.042  21.901  25.629  1.00  0.00     0.001 A 
ATOM     50  C   UNL A   1      41.488  20.859  26.368  1.00  0.00     0.000 A 
ENDBRANCH  26  45
BRANCH  38  51
ATOM     51  C   UNL A   1      47.853  26.217  30.104  1.00  0.00    -0.014 A 
ATOM     52  C   UNL A   1      48.697  26.261  28.984  1.00  0.00     0.009 A 
ATOM     53  C   UNL A   1      48.358  25.745  31.325  1.00  0.00     0.009 A 
ATOM     54  C   UNL A   1      50.016  25.813  29.079  1.00  0.00     0.001 A 
ATOM     55  C   UNL A   1      49.684  25.322  31.423  1.00  0.00     0.001 A 
ATOM     56  C   UNL A   1      50.509  25.350  30.298  1.00  0.00     0.000 A 
ENDBRANCH  38  51
ENDBRANCH  12  13
ENDBRANCH   5   7
ENDBRANCH   2   3
ENDBRANCH   1   2
BRANCH   1  57
ATOM     57  C   UNL A   1      32.342  26.582  26.237  1.00  0.00     0.118 C 
BRANCH  57  58
ATOM     58  N   UNL A   1      31.751  25.493  27.004  1.00  0.00    -0.352 N 
ATOM     59  C   UNL A   1      32.007  24.149  26.956  1.00  0.00     0.253 C 
ATOM     60  H   UNL A   1      31.066  25.766  27.656  1.00  0.00     0.163 HD
ATOM     61  O   UNL A   1      31.263  23.365  27.540  1.00  0.00    -0.269 OA
BRANCH  59  62
ATOM     62  C   UNL A   1      33.172  23.629  26.210  1.00  0.00     0.063 A 
ATOM     63  C   UNL A   1      34.383  23.586  26.917  1.00  0.00     0.016 A 
ATOM     64  C   UNL A   1      33.103  23.220  24.861  1.00  0.00     0.054 A 
ATOM     65  C   UNL A   1      35.532  23.094  26.302  1.00  0.00     0.014 A 
ATOM     66  C   UNL A   1      34.287  22.803  24.246  1.00  0.00     0.040 A 
ATOM     67  C   UNL A   1      35.492  22.687  24.964  1.00  0.00     0.058 A 
BRANCH  64  68
ATOM     68  N   UNL A   1      31.862  23.256  24.189  1.00  0.00    -0.320 N 
ATOM     69  C   UNL A   1      31.329  24.089  23.222  1.00  0.00     0.277 C 
ATOM     70  H   UNL A   1      31.247  22.538  24.466  1.00  0.00     0.170 HD
ATOM     71  O   UNL A   1      30.183  23.849  22.838  1.00  0.00    -0.267 OA
BRANCH  69  72
ATOM     72  C   UNL A   1      32.138  25.137  22.615  1.00  0.00     0.171 A 
ATOM     73  C   UNL A   1      32.144  26.533  22.887  1.00  0.00     0.079 A 
ATOM     74  N   UNL A   1      33.022  24.841  21.649  1.00  0.00    -0.075 NA
ATOM     75  C   UNL A   1      33.039  27.049  21.985  1.00  0.00     0.232 A 
ATOM     76  O   UNL A   1      33.570  26.044  21.250  1.00  0.00    -0.364 OA
ENDBRANCH  69  72
ENDBRANCH  64  68
BRANCH  67  77
ATOM     77  C   UNL A   1      36.732  22.139  24.297  1.00  0.00     0.416 C 
ATOM     78  F   UNL A   1      37.878  22.564  24.888  1.00  0.00    -0.166 F 
ATOM     79  F   UNL A   1      36.770  20.777  24.325  1.00  0.00    -0.166 F 
ATOM     80  F   UNL A   1      36.829  22.480  22.982  1.00  0.00    -0.166 F 
ENDBRANCH  67  77
ENDBRANCH  59  62
ENDBRANCH  57  58
ENDBRANCH   1  57
TORSDOF 13
ENDMDL
MODEL 2
REMARK VINA RESULT:     -11.2      3.236      7.457
REMARK SMILES O=C(NCCCNC(=O)c1ccc(C(F)(F)F)cc1NC(=O)c1ccon1)c1ccc(-c2c3nc(c(-c4ccccc4)c4ccc([nH]4)c(-c4ccccc4)c4nc(c(-c5ccccc5)c5ccc2[nH]5)C=C4)C=C3)cc1
REMARK SMILES IDX 5 1 4 2 3 3 1 4 2 5 28 7 29 8 75 9 30 10 74 11 31 12 32 13
REMARK SMILES IDX 33 14 68 15 34 16 73 17 67 18 69 19 35 20 72 21 66 22 65 23
REMARK SMILES IDX 36 25 58 26 43 27 57 28 44 29 47 30 56 31 70 32 45 33 46 34
REMARK SMILES IDX 55 36 71 37 48 38 37 39 38 40 42 41 39 42 41 43 40 44 59 45
REMARK SMILES IDX 60 46 64 47 61 48 63 49 62 50 49 51 50 52 54 53 51 54 53 55
REMARK SMILES IDX 52 56 6 57 7 58 8 59 9 61 10 62 11 63 19 64 12 65 18 66
REMARK SMILES IDX 13 67 20 68 21 69 22 71 23 72 24 73 27 74 25 75 26 76 14 77
REMARK SMILES IDX 15 78 16 79 17 80
REMARK H PARENT 3 6 69 24 47 35 7 60 20 70
REMARK Flexibility Score: inf
ROOT
ATOM      1  C   UNL A   1      35.544  23.700  24.699  1.00  0.00     0.042 C 
ENDROOT
BRANCH   1   2
ATOM      2  C   UNL A   1      36.296  23.556  26.013  1.00  0.00     0.118 C 
BRANCH   2   3
ATOM      3  N   UNL A   1      37.409  22.622  25.930  1.00  0.00    -0.352 N 
ATOM      4  O   UNL A   1      39.557  21.941  25.891  1.00  0.00    -0.269 OA
ATOM      5  C   UNL A   1      38.746  22.816  26.180  1.00  0.00     0.251 C 
ATOM      6  H   UNL A   1      37.167  21.708  25.654  1.00  0.00     0.163 HD
BRANCH   5   7
ATOM      7  C   UNL A   1      39.213  24.083  26.777  1.00  0.00     0.039 A 
ATOM      8  C   UNL A   1      39.863  25.043  25.998  1.00  0.00     0.014 A 
ATOM      9  C   UNL A   1      38.964  24.332  28.130  1.00  0.00     0.014 A 
ATOM     10  C   UNL A   1      40.391  26.179  26.595  1.00  0.00     0.010 A 
ATOM     11  C   UNL A   1      39.406  25.523  28.710  1.00  0.00     0.010 A 
ATOM     12  C   UNL A   1      40.138  26.448  27.949  1.00  0.00    -0.014 A 
BRANCH  12  13
ATOM     13  C   UNL A   1      40.539  27.759  28.510  1.00  0.00     0.031 A 
ATOM     14  C   UNL A   1      39.542  28.859  28.728  1.00  0.00     0.074 A 
ATOM     15  C   UNL A   1      41.838  27.944  28.817  1.00  0.00     0.049 A 
ATOM     16  N   UNL A   1      39.744  30.066  29.189  1.00  0.00    -0.248 NA
ATOM     17  C   UNL A   1      38.140  28.575  28.380  1.00  0.00     0.031 C 
ATOM     18  C   UNL A   1      42.899  26.946  28.633  1.00  0.00     0.029 A 
ATOM     19  N   UNL A   1      42.492  29.022  29.352  1.00  0.00    -0.354 N 
ATOM     20  C   UNL A   1      38.507  30.696  29.162  1.00  0.00     0.074 A 
ATOM     21  C   UNL A   1      37.557  29.742  28.632  1.00  0.00     0.031 C 
ATOM     22  C   UNL A   1      44.059  27.448  29.078  1.00  0.00     0.029 A 
ATOM     23  C   UNL A   1      43.842  28.822  29.508  1.00  0.00     0.049 A 
ATOM     24  H   UNL A   1      42.037  29.860  29.601  1.00  0.00     0.167 HD
ATOM     25  C   UNL A   1      38.199  31.959  29.543  1.00  0.00     0.031 A 
ATOM     26  C   UNL A   1      44.810  29.661  29.915  1.00  0.00     0.031 A 
ATOM     27  C   UNL A   1      39.150  32.897  30.080  1.00  0.00     0.049 A 
ATOM     28  C   UNL A   1      44.439  31.064  30.290  1.00  0.00     0.074 A 
ATOM     29  C   UNL A   1      38.920  34.173  30.565  1.00  0.00     0.029 A 
ATOM     30  N   UNL A   1      40.513  32.667  30.190  1.00  0.00    -0.354 N 
ATOM     31  N   UNL A   1      43.253  31.621  30.325  1.00  0.00    -0.248 NA
ATOM     32  C   UNL A   1      45.541  31.958  30.670  1.00  0.00     0.031 C 
ATOM     33  C   UNL A   1      40.151  34.739  30.909  1.00  0.00     0.029 A 
ATOM     34  C   UNL A   1      41.141  33.797  30.687  1.00  0.00     0.049 A 
ATOM     35  H   UNL A   1      40.966  31.827  29.949  1.00  0.00     0.167 HD
ATOM     36  C   UNL A   1      43.463  32.928  30.734  1.00  0.00     0.074 A 
ATOM     37  C   UNL A   1      44.886  33.073  30.964  1.00  0.00     0.031 C 
ATOM     38  C   UNL A   1      42.559  33.923  30.897  1.00  0.00     0.031 A 
BRANCH  25  39
ATOM     39  C   UNL A   1      36.782  32.426  29.369  1.00  0.00    -0.014 A 
ATOM     40  C   UNL A   1      35.841  32.314  30.403  1.00  0.00     0.009 A 
ATOM     41  C   UNL A   1      36.411  33.071  28.178  1.00  0.00     0.009 A 
ATOM     42  C   UNL A   1      34.551  32.827  30.241  1.00  0.00     0.001 A 
ATOM     43  C   UNL A   1      35.127  33.600  28.027  1.00  0.00     0.001 A 
ATOM     44  C   UNL A   1      34.198  33.474  29.057  1.00  0.00     0.000 A 
ENDBRANCH  25  39
BRANCH  26  45
ATOM     45  C   UNL A   1      46.224  29.209  29.927  1.00  0.00    -0.014 A 
ATOM     46  C   UNL A   1      47.033  29.348  28.791  1.00  0.00     0.009 A 
ATOM     47  C   UNL A   1      46.773  28.639  31.087  1.00  0.00     0.009 A 
ATOM     48  C   UNL A   1      48.357  28.903  28.809  1.00  0.00     0.001 A 
ATOM     49  C   UNL A   1      48.106  28.225  31.113  1.00  0.00     0.001 A 
ATOM     50  C   UNL A   1      48.893  28.348  29.971  1.00  0.00     0.000 A 
ENDBRANCH  26  45
BRANCH  38  51
ATOM     51  C   UNL A   1      43.090  35.253  31.345  1.00  0.00    -0.014 A 
ATOM     52  C   UNL A   1      43.541  36.199  30.413  1.00  0.00     0.009 A 
ATOM     53  C   UNL A   1      43.102  35.576  32.711  1.00  0.00     0.009 A 
ATOM     54  C   UNL A   1      44.022  37.437  30.844  1.00  0.00     0.001 A 
ATOM     55  C   UNL A   1      43.559  36.824  33.135  1.00  0.00     0.001 A 
ATOM     56  C   UNL A   1      44.026  37.750  32.202  1.00  0.00     0.000 A 
ENDBRANCH  38  51
ENDBRANCH  12  13
ENDBRANCH   5   7
ENDBRANCH   2   3
ENDBRANCH   1   2
BRANCH   1  57
ATOM     57  C   UNL A   1      34.070  24.029  24.863  1.00  0.00     0.118 C 
BRANCH  57  58
ATOM     58  N   UNL A   1      33.456  24.467  23.617  1.00  0.00    -0.352 N 
ATOM     59  C   UNL A   1      32.779  25.623  23.333  1.00  0.00     0.253 C 
ATOM     60  H   UNL A   1      33.543  23.838  22.865  1.00  0.00     0.163 HD
ATOM     61  O   UNL A   1      32.160  25.724  22.277  1.00  0.00    -0.269 OA
BRANCH  59  62
ATOM     62  C   UNL A   1      32.787  26.754  24.284  1.00  0.00     0.063 A 
ATOM     63  C   UNL A   1      34.043  27.311  24.564  1.00  0.00     0.016 A 
ATOM     64  C   UNL A   1      31.619  27.246  24.906  1.00  0.00     0.054 A 
ATOM     65  C   UNL A   1      34.148  28.393  25.435  1.00  0.00     0.014 A 
ATOM     66  C   UNL A   1      31.763  28.282  25.833  1.00  0.00     0.040 A 
ATOM     67  C   UNL A   1      33.007  28.896  26.069  1.00  0.00     0.058 A 
BRANCH  64  68
ATOM     68  N   UNL A   1      30.369  26.676  24.582  1.00  0.00    -0.320 N 
ATOM     69  C   UNL A   1      29.305  27.097  23.805  1.00  0.00     0.277 C 
ATOM     70  H   UNL A   1      30.223  25.794  24.996  1.00  0.00     0.170 HD
ATOM     71  O   UNL A   1      28.329  26.349  23.729  1.00  0.00    -0.267 OA
BRANCH  69  72
ATOM     72  C   UNL A   1      29.392  28.326  23.028  1.00  0.00     0.171 A 
ATOM     73  C   UNL A   1      28.694  29.552  23.210  1.00  0.00     0.079 A 
ATOM     74  N   UNL A   1      30.212  28.405  21.967  1.00  0.00    -0.075 NA
ATOM     75  C   UNL A   1      29.105  30.335  22.163  1.00  0.00     0.232 A 
ATOM     76  O   UNL A   1      30.015  29.659  21.423  1.00  0.00    -0.364 OA
ENDBRANCH  69  72
ENDBRANCH  64  68
BRANCH  67  77
ATOM     77  C   UNL A   1      33.113  30.079  27.003  1.00  0.00     0.416 C 
ATOM     78  F   UNL A   1      33.998  29.874  28.013  1.00  0.00    -0.166 F 
ATOM     79  F   UNL A   1      33.524  31.206  26.358  1.00  0.00    -0.166 F 
ATOM     80  F   UNL A   1      31.929  30.406  27.591  1.00  0.00    -0.166 F 
ENDBRANCH  67  77
ENDBRANCH  59  62
ENDBRANCH  57  58
ENDBRANCH   1  57
TORSDOF 13
ENDMDL
MODEL 3
REMARK VINA RESULT:     -11.2      3.186      7.777
REMARK SMILES O=C(NCCCNC(=O)c1ccc(C(F)(F)F)cc1NC(=O)c1ccon1)c1ccc(-c2c3nc(c(-c4ccccc4)c4ccc([nH]4)c(-c4ccccc4)c4nc(c(-c5ccccc5)c5ccc2[nH]5)C=C4)C=C3)cc1
REMARK SMILES IDX 5 1 4 2 3 3 1 4 2 5 28 7 29 8 75 9 30 10 74 11 31 12 32 13
REMARK SMILES IDX 33 14 68 15 34 16 73 17 67 18 69 19 35 20 72 21 66 22 65 23
REMARK SMILES IDX 36 25 58 26 43 27 57 28 44 29 47 30 56 31 70 32 45 33 46 34
REMARK SMILES IDX 55 36 71 37 48 38 37 39 38 40 42 41 39 42 41 43 40 44 59 45
REMARK SMILES IDX 60 46 64 47 61 48 63 49 62 50 49 51 50 52 54 53 51 54 53 55
REMARK SMILES IDX 52 56 6 57 7 58 8 59 9 61 10 62 11 63 19 64 12 65 18 66
REMARK SMILES IDX 13 67 20 68 21 69 22 71 23 72 24 73 27 74 25 75 26 76 14 77
REMARK SMILES IDX 15 78 16 79 17 80
REMARK H PARENT 3 6 69 24 47 35 7 60 20 70
REMARK Flexibility Score: inf
ROOT
ATOM      1  C   UNL A   1      35.819  23.609  26.215  1.00  0.00     0.042 C 
ENDROOT
BRANCH   1   2
ATOM      2  C   UNL A   1      36.964  23.714  25.219  1.00  0.00     0.118 C 
BRANCH   2   3
ATOM      3  N   UNL A   1      38.030  22.757  25.477  1.00  0.00    -0.352 N 
ATOM      4  O   UNL A   1      40.080  22.037  26.073  1.00  0.00    -0.269 OA
ATOM      5  C   UNL A   1      39.241  22.933  26.102  1.00  0.00     0.251 C 
ATOM      6  H   UNL A   1      37.858  21.844  25.153  1.00  0.00     0.163 HD
BRANCH   5   7
ATOM      7  C   UNL A   1      39.544  24.202  26.792  1.00  0.00     0.039 A 
ATOM      8  C   UNL A   1      39.156  24.404  28.118  1.00  0.00     0.014 A 
ATOM      9  C   UNL A   1      40.260  25.193  26.113  1.00  0.00     0.014 A 
ATOM     10  C   UNL A   1      39.353  25.640  28.717  1.00  0.00     0.010 A 
ATOM     11  C   UNL A   1      40.549  26.401  26.752  1.00  0.00     0.010 A 
ATOM     12  C   UNL A   1      40.082  26.639  28.054  1.00  0.00    -0.014 A 
BRANCH  12  13
ATOM     13  C   UNL A   1      40.450  27.871  28.789  1.00  0.00     0.031 A 
ATOM     14  C   UNL A   1      41.781  28.014  29.466  1.00  0.00     0.074 A 
ATOM     15  C   UNL A   1      39.546  28.869  28.842  1.00  0.00     0.049 A 
ATOM     16  N   UNL A   1      42.239  29.021  30.165  1.00  0.00    -0.248 NA
ATOM     17  C   UNL A   1      42.719  26.886  29.352  1.00  0.00     0.031 C 
ATOM     18  C   UNL A   1      38.212  28.832  28.230  1.00  0.00     0.029 A 
ATOM     19  N   UNL A   1      39.606  30.108  29.425  1.00  0.00    -0.354 N 
ATOM     20  C   UNL A   1      43.502  28.640  30.598  1.00  0.00     0.074 A 
ATOM     21  C   UNL A   1      43.740  27.306  30.090  1.00  0.00     0.031 C 
ATOM     22  C   UNL A   1      37.597  30.004  28.443  1.00  0.00     0.029 A 
ATOM     23  C   UNL A   1      38.457  30.844  29.265  1.00  0.00     0.049 A 
ATOM     24  H   UNL A   1      40.396  30.437  29.912  1.00  0.00     0.167 HD
ATOM     25  C   UNL A   1      44.379  29.344  31.354  1.00  0.00     0.031 A 
ATOM     26  C   UNL A   1      38.112  32.047  29.756  1.00  0.00     0.031 A 
ATOM     27  C   UNL A   1      44.136  30.676  31.845  1.00  0.00     0.049 A 
ATOM     28  C   UNL A   1      39.090  32.779  30.623  1.00  0.00     0.074 A 
ATOM     29  C   UNL A   1      44.993  31.500  32.555  1.00  0.00     0.029 A 
ATOM     30  N   UNL A   1      42.948  31.372  31.690  1.00  0.00    -0.354 N 
ATOM     31  N   UNL A   1      40.308  32.435  30.964  1.00  0.00    -0.248 NA
ATOM     32  C   UNL A   1      38.644  34.062  31.184  1.00  0.00     0.031 C 
ATOM     33  C   UNL A   1      44.301  32.669  32.884  1.00  0.00     0.029 A 
ATOM     34  C   UNL A   1      43.032  32.596  32.334  1.00  0.00     0.049 A 
ATOM     35  H   UNL A   1      42.161  31.046  31.197  1.00  0.00     0.167 HD
ATOM     36  C   UNL A   1      40.776  33.457  31.774  1.00  0.00     0.074 A 
ATOM     37  C   UNL A   1      39.722  34.449  31.850  1.00  0.00     0.031 C 
ATOM     38  C   UNL A   1      41.968  33.561  32.408  1.00  0.00     0.031 A 
BRANCH  25  39
ATOM     39  C   UNL A   1      45.675  28.687  31.733  1.00  0.00    -0.014 A 
ATOM     40  C   UNL A   1      46.828  28.834  30.949  1.00  0.00     0.009 A 
ATOM     41  C   UNL A   1      45.762  27.983  32.945  1.00  0.00     0.009 A 
ATOM     42  C   UNL A   1      48.040  28.276  31.365  1.00  0.00     0.001 A 
ATOM     43  C   UNL A   1      46.979  27.444  33.368  1.00  0.00     0.001 A 
ATOM     44  C   UNL A   1      48.115  27.588  32.576  1.00  0.00     0.000 A 
ENDBRANCH  25  39
BRANCH  26  45
ATOM     45  C   UNL A   1      36.760  32.597  29.486  1.00  0.00    -0.014 A 
ATOM     46  C   UNL A   1      35.720  32.433  30.411  1.00  0.00     0.009 A 
ATOM     47  C   UNL A   1      36.507  33.297  28.295  1.00  0.00     0.009 A 
ATOM     48  C   UNL A   1      34.447  32.940  30.138  1.00  0.00     0.001 A 
ATOM     49  C   UNL A   1      35.243  33.831  28.039  1.00  0.00     0.001 A 
ATOM     50  C   UNL A   1      34.212  33.643  28.957  1.00  0.00     0.000 A 
ENDBRANCH  26  45
BRANCH  38  51
ATOM     51  C   UNL A   1      42.190  34.793  33.234  1.00  0.00    -0.014 A 
ATOM     52  C   UNL A   1      42.929  35.874  32.730  1.00  0.00     0.009 A 
ATOM     53  C   UNL A   1      41.623  34.889  34.514  1.00  0.00     0.009 A 
ATOM     54  C   UNL A   1      43.119  37.020  33.506  1.00  0.00     0.001 A 
ATOM     55  C   UNL A   1      41.793  36.045  35.276  1.00  0.00     0.001 A 
ATOM     56  C   UNL A   1      42.547  37.106  34.774  1.00  0.00     0.000 A 
ENDBRANCH  38  51
ENDBRANCH  12  13
ENDBRANCH   5   7
ENDBRANCH   2   3
ENDBRANCH   1   2
BRANCH   1  57
ATOM     57  C   UNL A   1      34.465  23.994  25.644  1.00  0.00     0.118 C 
BRANCH  57  58
ATOM     58  N   UNL A   1      34.539  24.354  24.234  1.00  0.00    -0.352 N 
ATOM     59  C   UNL A   1      34.011  25.432  23.576  1.00  0.00     0.253 C 
ATOM     60  H   UNL A   1      35.047  23.727  23.670  1.00  0.00     0.163 HD
ATOM     61  O   UNL A   1      34.011  25.458  22.349  1.00  0.00    -0.269 OA
BRANCH  59  62
ATOM     62  C   UNL A   1      33.442  26.569  24.329  1.00  0.00     0.063 A 
ATOM     63  C   UNL A   1      34.360  27.350  25.048  1.00  0.00     0.016 A 
ATOM     64  C   UNL A   1      32.061  26.858  24.361  1.00  0.00     0.054 A 
ATOM     65  C   UNL A   1      33.919  28.454  25.772  1.00  0.00     0.014 A 
ATOM     66  C   UNL A   1      31.638  27.926  25.158  1.00  0.00     0.040 A 
ATOM     67  C   UNL A   1      32.555  28.759  25.825  1.00  0.00     0.058 A 
BRANCH  64  68
ATOM     68  N   UNL A   1      31.169  26.065  23.607  1.00  0.00    -0.320 N 
ATOM     69  C   UNL A   1      30.548  24.851  23.840  1.00  0.00     0.277 C 
ATOM     70  H   UNL A   1      30.942  26.457  22.733  1.00  0.00     0.170 HD
ATOM     71  O   UNL A   1      29.813  24.413  22.953  1.00  0.00    -0.267 OA
BRANCH  69  72
ATOM     72  C   UNL A   1      30.681  24.183  25.127  1.00  0.00     0.171 A 
ATOM     73  C   UNL A   1      31.182  22.882  25.412  1.00  0.00     0.079 A 
ATOM     74  N   UNL A   1      30.294  24.796  26.257  1.00  0.00    -0.075 NA
ATOM     75  C   UNL A   1      31.013  22.744  26.766  1.00  0.00     0.232 A 
ATOM     76  O   UNL A   1      30.490  23.884  27.275  1.00  0.00    -0.364 OA
ENDBRANCH  69  72
ENDBRANCH  64  68
BRANCH  67  77
ATOM     77  C   UNL A   1      32.072  29.965  26.598  1.00  0.00     0.416 C 
ATOM     78  F   UNL A   1      31.299  30.794  25.850  1.00  0.00    -0.166 F 
ATOM     79  F   UNL A   1      31.321  29.615  27.679  1.00  0.00    -0.166 F 
ATOM     80  F   UNL A   1      33.088  30.727  27.090  1.00  0.00    -0.166 F 
ENDBRANCH  67  77
ENDBRANCH  59  62
ENDBRANCH  57  58
ENDBRANCH   1  57
TORSDOF 13
ENDMDL
