MODEL 1
REMARK VINA RESULT:     -10.8      0.000      0.000
REMARK SMILES O=C(NCCCNC(=O)c1cc([C@@H]2C=NN=C2c2ccc(F)cc2)c2c(ccc3ccccc32)n1)c1ccc(-c2c3nc(c(-c4ccccc4)c4ccc([nH]4)c(-c4ccccc4)c4nc(c(-c5ccccc5)c5ccc2[nH]5)C=C4)C=C3)cc1
REMARK SMILES IDX 5 1 4 2 3 3 1 4 2 5 36 7 37 8 83 9 38 10 82 11 39 12 40 13
REMARK SMILES IDX 41 14 76 15 42 16 81 17 75 18 77 19 43 20 80 21 74 22 73 23
REMARK SMILES IDX 44 25 66 26 51 27 65 28 52 29 55 30 64 31 78 32 53 33 54 34
REMARK SMILES IDX 63 36 79 37 56 38 45 39 46 40 50 41 47 42 49 43 48 44 67 45
REMARK SMILES IDX 68 46 72 47 69 48 71 49 70 50 57 51 58 52 62 53 59 54 61 55
REMARK SMILES IDX 60 56 6 57 7 58 8 59 9 61 10 62 11 63 35 64 12 65 26 66
REMARK SMILES IDX 25 67 27 68 34 69 28 70 29 71 33 72 30 73 32 74 31 75 13 76
REMARK SMILES IDX 14 77 17 78 15 79 16 80 18 81 19 82 24 83 20 84 23 85 21 86
REMARK SMILES IDX 22 87
REMARK H PARENT 3 6 77 24 55 35 7 60
REMARK Flexibility Score: inf
ROOT
ATOM      1  C   UNL A   1      36.964  34.164  34.746  1.00  0.00     0.042 C 
ENDROOT
BRANCH   1   2
ATOM      2  C   UNL A   1      38.363  34.237  34.142  1.00  0.00     0.118 C 
BRANCH   2   3
ATOM      3  N   UNL A   1      38.389  34.490  32.715  1.00  0.00    -0.352 N 
ATOM      4  O   UNL A   1      38.521  34.319  30.529  1.00  0.00    -0.269 OA
ATOM      5  C   UNL A   1      38.889  33.855  31.613  1.00  0.00     0.251 C 
ATOM      6  H   UNL A   1      37.930  35.329  32.482  1.00  0.00     0.163 HD
BRANCH   5   7
ATOM      7  C   UNL A   1      39.860  32.724  31.604  1.00  0.00     0.039 A 
ATOM      8  C   UNL A   1      40.334  32.023  32.713  1.00  0.00     0.014 A 
ATOM      9  C   UNL A   1      40.371  32.379  30.334  1.00  0.00     0.014 A 
ATOM     10  C   UNL A   1      41.334  31.055  32.559  1.00  0.00     0.010 A 
ATOM     11  C   UNL A   1      41.364  31.415  30.176  1.00  0.00     0.010 A 
ATOM     12  C   UNL A   1      41.873  30.771  31.296  1.00  0.00    -0.014 A 
BRANCH  12  13
ATOM     13  C   UNL A   1      42.861  29.694  31.165  1.00  0.00     0.031 A 
ATOM     14  C   UNL A   1      44.029  30.011  30.293  1.00  0.00     0.074 A 
ATOM     15  C   UNL A   1      42.864  28.543  31.874  1.00  0.00     0.049 A 
ATOM     16  N   UNL A   1      44.387  29.426  29.196  1.00  0.00    -0.248 NA
ATOM     17  C   UNL A   1      44.863  31.167  30.655  1.00  0.00     0.031 C 
ATOM     18  C   UNL A   1      42.008  28.163  33.001  1.00  0.00     0.029 A 
ATOM     19  N   UNL A   1      43.726  27.486  31.779  1.00  0.00    -0.354 N 
ATOM     20  C   UNL A   1      45.575  30.037  28.797  1.00  0.00     0.074 A 
ATOM     21  C   UNL A   1      45.766  31.166  29.673  1.00  0.00     0.031 C 
ATOM     22  C   UNL A   1      42.528  27.072  33.613  1.00  0.00     0.029 A 
ATOM     23  C   UNL A   1      43.660  26.589  32.838  1.00  0.00     0.049 A 
ATOM     24  H   UNL A   1      44.344  27.370  31.020  1.00  0.00     0.167 HD
ATOM     25  C   UNL A   1      46.415  29.470  27.886  1.00  0.00     0.031 A 
ATOM     26  C   UNL A   1      44.493  25.546  33.080  1.00  0.00     0.031 A 
ATOM     27  C   UNL A   1      45.775  28.427  27.134  1.00  0.00     0.049 A 
ATOM     28  C   UNL A   1      45.181  25.213  31.817  1.00  0.00     0.074 A 
ATOM     29  C   UNL A   1      44.694  28.362  26.278  1.00  0.00     0.029 A 
ATOM     30  N   UNL A   1      46.047  27.129  27.492  1.00  0.00    -0.354 N 
ATOM     31  N   UNL A   1      44.585  24.690  30.785  1.00  0.00    -0.248 NA
ATOM     32  C   UNL A   1      46.472  25.824  31.553  1.00  0.00     0.031 C 
ATOM     33  C   UNL A   1      44.073  27.113  26.570  1.00  0.00     0.029 A 
ATOM     34  C   UNL A   1      44.846  26.471  27.540  1.00  0.00     0.049 A 
ATOM     35  H   UNL A   1      46.933  26.744  27.676  1.00  0.00     0.167 HD
ATOM     36  C   UNL A   1      45.195  25.284  29.692  1.00  0.00     0.074 A 
ATOM     37  C   UNL A   1      46.415  25.889  30.220  1.00  0.00     0.031 C 
ATOM     38  C   UNL A   1      44.517  25.464  28.521  1.00  0.00     0.031 A 
BRANCH  25  39
ATOM     39  C   UNL A   1      47.915  29.611  27.922  1.00  0.00    -0.014 A 
ATOM     40  C   UNL A   1      48.651  28.852  28.852  1.00  0.00     0.009 A 
ATOM     41  C   UNL A   1      48.598  30.662  27.282  1.00  0.00     0.009 A 
ATOM     42  C   UNL A   1      49.974  29.175  29.176  1.00  0.00     0.001 A 
ATOM     43  C   UNL A   1      49.933  30.961  27.572  1.00  0.00     0.001 A 
ATOM     44  C   UNL A   1      50.612  30.236  28.541  1.00  0.00     0.000 A 
ENDBRANCH  25  39
BRANCH  26  45
ATOM     45  C   UNL A   1      44.936  24.964  34.367  1.00  0.00    -0.014 A 
ATOM     46  C   UNL A   1      45.367  25.786  35.423  1.00  0.00     0.009 A 
ATOM     47  C   UNL A   1      44.648  23.619  34.662  1.00  0.00     0.009 A 
ATOM     48  C   UNL A   1      45.463  25.291  36.732  1.00  0.00     0.001 A 
ATOM     49  C   UNL A   1      44.744  23.126  35.968  1.00  0.00     0.001 A 
ATOM     50  C   UNL A   1      45.136  23.965  37.006  1.00  0.00     0.000 A 
ENDBRANCH  26  45
BRANCH  38  51
ATOM     51  C   UNL A   1      43.182  24.781  28.357  1.00  0.00    -0.014 A 
ATOM     52  C   UNL A   1      41.954  25.455  28.477  1.00  0.00     0.009 A 
ATOM     53  C   UNL A   1      43.172  23.454  27.902  1.00  0.00     0.009 A 
ATOM     54  C   UNL A   1      40.751  24.809  28.172  1.00  0.00     0.001 A 
ATOM     55  C   UNL A   1      41.973  22.816  27.576  1.00  0.00     0.001 A 
ATOM     56  C   UNL A   1      40.762  23.492  27.714  1.00  0.00     0.000 A 
ENDBRANCH  38  51
ENDBRANCH  12  13
ENDBRANCH   5   7
ENDBRANCH   2   3
ENDBRANCH   1   2
BRANCH   1  57
ATOM     57  C   UNL A   1      35.881  34.916  33.974  1.00  0.00     0.118 C 
BRANCH  57  58
ATOM     58  N   UNL A   1      34.576  34.275  34.015  1.00  0.00    -0.351 N 
ATOM     59  C   UNL A   1      34.044  33.238  33.270  1.00  0.00     0.269 C 
ATOM     60  H   UNL A   1      33.964  34.645  34.692  1.00  0.00     0.163 HD
ATOM     61  O   UNL A   1      32.868  32.937  33.453  1.00  0.00    -0.268 OA
BRANCH  59  62
ATOM     62  C   UNL A   1      34.878  32.467  32.298  1.00  0.00     0.129 A 
ATOM     63  C   UNL A   1      34.940  32.830  30.976  1.00  0.00     0.039 A 
ATOM     64  N   UNL A   1      35.642  31.483  32.787  1.00  0.00    -0.243 NA
ATOM     65  C   UNL A   1      35.745  32.108  30.058  1.00  0.00    -0.021 A 
ATOM     66  C   UNL A   1      36.473  30.830  31.963  1.00  0.00     0.072 A 
ATOM     67  C   UNL A   1      36.604  31.047  30.554  1.00  0.00     0.012 A 
ATOM     68  C   UNL A   1      37.249  29.900  32.618  1.00  0.00     0.029 A 
ATOM     69  C   UNL A   1      37.604  30.201  29.858  1.00  0.00    -0.009 A 
ATOM     70  C   UNL A   1      38.189  29.124  31.960  1.00  0.00     0.011 A 
ATOM     71  C   UNL A   1      38.374  29.256  30.594  1.00  0.00    -0.018 A 
ATOM     72  C   UNL A   1      37.922  30.226  28.479  1.00  0.00     0.009 A 
ATOM     73  C   UNL A   1      39.345  28.436  29.987  1.00  0.00     0.009 A 
ATOM     74  C   UNL A   1      38.883  29.408  27.869  1.00  0.00     0.001 A 
ATOM     75  C   UNL A   1      39.600  28.507  28.626  1.00  0.00     0.001 A 
BRANCH  65  76
ATOM     76  C   UNL A   1      35.602  32.668  28.660  1.00  0.00     0.115 C 
ATOM     77  C   UNL A   1      35.627  34.140  28.482  1.00  0.00     0.123 C 
ATOM     78  C   UNL A   1      34.421  32.352  27.801  1.00  0.00     0.083 C 
ATOM     79  N   UNL A   1      34.777  34.546  27.594  1.00  0.00    -0.162 NA
ATOM     80  N   UNL A   1      34.011  33.408  27.156  1.00  0.00    -0.154 NA
BRANCH  78  81
ATOM     81  C   UNL A   1      33.906  30.984  27.558  1.00  0.00    -0.001 A 
ATOM     82  C   UNL A   1      32.539  30.841  27.282  1.00  0.00     0.013 A 
ATOM     83  C   UNL A   1      34.727  29.849  27.544  1.00  0.00     0.013 A 
ATOM     84  C   UNL A   1      32.016  29.590  26.948  1.00  0.00     0.040 A 
ATOM     85  C   UNL A   1      34.203  28.600  27.203  1.00  0.00     0.040 A 
ATOM     86  C   UNL A   1      32.855  28.483  26.898  1.00  0.00     0.123 A 
ATOM     87  F   UNL A   1      32.360  27.288  26.555  1.00  0.00    -0.207 F 
ENDBRANCH  78  81
ENDBRANCH  65  76
ENDBRANCH  59  62
ENDBRANCH  57  58
ENDBRANCH   1  57
TORSDOF 12
ENDMDL
MODEL 2
REMARK VINA RESULT:     -10.7      2.603      6.011
REMARK SMILES O=C(NCCCNC(=O)c1cc([C@@H]2C=NN=C2c2ccc(F)cc2)c2c(ccc3ccccc32)n1)c1ccc(-c2c3nc(c(-c4ccccc4)c4ccc([nH]4)c(-c4ccccc4)c4nc(c(-c5ccccc5)c5ccc2[nH]5)C=C4)C=C3)cc1
REMARK SMILES IDX 5 1 4 2 3 3 1 4 2 5 36 7 37 8 83 9 38 10 82 11 39 12 40 13
REMARK SMILES IDX 41 14 76 15 42 16 81 17 75 18 77 19 43 20 80 21 74 22 73 23
REMARK SMILES IDX 44 25 66 26 51 27 65 28 52 29 55 30 64 31 78 32 53 33 54 34
REMARK SMILES IDX 63 36 79 37 56 38 45 39 46 40 50 41 47 42 49 43 48 44 67 45
REMARK SMILES IDX 68 46 72 47 69 48 71 49 70 50 57 51 58 52 62 53 59 54 61 55
REMARK SMILES IDX 60 56 6 57 7 58 8 59 9 61 10 62 11 63 35 64 12 65 26 66
REMARK SMILES IDX 25 67 27 68 34 69 28 70 29 71 33 72 30 73 32 74 31 75 13 76
REMARK SMILES IDX 14 77 17 78 15 79 16 80 18 81 19 82 24 83 20 84 23 85 21 86
REMARK SMILES IDX 22 87
REMARK H PARENT 3 6 77 24 55 35 7 60
REMARK Flexibility Score: inf
ROOT
ATOM      1  C   UNL A   1      36.069  34.155  29.770  1.00  0.00     0.042 C 
ENDROOT
BRANCH   1   2
ATOM      2  C   UNL A   1      37.016  33.230  29.011  1.00  0.00     0.118 C 
BRANCH   2   3
ATOM      3  N   UNL A   1      36.426  31.971  28.603  1.00  0.00    -0.352 N 
ATOM      4  O   UNL A   1      35.917  29.850  28.337  1.00  0.00    -0.269 OA
ATOM      5  C   UNL A   1      36.812  30.660  28.601  1.00  0.00     0.251 C 
ATOM      6  H   UNL A   1      35.520  32.090  28.236  1.00  0.00     0.163 HD
BRANCH   5   7
ATOM      7  C   UNL A   1      38.191  30.139  28.823  1.00  0.00     0.039 A 
ATOM      8  C   UNL A   1      39.250  30.817  29.426  1.00  0.00     0.014 A 
ATOM      9  C   UNL A   1      38.434  28.843  28.320  1.00  0.00     0.014 A 
ATOM     10  C   UNL A   1      40.526  30.239  29.463  1.00  0.00     0.010 A 
ATOM     11  C   UNL A   1      39.699  28.263  28.357  1.00  0.00     0.010 A 
ATOM     12  C   UNL A   1      40.760  28.975  28.902  1.00  0.00    -0.014 A 
BRANCH  12  13
ATOM     13  C   UNL A   1      42.090  28.370  29.032  1.00  0.00     0.031 A 
ATOM     14  C   UNL A   1      42.417  27.335  28.008  1.00  0.00     0.074 A 
ATOM     15  C   UNL A   1      43.057  28.778  29.883  1.00  0.00     0.049 A 
ATOM     16  N   UNL A   1      42.674  26.081  28.196  1.00  0.00    -0.248 NA
ATOM     17  C   UNL A   1      42.384  27.735  26.593  1.00  0.00     0.031 C 
ATOM     18  C   UNL A   1      43.073  29.964  30.744  1.00  0.00     0.029 A 
ATOM     19  N   UNL A   1      44.299  28.242  30.084  1.00  0.00    -0.354 N 
ATOM     20  C   UNL A   1      42.985  25.554  26.942  1.00  0.00     0.074 A 
ATOM     21  C   UNL A   1      42.691  26.589  25.982  1.00  0.00     0.031 C 
ATOM     22  C   UNL A   1      44.331  30.170  31.203  1.00  0.00     0.029 A 
ATOM     23  C   UNL A   1      45.172  29.056  30.795  1.00  0.00     0.049 A 
ATOM     24  H   UNL A   1      44.553  27.350  29.752  1.00  0.00     0.167 HD
ATOM     25  C   UNL A   1      43.630  24.364  26.793  1.00  0.00     0.031 A 
ATOM     26  C   UNL A   1      46.496  28.847  31.006  1.00  0.00     0.031 A 
ATOM     27  C   UNL A   1      43.596  23.574  27.993  1.00  0.00     0.049 A 
ATOM     28  C   UNL A   1      46.770  27.413  30.785  1.00  0.00     0.074 A 
ATOM     29  C   UNL A   1      42.599  23.013  28.765  1.00  0.00     0.029 A 
ATOM     30  N   UNL A   1      44.728  23.553  28.770  1.00  0.00    -0.354 N 
ATOM     31  N   UNL A   1      46.344  26.466  31.569  1.00  0.00    -0.248 NA
ATOM     32  C   UNL A   1      47.196  26.989  29.463  1.00  0.00     0.031 C 
ATOM     33  C   UNL A   1      43.054  23.158  30.108  1.00  0.00     0.029 A 
ATOM     34  C   UNL A   1      44.322  23.742  30.065  1.00  0.00     0.049 A 
ATOM     35  H   UNL A   1      45.652  23.426  28.458  1.00  0.00     0.167 HD
ATOM     36  C   UNL A   1      46.031  25.421  30.716  1.00  0.00     0.074 A 
ATOM     37  C   UNL A   1      46.675  25.759  29.449  1.00  0.00     0.031 C 
ATOM     38  C   UNL A   1      45.056  24.521  31.035  1.00  0.00     0.031 A 
BRANCH  25  39
ATOM     39  C   UNL A   1      44.599  24.065  25.678  1.00  0.00    -0.014 A 
ATOM     40  C   UNL A   1      44.351  22.966  24.833  1.00  0.00     0.009 A 
ATOM     41  C   UNL A   1      45.881  24.641  25.607  1.00  0.00     0.009 A 
ATOM     42  C   UNL A   1      45.355  22.430  24.017  1.00  0.00     0.001 A 
ATOM     43  C   UNL A   1      46.874  24.133  24.763  1.00  0.00     0.001 A 
ATOM     44  C   UNL A   1      46.620  23.009  23.989  1.00  0.00     0.000 A 
ENDBRANCH  25  39
BRANCH  26  45
ATOM     45  C   UNL A   1      47.600  29.823  31.143  1.00  0.00    -0.014 A 
ATOM     46  C   UNL A   1      47.745  30.884  30.233  1.00  0.00     0.009 A 
ATOM     47  C   UNL A   1      48.332  29.887  32.342  1.00  0.00     0.009 A 
ATOM     48  C   UNL A   1      48.557  31.988  30.532  1.00  0.00     0.001 A 
ATOM     49  C   UNL A   1      49.142  30.988  32.641  1.00  0.00     0.001 A 
ATOM     50  C   UNL A   1      49.242  32.046  31.743  1.00  0.00     0.000 A 
ENDBRANCH  26  45
BRANCH  38  51
ATOM     51  C   UNL A   1      44.503  24.535  32.438  1.00  0.00    -0.014 A 
ATOM     52  C   UNL A   1      43.972  25.688  33.043  1.00  0.00     0.009 A 
ATOM     53  C   UNL A   1      44.363  23.308  33.105  1.00  0.00     0.009 A 
ATOM     54  C   UNL A   1      43.340  25.615  34.289  1.00  0.00     0.001 A 
ATOM     55  C   UNL A   1      43.712  23.232  34.338  1.00  0.00     0.001 A 
ATOM     56  C   UNL A   1      43.204  24.385  34.932  1.00  0.00     0.000 A 
ENDBRANCH  38  51
ENDBRANCH  12  13
ENDBRANCH   5   7
ENDBRANCH   2   3
ENDBRANCH   1   2
BRANCH   1  57
ATOM     57  C   UNL A   1      34.601  33.731  29.765  1.00  0.00     0.118 C 
BRANCH  57  58
ATOM     58  N   UNL A   1      33.961  33.811  31.069  1.00  0.00    -0.351 N 
ATOM     59  C   UNL A   1      34.319  33.284  32.297  1.00  0.00     0.269 C 
ATOM     60  H   UNL A   1      33.125  34.331  31.079  1.00  0.00     0.163 HD
ATOM     61  O   UNL A   1      33.547  33.434  33.240  1.00  0.00    -0.268 OA
BRANCH  59  62
ATOM     62  C   UNL A   1      35.628  32.588  32.496  1.00  0.00     0.129 A 
ATOM     63  C   UNL A   1      36.633  33.169  33.228  1.00  0.00     0.039 A 
ATOM     64  N   UNL A   1      35.739  31.339  32.026  1.00  0.00    -0.243 NA
ATOM     65  C   UNL A   1      37.867  32.500  33.429  1.00  0.00    -0.021 A 
ATOM     66  C   UNL A   1      36.862  30.649  32.265  1.00  0.00     0.072 A 
ATOM     67  C   UNL A   1      38.018  31.136  32.954  1.00  0.00     0.012 A 
ATOM     68  C   UNL A   1      36.803  29.357  31.791  1.00  0.00     0.029 A 
ATOM     69  C   UNL A   1      39.138  30.173  33.102  1.00  0.00    -0.009 A 
ATOM     70  C   UNL A   1      37.849  28.463  31.946  1.00  0.00     0.011 A 
ATOM     71  C   UNL A   1      39.013  28.851  32.587  1.00  0.00    -0.018 A 
ATOM     72  C   UNL A   1      40.378  30.409  33.741  1.00  0.00     0.009 A 
ATOM     73  C   UNL A   1      40.039  27.894  32.710  1.00  0.00     0.009 A 
ATOM     74  C   UNL A   1      41.404  29.461  33.861  1.00  0.00     0.001 A 
ATOM     75  C   UNL A   1      41.235  28.196  33.343  1.00  0.00     0.001 A 
BRANCH  65  76
ATOM     76  C   UNL A   1      38.824  33.365  34.219  1.00  0.00     0.115 C 
ATOM     77  C   UNL A   1      38.291  34.157  35.354  1.00  0.00     0.123 C 
ATOM     78  C   UNL A   1      39.651  34.425  33.567  1.00  0.00     0.083 C 
ATOM     79  N   UNL A   1      38.825  35.333  35.432  1.00  0.00    -0.162 NA
ATOM     80  N   UNL A   1      39.695  35.505  34.297  1.00  0.00    -0.154 NA
BRANCH  78  81
ATOM     81  C   UNL A   1      40.474  34.215  32.353  1.00  0.00    -0.001 A 
ATOM     82  C   UNL A   1      41.806  33.815  32.529  1.00  0.00     0.013 A 
ATOM     83  C   UNL A   1      39.970  34.352  31.054  1.00  0.00     0.013 A 
ATOM     84  C   UNL A   1      42.600  33.507  31.423  1.00  0.00     0.040 A 
ATOM     85  C   UNL A   1      40.764  34.038  29.949  1.00  0.00     0.040 A 
ATOM     86  C   UNL A   1      42.068  33.608  30.143  1.00  0.00     0.123 A 
ATOM     87  F   UNL A   1      42.821  33.291  29.083  1.00  0.00    -0.207 F 
ENDBRANCH  78  81
ENDBRANCH  65  76
ENDBRANCH  59  62
ENDBRANCH  57  58
ENDBRANCH   1  57
TORSDOF 12
ENDMDL
MODEL 3
REMARK VINA RESULT:     -10.5      3.735      7.639
REMARK SMILES O=C(NCCCNC(=O)c1cc([C@@H]2C=NN=C2c2ccc(F)cc2)c2c(ccc3ccccc32)n1)c1ccc(-c2c3nc(c(-c4ccccc4)c4ccc([nH]4)c(-c4ccccc4)c4nc(c(-c5ccccc5)c5ccc2[nH]5)C=C4)C=C3)cc1
REMARK SMILES IDX 5 1 4 2 3 3 1 4 2 5 36 7 37 8 83 9 38 10 82 11 39 12 40 13
REMARK SMILES IDX 41 14 76 15 42 16 81 17 75 18 77 19 43 20 80 21 74 22 73 23
REMARK SMILES IDX 44 25 66 26 51 27 65 28 52 29 55 30 64 31 78 32 53 33 54 34
REMARK SMILES IDX 63 36 79 37 56 38 45 39 46 40 50 41 47 42 49 43 48 44 67 45
REMARK SMILES IDX 68 46 72 47 69 48 71 49 70 50 57 51 58 52 62 53 59 54 61 55
REMARK SMILES IDX 60 56 6 57 7 58 8 59 9 61 10 62 11 63 35 64 12 65 26 66
REMARK SMILES IDX 25 67 27 68 34 69 28 70 29 71 33 72 30 73 32 74 31 75 13 76
REMARK SMILES IDX 14 77 17 78 15 79 16 80 18 81 19 82 24 83 20 84 23 85 21 86
REMARK SMILES IDX 22 87
REMARK H PARENT 3 6 77 24 55 35 7 60
REMARK Flexibility Score: inf
ROOT
ATOM      1  C   UNL A   1      35.103  30.082  27.385  1.00  0.00     0.042 C 
ENDROOT
BRANCH   1   2
ATOM      2  C   UNL A   1      34.379  31.404  27.622  1.00  0.00     0.118 C 
BRANCH   2   3
ATOM      3  N   UNL A   1      34.395  31.858  28.999  1.00  0.00    -0.352 N 
ATOM      4  O   UNL A   1      34.977  32.538  31.005  1.00  0.00    -0.269 OA
ATOM      5  C   UNL A   1      35.304  31.869  30.020  1.00  0.00     0.251 C 
ATOM      6  H   UNL A   1      33.536  32.259  29.265  1.00  0.00     0.163 HD
BRANCH   5   7
ATOM      7  C   UNL A   1      36.591  31.118  30.072  1.00  0.00     0.039 A 
ATOM      8  C   UNL A   1      37.849  31.595  29.702  1.00  0.00     0.014 A 
ATOM      9  C   UNL A   1      36.489  29.778  30.500  1.00  0.00     0.014 A 
ATOM     10  C   UNL A   1      38.954  30.734  29.699  1.00  0.00     0.010 A 
ATOM     11  C   UNL A   1      37.586  28.919  30.501  1.00  0.00     0.010 A 
ATOM     12  C   UNL A   1      38.819  29.387  30.068  1.00  0.00    -0.014 A 
BRANCH  12  13
ATOM     13  C   UNL A   1      40.015  28.539  30.129  1.00  0.00     0.031 A 
ATOM     14  C   UNL A   1      40.649  28.437  31.476  1.00  0.00     0.074 A 
ATOM     15  C   UNL A   1      40.470  27.753  29.129  1.00  0.00     0.049 A 
ATOM     16  N   UNL A   1      41.837  28.809  31.828  1.00  0.00    -0.248 NA
ATOM     17  C   UNL A   1      39.831  27.918  32.583  1.00  0.00     0.031 C 
ATOM     18  C   UNL A   1      39.834  27.452  27.844  1.00  0.00     0.029 A 
ATOM     19  N   UNL A   1      41.591  26.970  29.103  1.00  0.00    -0.354 N 
ATOM     20  C   UNL A   1      41.981  28.440  33.165  1.00  0.00     0.074 A 
ATOM     21  C   UNL A   1      40.684  27.990  33.606  1.00  0.00     0.031 C 
ATOM     22  C   UNL A   1      40.463  26.400  27.266  1.00  0.00     0.029 A 
ATOM     23  C   UNL A   1      41.630  26.052  28.060  1.00  0.00     0.049 A 
ATOM     24  H   UNL A   1      42.312  27.051  29.769  1.00  0.00     0.167 HD
ATOM     25  C   UNL A   1      43.199  28.362  33.771  1.00  0.00     0.031 A 
ATOM     26  C   UNL A   1      42.536  25.058  27.879  1.00  0.00     0.031 A 
ATOM     27  C   UNL A   1      44.219  29.051  33.029  1.00  0.00     0.049 A 
ATOM     28  C   UNL A   1      43.735  25.387  28.676  1.00  0.00     0.074 A 
ATOM     29  C   UNL A   1      44.425  30.357  32.633  1.00  0.00     0.029 A 
ATOM     30  N   UNL A   1      45.073  28.290  32.269  1.00  0.00    -0.354 N 
ATOM     31  N   UNL A   1      44.538  26.371  28.400  1.00  0.00    -0.248 NA
ATOM     32  C   UNL A   1      43.833  24.855  30.024  1.00  0.00     0.031 C 
ATOM     33  C   UNL A   1      45.000  30.256  31.333  1.00  0.00     0.029 A 
ATOM     34  C   UNL A   1      45.162  28.899  31.045  1.00  0.00     0.049 A 
ATOM     35  H   UNL A   1      45.533  27.467  32.549  1.00  0.00     0.167 HD
ATOM     36  C   UNL A   1      44.917  26.869  29.636  1.00  0.00     0.074 A 
ATOM     37  C   UNL A   1      44.540  25.834  30.595  1.00  0.00     0.031 C 
ATOM     38  C   UNL A   1      45.248  28.185  29.793  1.00  0.00     0.031 A 
BRANCH  25  39
ATOM     39  C   UNL A   1      43.543  27.363  34.845  1.00  0.00    -0.014 A 
ATOM     40  C   UNL A   1      43.607  25.996  34.511  1.00  0.00     0.009 A 
ATOM     41  C   UNL A   1      43.522  27.677  36.216  1.00  0.00     0.009 A 
ATOM     42  C   UNL A   1      43.578  25.000  35.495  1.00  0.00     0.001 A 
ATOM     43  C   UNL A   1      43.535  26.687  37.203  1.00  0.00     0.001 A 
ATOM     44  C   UNL A   1      43.533  25.347  36.842  1.00  0.00     0.000 A 
ENDBRANCH  25  39
BRANCH  26  45
ATOM     45  C   UNL A   1      42.367  23.719  27.272  1.00  0.00    -0.014 A 
ATOM     46  C   UNL A   1      42.921  23.419  26.015  1.00  0.00     0.009 A 
ATOM     47  C   UNL A   1      41.920  22.644  28.061  1.00  0.00     0.009 A 
ATOM     48  C   UNL A   1      43.062  22.092  25.584  1.00  0.00     0.001 A 
ATOM     49  C   UNL A   1      42.061  21.320  27.631  1.00  0.00     0.001 A 
ATOM     50  C   UNL A   1      42.647  21.043  26.400  1.00  0.00     0.000 A 
ENDBRANCH  26  45
BRANCH  38  51
ATOM     51  C   UNL A   1      45.438  29.025  28.555  1.00  0.00    -0.014 A 
ATOM     52  C   UNL A   1      44.384  29.703  27.917  1.00  0.00     0.009 A 
ATOM     53  C   UNL A   1      46.749  29.272  28.120  1.00  0.00     0.009 A 
ATOM     54  C   UNL A   1      44.637  30.585  26.861  1.00  0.00     0.001 A 
ATOM     55  C   UNL A   1      47.003  30.169  27.080  1.00  0.00     0.001 A 
ATOM     56  C   UNL A   1      45.947  30.823  26.448  1.00  0.00     0.000 A 
ENDBRANCH  38  51
ENDBRANCH  12  13
ENDBRANCH   5   7
ENDBRANCH   2   3
ENDBRANCH   1   2
BRANCH   1  57
ATOM     57  C   UNL A   1      34.209  28.913  26.976  1.00  0.00     0.118 C 
BRANCH  57  58
ATOM     58  N   UNL A   1      32.953  28.848  27.708  1.00  0.00    -0.351 N 
ATOM     59  C   UNL A   1      31.859  28.013  27.572  1.00  0.00     0.269 C 
ATOM     60  H   UNL A   1      32.867  29.516  28.425  1.00  0.00     0.163 HD
ATOM     61  O   UNL A   1      30.876  28.225  28.276  1.00  0.00    -0.268 OA
BRANCH  59  62
ATOM     62  C   UNL A   1      31.875  26.853  26.628  1.00  0.00     0.129 A 
ATOM     63  C   UNL A   1      32.143  27.030  25.294  1.00  0.00     0.039 A 
ATOM     64  N   UNL A   1      31.726  25.630  27.153  1.00  0.00    -0.243 NA
ATOM     65  C   UNL A   1      32.174  25.926  24.404  1.00  0.00    -0.021 A 
ATOM     66  C   UNL A   1      31.826  24.559  26.354  1.00  0.00     0.072 A 
ATOM     67  C   UNL A   1      32.038  24.583  24.939  1.00  0.00     0.012 A 
ATOM     68  C   UNL A   1      31.729  23.371  27.043  1.00  0.00     0.029 A 
ATOM     69  C   UNL A   1      32.125  23.259  24.274  1.00  0.00    -0.009 A 
ATOM     70  C   UNL A   1      31.824  22.140  26.414  1.00  0.00     0.011 A 
ATOM     71  C   UNL A   1      32.014  22.066  25.045  1.00  0.00    -0.018 A 
ATOM     72  C   UNL A   1      32.332  23.015  22.895  1.00  0.00     0.009 A 
ATOM     73  C   UNL A   1      32.100  20.784  24.469  1.00  0.00     0.009 A 
ATOM     74  C   UNL A   1      32.412  21.741  22.316  1.00  0.00     0.001 A 
ATOM     75  C   UNL A   1      32.297  20.618  23.106  1.00  0.00     0.001 A 
BRANCH  65  76
ATOM     76  C   UNL A   1      32.437  26.386  22.987  1.00  0.00     0.115 C 
ATOM     77  C   UNL A   1      33.843  26.506  22.530  1.00  0.00     0.123 C 
ATOM     78  C   UNL A   1      31.915  27.687  22.470  1.00  0.00     0.083 C 
ATOM     79  N   UNL A   1      34.033  27.543  21.780  1.00  0.00    -0.162 NA
ATOM     80  N   UNL A   1      32.805  28.295  21.736  1.00  0.00    -0.154 NA
BRANCH  78  81
ATOM     81  C   UNL A   1      30.509  28.137  22.604  1.00  0.00    -0.001 A 
ATOM     82  C   UNL A   1      29.584  27.234  23.145  1.00  0.00     0.013 A 
ATOM     83  C   UNL A   1      30.083  29.427  22.262  1.00  0.00     0.013 A 
ATOM     84  C   UNL A   1      28.268  27.634  23.386  1.00  0.00     0.040 A 
ATOM     85  C   UNL A   1      28.769  29.828  22.510  1.00  0.00     0.040 A 
ATOM     86  C   UNL A   1      27.875  28.932  23.079  1.00  0.00     0.123 A 
ATOM     87  F   UNL A   1      26.621  29.324  23.331  1.00  0.00    -0.207 F 
ENDBRANCH  78  81
ENDBRANCH  65  76
ENDBRANCH  59  62
ENDBRANCH  57  58
ENDBRANCH   1  57
TORSDOF 12
ENDMDL
