MODEL 1
REMARK VINA RESULT:      -9.8      0.000      0.000
REMARK SMILES O=C(Cc1ccccc1Nc1c(Cl)cccc1Cl)NCCCNC(=O)c1ccc(-c2c3nc(c(-c4ccccc4)c4ccc([nH]4)c(-c4ccccc4)c4nc(c(-c5ccccc5)c5ccc2[nH]5)C=C4)C=C3)cc1
REMARK SMILES IDX 20 1 19 2 1 3 2 4 3 6 4 7 5 8 9 9 6 10 8 11 7 12 10 13 11 15
REMARK SMILES IDX 12 16 17 17 13 18 14 19 16 20 18 21 15 22 21 23 22 24 23 25
REMARK SMILES IDX 24 26 25 28 26 29 27 30 73 31 28 32 72 33 29 34 30 35 31 36
REMARK SMILES IDX 66 37 32 38 71 39 65 40 67 41 33 42 70 43 64 44 63 45 34 47
REMARK SMILES IDX 56 48 41 49 55 50 42 51 45 52 54 53 68 54 43 55 44 56 53 58
REMARK SMILES IDX 69 59 46 60 35 61 36 62 40 63 37 64 39 65 38 66 57 67 58 68
REMARK SMILES IDX 62 69 59 70 61 71 60 72 47 73 48 74 52 75 49 76 51 77 50 78
REMARK H PARENT 19 5 10 14 23 27 67 46 45 57
REMARK Flexibility Score: inf
ROOT
ATOM      1  C   UNL A   1      45.051  20.671  24.193  1.00  0.00     0.117 C 
ENDROOT
BRANCH   1   2
ATOM      2  N   UNL A   1      45.951  21.623  24.806  1.00  0.00    -0.356 N 
ATOM      3  O   UNL A   1      44.954  23.426  23.791  1.00  0.00    -0.275 OA
ATOM      4  C   UNL A   1      45.740  22.973  24.620  1.00  0.00     0.224 C 
ATOM      5  H   UNL A   1      46.707  21.310  25.354  1.00  0.00     0.163 HD
BRANCH   4   6
ATOM      6  C   UNL A   1      46.440  23.869  25.608  1.00  0.00     0.137 C 
BRANCH   6   7
ATOM      7  C   UNL A   1      46.940  25.197  25.061  1.00  0.00    -0.015 A 
ATOM      8  C   UNL A   1      47.974  25.083  24.099  1.00  0.00     0.006 A 
ATOM      9  C   UNL A   1      46.423  26.483  25.358  1.00  0.00     0.042 A 
ATOM     10  C   UNL A   1      48.530  26.201  23.486  1.00  0.00     0.000 A 
ATOM     11  C   UNL A   1      47.045  27.599  24.761  1.00  0.00     0.026 A 
ATOM     12  C   UNL A   1      48.074  27.464  23.828  1.00  0.00     0.002 A 
BRANCH   9  13
ATOM     13  N   UNL A   1      45.365  26.705  26.273  1.00  0.00    -0.353 N 
ATOM     14  H   UNL A   1      45.361  26.133  27.075  1.00  0.00     0.167 HD
BRANCH  13  15
ATOM     15  C   UNL A   1      44.305  27.652  26.178  1.00  0.00     0.076 A 
ATOM     16  C   UNL A   1      44.393  28.912  26.810  1.00  0.00     0.066 A 
ATOM     17  C   UNL A   1      43.060  27.304  25.613  1.00  0.00     0.066 A 
ATOM     18  Cl  UNL A   1      45.871  29.509  27.473  1.00  0.00    -0.082 Cl
ATOM     19  C   UNL A   1      43.293  29.777  26.875  1.00  0.00     0.023 A 
ATOM     20  C   UNL A   1      41.973  28.188  25.647  1.00  0.00     0.023 A 
ATOM     21  Cl  UNL A   1      42.790  25.763  24.869  1.00  0.00    -0.082 Cl
ATOM     22  C   UNL A   1      42.084  29.418  26.289  1.00  0.00     0.003 A 
ENDBRANCH  13  15
ENDBRANCH   9  13
ENDBRANCH   6   7
ENDBRANCH   4   6
ENDBRANCH   1   2
BRANCH   1  23
ATOM     23  C   UNL A   1      45.112  19.271  24.768  1.00  0.00     0.042 C 
BRANCH  23  24
ATOM     24  C   UNL A   1      44.245  19.042  25.996  1.00  0.00     0.118 C 
BRANCH  24  25
ATOM     25  N   UNL A   1      42.859  18.701  25.710  1.00  0.00    -0.352 N 
ATOM     26  C   UNL A   1      41.709  19.438  25.914  1.00  0.00     0.251 C 
ATOM     27  H   UNL A   1      42.720  17.812  25.312  1.00  0.00     0.163 HD
ATOM     28  O   UNL A   1      40.616  18.951  25.666  1.00  0.00    -0.269 OA
BRANCH  26  29
ATOM     29  C   UNL A   1      41.788  20.806  26.482  1.00  0.00     0.039 A 
ATOM     30  C   UNL A   1      41.535  20.978  27.846  1.00  0.00     0.014 A 
ATOM     31  C   UNL A   1      42.125  21.912  25.698  1.00  0.00     0.014 A 
ATOM     32  C   UNL A   1      41.703  22.236  28.433  1.00  0.00     0.010 A 
ATOM     33  C   UNL A   1      42.395  23.138  26.301  1.00  0.00     0.010 A 
ATOM     34  C   UNL A   1      42.184  23.317  27.675  1.00  0.00    -0.014 A 
BRANCH  34  35
ATOM     35  C   UNL A   1      42.477  24.627  28.315  1.00  0.00     0.031 A 
ATOM     36  C   UNL A   1      43.850  24.931  28.851  1.00  0.00     0.074 A 
ATOM     37  C   UNL A   1      41.490  25.536  28.451  1.00  0.00     0.049 A 
ATOM     38  N   UNL A   1      44.292  26.029  29.415  1.00  0.00    -0.248 NA
ATOM     39  C   UNL A   1      44.853  23.857  28.770  1.00  0.00     0.031 C 
ATOM     40  C   UNL A   1      40.097  25.346  28.036  1.00  0.00     0.029 A 
ATOM     41  N   UNL A   1      41.509  26.807  28.968  1.00  0.00    -0.354 N 
ATOM     42  C   UNL A   1      45.612  25.771  29.764  1.00  0.00     0.074 A 
ATOM     43  C   UNL A   1      45.882  24.396  29.407  1.00  0.00     0.031 C 
ATOM     44  C   UNL A   1      39.411  26.476  28.267  1.00  0.00     0.029 A 
ATOM     45  C   UNL A   1      40.300  27.456  28.880  1.00  0.00     0.049 A 
ATOM     46  H   UNL A   1      42.312  27.215  29.366  1.00  0.00     0.167 HD
ATOM     47  C   UNL A   1      46.529  26.608  30.305  1.00  0.00     0.031 A 
ATOM     48  C   UNL A   1      39.949  28.705  29.240  1.00  0.00     0.031 A 
ATOM     49  C   UNL A   1      46.267  27.979  30.654  1.00  0.00     0.049 A 
ATOM     50  C   UNL A   1      40.986  29.618  29.831  1.00  0.00     0.074 A 
ATOM     51  C   UNL A   1      47.145  28.925  31.155  1.00  0.00     0.029 A 
ATOM     52  N   UNL A   1      45.032  28.599  30.542  1.00  0.00    -0.354 N 
ATOM     53  N   UNL A   1      42.254  29.384  30.073  1.00  0.00    -0.248 NA
ATOM     54  C   UNL A   1      40.547  30.976  30.178  1.00  0.00     0.031 C 
ATOM     55  C   UNL A   1      46.428  30.103  31.396  1.00  0.00     0.029 A 
ATOM     56  C   UNL A   1      45.119  29.910  30.985  1.00  0.00     0.049 A 
ATOM     57  H   UNL A   1      44.214  28.172  30.199  1.00  0.00     0.167 HD
ATOM     58  C   UNL A   1      42.769  30.574  30.573  1.00  0.00     0.074 A 
ATOM     59  C   UNL A   1      41.682  31.532  30.576  1.00  0.00     0.031 C 
ATOM     60  C   UNL A   1      44.028  30.850  30.992  1.00  0.00     0.031 A 
BRANCH  47  61
ATOM     61  C   UNL A   1      47.907  26.057  30.553  1.00  0.00    -0.014 A 
ATOM     62  C   UNL A   1      48.305  25.639  31.834  1.00  0.00     0.009 A 
ATOM     63  C   UNL A   1      48.811  25.924  29.487  1.00  0.00     0.009 A 
ATOM     64  C   UNL A   1      49.591  25.139  32.048  1.00  0.00     0.001 A 
ATOM     65  C   UNL A   1      50.085  25.393  29.698  1.00  0.00     0.001 A 
ATOM     66  C   UNL A   1      50.478  25.011  30.981  1.00  0.00     0.000 A 
ENDBRANCH  47  61
BRANCH  48  67
ATOM     67  C   UNL A   1      38.558  29.182  29.021  1.00  0.00    -0.014 A 
ATOM     68  C   UNL A   1      37.619  29.148  30.066  1.00  0.00     0.009 A 
ATOM     69  C   UNL A   1      38.155  29.664  27.766  1.00  0.00     0.009 A 
ATOM     70  C   UNL A   1      36.300  29.553  29.848  1.00  0.00     0.001 A 
ATOM     71  C   UNL A   1      36.843  30.099  27.561  1.00  0.00     0.001 A 
ATOM     72  C   UNL A   1      35.915  30.033  28.597  1.00  0.00     0.000 A 
ENDBRANCH  48  67
BRANCH  60  73
ATOM     73  C   UNL A   1      44.301  32.254  31.454  1.00  0.00    -0.014 A 
ATOM     74  C   UNL A   1      44.162  32.624  32.801  1.00  0.00     0.009 A 
ATOM     75  C   UNL A   1      44.716  33.221  30.524  1.00  0.00     0.009 A 
ATOM     76  C   UNL A   1      44.381  33.944  33.197  1.00  0.00     0.001 A 
ATOM     77  C   UNL A   1      44.968  34.533  30.929  1.00  0.00     0.001 A 
ATOM     78  C   UNL A   1      44.786  34.896  32.262  1.00  0.00     0.000 A 
ENDBRANCH  60  73
ENDBRANCH  34  35
ENDBRANCH  26  29
ENDBRANCH  24  25
ENDBRANCH  23  24
ENDBRANCH   1  23
TORSDOF 13
ENDMDL
MODEL 2
REMARK VINA RESULT:      -8.7      3.911      6.787
REMARK SMILES O=C(Cc1ccccc1Nc1c(Cl)cccc1Cl)NCCCNC(=O)c1ccc(-c2c3nc(c(-c4ccccc4)c4ccc([nH]4)c(-c4ccccc4)c4nc(c(-c5ccccc5)c5ccc2[nH]5)C=C4)C=C3)cc1
REMARK SMILES IDX 20 1 19 2 1 3 2 4 3 6 4 7 5 8 9 9 6 10 8 11 7 12 10 13 11 15
REMARK SMILES IDX 12 16 17 17 13 18 14 19 16 20 18 21 15 22 21 23 22 24 23 25
REMARK SMILES IDX 24 26 25 28 26 29 27 30 73 31 28 32 72 33 29 34 30 35 31 36
REMARK SMILES IDX 66 37 32 38 71 39 65 40 67 41 33 42 70 43 64 44 63 45 34 47
REMARK SMILES IDX 56 48 41 49 55 50 42 51 45 52 54 53 68 54 43 55 44 56 53 58
REMARK SMILES IDX 69 59 46 60 35 61 36 62 40 63 37 64 39 65 38 66 57 67 58 68
REMARK SMILES IDX 62 69 59 70 61 71 60 72 47 73 48 74 52 75 49 76 51 77 50 78
REMARK H PARENT 19 5 10 14 23 27 67 46 45 57
REMARK Flexibility Score: inf
ROOT
ATOM      1  C   UNL A   1      36.304  20.252  25.021  1.00  0.00     0.117 C 
ENDROOT
BRANCH   1   2
ATOM      2  N   UNL A   1      35.874  21.117  26.097  1.00  0.00    -0.356 N 
ATOM      3  O   UNL A   1      35.202  22.785  24.669  1.00  0.00    -0.275 OA
ATOM      4  C   UNL A   1      35.242  22.305  25.800  1.00  0.00     0.224 C 
ATOM      5  H   UNL A   1      36.029  20.858  27.034  1.00  0.00     0.163 HD
BRANCH   4   6
ATOM      6  C   UNL A   1      34.470  22.919  26.938  1.00  0.00     0.137 C 
BRANCH   6   7
ATOM      7  C   UNL A   1      33.091  23.459  26.592  1.00  0.00    -0.015 A 
ATOM      8  C   UNL A   1      32.016  22.681  27.089  1.00  0.00     0.006 A 
ATOM      9  C   UNL A   1      32.803  24.669  25.914  1.00  0.00     0.042 A 
ATOM     10  C   UNL A   1      30.690  23.046  26.877  1.00  0.00     0.000 A 
ATOM     11  C   UNL A   1      31.450  24.982  25.669  1.00  0.00     0.026 A 
ATOM     12  C   UNL A   1      30.406  24.192  26.153  1.00  0.00     0.002 A 
BRANCH   9  13
ATOM     13  N   UNL A   1      33.802  25.539  25.413  1.00  0.00    -0.353 N 
ATOM     14  H   UNL A   1      34.727  25.332  25.679  1.00  0.00     0.167 HD
BRANCH  13  15
ATOM     15  C   UNL A   1      33.635  26.677  24.571  1.00  0.00     0.076 A 
ATOM     16  C   UNL A   1      33.631  26.551  23.165  1.00  0.00     0.066 A 
ATOM     17  C   UNL A   1      33.654  27.986  25.098  1.00  0.00     0.066 A 
ATOM     18  Cl  UNL A   1      33.525  25.018  22.378  1.00  0.00    -0.082 Cl
ATOM     19  C   UNL A   1      33.649  27.675  22.330  1.00  0.00     0.023 A 
ATOM     20  C   UNL A   1      33.632  29.108  24.259  1.00  0.00     0.023 A 
ATOM     21  Cl  UNL A   1      33.731  28.287  26.803  1.00  0.00    -0.082 Cl
ATOM     22  C   UNL A   1      33.643  28.954  22.876  1.00  0.00     0.003 A 
ENDBRANCH  13  15
ENDBRANCH   9  13
ENDBRANCH   6   7
ENDBRANCH   4   6
ENDBRANCH   1   2
BRANCH   1  23
ATOM     23  C   UNL A   1      37.758  20.401  24.622  1.00  0.00     0.042 C 
BRANCH  23  24
ATOM     24  C   UNL A   1      38.739  20.470  25.782  1.00  0.00     0.118 C 
BRANCH  24  25
ATOM     25  N   UNL A   1      39.793  19.466  25.751  1.00  0.00    -0.352 N 
ATOM     26  C   UNL A   1      41.125  19.575  26.097  1.00  0.00     0.251 C 
ATOM     27  H   UNL A   1      39.515  18.577  25.434  1.00  0.00     0.163 HD
ATOM     28  O   UNL A   1      41.880  18.626  25.940  1.00  0.00    -0.269 OA
BRANCH  26  29
ATOM     29  C   UNL A   1      41.662  20.857  26.616  1.00  0.00     0.039 A 
ATOM     30  C   UNL A   1      42.103  21.816  25.699  1.00  0.00     0.014 A 
ATOM     31  C   UNL A   1      41.717  21.134  27.984  1.00  0.00     0.014 A 
ATOM     32  C   UNL A   1      42.515  23.073  26.150  1.00  0.00     0.010 A 
ATOM     33  C   UNL A   1      42.026  22.419  28.423  1.00  0.00     0.010 A 
ATOM     34  C   UNL A   1      42.433  23.404  27.513  1.00  0.00    -0.014 A 
BRANCH  34  35
ATOM     35  C   UNL A   1      42.758  24.775  27.987  1.00  0.00     0.031 A 
ATOM     36  C   UNL A   1      44.187  25.193  28.211  1.00  0.00     0.074 A 
ATOM     37  C   UNL A   1      41.759  25.639  28.257  1.00  0.00     0.049 A 
ATOM     38  N   UNL A   1      44.656  26.355  28.596  1.00  0.00    -0.248 NA
ATOM     39  C   UNL A   1      45.224  24.170  28.003  1.00  0.00     0.031 C 
ATOM     40  C   UNL A   1      40.328  25.344  28.148  1.00  0.00     0.029 A 
ATOM     41  N   UNL A   1      41.795  26.948  28.669  1.00  0.00    -0.354 N 
ATOM     42  C   UNL A   1      46.034  26.195  28.686  1.00  0.00     0.074 A 
ATOM     43  C   UNL A   1      46.320  24.811  28.379  1.00  0.00     0.031 C 
ATOM     44  C   UNL A   1      39.626  26.452  28.434  1.00  0.00     0.029 A 
ATOM     45  C   UNL A   1      40.551  27.524  28.783  1.00  0.00     0.049 A 
ATOM     46  H   UNL A   1      42.631  27.429  28.866  1.00  0.00     0.167 HD
ATOM     47  C   UNL A   1      46.981  27.121  28.970  1.00  0.00     0.031 A 
ATOM     48  C   UNL A   1      40.194  28.778  29.119  1.00  0.00     0.031 A 
ATOM     49  C   UNL A   1      46.702  28.501  29.269  1.00  0.00     0.049 A 
ATOM     50  C   UNL A   1      41.265  29.790  29.422  1.00  0.00     0.074 A 
ATOM     51  C   UNL A   1      47.596  29.528  29.513  1.00  0.00     0.029 A 
ATOM     52  N   UNL A   1      45.430  29.044  29.367  1.00  0.00    -0.354 N 
ATOM     53  N   UNL A   1      42.568  29.642  29.417  1.00  0.00    -0.248 NA
ATOM     54  C   UNL A   1      40.812  31.147  29.755  1.00  0.00     0.031 C 
ATOM     55  C   UNL A   1      46.863  30.683  29.812  1.00  0.00     0.029 A 
ATOM     56  C   UNL A   1      45.515  30.389  29.690  1.00  0.00     0.049 A 
ATOM     57  H   UNL A   1      44.591  28.549  29.227  1.00  0.00     0.167 HD
ATOM     58  C   UNL A   1      43.090  30.894  29.718  1.00  0.00     0.074 A 
ATOM     59  C   UNL A   1      41.964  31.791  29.875  1.00  0.00     0.031 C 
ATOM     60  C   UNL A   1      44.386  31.268  29.853  1.00  0.00     0.031 A 
BRANCH  47  61
ATOM     61  C   UNL A   1      48.415  26.664  28.971  1.00  0.00    -0.014 A 
ATOM     62  C   UNL A   1      49.028  26.187  30.142  1.00  0.00     0.009 A 
ATOM     63  C   UNL A   1      49.157  26.681  27.779  1.00  0.00     0.009 A 
ATOM     64  C   UNL A   1      50.362  25.776  30.127  1.00  0.00     0.001 A 
ATOM     65  C   UNL A   1      50.481  26.239  27.760  1.00  0.00     0.001 A 
ATOM     66  C   UNL A   1      51.086  25.798  28.937  1.00  0.00     0.000 A 
ENDBRANCH  47  61
BRANCH  48  67
ATOM     67  C   UNL A   1      38.759  29.163  29.154  1.00  0.00    -0.014 A 
ATOM     68  C   UNL A   1      38.012  29.024  30.336  1.00  0.00     0.009 A 
ATOM     69  C   UNL A   1      38.122  29.659  28.007  1.00  0.00     0.009 A 
ATOM     70  C   UNL A   1      36.652  29.342  30.358  1.00  0.00     0.001 A 
ATOM     71  C   UNL A   1      36.769  30.007  28.040  1.00  0.00     0.001 A 
ATOM     72  C   UNL A   1      36.033  29.838  29.210  1.00  0.00     0.000 A 
ENDBRANCH  48  67
BRANCH  60  73
ATOM     73  C   UNL A   1      44.650  32.718  30.150  1.00  0.00    -0.014 A 
ATOM     74  C   UNL A   1      44.691  33.681  29.128  1.00  0.00     0.009 A 
ATOM     75  C   UNL A   1      44.852  33.129  31.478  1.00  0.00     0.009 A 
ATOM     76  C   UNL A   1      44.979  35.014  29.426  1.00  0.00     0.001 A 
ATOM     77  C   UNL A   1      45.106  34.468  31.775  1.00  0.00     0.001 A 
ATOM     78  C   UNL A   1      45.185  35.406  30.748  1.00  0.00     0.000 A 
ENDBRANCH  60  73
ENDBRANCH  34  35
ENDBRANCH  26  29
ENDBRANCH  24  25
ENDBRANCH  23  24
ENDBRANCH   1  23
TORSDOF 13
ENDMDL
MODEL 3
REMARK VINA RESULT:      -8.7      4.917     10.292
REMARK SMILES O=C(Cc1ccccc1Nc1c(Cl)cccc1Cl)NCCCNC(=O)c1ccc(-c2c3nc(c(-c4ccccc4)c4ccc([nH]4)c(-c4ccccc4)c4nc(c(-c5ccccc5)c5ccc2[nH]5)C=C4)C=C3)cc1
REMARK SMILES IDX 20 1 19 2 1 3 2 4 3 6 4 7 5 8 9 9 6 10 8 11 7 12 10 13 11 15
REMARK SMILES IDX 12 16 17 17 13 18 14 19 16 20 18 21 15 22 21 23 22 24 23 25
REMARK SMILES IDX 24 26 25 28 26 29 27 30 73 31 28 32 72 33 29 34 30 35 31 36
REMARK SMILES IDX 66 37 32 38 71 39 65 40 67 41 33 42 70 43 64 44 63 45 34 47
REMARK SMILES IDX 56 48 41 49 55 50 42 51 45 52 54 53 68 54 43 55 44 56 53 58
REMARK SMILES IDX 69 59 46 60 35 61 36 62 40 63 37 64 39 65 38 66 57 67 58 68
REMARK SMILES IDX 62 69 59 70 61 71 60 72 47 73 48 74 52 75 49 76 51 77 50 78
REMARK H PARENT 19 5 10 14 23 27 67 46 45 57
REMARK Flexibility Score: inf
ROOT
ATOM      1  C   UNL A   1      33.825  24.753  25.498  1.00  0.00     0.117 C 
ENDROOT
BRANCH   1   2
ATOM      2  N   UNL A   1      34.213  26.098  25.135  1.00  0.00    -0.356 N 
ATOM      3  O   UNL A   1      33.523  25.856  22.958  1.00  0.00    -0.275 OA
ATOM      4  C   UNL A   1      33.916  26.573  23.876  1.00  0.00     0.224 C 
ATOM      5  H   UNL A   1      34.685  26.670  25.783  1.00  0.00     0.163 HD
BRANCH   4   6
ATOM      6  C   UNL A   1      33.969  28.071  23.731  1.00  0.00     0.137 C 
BRANCH   6   7
ATOM      7  C   UNL A   1      33.353  28.871  24.868  1.00  0.00    -0.015 A 
ATOM      8  C   UNL A   1      34.134  28.906  26.051  1.00  0.00     0.006 A 
ATOM      9  C   UNL A   1      32.153  29.623  24.820  1.00  0.00     0.042 A 
ATOM     10  C   UNL A   1      33.723  29.611  27.178  1.00  0.00     0.000 A 
ATOM     11  C   UNL A   1      31.738  30.281  25.997  1.00  0.00     0.026 A 
ATOM     12  C   UNL A   1      32.515  30.288  27.156  1.00  0.00     0.002 A 
BRANCH   9  13
ATOM     13  N   UNL A   1      31.320  29.689  23.676  1.00  0.00    -0.353 N 
ATOM     14  H   UNL A   1      31.766  29.928  22.831  1.00  0.00     0.167 HD
BRANCH  13  15
ATOM     15  C   UNL A   1      29.917  29.452  23.596  1.00  0.00     0.076 A 
ATOM     16  C   UNL A   1      29.405  28.148  23.426  1.00  0.00     0.066 A 
ATOM     17  C   UNL A   1      28.999  30.519  23.497  1.00  0.00     0.066 A 
ATOM     18  Cl  UNL A   1      30.391  26.741  23.602  1.00  0.00    -0.082 Cl
ATOM     19  C   UNL A   1      28.047  27.922  23.166  1.00  0.00     0.023 A 
ATOM     20  C   UNL A   1      27.635  30.286  23.276  1.00  0.00     0.023 A 
ATOM     21  Cl  UNL A   1      29.500  32.173  23.616  1.00  0.00    -0.082 Cl
ATOM     22  C   UNL A   1      27.161  28.990  23.097  1.00  0.00     0.003 A 
ENDBRANCH  13  15
ENDBRANCH   9  13
ENDBRANCH   6   7
ENDBRANCH   4   6
ENDBRANCH   1   2
BRANCH   1  23
ATOM     23  C   UNL A   1      34.876  23.692  25.241  1.00  0.00     0.042 C 
BRANCH  23  24
ATOM     24  C   UNL A   1      36.281  24.055  25.698  1.00  0.00     0.118 C 
BRANCH  24  25
ATOM     25  N   UNL A   1      37.241  22.962  25.645  1.00  0.00    -0.352 N 
ATOM     26  C   UNL A   1      38.548  22.914  26.088  1.00  0.00     0.251 C 
ATOM     27  H   UNL A   1      36.909  22.133  25.230  1.00  0.00     0.163 HD
ATOM     28  O   UNL A   1      39.225  21.915  25.896  1.00  0.00    -0.269 OA
BRANCH  26  29
ATOM     29  C   UNL A   1      39.155  24.091  26.758  1.00  0.00     0.039 A 
ATOM     30  C   UNL A   1      39.909  24.981  25.987  1.00  0.00     0.014 A 
ATOM     31  C   UNL A   1      38.977  24.338  28.120  1.00  0.00     0.014 A 
ATOM     32  C   UNL A   1      40.407  26.153  26.564  1.00  0.00     0.010 A 
ATOM     33  C   UNL A   1      39.380  25.554  28.667  1.00  0.00     0.010 A 
ATOM     34  C   UNL A   1      40.104  26.475  27.897  1.00  0.00    -0.014 A 
BRANCH  34  35
ATOM     35  C   UNL A   1      40.529  27.773  28.485  1.00  0.00     0.031 A 
ATOM     36  C   UNL A   1      39.543  28.896  28.664  1.00  0.00     0.074 A 
ATOM     37  C   UNL A   1      41.821  27.958  28.823  1.00  0.00     0.049 A 
ATOM     38  N   UNL A   1      39.731  30.085  29.182  1.00  0.00    -0.248 NA
ATOM     39  C   UNL A   1      38.173  28.669  28.174  1.00  0.00     0.031 C 
ATOM     40  C   UNL A   1      42.895  26.977  28.642  1.00  0.00     0.029 A 
ATOM     41  N   UNL A   1      42.450  29.032  29.401  1.00  0.00    -0.354 N 
ATOM     42  C   UNL A   1      38.514  30.745  29.069  1.00  0.00     0.074 A 
ATOM     43  C   UNL A   1      37.612  29.852  28.377  1.00  0.00     0.031 C 
ATOM     44  C   UNL A   1      44.035  27.475  29.145  1.00  0.00     0.029 A 
ATOM     45  C   UNL A   1      43.786  28.821  29.650  1.00  0.00     0.049 A 
ATOM     46  H   UNL A   1      41.989  29.875  29.616  1.00  0.00     0.167 HD
ATOM     47  C   UNL A   1      38.165  31.972  29.524  1.00  0.00     0.031 A 
ATOM     48  C   UNL A   1      44.705  29.615  30.230  1.00  0.00     0.031 A 
ATOM     49  C   UNL A   1      39.057  32.862  30.220  1.00  0.00     0.049 A 
ATOM     50  C   UNL A   1      44.291  30.969  30.735  1.00  0.00     0.074 A 
ATOM     51  C   UNL A   1      38.783  34.102  30.770  1.00  0.00     0.029 A 
ATOM     52  N   UNL A   1      40.399  32.606  30.457  1.00  0.00    -0.354 N 
ATOM     53  N   UNL A   1      43.112  31.542  30.696  1.00  0.00    -0.248 NA
ATOM     54  C   UNL A   1      45.334  31.777  31.382  1.00  0.00     0.031 C 
ATOM     55  C   UNL A   1      39.973  34.620  31.295  1.00  0.00     0.029 A 
ATOM     56  C   UNL A   1      40.972  33.676  31.127  1.00  0.00     0.049 A 
ATOM     57  H   UNL A   1      40.874  31.787  30.189  1.00  0.00     0.167 HD
ATOM     58  C   UNL A   1      43.265  32.764  31.340  1.00  0.00     0.074 A 
ATOM     59  C   UNL A   1      44.644  32.837  31.778  1.00  0.00     0.031 C 
ATOM     60  C   UNL A   1      42.347  33.739  31.549  1.00  0.00     0.031 A 
BRANCH  47  61
ATOM     61  C   UNL A   1      36.750  32.424  29.280  1.00  0.00    -0.014 A 
ATOM     62  C   UNL A   1      35.724  32.133  30.194  1.00  0.00     0.009 A 
ATOM     63  C   UNL A   1      36.443  33.177  28.135  1.00  0.00     0.009 A 
ATOM     64  C   UNL A   1      34.415  32.551  29.947  1.00  0.00     0.001 A 
ATOM     65  C   UNL A   1      35.139  33.621  27.907  1.00  0.00     0.001 A 
ATOM     66  C   UNL A   1      34.124  33.298  28.807  1.00  0.00     0.000 A 
ENDBRANCH  47  61
BRANCH  48  67
ATOM     67  C   UNL A   1      46.103  29.140  30.400  1.00  0.00    -0.014 A 
ATOM     68  C   UNL A   1      46.486  28.447  31.560  1.00  0.00     0.009 A 
ATOM     69  C   UNL A   1      47.068  29.384  29.410  1.00  0.00     0.009 A 
ATOM     70  C   UNL A   1      47.810  28.041  31.741  1.00  0.00     0.001 A 
ATOM     71  C   UNL A   1      48.384  28.948  29.579  1.00  0.00     0.001 A 
ATOM     72  C   UNL A   1      48.757  28.288  30.747  1.00  0.00     0.000 A 
ENDBRANCH  48  67
BRANCH  60  73
ATOM     73  C   UNL A   1      42.801  34.950  32.317  1.00  0.00    -0.014 A 
ATOM     74  C   UNL A   1      42.598  35.058  33.703  1.00  0.00     0.009 A 
ATOM     75  C   UNL A   1      43.452  35.995  31.643  1.00  0.00     0.009 A 
ATOM     76  C   UNL A   1      42.991  36.210  34.386  1.00  0.00     0.001 A 
ATOM     77  C   UNL A   1      43.875  37.131  32.335  1.00  0.00     0.001 A 
ATOM     78  C   UNL A   1      43.630  37.244  33.702  1.00  0.00     0.000 A 
ENDBRANCH  60  73
ENDBRANCH  34  35
ENDBRANCH  26  29
ENDBRANCH  24  25
ENDBRANCH  23  24
ENDBRANCH   1  23
TORSDOF 13
ENDMDL
