MODEL 1
REMARK VINA RESULT:     -11.1      0.000      0.000
REMARK SMILES CC[C@@](C)(NC(=O)Nc1c(C)cccc1Cl)C(=O)NCCCNC(=O)c1ccc(-c2c3nc(c(-c4ccccc4)c4ccc([nH]4)c(-c4ccccc4)c4nc(c(-c5ccccc5)c5ccc2[nH]5)C=C4)C=C3)cc1
REMARK SMILES IDX 21 1 20 2 19 3 17 4 18 5 3 7 4 8 2 9 1 10 5 11 6 12 7 14
REMARK SMILES IDX 8 15 9 17 10 18 15 19 11 20 12 21 14 22 16 23 13 24 22 25
REMARK SMILES IDX 23 26 24 27 25 29 26 30 27 31 73 32 28 33 72 34 29 35 30 36
REMARK SMILES IDX 31 37 66 38 32 39 71 40 65 41 67 42 33 43 70 44 64 45 63 46
REMARK SMILES IDX 34 48 56 49 41 50 55 51 42 52 45 53 54 54 68 55 43 56 44 57
REMARK SMILES IDX 53 59 69 60 46 61 35 62 36 63 40 64 37 65 39 66 38 67 57 68
REMARK SMILES IDX 58 69 62 70 59 71 61 72 60 73 47 74 48 75 52 76 49 77 51 78
REMARK SMILES IDX 50 79
REMARK H PARENT 19 6 5 13 8 16 23 28 67 47 45 58
REMARK Flexibility Score: inf
ROOT
ATOM      1  C   UNL A   1      37.424  20.960  24.703  1.00  0.00     0.042 C 
ENDROOT
BRANCH   1   2
ATOM      2  C   UNL A   1      35.978  20.675  25.170  1.00  0.00     0.117 C 
BRANCH   2   3
ATOM      3  N   UNL A   1      35.551  21.448  26.326  1.00  0.00    -0.354 N 
ATOM      4  C   UNL A   1      34.271  21.815  26.728  1.00  0.00     0.245 C 
ATOM      5  O   UNL A   1      33.741  21.311  27.715  1.00  0.00    -0.272 OA
ATOM      6  H   UNL A   1      36.278  21.758  26.913  1.00  0.00     0.163 HD
BRANCH   4   7
ATOM      7  C   UNL A   1      33.539  22.830  25.814  1.00  0.00     0.117 C 
ATOM      8  C   UNL A   1      34.529  24.034  25.899  1.00  0.00     0.045 C 
BRANCH   7   9
ATOM      9  C   UNL A   1      33.285  22.591  24.301  1.00  0.00     0.035 C 
ATOM     10  C   UNL A   1      32.389  21.458  23.860  1.00  0.00     0.007 C 
ENDBRANCH   7   9
BRANCH   7  11
ATOM     11  N   UNL A   1      32.224  23.145  26.406  1.00  0.00    -0.324 N 
ATOM     12  C   UNL A   1      31.413  24.226  26.309  1.00  0.00     0.320 C 
ATOM     13  H   UNL A   1      31.867  22.431  26.982  1.00  0.00     0.166 HD
ATOM     14  O   UNL A   1      30.485  24.297  27.119  1.00  0.00    -0.248 OA
ATOM     15  N   UNL A   1      31.357  25.040  25.199  1.00  0.00    -0.306 N 
ATOM     16  H   UNL A   1      30.553  24.920  24.644  1.00  0.00     0.171 HD
BRANCH  15  17
ATOM     17  C   UNL A   1      32.278  26.036  24.716  1.00  0.00     0.064 A 
ATOM     18  C   UNL A   1      32.721  26.116  23.364  1.00  0.00    -0.026 A 
ATOM     19  C   UNL A   1      32.457  27.204  25.488  1.00  0.00     0.064 A 
ATOM     20  C   UNL A   1      32.165  25.386  22.161  1.00  0.00     0.046 C 
ATOM     21  C   UNL A   1      33.648  27.111  22.992  1.00  0.00     0.005 A 
ATOM     22  C   UNL A   1      33.231  28.278  25.030  1.00  0.00     0.023 A 
ATOM     23  Cl  UNL A   1      31.568  27.459  26.955  1.00  0.00    -0.082 Cl
ATOM     24  C   UNL A   1      33.892  28.196  23.814  1.00  0.00     0.002 A 
ENDBRANCH  15  17
ENDBRANCH   7  11
ENDBRANCH   4   7
ENDBRANCH   2   3
ENDBRANCH   1   2
BRANCH   1  25
ATOM     25  C   UNL A   1      38.565  20.985  25.723  1.00  0.00     0.118 C 
BRANCH  25  26
ATOM     26  N   UNL A   1      39.566  19.950  25.564  1.00  0.00    -0.352 N 
ATOM     27  C   UNL A   1      40.871  19.913  25.986  1.00  0.00     0.251 C 
ATOM     28  H   UNL A   1      39.263  19.149  25.079  1.00  0.00     0.163 HD
ATOM     29  O   UNL A   1      41.554  18.908  25.781  1.00  0.00    -0.269 OA
BRANCH  27  30
ATOM     30  C   UNL A   1      41.497  21.096  26.610  1.00  0.00     0.039 A 
ATOM     31  C   UNL A   1      42.048  22.060  25.763  1.00  0.00     0.014 A 
ATOM     32  C   UNL A   1      41.533  21.278  27.996  1.00  0.00     0.014 A 
ATOM     33  C   UNL A   1      42.546  23.251  26.293  1.00  0.00     0.010 A 
ATOM     34  C   UNL A   1      41.976  22.496  28.519  1.00  0.00     0.010 A 
ATOM     35  C   UNL A   1      42.461  23.506  27.671  1.00  0.00    -0.014 A 
BRANCH  35  36
ATOM     36  C   UNL A   1      42.809  24.844  28.222  1.00  0.00     0.031 A 
ATOM     37  C   UNL A   1      41.756  25.895  28.426  1.00  0.00     0.074 A 
ATOM     38  C   UNL A   1      44.102  25.136  28.474  1.00  0.00     0.049 A 
ATOM     39  N   UNL A   1      41.895  27.135  28.824  1.00  0.00    -0.248 NA
ATOM     40  C   UNL A   1      40.368  25.509  28.130  1.00  0.00     0.031 C 
ATOM     41  C   UNL A   1      45.229  24.217  28.295  1.00  0.00     0.029 A 
ATOM     42  N   UNL A   1      44.689  26.292  28.929  1.00  0.00    -0.354 N 
ATOM     43  C   UNL A   1      40.618  27.682  28.809  1.00  0.00     0.074 A 
ATOM     44  C   UNL A   1      39.724  26.651  28.326  1.00  0.00     0.031 C 
ATOM     45  C   UNL A   1      46.365  24.836  28.655  1.00  0.00     0.029 A 
ATOM     46  C   UNL A   1      46.056  26.209  29.040  1.00  0.00     0.049 A 
ATOM     47  H   UNL A   1      44.179  27.103  29.152  1.00  0.00     0.167 HD
ATOM     48  C   UNL A   1      40.223  28.926  29.177  1.00  0.00     0.031 A 
ATOM     49  C   UNL A   1      46.967  27.136  29.395  1.00  0.00     0.031 A 
ATOM     50  C   UNL A   1      41.110  29.954  29.656  1.00  0.00     0.049 A 
ATOM     51  C   UNL A   1      46.507  28.521  29.754  1.00  0.00     0.074 A 
ATOM     52  C   UNL A   1      40.794  31.227  30.099  1.00  0.00     0.029 A 
ATOM     53  N   UNL A   1      42.489  29.831  29.743  1.00  0.00    -0.354 N 
ATOM     54  N   UNL A   1      45.287  29.001  29.799  1.00  0.00    -0.248 NA
ATOM     55  C   UNL A   1      47.549  29.492  30.116  1.00  0.00     0.031 C 
ATOM     56  C   UNL A   1      41.985  31.896  30.396  1.00  0.00     0.029 A 
ATOM     57  C   UNL A   1      43.039  31.018  30.201  1.00  0.00     0.049 A 
ATOM     58  H   UNL A   1      43.000  29.023  29.514  1.00  0.00     0.167 HD
ATOM     59  C   UNL A   1      45.415  30.318  30.220  1.00  0.00     0.074 A 
ATOM     60  C   UNL A   1      46.827  30.557  30.434  1.00  0.00     0.031 C 
ATOM     61  C   UNL A   1      44.446  31.246  30.411  1.00  0.00     0.031 A 
BRANCH  48  62
ATOM     62  C   UNL A   1      38.759  29.251  29.058  1.00  0.00    -0.014 A 
ATOM     63  C   UNL A   1      37.887  29.105  30.149  1.00  0.00     0.009 A 
ATOM     64  C   UNL A   1      38.251  29.755  27.850  1.00  0.00     0.009 A 
ATOM     65  C   UNL A   1      36.532  29.417  30.021  1.00  0.00     0.001 A 
ATOM     66  C   UNL A   1      36.902  30.095  27.733  1.00  0.00     0.001 A 
ATOM     67  C   UNL A   1      36.042  29.916  28.815  1.00  0.00     0.000 A 
ENDBRANCH  48  62
BRANCH  49  68
ATOM     68  C   UNL A   1      48.414  26.789  29.423  1.00  0.00    -0.014 A 
ATOM     69  C   UNL A   1      49.216  26.989  28.289  1.00  0.00     0.009 A 
ATOM     70  C   UNL A   1      48.997  26.245  30.578  1.00  0.00     0.009 A 
ATOM     71  C   UNL A   1      50.565  26.625  28.303  1.00  0.00     0.001 A 
ATOM     72  C   UNL A   1      50.354  25.912  30.599  1.00  0.00     0.001 A 
ATOM     73  C   UNL A   1      51.133  26.092  29.458  1.00  0.00     0.000 A 
ENDBRANCH  49  68
BRANCH  61  74
ATOM     74  C   UNL A   1      44.873  32.600  30.910  1.00  0.00    -0.014 A 
ATOM     75  C   UNL A   1      44.991  32.868  32.282  1.00  0.00     0.009 A 
ATOM     76  C   UNL A   1      45.212  33.603  29.989  1.00  0.00     0.009 A 
ATOM     77  C   UNL A   1      45.412  34.126  32.721  1.00  0.00     0.001 A 
ATOM     78  C   UNL A   1      45.661  34.848  30.430  1.00  0.00     0.001 A 
ATOM     79  C   UNL A   1      45.753  35.112  31.795  1.00  0.00     0.000 A 
ENDBRANCH  61  74
ENDBRANCH  35  36
ENDBRANCH  27  30
ENDBRANCH  25  26
ENDBRANCH   1  25
TORSDOF 13
ENDMDL
MODEL 2
REMARK VINA RESULT:     -11.1      0.323      6.010
REMARK SMILES CC[C@@](C)(NC(=O)Nc1c(C)cccc1Cl)C(=O)NCCCNC(=O)c1ccc(-c2c3nc(c(-c4ccccc4)c4ccc([nH]4)c(-c4ccccc4)c4nc(c(-c5ccccc5)c5ccc2[nH]5)C=C4)C=C3)cc1
REMARK SMILES IDX 21 1 20 2 19 3 17 4 18 5 3 7 4 8 2 9 1 10 5 11 6 12 7 14
REMARK SMILES IDX 8 15 9 17 10 18 15 19 11 20 12 21 14 22 16 23 13 24 22 25
REMARK SMILES IDX 23 26 24 27 25 29 26 30 27 31 73 32 28 33 72 34 29 35 30 36
REMARK SMILES IDX 31 37 66 38 32 39 71 40 65 41 67 42 33 43 70 44 64 45 63 46
REMARK SMILES IDX 34 48 56 49 41 50 55 51 42 52 45 53 54 54 68 55 43 56 44 57
REMARK SMILES IDX 53 59 69 60 46 61 35 62 36 63 40 64 37 65 39 66 38 67 57 68
REMARK SMILES IDX 58 69 62 70 59 71 61 72 60 73 47 74 48 75 52 76 49 77 51 78
REMARK SMILES IDX 50 79
REMARK H PARENT 19 6 5 13 8 16 23 28 67 47 45 58
REMARK Flexibility Score: inf
ROOT
ATOM      1  C   UNL A   1      37.707  20.642  24.666  1.00  0.00     0.042 C 
ENDROOT
BRANCH   1   2
ATOM      2  C   UNL A   1      36.208  20.711  25.035  1.00  0.00     0.117 C 
BRANCH   2   3
ATOM      3  N   UNL A   1      35.901  21.572  26.167  1.00  0.00    -0.354 N 
ATOM      4  C   UNL A   1      34.668  21.973  26.672  1.00  0.00     0.245 C 
ATOM      5  O   UNL A   1      34.248  21.548  27.746  1.00  0.00    -0.272 OA
ATOM      6  H   UNL A   1      36.683  21.925  26.648  1.00  0.00     0.163 HD
BRANCH   4   7
ATOM      7  C   UNL A   1      33.838  22.916  25.765  1.00  0.00     0.117 C 
ATOM      8  C   UNL A   1      34.771  24.167  25.748  1.00  0.00     0.045 C 
BRANCH   7   9
ATOM      9  C   UNL A   1      33.512  22.605  24.278  1.00  0.00     0.035 C 
ATOM     10  C   UNL A   1      32.628  21.431  23.933  1.00  0.00     0.007 C 
ENDBRANCH   7   9
BRANCH   7  11
ATOM     11  N   UNL A   1      32.543  23.191  26.418  1.00  0.00    -0.324 N 
ATOM     12  C   UNL A   1      31.696  24.247  26.359  1.00  0.00     0.320 C 
ATOM     13  H   UNL A   1      32.236  22.468  27.012  1.00  0.00     0.166 HD
ATOM     14  O   UNL A   1      30.807  24.291  27.214  1.00  0.00    -0.248 OA
ATOM     15  N   UNL A   1      31.562  25.057  25.254  1.00  0.00    -0.306 N 
ATOM     16  H   UNL A   1      30.736  24.911  24.738  1.00  0.00     0.171 HD
BRANCH  15  17
ATOM     17  C   UNL A   1      32.429  26.079  24.726  1.00  0.00     0.064 A 
ATOM     18  C   UNL A   1      32.838  26.145  23.363  1.00  0.00    -0.026 A 
ATOM     19  C   UNL A   1      32.573  27.273  25.465  1.00  0.00     0.064 A 
ATOM     20  C   UNL A   1      32.289  25.362  22.190  1.00  0.00     0.046 C 
ATOM     21  C   UNL A   1      33.713  27.169  22.947  1.00  0.00     0.005 A 
ATOM     22  C   UNL A   1      33.289  28.368  24.965  1.00  0.00     0.023 A 
ATOM     23  Cl  UNL A   1      31.705  27.525  26.946  1.00  0.00    -0.082 Cl
ATOM     24  C   UNL A   1      33.927  28.284  23.737  1.00  0.00     0.002 A 
ENDBRANCH  15  17
ENDBRANCH   7  11
ENDBRANCH   4   7
ENDBRANCH   2   3
ENDBRANCH   1   2
BRANCH   1  25
ATOM     25  C   UNL A   1      38.768  20.675  25.771  1.00  0.00     0.118 C 
BRANCH  25  26
ATOM     26  N   UNL A   1      39.811  19.676  25.664  1.00  0.00    -0.352 N 
ATOM     27  C   UNL A   1      41.117  19.716  26.081  1.00  0.00     0.251 C 
ATOM     28  H   UNL A   1      39.540  18.837  25.225  1.00  0.00     0.163 HD
ATOM     29  O   UNL A   1      41.842  18.732  25.928  1.00  0.00    -0.269 OA
BRANCH  27  30
ATOM     30  C   UNL A   1      41.694  20.957  26.637  1.00  0.00     0.039 A 
ATOM     31  C   UNL A   1      42.242  21.876  25.738  1.00  0.00     0.014 A 
ATOM     32  C   UNL A   1      41.687  21.236  28.006  1.00  0.00     0.014 A 
ATOM     33  C   UNL A   1      42.694  23.114  26.196  1.00  0.00     0.010 A 
ATOM     34  C   UNL A   1      42.083  22.499  28.454  1.00  0.00     0.010 A 
ATOM     35  C   UNL A   1      42.564  23.461  27.550  1.00  0.00    -0.014 A 
BRANCH  35  36
ATOM     36  C   UNL A   1      42.862  24.844  28.014  1.00  0.00     0.031 A 
ATOM     37  C   UNL A   1      44.257  25.246  28.401  1.00  0.00     0.074 A 
ATOM     38  C   UNL A   1      41.850  25.724  28.154  1.00  0.00     0.049 A 
ATOM     39  N   UNL A   1      44.680  26.383  28.896  1.00  0.00    -0.248 NA
ATOM     40  C   UNL A   1      45.311  24.236  28.224  1.00  0.00     0.031 C 
ATOM     41  C   UNL A   1      40.444  25.456  27.840  1.00  0.00     0.029 A 
ATOM     42  N   UNL A   1      41.845  27.022  28.604  1.00  0.00    -0.354 N 
ATOM     43  C   UNL A   1      46.043  26.220  29.107  1.00  0.00     0.074 A 
ATOM     44  C   UNL A   1      46.369  24.862  28.722  1.00  0.00     0.031 C 
ATOM     45  C   UNL A   1      39.719  26.559  28.087  1.00  0.00     0.029 A 
ATOM     46  C   UNL A   1      40.596  27.595  28.624  1.00  0.00     0.049 A 
ATOM     47  H   UNL A   1      42.659  27.497  28.887  1.00  0.00     0.167 HD
ATOM     48  C   UNL A   1      46.945  27.122  29.565  1.00  0.00     0.031 A 
ATOM     49  C   UNL A   1      40.192  28.809  29.042  1.00  0.00     0.031 A 
ATOM     50  C   UNL A   1      46.624  28.472  29.950  1.00  0.00     0.049 A 
ATOM     51  C   UNL A   1      41.205  29.775  29.590  1.00  0.00     0.074 A 
ATOM     52  C   UNL A   1      47.479  29.473  30.379  1.00  0.00     0.029 A 
ATOM     53  N   UNL A   1      45.344  29.007  29.964  1.00  0.00    -0.354 N 
ATOM     54  N   UNL A   1      42.501  29.626  29.718  1.00  0.00    -0.248 NA
ATOM     55  C   UNL A   1      40.700  31.078  30.046  1.00  0.00     0.031 C 
ATOM     56  C   UNL A   1      46.711  30.593  30.711  1.00  0.00     0.029 A 
ATOM     57  C   UNL A   1      45.385  30.313  30.426  1.00  0.00     0.049 A 
ATOM     58  H   UNL A   1      44.530  28.530  29.687  1.00  0.00     0.167 HD
ATOM     59  C   UNL A   1      42.969  30.825  30.243  1.00  0.00     0.074 A 
ATOM     60  C   UNL A   1      41.820  31.695  30.393  1.00  0.00     0.031 C 
ATOM     61  C   UNL A   1      44.237  31.171  30.572  1.00  0.00     0.031 A 
BRANCH  48  62
ATOM     62  C   UNL A   1      48.374  26.669  29.694  1.00  0.00    -0.014 A 
ATOM     63  C   UNL A   1      49.308  26.899  28.670  1.00  0.00     0.009 A 
ATOM     64  C   UNL A   1      48.805  26.043  30.874  1.00  0.00     0.009 A 
ATOM     65  C   UNL A   1      50.632  26.475  28.810  1.00  0.00     0.001 A 
ATOM     66  C   UNL A   1      50.136  25.649  31.024  1.00  0.00     0.001 A 
ATOM     67  C   UNL A   1      51.045  25.855  29.988  1.00  0.00     0.000 A 
ENDBRANCH  48  62
BRANCH  49  68
ATOM     68  C   UNL A   1      38.754  29.185  28.968  1.00  0.00    -0.014 A 
ATOM     69  C   UNL A   1      37.916  29.021  30.082  1.00  0.00     0.009 A 
ATOM     70  C   UNL A   1      38.208  29.696  27.781  1.00  0.00     0.009 A 
ATOM     71  C   UNL A   1      36.557  29.335  30.000  1.00  0.00     0.001 A 
ATOM     72  C   UNL A   1      36.855  30.039  27.710  1.00  0.00     0.001 A 
ATOM     73  C   UNL A   1      36.029  29.848  28.816  1.00  0.00     0.000 A 
ENDBRANCH  49  68
BRANCH  61  74
ATOM     74  C   UNL A   1      44.460  32.564  31.094  1.00  0.00    -0.014 A 
ATOM     75  C   UNL A   1      44.438  32.840  32.470  1.00  0.00     0.009 A 
ATOM     76  C   UNL A   1      44.747  33.604  30.196  1.00  0.00     0.009 A 
ATOM     77  C   UNL A   1      44.672  34.137  32.933  1.00  0.00     0.001 A 
ATOM     78  C   UNL A   1      45.010  34.892  30.663  1.00  0.00     0.001 A 
ATOM     79  C   UNL A   1      44.964  35.160  32.030  1.00  0.00     0.000 A 
ENDBRANCH  61  74
ENDBRANCH  35  36
ENDBRANCH  27  30
ENDBRANCH  25  26
ENDBRANCH   1  25
TORSDOF 13
ENDMDL
MODEL 3
REMARK VINA RESULT:     -11.0      3.675      8.535
REMARK SMILES CC[C@@](C)(NC(=O)Nc1c(C)cccc1Cl)C(=O)NCCCNC(=O)c1ccc(-c2c3nc(c(-c4ccccc4)c4ccc([nH]4)c(-c4ccccc4)c4nc(c(-c5ccccc5)c5ccc2[nH]5)C=C4)C=C3)cc1
REMARK SMILES IDX 21 1 20 2 19 3 17 4 18 5 3 7 4 8 2 9 1 10 5 11 6 12 7 14
REMARK SMILES IDX 8 15 9 17 10 18 15 19 11 20 12 21 14 22 16 23 13 24 22 25
REMARK SMILES IDX 23 26 24 27 25 29 26 30 27 31 73 32 28 33 72 34 29 35 30 36
REMARK SMILES IDX 31 37 66 38 32 39 71 40 65 41 67 42 33 43 70 44 64 45 63 46
REMARK SMILES IDX 34 48 56 49 41 50 55 51 42 52 45 53 54 54 68 55 43 56 44 57
REMARK SMILES IDX 53 59 69 60 46 61 35 62 36 63 40 64 37 65 39 66 38 67 57 68
REMARK SMILES IDX 58 69 62 70 59 71 61 72 60 73 47 74 48 75 52 76 49 77 51 78
REMARK SMILES IDX 50 79
REMARK H PARENT 19 6 5 13 8 16 23 28 67 47 45 58
REMARK Flexibility Score: inf
ROOT
ATOM      1  C   UNL A   1      31.646  30.792  26.275  1.00  0.00     0.042 C 
ENDROOT
BRANCH   1   2
ATOM      2  C   UNL A   1      31.998  29.480  25.537  1.00  0.00     0.117 C 
BRANCH   2   3
ATOM      3  N   UNL A   1      31.923  29.561  24.087  1.00  0.00    -0.354 N 
ATOM      4  C   UNL A   1      31.915  28.544  23.137  1.00  0.00     0.245 C 
ATOM      5  O   UNL A   1      30.901  28.271  22.499  1.00  0.00    -0.272 OA
ATOM      6  H   UNL A   1      31.869  30.473  23.721  1.00  0.00     0.163 HD
BRANCH   4   7
ATOM      7  C   UNL A   1      33.232  27.739  22.996  1.00  0.00     0.117 C 
ATOM      8  C   UNL A   1      34.265  28.909  22.989  1.00  0.00     0.045 C 
BRANCH   7   9
ATOM      9  C   UNL A   1      33.736  26.729  24.062  1.00  0.00     0.035 C 
ATOM     10  C   UNL A   1      33.498  27.004  25.528  1.00  0.00     0.007 C 
ENDBRANCH   7   9
BRANCH   7  11
ATOM     11  N   UNL A   1      33.208  27.005  21.715  1.00  0.00    -0.324 N 
ATOM     12  C   UNL A   1      32.715  25.792  21.367  1.00  0.00     0.320 C 
ATOM     13  H   UNL A   1      33.633  27.490  20.971  1.00  0.00     0.166 HD
ATOM     14  O   UNL A   1      33.066  25.346  20.271  1.00  0.00    -0.248 OA
ATOM     15  N   UNL A   1      31.629  25.205  21.978  1.00  0.00    -0.306 N 
ATOM     16  H   UNL A   1      30.802  25.220  21.444  1.00  0.00     0.171 HD
BRANCH  15  17
ATOM     17  C   UNL A   1      31.502  24.576  23.267  1.00  0.00     0.064 A 
ATOM     18  C   UNL A   1      30.584  25.001  24.269  1.00  0.00    -0.026 A 
ATOM     19  C   UNL A   1      32.010  23.267  23.419  1.00  0.00     0.064 A 
ATOM     20  C   UNL A   1      29.435  25.976  24.122  1.00  0.00     0.046 C 
ATOM     21  C   UNL A   1      30.553  24.338  25.513  1.00  0.00     0.005 A 
ATOM     22  C   UNL A   1      31.814  22.533  24.595  1.00  0.00     0.023 A 
ATOM     23  Cl  UNL A   1      32.732  22.421  22.088  1.00  0.00    -0.082 Cl
ATOM     24  C   UNL A   1      31.152  23.101  25.673  1.00  0.00     0.002 A 
ENDBRANCH  15  17
ENDBRANCH   7  11
ENDBRANCH   4   7
ENDBRANCH   2   3
ENDBRANCH   1   2
BRANCH   1  25
ATOM     25  C   UNL A   1      32.755  31.624  26.923  1.00  0.00     0.118 C 
BRANCH  25  26
ATOM     26  N   UNL A   1      32.352  32.925  27.415  1.00  0.00    -0.352 N 
ATOM     27  C   UNL A   1      33.049  33.841  28.162  1.00  0.00     0.251 C 
ATOM     28  H   UNL A   1      31.435  33.195  27.176  1.00  0.00     0.163 HD
ATOM     29  O   UNL A   1      32.531  34.922  28.448  1.00  0.00    -0.269 OA
BRANCH  27  30
ATOM     30  C   UNL A   1      34.385  33.516  28.701  1.00  0.00     0.039 A 
ATOM     31  C   UNL A   1      34.445  32.893  29.950  1.00  0.00     0.014 A 
ATOM     32  C   UNL A   1      35.562  33.792  27.999  1.00  0.00     0.014 A 
ATOM     33  C   UNL A   1      35.672  32.458  30.453  1.00  0.00     0.010 A 
ATOM     34  C   UNL A   1      36.780  33.302  28.475  1.00  0.00     0.010 A 
ATOM     35  C   UNL A   1      36.844  32.605  29.694  1.00  0.00    -0.014 A 
BRANCH  35  36
ATOM     36  C   UNL A   1      38.119  31.976  30.132  1.00  0.00     0.031 A 
ATOM     37  C   UNL A   1      39.057  32.693  31.060  1.00  0.00     0.074 A 
ATOM     38  C   UNL A   1      38.466  30.772  29.630  1.00  0.00     0.049 A 
ATOM     39  N   UNL A   1      40.241  32.325  31.483  1.00  0.00    -0.248 NA
ATOM     40  C   UNL A   1      38.616  34.001  31.568  1.00  0.00     0.031 C 
ATOM     41  C   UNL A   1      37.661  29.978  28.699  1.00  0.00     0.029 A 
ATOM     42  N   UNL A   1      39.592  30.008  29.826  1.00  0.00    -0.354 N 
ATOM     43  C   UNL A   1      40.694  33.361  32.290  1.00  0.00     0.074 A 
ATOM     44  C   UNL A   1      39.674  34.388  32.267  1.00  0.00     0.031 C 
ATOM     45  C   UNL A   1      38.307  28.834  28.422  1.00  0.00     0.029 A 
ATOM     46  C   UNL A   1      39.592  28.834  29.113  1.00  0.00     0.049 A 
ATOM     47  H   UNL A   1      40.329  30.278  30.421  1.00  0.00     0.167 HD
ATOM     48  C   UNL A   1      41.847  33.444  32.998  1.00  0.00     0.031 A 
ATOM     49  C   UNL A   1      40.526  27.870  29.009  1.00  0.00     0.031 A 
ATOM     50  C   UNL A   1      42.864  32.425  33.021  1.00  0.00     0.049 A 
ATOM     51  C   UNL A   1      41.816  28.008  29.768  1.00  0.00     0.074 A 
ATOM     52  C   UNL A   1      44.042  32.399  33.748  1.00  0.00     0.029 A 
ATOM     53  N   UNL A   1      42.829  31.256  32.276  1.00  0.00    -0.354 N 
ATOM     54  N   UNL A   1      42.199  28.964  30.580  1.00  0.00    -0.248 NA
ATOM     55  C   UNL A   1      42.803  26.931  29.599  1.00  0.00     0.031 C 
ATOM     56  C   UNL A   1      44.749  31.245  33.397  1.00  0.00     0.029 A 
ATOM     57  C   UNL A   1      43.981  30.519  32.501  1.00  0.00     0.049 A 
ATOM     58  H   UNL A   1      42.095  30.989  31.677  1.00  0.00     0.167 HD
ATOM     59  C   UNL A   1      43.455  28.590  31.039  1.00  0.00     0.074 A 
ATOM     60  C   UNL A   1      43.764  27.313  30.429  1.00  0.00     0.031 C 
ATOM     61  C   UNL A   1      44.279  29.249  31.890  1.00  0.00     0.031 A 
BRANCH  48  62
ATOM     62  C   UNL A   1      42.081  34.697  33.797  1.00  0.00    -0.014 A 
ATOM     63  C   UNL A   1      42.715  35.816  33.232  1.00  0.00     0.009 A 
ATOM     64  C   UNL A   1      41.621  34.777  35.121  1.00  0.00     0.009 A 
ATOM     65  C   UNL A   1      42.919  36.972  33.989  1.00  0.00     0.001 A 
ATOM     66  C   UNL A   1      41.798  35.945  35.865  1.00  0.00     0.001 A 
ATOM     67  C   UNL A   1      42.457  37.037  35.302  1.00  0.00     0.000 A 
ENDBRANCH  48  62
BRANCH  49  68
ATOM     68  C   UNL A   1      40.283  26.684  28.144  1.00  0.00    -0.014 A 
ATOM     69  C   UNL A   1      40.780  26.645  26.832  1.00  0.00     0.009 A 
ATOM     70  C   UNL A   1      39.541  25.591  28.619  1.00  0.00     0.009 A 
ATOM     71  C   UNL A   1      40.516  25.549  26.006  1.00  0.00     0.001 A 
ATOM     72  C   UNL A   1      39.305  24.483  27.801  1.00  0.00     0.001 A 
ATOM     73  C   UNL A   1      39.784  24.468  26.493  1.00  0.00     0.000 A 
ENDBRANCH  49  68
BRANCH  61  74
ATOM     74  C   UNL A   1      45.582  28.585  32.243  1.00  0.00    -0.014 A 
ATOM     75  C   UNL A   1      46.753  28.842  31.515  1.00  0.00     0.009 A 
ATOM     76  C   UNL A   1      45.646  27.730  33.354  1.00  0.00     0.009 A 
ATOM     77  C   UNL A   1      47.957  28.232  31.876  1.00  0.00     0.001 A 
ATOM     78  C   UNL A   1      46.855  27.146  33.731  1.00  0.00     0.001 A 
ATOM     79  C   UNL A   1      48.008  27.391  32.987  1.00  0.00     0.000 A 
ENDBRANCH  61  74
ENDBRANCH  35  36
ENDBRANCH  27  30
ENDBRANCH  25  26
ENDBRANCH   1  25
TORSDOF 13
ENDMDL
