MODEL 1
REMARK VINA RESULT:     -12.9      0.000      0.000
REMARK SMILES Cc1ccc([C@@H](C)Nc2ccc(N)cc2C(=O)NCCCNC(=O)c2ccc(-c3c4nc(c(-c5ccccc5)c5ccc([nH]5)c(-c5ccccc5)c5nc(c(-c6ccccc6)c6ccc3[nH]6)C=C5)C=C4)cc2)cc1F
REMARK SMILES IDX 19 1 18 2 16 3 17 4 15 6 9 7 10 8 11 9 14 10 12 11 8 12 6 14
REMARK SMILES IDX 7 15 5 16 1 17 2 18 3 19 74 20 4 21 73 22 75 23 13 24 20 27
REMARK SMILES IDX 21 28 22 29 23 30 24 32 25 33 26 34 72 35 27 36 71 37 28 38
REMARK SMILES IDX 29 39 30 40 65 41 31 42 70 43 64 44 66 45 32 46 69 47 63 48
REMARK SMILES IDX 62 49 33 51 55 52 40 53 54 54 41 55 44 56 53 57 67 58 42 59
REMARK SMILES IDX 43 60 52 62 68 63 45 64 34 65 35 66 39 67 36 68 38 69 37 70
REMARK SMILES IDX 56 71 57 72 61 73 58 74 60 75 59 76 46 77 47 78 51 79 48 80
REMARK SMILES IDX 50 81 49 82
REMARK H PARENT 18 5 8 13 13 25 13 26 22 31 66 50 44 61
REMARK Flexibility Score: inf
ROOT
ATOM      1  C   UNL A   1      33.108  28.881  27.118  1.00  0.00     0.118 C 
ENDROOT
BRANCH   1   2
ATOM      2  N   UNL A   1      33.689  27.896  26.218  1.00  0.00    -0.352 N 
ATOM      3  C   UNL A   1      33.296  27.525  24.956  1.00  0.00     0.253 C 
ATOM      4  O   UNL A   1      34.053  26.860  24.252  1.00  0.00    -0.269 OA
ATOM      5  H   UNL A   1      34.481  27.426  26.567  1.00  0.00     0.163 HD
BRANCH   3   6
ATOM      6  C   UNL A   1      31.900  27.755  24.540  1.00  0.00     0.065 A 
ATOM      7  C   UNL A   1      30.843  26.853  24.717  1.00  0.00     0.048 A 
ATOM      8  C   UNL A   1      29.818  26.954  23.755  1.00  0.00     0.028 A 
ATOM      9  C   UNL A   1      29.786  27.971  22.783  1.00  0.00     0.027 A 
ATOM     10  C   UNL A   1      31.802  28.854  23.657  1.00  0.00     0.041 A 
ATOM     11  C   UNL A   1      30.726  28.991  22.794  1.00  0.00     0.032 A 
BRANCH   7  12
ATOM     12  N   UNL A   1      30.702  25.881  25.693  1.00  0.00    -0.378 N 
ATOM     13  H   UNL A   1      30.539  26.244  26.593  1.00  0.00     0.161 HD
BRANCH  12  14
ATOM     14  C   UNL A   1      30.746  24.413  25.648  1.00  0.00     0.106 C 
ATOM     15  C   UNL A   1      30.025  23.713  26.784  1.00  0.00     0.036 C 
BRANCH  14  16
ATOM     16  C   UNL A   1      32.129  23.942  25.238  1.00  0.00    -0.023 A 
ATOM     17  C   UNL A   1      36.694  22.984  23.153  1.00  0.00     0.047 C 
ATOM     18  C   UNL A   1      35.367  23.141  23.813  1.00  0.00    -0.015 A 
ATOM     19  C   UNL A   1      33.884  23.017  22.817  1.00  0.00     0.007 A 
ATOM     20  C   UNL A   1      35.229  23.632  25.552  1.00  0.00     0.126 A 
ATOM     21  C   UNL A   1      32.271  23.446  23.507  1.00  0.00     0.006 A 
ATOM     22  C   UNL A   1      33.619  24.015  26.276  1.00  0.00     0.045 A 
ATOM     23  F   UNL A   1      36.336  23.751  26.294  1.00  0.00    -0.207 F 
ENDBRANCH  14  16
ENDBRANCH  12  14
ENDBRANCH   7  12
BRANCH  11  24
ATOM     24  N   UNL A   1      30.717  29.997  21.843  1.00  0.00    -0.399 N 
ATOM     25  H   UNL A   1      29.937  30.109  21.253  1.00  0.00     0.156 HD
ATOM     26  H   UNL A   1      31.490  30.601  21.758  1.00  0.00     0.156 HD
ENDBRANCH  11  24
ENDBRANCH   3   6
ENDBRANCH   1   2
BRANCH   1  27
ATOM     27  C   UNL A   1      33.329  30.602  26.941  1.00  0.00     0.042 C 
BRANCH  27  28
ATOM     28  C   UNL A   1      32.110  32.413  26.888  1.00  0.00     0.118 C 
BRANCH  28  29
ATOM     29  N   UNL A   1      32.134  33.814  27.642  1.00  0.00    -0.352 N 
ATOM     30  C   UNL A   1      33.164  34.445  28.317  1.00  0.00     0.251 C 
ATOM     31  H   UNL A   1      31.283  34.310  27.625  1.00  0.00     0.163 HD
ATOM     32  O   UNL A   1      33.048  35.613  28.677  1.00  0.00    -0.269 OA
BRANCH  30  33
ATOM     33  C   UNL A   1      34.388  33.693  28.684  1.00  0.00     0.039 A 
ATOM     34  C   UNL A   1      35.548  33.891  27.931  1.00  0.00     0.014 A 
ATOM     35  C   UNL A   1      34.421  32.854  29.797  1.00  0.00     0.014 A 
ATOM     36  C   UNL A   1      36.764  33.341  28.359  1.00  0.00     0.010 A 
ATOM     37  C   UNL A   1      35.650  32.410  30.283  1.00  0.00     0.010 A 
ATOM     38  C   UNL A   1      36.843  32.643  29.574  1.00  0.00    -0.014 A 
BRANCH  38  39
ATOM     39  C   UNL A   1      38.137  32.128  30.122  1.00  0.00     0.031 A 
ATOM     40  C   UNL A   1      38.660  30.792  29.646  1.00  0.00     0.074 A 
ATOM     41  C   UNL A   1      38.802  32.784  31.099  1.00  0.00     0.049 A 
ATOM     42  N   UNL A   1      39.694  30.106  30.067  1.00  0.00    -0.248 NA
ATOM     43  C   UNL A   1      37.901  30.127  28.573  1.00  0.00     0.031 C 
ATOM     44  C   UNL A   1      38.425  34.072  31.685  1.00  0.00     0.029 A 
ATOM     45  N   UNL A   1      39.935  32.434  31.800  1.00  0.00    -0.354 N 
ATOM     46  C   UNL A   1      39.696  28.936  29.318  1.00  0.00     0.074 A 
ATOM     47  C   UNL A   1      38.509  28.955  28.497  1.00  0.00     0.031 C 
ATOM     48  C   UNL A   1      39.284  34.387  32.668  1.00  0.00     0.029 A 
ATOM     49  C   UNL A   1      40.281  33.330  32.787  1.00  0.00     0.049 A 
ATOM     50  H   UNL A   1      40.452  31.617  31.612  1.00  0.00     0.167 HD
ATOM     51  C   UNL A   1      40.628  27.954  29.266  1.00  0.00     0.031 A 
ATOM     52  C   UNL A   1      41.286  33.311  33.685  1.00  0.00     0.031 A 
ATOM     53  C   UNL A   1      41.827  27.936  30.056  1.00  0.00     0.049 A 
ATOM     54  C   UNL A   1      42.293  32.191  33.640  1.00  0.00     0.074 A 
ATOM     55  C   UNL A   1      42.865  27.022  30.027  1.00  0.00     0.029 A 
ATOM     56  N   UNL A   1      42.149  28.882  31.015  1.00  0.00    -0.354 N 
ATOM     57  N   UNL A   1      42.329  31.145  32.852  1.00  0.00    -0.248 NA
ATOM     58  C   UNL A   1      43.421  32.275  34.579  1.00  0.00     0.031 C 
ATOM     59  C   UNL A   1      43.792  27.386  31.009  1.00  0.00     0.029 A 
ATOM     60  C   UNL A   1      43.361  28.562  31.601  1.00  0.00     0.049 A 
ATOM     61  H   UNL A   1      41.598  29.665  31.246  1.00  0.00     0.167 HD
ATOM     62  C   UNL A   1      43.506  30.476  33.165  1.00  0.00     0.074 A 
ATOM     63  C   UNL A   1      44.158  31.239  34.207  1.00  0.00     0.031 C 
ATOM     64  C   UNL A   1      44.005  29.336  32.629  1.00  0.00     0.031 A 
BRANCH  51  65
ATOM     65  C   UNL A   1      40.390  26.833  28.290  1.00  0.00    -0.014 A 
ATOM     66  C   UNL A   1      39.621  25.713  28.651  1.00  0.00     0.009 A 
ATOM     67  C   UNL A   1      40.922  26.900  26.994  1.00  0.00     0.009 A 
ATOM     68  C   UNL A   1      39.435  24.660  27.753  1.00  0.00     0.001 A 
ATOM     69  C   UNL A   1      40.703  25.861  26.085  1.00  0.00     0.001 A 
ATOM     70  C   UNL A   1      39.972  24.738  26.470  1.00  0.00     0.000 A 
ENDBRANCH  51  65
BRANCH  52  71
ATOM     71  C   UNL A   1      41.434  34.410  34.681  1.00  0.00    -0.014 A 
ATOM     72  C   UNL A   1      42.187  35.555  34.377  1.00  0.00     0.009 A 
ATOM     73  C   UNL A   1      40.858  34.302  35.957  1.00  0.00     0.009 A 
ATOM     74  C   UNL A   1      42.397  36.546  35.340  1.00  0.00     0.001 A 
ATOM     75  C   UNL A   1      41.044  35.309  36.908  1.00  0.00     0.001 A 
ATOM     76  C   UNL A   1      41.824  36.423  36.605  1.00  0.00     0.000 A 
ENDBRANCH  52  71
BRANCH  64  77
ATOM     77  C   UNL A   1      45.346  28.867  33.120  1.00  0.00    -0.014 A 
ATOM     78  C   UNL A   1      46.542  29.338  32.556  1.00  0.00     0.009 A 
ATOM     79  C   UNL A   1      45.411  27.979  34.207  1.00  0.00     0.009 A 
ATOM     80  C   UNL A   1      47.773  28.903  33.049  1.00  0.00     0.001 A 
ATOM     81  C   UNL A   1      46.643  27.574  34.720  1.00  0.00     0.001 A 
ATOM     82  C   UNL A   1      47.824  28.029  34.135  1.00  0.00     0.000 A 
ENDBRANCH  64  77
ENDBRANCH  38  39
ENDBRANCH  30  33
ENDBRANCH  28  29
ENDBRANCH  27  28
ENDBRANCH   1  27
TORSDOF 14
ENDMDL
MODEL 2
REMARK VINA RESULT:     -12.4      1.226      5.957
REMARK SMILES Cc1ccc([C@@H](C)Nc2ccc(N)cc2C(=O)NCCCNC(=O)c2ccc(-c3c4nc(c(-c5ccccc5)c5ccc([nH]5)c(-c5ccccc5)c5nc(c(-c6ccccc6)c6ccc3[nH]6)C=C5)C=C4)cc2)cc1F
REMARK SMILES IDX 19 1 18 2 16 3 17 4 15 6 9 7 10 8 11 9 14 10 12 11 8 12 6 14
REMARK SMILES IDX 7 15 5 16 1 17 2 18 3 19 74 20 4 21 73 22 75 23 13 24 20 27
REMARK SMILES IDX 21 28 22 29 23 30 24 32 25 33 26 34 72 35 27 36 71 37 28 38
REMARK SMILES IDX 29 39 30 40 65 41 31 42 70 43 64 44 66 45 32 46 69 47 63 48
REMARK SMILES IDX 62 49 33 51 55 52 40 53 54 54 41 55 44 56 53 57 67 58 42 59
REMARK SMILES IDX 43 60 52 62 68 63 45 64 34 65 35 66 39 67 36 68 38 69 37 70
REMARK SMILES IDX 56 71 57 72 61 73 58 74 60 75 59 76 46 77 47 78 51 79 48 80
REMARK SMILES IDX 50 81 49 82
REMARK H PARENT 18 5 8 13 13 25 13 26 22 31 66 50 44 61
REMARK Flexibility Score: inf
ROOT
ATOM      1  C   UNL A   1      32.970  29.084  27.352  1.00  0.00     0.118 C 
ENDROOT
BRANCH   1   2
ATOM      2  N   UNL A   1      33.634  28.243  26.367  1.00  0.00    -0.352 N 
ATOM      3  C   UNL A   1      33.255  27.934  25.085  1.00  0.00     0.253 C 
ATOM      4  O   UNL A   1      34.064  27.414  24.318  1.00  0.00    -0.269 OA
ATOM      5  H   UNL A   1      34.479  27.836  26.665  1.00  0.00     0.163 HD
BRANCH   3   6
ATOM      6  C   UNL A   1      31.833  28.042  24.707  1.00  0.00     0.065 A 
ATOM      7  C   UNL A   1      30.874  27.034  24.864  1.00  0.00     0.048 A 
ATOM      8  C   UNL A   1      29.821  27.075  23.929  1.00  0.00     0.028 A 
ATOM      9  C   UNL A   1      29.666  28.124  23.005  1.00  0.00     0.027 A 
ATOM     10  C   UNL A   1      31.607  29.163  23.878  1.00  0.00     0.041 A 
ATOM     11  C   UNL A   1      30.502  29.231  23.043  1.00  0.00     0.032 A 
BRANCH   7  12
ATOM     12  N   UNL A   1      30.853  26.011  25.798  1.00  0.00    -0.378 N 
ATOM     13  H   UNL A   1      30.850  26.326  26.730  1.00  0.00     0.161 HD
BRANCH  12  14
ATOM     14  C   UNL A   1      30.832  24.548  25.669  1.00  0.00     0.106 C 
ATOM     15  C   UNL A   1      30.069  23.817  26.757  1.00  0.00     0.036 C 
BRANCH  14  16
ATOM     16  C   UNL A   1      32.198  24.039  25.244  1.00  0.00    -0.023 A 
ATOM     17  C   UNL A   1      36.712  22.958  23.109  1.00  0.00     0.047 C 
ATOM     18  C   UNL A   1      35.397  23.150  23.784  1.00  0.00    -0.015 A 
ATOM     19  C   UNL A   1      33.900  23.067  22.804  1.00  0.00     0.007 A 
ATOM     20  C   UNL A   1      35.291  23.646  25.524  1.00  0.00     0.126 A 
ATOM     21  C   UNL A   1      32.307  23.539  23.512  1.00  0.00     0.006 A 
ATOM     22  C   UNL A   1      33.700  24.072  26.266  1.00  0.00     0.045 A 
ATOM     23  F   UNL A   1      36.409  23.734  26.254  1.00  0.00    -0.207 F 
ENDBRANCH  14  16
ENDBRANCH  12  14
ENDBRANCH   7  12
BRANCH  11  24
ATOM     24  N   UNL A   1      30.371  30.272  22.139  1.00  0.00    -0.399 N 
ATOM     25  H   UNL A   1      29.482  30.515  21.794  1.00  0.00     0.156 HD
ATOM     26  H   UNL A   1      31.168  30.769  21.843  1.00  0.00     0.156 HD
ENDBRANCH  11  24
ENDBRANCH   3   6
ENDBRANCH   1   2
BRANCH   1  27
ATOM     27  C   UNL A   1      33.349  30.769  27.598  1.00  0.00     0.042 C 
BRANCH  27  28
ATOM     28  C   UNL A   1      32.681  32.720  26.878  1.00  0.00     0.118 C 
BRANCH  28  29
ATOM     29  N   UNL A   1      32.267  34.095  27.562  1.00  0.00    -0.352 N 
ATOM     30  C   UNL A   1      32.950  34.877  28.477  1.00  0.00     0.251 C 
ATOM     31  H   UNL A   1      31.387  34.446  27.291  1.00  0.00     0.163 HD
ATOM     32  O   UNL A   1      32.552  36.006  28.750  1.00  0.00    -0.269 OA
BRANCH  30  33
ATOM     33  C   UNL A   1      34.126  34.330  29.196  1.00  0.00     0.039 A 
ATOM     34  C   UNL A   1      33.913  33.558  30.341  1.00  0.00     0.014 A 
ATOM     35  C   UNL A   1      35.422  34.511  28.715  1.00  0.00     0.014 A 
ATOM     36  C   UNL A   1      34.983  32.877  30.936  1.00  0.00     0.010 A 
ATOM     37  C   UNL A   1      36.459  33.738  29.236  1.00  0.00     0.010 A 
ATOM     38  C   UNL A   1      36.260  32.909  30.355  1.00  0.00    -0.014 A 
BRANCH  38  39
ATOM     39  C   UNL A   1      37.408  32.115  30.895  1.00  0.00     0.031 A 
ATOM     40  C   UNL A   1      37.976  32.466  32.251  1.00  0.00     0.074 A 
ATOM     41  C   UNL A   1      38.009  31.152  30.161  1.00  0.00     0.049 A 
ATOM     42  N   UNL A   1      39.033  31.989  32.859  1.00  0.00    -0.248 NA
ATOM     43  C   UNL A   1      37.275  33.516  33.011  1.00  0.00     0.031 C 
ATOM     44  C   UNL A   1      37.601  30.702  28.828  1.00  0.00     0.029 A 
ATOM     45  N   UNL A   1      39.125  30.389  30.428  1.00  0.00    -0.354 N 
ATOM     46  C   UNL A   1      39.123  32.686  34.058  1.00  0.00     0.074 A 
ATOM     47  C   UNL A   1      38.082  33.687  34.045  1.00  0.00     0.031 C 
ATOM     48  C   UNL A   1      38.464  29.774  28.383  1.00  0.00     0.029 A 
ATOM     49  C   UNL A   1      39.489  29.551  29.397  1.00  0.00     0.049 A 
ATOM     50  H   UNL A   1      39.618  30.437  31.279  1.00  0.00     0.167 HD
ATOM     51  C   UNL A   1      39.953  32.481  35.108  1.00  0.00     0.031 A 
ATOM     52  C   UNL A   1      40.523  28.696  29.276  1.00  0.00     0.031 A 
ATOM     53  C   UNL A   1      40.973  31.471  35.146  1.00  0.00     0.049 A 
ATOM     54  C   UNL A   1      41.462  28.509  30.439  1.00  0.00     0.074 A 
ATOM     55  C   UNL A   1      41.820  31.141  36.188  1.00  0.00     0.029 A 
ATOM     56  N   UNL A   1      41.280  30.626  34.093  1.00  0.00    -0.354 N 
ATOM     57  N   UNL A   1      41.465  29.110  31.604  1.00  0.00    -0.248 NA
ATOM     58  C   UNL A   1      42.514  27.492  30.286  1.00  0.00     0.031 C 
ATOM     59  C   UNL A   1      42.678  30.128  35.746  1.00  0.00     0.029 A 
ATOM     60  C   UNL A   1      42.320  29.787  34.452  1.00  0.00     0.049 A 
ATOM     61  H   UNL A   1      40.826  30.623  33.218  1.00  0.00     0.167 HD
ATOM     62  C   UNL A   1      42.481  28.509  32.337  1.00  0.00     0.074 A 
ATOM     63  C   UNL A   1      43.067  27.493  31.490  1.00  0.00     0.031 C 
ATOM     64  C   UNL A   1      42.885  28.771  33.604  1.00  0.00     0.031 A 
BRANCH  51  65
ATOM     65  C   UNL A   1      39.760  33.358  36.316  1.00  0.00    -0.014 A 
ATOM     66  C   UNL A   1      38.862  32.994  37.336  1.00  0.00     0.009 A 
ATOM     67  C   UNL A   1      40.490  34.548  36.450  1.00  0.00     0.009 A 
ATOM     68  C   UNL A   1      38.661  33.830  38.436  1.00  0.00     0.001 A 
ATOM     69  C   UNL A   1      40.313  35.364  37.570  1.00  0.00     0.001 A 
ATOM     70  C   UNL A   1      39.390  35.011  38.553  1.00  0.00     0.000 A 
ENDBRANCH  51  65
BRANCH  52  71
ATOM     71  C   UNL A   1      40.713  27.905  28.027  1.00  0.00    -0.014 A 
ATOM     72  C   UNL A   1      40.167  26.617  27.906  1.00  0.00     0.009 A 
ATOM     73  C   UNL A   1      41.476  28.416  26.965  1.00  0.00     0.009 A 
ATOM     74  C   UNL A   1      40.416  25.842  26.770  1.00  0.00     0.001 A 
ATOM     75  C   UNL A   1      41.698  27.650  25.817  1.00  0.00     0.001 A 
ATOM     76  C   UNL A   1      41.180  26.360  25.725  1.00  0.00     0.000 A 
ENDBRANCH  52  71
BRANCH  64  77
ATOM     77  C   UNL A   1      43.981  27.915  34.174  1.00  0.00    -0.014 A 
ATOM     78  C   UNL A   1      43.699  26.761  34.921  1.00  0.00     0.009 A 
ATOM     79  C   UNL A   1      45.321  28.241  33.909  1.00  0.00     0.009 A 
ATOM     80  C   UNL A   1      44.738  25.972  35.418  1.00  0.00     0.001 A 
ATOM     81  C   UNL A   1      46.355  27.431  34.376  1.00  0.00     0.001 A 
ATOM     82  C   UNL A   1      46.063  26.301  35.138  1.00  0.00     0.000 A 
ENDBRANCH  64  77
ENDBRANCH  38  39
ENDBRANCH  30  33
ENDBRANCH  28  29
ENDBRANCH  27  28
ENDBRANCH   1  27
TORSDOF 14
ENDMDL
MODEL 3
REMARK VINA RESULT:     -12.2      2.803      7.066
REMARK SMILES Cc1ccc([C@@H](C)Nc2ccc(N)cc2C(=O)NCCCNC(=O)c2ccc(-c3c4nc(c(-c5ccccc5)c5ccc([nH]5)c(-c5ccccc5)c5nc(c(-c6ccccc6)c6ccc3[nH]6)C=C5)C=C4)cc2)cc1F
REMARK SMILES IDX 19 1 18 2 16 3 17 4 15 6 9 7 10 8 11 9 14 10 12 11 8 12 6 14
REMARK SMILES IDX 7 15 5 16 1 17 2 18 3 19 74 20 4 21 73 22 75 23 13 24 20 27
REMARK SMILES IDX 21 28 22 29 23 30 24 32 25 33 26 34 72 35 27 36 71 37 28 38
REMARK SMILES IDX 29 39 30 40 65 41 31 42 70 43 64 44 66 45 32 46 69 47 63 48
REMARK SMILES IDX 62 49 33 51 55 52 40 53 54 54 41 55 44 56 53 57 67 58 42 59
REMARK SMILES IDX 43 60 52 62 68 63 45 64 34 65 35 66 39 67 36 68 38 69 37 70
REMARK SMILES IDX 56 71 57 72 61 73 58 74 60 75 59 76 46 77 47 78 51 79 48 80
REMARK SMILES IDX 50 81 49 82
REMARK H PARENT 18 5 8 13 13 25 13 26 22 31 66 50 44 61
REMARK Flexibility Score: inf
ROOT
ATOM      1  C   UNL A   1      30.819  27.347  26.240  1.00  0.00     0.118 C 
ENDROOT
BRANCH   1   2
ATOM      2  N   UNL A   1      30.524  26.081  25.584  1.00  0.00    -0.352 N 
ATOM      3  C   UNL A   1      30.281  25.819  24.258  1.00  0.00     0.253 C 
ATOM      4  O   UNL A   1      30.300  24.659  23.852  1.00  0.00    -0.269 OA
ATOM      5  H   UNL A   1      30.494  25.298  26.179  1.00  0.00     0.163 HD
BRANCH   3   6
ATOM      6  C   UNL A   1      29.804  26.908  23.384  1.00  0.00     0.065 A 
ATOM      7  C   UNL A   1      30.620  27.848  22.743  1.00  0.00     0.048 A 
ATOM      8  C   UNL A   1      30.005  29.094  22.507  1.00  0.00     0.028 A 
ATOM      9  C   UNL A   1      28.642  29.329  22.763  1.00  0.00     0.027 A 
ATOM     10  C   UNL A   1      28.409  27.095  23.514  1.00  0.00     0.041 A 
ATOM     11  C   UNL A   1      27.809  28.297  23.172  1.00  0.00     0.032 A 
BRANCH   7  12
ATOM     12  N   UNL A   1      31.937  27.706  22.341  1.00  0.00    -0.378 N 
ATOM     13  H   UNL A   1      32.058  27.731  21.364  1.00  0.00     0.161 HD
BRANCH  12  14
ATOM     14  C   UNL A   1      33.190  27.526  23.086  1.00  0.00     0.106 C 
ATOM     15  C   UNL A   1      34.299  28.496  22.724  1.00  0.00     0.036 C 
BRANCH  14  16
ATOM     16  C   UNL A   1      33.507  26.049  23.232  1.00  0.00    -0.023 A 
ATOM     17  C   UNL A   1      34.098  21.145  24.538  1.00  0.00     0.047 C 
ATOM     18  C   UNL A   1      34.035  22.563  24.083  1.00  0.00    -0.015 A 
ATOM     19  C   UNL A   1      34.554  23.858  25.206  1.00  0.00     0.007 A 
ATOM     20  C   UNL A   1      33.279  23.014  22.498  1.00  0.00     0.126 A 
ATOM     21  C   UNL A   1      34.265  25.596  24.807  1.00  0.00     0.006 A 
ATOM     22  C   UNL A   1      33.030  24.747  22.057  1.00  0.00     0.045 A 
ATOM     23  F   UNL A   1      32.867  22.050  21.666  1.00  0.00    -0.207 F 
ENDBRANCH  14  16
ENDBRANCH  12  14
ENDBRANCH   7  12
BRANCH  11  24
ATOM     24  N   UNL A   1      26.467  28.508  23.435  1.00  0.00    -0.399 N 
ATOM     25  H   UNL A   1      25.850  28.729  22.701  1.00  0.00     0.156 HD
ATOM     26  H   UNL A   1      26.129  28.435  24.358  1.00  0.00     0.156 HD
ENDBRANCH  11  24
ENDBRANCH   3   6
ENDBRANCH   1   2
BRANCH   1  27
ATOM     27  C   UNL A   1      32.422  27.835  26.723  1.00  0.00     0.042 C 
BRANCH  27  28
ATOM     28  C   UNL A   1      33.585  29.673  26.919  1.00  0.00     0.118 C 
BRANCH  28  29
ATOM     29  N   UNL A   1      33.663  30.853  27.983  1.00  0.00    -0.352 N 
ATOM     30  C   UNL A   1      34.739  31.323  28.716  1.00  0.00     0.251 C 
ATOM     31  H   UNL A   1      32.813  31.324  28.145  1.00  0.00     0.163 HD
ATOM     32  O   UNL A   1      34.649  32.370  29.351  1.00  0.00    -0.269 OA
BRANCH  30  33
ATOM     33  C   UNL A   1      35.987  30.527  28.805  1.00  0.00     0.039 A 
ATOM     34  C   UNL A   1      36.841  30.493  27.700  1.00  0.00     0.014 A 
ATOM     35  C   UNL A   1      36.352  29.877  29.982  1.00  0.00     0.014 A 
ATOM     36  C   UNL A   1      38.109  29.906  27.812  1.00  0.00     0.010 A 
ATOM     37  C   UNL A   1      37.655  29.402  30.126  1.00  0.00     0.010 A 
ATOM     38  C   UNL A   1      38.556  29.406  29.045  1.00  0.00    -0.014 A 
BRANCH  38  39
ATOM     39  C   UNL A   1      39.938  28.865  29.238  1.00  0.00     0.031 A 
ATOM     40  C   UNL A   1      41.029  29.784  29.735  1.00  0.00     0.074 A 
ATOM     41  C   UNL A   1      40.256  27.597  28.890  1.00  0.00     0.049 A 
ATOM     42  N   UNL A   1      42.313  29.558  29.865  1.00  0.00    -0.248 NA
ATOM     43  C   UNL A   1      40.625  31.151  30.110  1.00  0.00     0.031 C 
ATOM     44  C   UNL A   1      39.330  26.586  28.376  1.00  0.00     0.029 A 
ATOM     45  N   UNL A   1      41.471  26.947  28.890  1.00  0.00    -0.354 N 
ATOM     46  C   UNL A   1      42.859  30.751  30.324  1.00  0.00     0.074 A 
ATOM     47  C   UNL A   1      41.793  31.725  30.348  1.00  0.00     0.031 C 
ATOM     48  C   UNL A   1      40.007  25.463  28.083  1.00  0.00     0.029 A 
ATOM     49  C   UNL A   1      41.418  25.665  28.390  1.00  0.00     0.049 A 
ATOM     50  H   UNL A   1      42.301  27.362  29.218  1.00  0.00     0.167 HD
ATOM     51  C   UNL A   1      44.120  31.010  30.746  1.00  0.00     0.031 A 
ATOM     52  C   UNL A   1      42.389  24.749  28.203  1.00  0.00     0.031 A 
ATOM     53  C   UNL A   1      45.182  30.045  30.755  1.00  0.00     0.049 A 
ATOM     54  C   UNL A   1      43.795  25.066  28.642  1.00  0.00     0.074 A 
ATOM     55  C   UNL A   1      46.475  30.190  31.226  1.00  0.00     0.029 A 
ATOM     56  N   UNL A   1      45.072  28.752  30.272  1.00  0.00    -0.354 N 
ATOM     57  N   UNL A   1      44.266  26.171  29.168  1.00  0.00    -0.248 NA
ATOM     58  C   UNL A   1      44.791  23.995  28.503  1.00  0.00     0.031 C 
ATOM     59  C   UNL A   1      47.163  28.998  30.979  1.00  0.00     0.029 A 
ATOM     60  C   UNL A   1      46.280  28.092  30.414  1.00  0.00     0.049 A 
ATOM     61  H   UNL A   1      44.255  28.359  29.885  1.00  0.00     0.167 HD
ATOM     62  C   UNL A   1      45.597  25.908  29.467  1.00  0.00     0.074 A 
ATOM     63  C   UNL A   1      45.855  24.540  29.074  1.00  0.00     0.031 C 
ATOM     64  C   UNL A   1      46.520  26.727  30.029  1.00  0.00     0.031 A 
BRANCH  51  65
ATOM     65  C   UNL A   1      44.398  32.395  31.266  1.00  0.00    -0.014 A 
ATOM     66  C   UNL A   1      44.900  33.397  30.416  1.00  0.00     0.009 A 
ATOM     67  C   UNL A   1      44.144  32.711  32.608  1.00  0.00     0.009 A 
ATOM     68  C   UNL A   1      45.191  34.669  30.912  1.00  0.00     0.001 A 
ATOM     69  C   UNL A   1      44.402  33.995  33.093  1.00  0.00     0.001 A 
ATOM     70  C   UNL A   1      44.937  34.967  32.249  1.00  0.00     0.000 A 
ENDBRANCH  51  65
BRANCH  52  71
ATOM     71  C   UNL A   1      42.072  23.417  27.614  1.00  0.00    -0.014 A 
ATOM     72  C   UNL A   1      42.240  23.184  26.240  1.00  0.00     0.009 A 
ATOM     73  C   UNL A   1      41.561  22.383  28.415  1.00  0.00     0.009 A 
ATOM     74  C   UNL A   1      41.862  21.964  25.672  1.00  0.00     0.001 A 
ATOM     75  C   UNL A   1      41.213  21.153  27.850  1.00  0.00     0.001 A 
ATOM     76  C   UNL A   1      41.351  20.948  26.478  1.00  0.00     0.000 A 
ENDBRANCH  52  71
BRANCH  64  77
ATOM     77  C   UNL A   1      47.883  26.154  30.300  1.00  0.00    -0.014 A 
ATOM     78  C   UNL A   1      48.857  26.065  29.294  1.00  0.00     0.009 A 
ATOM     79  C   UNL A   1      48.214  25.748  31.603  1.00  0.00     0.009 A 
ATOM     80  C   UNL A   1      50.123  25.551  29.581  1.00  0.00     0.001 A 
ATOM     81  C   UNL A   1      49.491  25.268  31.895  1.00  0.00     0.001 A 
ATOM     82  C   UNL A   1      50.441  25.160  30.881  1.00  0.00     0.000 A 
ENDBRANCH  64  77
ENDBRANCH  38  39
ENDBRANCH  30  33
ENDBRANCH  28  29
ENDBRANCH  27  28
ENDBRANCH   1  27
TORSDOF 14
ENDMDL
