MODEL 1
REMARK VINA RESULT:     -12.8      0.000      0.000
REMARK SMILES COc1cccc(C(=O)Nc2ccc(NC(=O)[C@@H]3[C@@H](C(=O)NCCCNC(=O)c4ccc(-c5c6nc(c(-c7ccccc7)c7ccc([nH]7)c(-c7ccccc7)c7nc(c(-c8ccccc8)c8ccc5[nH]8)C=C7)C=C6)cc4)[C@@H]4C=C[C@H]3C4)cc2)c1
REMARK SMILES IDX 20 1 21 2 22 3 19 5 18 6 80 7 77 8 79 9 81 10 78 11 16 12
REMARK SMILES IDX 15 13 17 15 14 16 11 17 12 18 83 19 13 20 82 21 10 22 8 23
REMARK SMILES IDX 9 24 7 26 3 27 4 28 84 29 5 30 6 31 2 32 1 33 23 34 24 35
REMARK SMILES IDX 25 36 26 37 27 38 28 40 29 41 30 42 76 43 31 44 75 45 32 46
REMARK SMILES IDX 33 47 34 48 69 49 35 50 74 51 68 52 70 53 36 54 73 55 67 56
REMARK SMILES IDX 66 57 37 59 59 60 44 61 58 62 45 63 48 64 57 65 71 66 46 67
REMARK SMILES IDX 47 68 56 70 72 71 49 72 38 73 39 74 43 75 40 76 42 77 41 78
REMARK SMILES IDX 60 79 61 80 65 81 62 82 64 83 63 84 50 85 51 86 55 87 52 88
REMARK SMILES IDX 54 89 53 90
REMARK H PARENT 22 4 15 14 10 25 26 39 70 58 48 69
REMARK Flexibility Score: inf
ROOT
ATOM      1  C   UNL A   1      34.225  24.876  24.092  1.00  0.00     0.224 C 
ATOM      2  O   UNL A   1      34.435  24.941  22.873  1.00  0.00    -0.275 OA
ATOM      3  N   UNL A   1      34.307  26.078  24.738  1.00  0.00    -0.356 N 
ATOM      4  H   UNL A   1      34.739  26.747  24.158  1.00  0.00     0.163 HD
ENDROOT
BRANCH   1   5
ATOM      5  C   UNL A   1      33.971  23.489  24.720  1.00  0.00     0.098 C 
ATOM      6  C   UNL A   1      33.935  23.379  26.340  1.00  0.00     0.099 C 
ATOM      7  C   UNL A   1      35.075  22.390  26.532  1.00  0.00     0.025 C 
ATOM      8  C   UNL A   1      35.121  22.538  24.334  1.00  0.00     0.025 C 
ATOM      9  C   UNL A   1      34.684  21.054  25.970  1.00  0.00    -0.027 C 
ATOM     10  C   UNL A   1      36.071  22.789  25.493  1.00  0.00     0.017 C 
ATOM     11  C   UNL A   1      34.714  21.132  24.641  1.00  0.00    -0.027 C 
BRANCH   6  12
ATOM     12  C   UNL A   1      32.644  22.892  27.075  1.00  0.00     0.228 C 
ATOM     13  N   UNL A   1      31.321  23.025  26.635  1.00  0.00    -0.326 N 
ATOM     14  H   UNL A   1      30.713  22.362  27.034  1.00  0.00     0.169 HD
ATOM     15  O   UNL A   1      32.771  22.280  28.147  1.00  0.00    -0.274 OA
BRANCH  13  16
ATOM     16  C   UNL A   1      30.664  23.917  25.732  1.00  0.00     0.041 A 
ATOM     17  C   UNL A   1      30.768  26.193  24.131  1.00  0.00     0.041 A 
ATOM     18  C   UNL A   1      30.712  24.924  23.547  1.00  0.00     0.028 A 
ATOM     19  C   UNL A   1      30.277  26.295  25.422  1.00  0.00     0.028 A 
ATOM     20  C   UNL A   1      30.586  23.774  24.359  1.00  0.00     0.028 A 
ATOM     21  C   UNL A   1      30.231  25.146  26.237  1.00  0.00     0.028 A 
BRANCH  17  22
ATOM     22  N   UNL A   1      31.451  27.213  23.430  1.00  0.00    -0.322 N 
ATOM     23  C   UNL A   1      31.090  28.427  22.859  1.00  0.00     0.255 C 
ATOM     24  O   UNL A   1      31.976  29.082  22.302  1.00  0.00    -0.269 OA
ATOM     25  H   UNL A   1      32.409  27.016  23.319  1.00  0.00     0.170 HD
BRANCH  23  26
ATOM     26  C   UNL A   1      29.724  29.015  22.878  1.00  0.00     0.043 A 
ATOM     27  C   UNL A   1      28.207  30.911  22.870  1.00  0.00     0.119 A 
ATOM     28  C   UNL A   1      27.145  30.048  23.143  1.00  0.00     0.046 A 
ATOM     29  C   UNL A   1      29.473  30.371  22.652  1.00  0.00     0.060 A 
ATOM     30  C   UNL A   1      27.349  28.669  23.198  1.00  0.00     0.005 A 
ATOM     31  C   UNL A   1      28.640  28.152  23.077  1.00  0.00     0.014 A 
BRANCH  27  32
ATOM     32  O   UNL A   1      27.880  32.237  22.879  1.00  0.00    -0.497 OA
ATOM     33  C   UNL A   1      28.916  33.206  22.983  1.00  0.00     0.278 C 
ENDBRANCH  27  32
ENDBRANCH  23  26
ENDBRANCH  17  22
ENDBRANCH  13  16
ENDBRANCH   6  12
ENDBRANCH   1   5
BRANCH   3  34
ATOM     34  C   UNL A   1      33.949  26.684  26.030  1.00  0.00     0.117 C 
BRANCH  34  35
ATOM     35  C   UNL A   1      33.778  28.201  26.059  1.00  0.00     0.042 C 
BRANCH  35  36
ATOM     36  C   UNL A   1      33.343  28.709  27.423  1.00  0.00     0.118 C 
BRANCH  36  37
ATOM     37  N   UNL A   1      33.466  30.158  27.554  1.00  0.00    -0.352 N 
ATOM     38  C   UNL A   1      34.513  30.919  27.999  1.00  0.00     0.251 C 
ATOM     39  H   UNL A   1      32.671  30.669  27.278  1.00  0.00     0.163 HD
ATOM     40  O   UNL A   1      34.355  32.133  28.166  1.00  0.00    -0.269 OA
BRANCH  38  41
ATOM     41  C   UNL A   1      35.814  30.298  28.306  1.00  0.00     0.039 A 
ATOM     42  C   UNL A   1      36.808  30.289  27.324  1.00  0.00     0.014 A 
ATOM     43  C   UNL A   1      36.058  29.729  29.558  1.00  0.00     0.014 A 
ATOM     44  C   UNL A   1      38.065  29.765  27.622  1.00  0.00     0.010 A 
ATOM     45  C   UNL A   1      37.338  29.313  29.889  1.00  0.00     0.010 A 
ATOM     46  C   UNL A   1      38.348  29.311  28.919  1.00  0.00    -0.014 A 
BRANCH  46  47
ATOM     47  C   UNL A   1      39.693  28.810  29.283  1.00  0.00     0.031 A 
ATOM     48  C   UNL A   1      40.633  29.689  30.061  1.00  0.00     0.074 A 
ATOM     49  C   UNL A   1      40.086  27.596  28.853  1.00  0.00     0.049 A 
ATOM     50  N   UNL A   1      41.868  29.455  30.426  1.00  0.00    -0.248 NA
ATOM     51  C   UNL A   1      40.132  31.016  30.457  1.00  0.00     0.031 C 
ATOM     52  C   UNL A   1      39.275  26.677  28.050  1.00  0.00     0.029 A 
ATOM     53  N   UNL A   1      41.269  26.927  29.030  1.00  0.00    -0.354 N 
ATOM     54  C   UNL A   1      42.292  30.609  31.072  1.00  0.00     0.074 A 
ATOM     55  C   UNL A   1      41.210  31.563  30.998  1.00  0.00     0.031 C 
ATOM     56  C   UNL A   1      39.972  25.550  27.836  1.00  0.00     0.029 A 
ATOM     57  C   UNL A   1      41.292  25.686  28.443  1.00  0.00     0.049 A 
ATOM     58  H   UNL A   1      42.031  27.302  29.530  1.00  0.00     0.167 HD
ATOM     59  C   UNL A   1      43.471  30.843  31.693  1.00  0.00     0.031 A 
ATOM     60  C   UNL A   1      42.271  24.765  28.393  1.00  0.00     0.031 A 
ATOM     61  C   UNL A   1      44.541  29.886  31.769  1.00  0.00     0.049 A 
ATOM     62  C   UNL A   1      43.577  25.057  29.075  1.00  0.00     0.074 A 
ATOM     63  C   UNL A   1      45.754  29.999  32.423  1.00  0.00     0.029 A 
ATOM     64  N   UNL A   1      44.524  28.637  31.165  1.00  0.00    -0.354 N 
ATOM     65  N   UNL A   1      43.936  26.123  29.749  1.00  0.00    -0.248 NA
ATOM     66  C   UNL A   1      44.607  24.015  29.001  1.00  0.00     0.031 C 
ATOM     67  C   UNL A   1      46.497  28.844  32.162  1.00  0.00     0.029 A 
ATOM     68  C   UNL A   1      45.718  27.982  31.405  1.00  0.00     0.049 A 
ATOM     69  H   UNL A   1      43.773  28.273  30.643  1.00  0.00     0.167 HD
ATOM     70  C   UNL A   1      45.224  25.868  30.203  1.00  0.00     0.074 A 
ATOM     71  C   UNL A   1      45.572  24.538  29.744  1.00  0.00     0.031 C 
ATOM     72  C   UNL A   1      46.045  26.660  30.934  1.00  0.00     0.031 A 
BRANCH  59  73
ATOM     73  C   UNL A   1      43.664  32.193  32.330  1.00  0.00    -0.014 A 
ATOM     74  C   UNL A   1      43.311  32.427  33.669  1.00  0.00     0.009 A 
ATOM     75  C   UNL A   1      44.234  33.239  31.588  1.00  0.00     0.009 A 
ATOM     76  C   UNL A   1      43.488  33.689  34.239  1.00  0.00     0.001 A 
ATOM     77  C   UNL A   1      44.442  34.491  32.171  1.00  0.00     0.001 A 
ATOM     78  C   UNL A   1      44.059  34.718  33.492  1.00  0.00     0.000 A 
ENDBRANCH  59  73
BRANCH  60  79
ATOM     79  C   UNL A   1      42.049  23.477  27.684  1.00  0.00    -0.014 A 
ATOM     80  C   UNL A   1      42.485  23.307  26.361  1.00  0.00     0.009 A 
ATOM     81  C   UNL A   1      41.400  22.410  28.326  1.00  0.00     0.009 A 
ATOM     82  C   UNL A   1      42.245  22.108  25.685  1.00  0.00     0.001 A 
ATOM     83  C   UNL A   1      41.191  21.202  27.659  1.00  0.00     0.001 A 
ATOM     84  C   UNL A   1      41.604  21.055  26.336  1.00  0.00     0.000 A 
ENDBRANCH  60  79
BRANCH  72  85
ATOM     85  C   UNL A   1      47.385  26.094  31.312  1.00  0.00    -0.014 A 
ATOM     86  C   UNL A   1      48.468  26.120  30.420  1.00  0.00     0.009 A 
ATOM     87  C   UNL A   1      47.575  25.564  32.598  1.00  0.00     0.009 A 
ATOM     88  C   UNL A   1      49.704  25.591  30.796  1.00  0.00     0.001 A 
ATOM     89  C   UNL A   1      48.820  25.068  32.984  1.00  0.00     0.001 A 
ATOM     90  C   UNL A   1      49.881  25.071  32.079  1.00  0.00     0.000 A 
ENDBRANCH  72  85
ENDBRANCH  46  47
ENDBRANCH  38  41
ENDBRANCH  36  37
ENDBRANCH  35  36
ENDBRANCH  34  35
ENDBRANCH   3  34
TORSDOF 15
ENDMDL
MODEL 2
REMARK VINA RESULT:     -12.6      0.316      5.591
REMARK SMILES COc1cccc(C(=O)Nc2ccc(NC(=O)[C@@H]3[C@@H](C(=O)NCCCNC(=O)c4ccc(-c5c6nc(c(-c7ccccc7)c7ccc([nH]7)c(-c7ccccc7)c7nc(c(-c8ccccc8)c8ccc5[nH]8)C=C7)C=C6)cc4)[C@@H]4C=C[C@H]3C4)cc2)c1
REMARK SMILES IDX 20 1 21 2 22 3 19 5 18 6 80 7 77 8 79 9 81 10 78 11 16 12
REMARK SMILES IDX 15 13 17 15 14 16 11 17 12 18 83 19 13 20 82 21 10 22 8 23
REMARK SMILES IDX 9 24 7 26 3 27 4 28 84 29 5 30 6 31 2 32 1 33 23 34 24 35
REMARK SMILES IDX 25 36 26 37 27 38 28 40 29 41 30 42 76 43 31 44 75 45 32 46
REMARK SMILES IDX 33 47 34 48 69 49 35 50 74 51 68 52 70 53 36 54 73 55 67 56
REMARK SMILES IDX 66 57 37 59 59 60 44 61 58 62 45 63 48 64 57 65 71 66 46 67
REMARK SMILES IDX 47 68 56 70 72 71 49 72 38 73 39 74 43 75 40 76 42 77 41 78
REMARK SMILES IDX 60 79 61 80 65 81 62 82 64 83 63 84 50 85 51 86 55 87 52 88
REMARK SMILES IDX 54 89 53 90
REMARK H PARENT 22 4 15 14 10 25 26 39 70 58 48 69
REMARK Flexibility Score: inf
ROOT
ATOM      1  C   UNL A   1      34.220  24.803  24.088  1.00  0.00     0.224 C 
ATOM      2  O   UNL A   1      34.419  24.863  22.867  1.00  0.00    -0.275 OA
ATOM      3  N   UNL A   1      34.332  26.004  24.733  1.00  0.00    -0.356 N 
ATOM      4  H   UNL A   1      34.772  26.663  24.149  1.00  0.00     0.163 HD
ENDROOT
BRANCH   1   5
ATOM      5  C   UNL A   1      33.945  23.422  24.720  1.00  0.00     0.098 C 
ATOM      6  C   UNL A   1      33.924  23.312  26.340  1.00  0.00     0.099 C 
ATOM      7  C   UNL A   1      35.045  22.300  26.520  1.00  0.00     0.025 C 
ATOM      8  C   UNL A   1      35.071  22.447  24.322  1.00  0.00     0.025 C 
ATOM      9  C   UNL A   1      34.621  20.973  25.962  1.00  0.00    -0.027 C 
ATOM     10  C   UNL A   1      36.038  22.679  25.470  1.00  0.00     0.017 C 
ATOM     11  C   UNL A   1      34.638  21.050  24.633  1.00  0.00    -0.027 C 
BRANCH   6  12
ATOM     12  C   UNL A   1      32.631  22.852  27.089  1.00  0.00     0.228 C 
ATOM     13  N   UNL A   1      31.306  23.010  26.663  1.00  0.00    -0.326 N 
ATOM     14  H   UNL A   1      30.690  22.359  27.069  1.00  0.00     0.169 HD
ATOM     15  O   UNL A   1      32.757  22.240  28.161  1.00  0.00    -0.274 OA
BRANCH  13  16
ATOM     16  C   UNL A   1      30.657  23.912  25.764  1.00  0.00     0.041 A 
ATOM     17  C   UNL A   1      30.778  26.204  24.187  1.00  0.00     0.041 A 
ATOM     18  C   UNL A   1      30.723  24.941  23.589  1.00  0.00     0.028 A 
ATOM     19  C   UNL A   1      30.278  26.294  25.475  1.00  0.00     0.028 A 
ATOM     20  C   UNL A   1      30.590  23.783  24.389  1.00  0.00     0.028 A 
ATOM     21  C   UNL A   1      30.224  25.136  26.278  1.00  0.00     0.028 A 
BRANCH  17  22
ATOM     22  N   UNL A   1      31.467  27.229  23.501  1.00  0.00    -0.322 N 
ATOM     23  C   UNL A   1      31.115  28.453  22.946  1.00  0.00     0.255 C 
ATOM     24  O   UNL A   1      32.006  29.111  22.400  1.00  0.00    -0.269 OA
ATOM     25  H   UNL A   1      32.424  27.029  23.389  1.00  0.00     0.170 HD
BRANCH  23  26
ATOM     26  C   UNL A   1      29.752  29.048  22.971  1.00  0.00     0.043 A 
ATOM     27  C   UNL A   1      28.243  30.940  23.175  1.00  0.00     0.119 A 
ATOM     28  C   UNL A   1      27.163  30.058  23.229  1.00  0.00     0.046 A 
ATOM     29  C   UNL A   1      29.520  30.427  22.956  1.00  0.00     0.060 A 
ATOM     30  C   UNL A   1      27.359  28.687  23.067  1.00  0.00     0.005 A 
ATOM     31  C   UNL A   1      28.654  28.180  22.949  1.00  0.00     0.014 A 
BRANCH  27  32
ATOM     32  O   UNL A   1      27.919  32.250  23.383  1.00  0.00    -0.497 OA
ATOM     33  C   UNL A   1      28.834  33.263  22.981  1.00  0.00     0.278 C 
ENDBRANCH  27  32
ENDBRANCH  23  26
ENDBRANCH  17  22
ENDBRANCH  13  16
ENDBRANCH   6  12
ENDBRANCH   1   5
BRANCH   3  34
ATOM     34  C   UNL A   1      33.998  26.617  26.028  1.00  0.00     0.117 C 
BRANCH  34  35
ATOM     35  C   UNL A   1      33.988  28.142  26.089  1.00  0.00     0.042 C 
BRANCH  35  36
ATOM     36  C   UNL A   1      33.436  28.666  27.404  1.00  0.00     0.118 C 
BRANCH  36  37
ATOM     37  N   UNL A   1      33.528  30.119  27.519  1.00  0.00    -0.352 N 
ATOM     38  C   UNL A   1      34.555  30.906  27.965  1.00  0.00     0.251 C 
ATOM     39  H   UNL A   1      32.726  30.610  27.229  1.00  0.00     0.163 HD
ATOM     40  O   UNL A   1      34.371  32.118  28.116  1.00  0.00    -0.269 OA
BRANCH  38  41
ATOM     41  C   UNL A   1      35.865  30.314  28.292  1.00  0.00     0.039 A 
ATOM     42  C   UNL A   1      36.879  30.343  27.331  1.00  0.00     0.014 A 
ATOM     43  C   UNL A   1      36.098  29.736  29.541  1.00  0.00     0.014 A 
ATOM     44  C   UNL A   1      38.143  29.848  27.648  1.00  0.00     0.010 A 
ATOM     45  C   UNL A   1      37.382  29.349  29.894  1.00  0.00     0.010 A 
ATOM     46  C   UNL A   1      38.412  29.385  28.945  1.00  0.00    -0.014 A 
BRANCH  46  47
ATOM     47  C   UNL A   1      39.761  28.914  29.332  1.00  0.00     0.031 A 
ATOM     48  C   UNL A   1      40.239  27.561  28.882  1.00  0.00     0.074 A 
ATOM     49  C   UNL A   1      40.520  29.676  30.143  1.00  0.00     0.049 A 
ATOM     50  N   UNL A   1      41.361  26.948  29.162  1.00  0.00    -0.248 NA
ATOM     51  C   UNL A   1      39.327  26.781  28.029  1.00  0.00     0.031 C 
ATOM     52  C   UNL A   1      40.138  30.984  30.681  1.00  0.00     0.029 A 
ATOM     53  N   UNL A   1      41.771  29.456  30.658  1.00  0.00    -0.354 N 
ATOM     54  C   UNL A   1      41.277  25.710  28.538  1.00  0.00     0.074 A 
ATOM     55  C   UNL A   1      39.975  25.632  27.917  1.00  0.00     0.031 C 
ATOM     56  C   UNL A   1      41.149  31.466  31.419  1.00  0.00     0.029 A 
ATOM     57  C   UNL A   1      42.227  30.483  31.447  1.00  0.00     0.049 A 
ATOM     58  H   UNL A   1      42.292  28.641  30.479  1.00  0.00     0.167 HD
ATOM     59  C   UNL A   1      42.212  24.735  28.469  1.00  0.00     0.031 A 
ATOM     60  C   UNL A   1      43.383  30.613  32.123  1.00  0.00     0.031 A 
ATOM     61  C   UNL A   1      43.509  24.823  29.084  1.00  0.00     0.049 A 
ATOM     62  C   UNL A   1      44.398  29.508  32.045  1.00  0.00     0.074 A 
ATOM     63  C   UNL A   1      44.553  23.919  29.028  1.00  0.00     0.029 A 
ATOM     64  N   UNL A   1      43.935  25.882  29.872  1.00  0.00    -0.354 N 
ATOM     65  N   UNL A   1      44.336  28.375  31.387  1.00  0.00    -0.248 NA
ATOM     66  C   UNL A   1      45.646  29.705  32.791  1.00  0.00     0.031 C 
ATOM     67  C   UNL A   1      45.589  24.401  29.834  1.00  0.00     0.029 A 
ATOM     68  C   UNL A   1      45.216  25.639  30.334  1.00  0.00     0.049 A 
ATOM     69  H   UNL A   1      43.404  26.687  30.073  1.00  0.00     0.167 HD
ATOM     70  C   UNL A   1      45.548  27.737  31.618  1.00  0.00     0.074 A 
ATOM     71  C   UNL A   1      46.331  28.620  32.459  1.00  0.00     0.031 C 
ATOM     72  C   UNL A   1      45.975  26.530  31.174  1.00  0.00     0.031 A 
BRANCH  59  73
ATOM     73  C   UNL A   1      41.858  23.486  27.708  1.00  0.00    -0.014 A 
ATOM     74  C   UNL A   1      42.197  23.334  26.354  1.00  0.00     0.009 A 
ATOM     75  C   UNL A   1      41.200  22.433  28.364  1.00  0.00     0.009 A 
ATOM     76  C   UNL A   1      41.850  22.171  25.663  1.00  0.00     0.001 A 
ATOM     77  C   UNL A   1      40.885  21.258  27.679  1.00  0.00     0.001 A 
ATOM     78  C   UNL A   1      41.200  21.132  26.327  1.00  0.00     0.000 A 
ENDBRANCH  59  73
BRANCH  60  79
ATOM     79  C   UNL A   1      43.648  31.841  32.920  1.00  0.00    -0.014 A 
ATOM     80  C   UNL A   1      44.258  32.957  32.329  1.00  0.00     0.009 A 
ATOM     81  C   UNL A   1      43.291  31.903  34.277  1.00  0.00     0.009 A 
ATOM     82  C   UNL A   1      44.536  34.096  33.088  1.00  0.00     0.001 A 
ATOM     83  C   UNL A   1      43.540  33.055  35.024  1.00  0.00     0.001 A 
ATOM     84  C   UNL A   1      44.172  34.147  34.433  1.00  0.00     0.000 A 
ENDBRANCH  60  79
BRANCH  72  85
ATOM     85  C   UNL A   1      47.366  26.112  31.561  1.00  0.00    -0.014 A 
ATOM     86  C   UNL A   1      48.459  26.325  30.707  1.00  0.00     0.009 A 
ATOM     87  C   UNL A   1      47.589  25.532  32.821  1.00  0.00     0.009 A 
ATOM     88  C   UNL A   1      49.741  25.931  31.091  1.00  0.00     0.001 A 
ATOM     89  C   UNL A   1      48.877  25.171  33.216  1.00  0.00     0.001 A 
ATOM     90  C   UNL A   1      49.950  25.360  32.347  1.00  0.00     0.000 A 
ENDBRANCH  72  85
ENDBRANCH  46  47
ENDBRANCH  38  41
ENDBRANCH  36  37
ENDBRANCH  35  36
ENDBRANCH  34  35
ENDBRANCH   3  34
TORSDOF 15
ENDMDL
MODEL 3
REMARK VINA RESULT:     -12.4      2.428      7.145
REMARK SMILES COc1cccc(C(=O)Nc2ccc(NC(=O)[C@@H]3[C@@H](C(=O)NCCCNC(=O)c4ccc(-c5c6nc(c(-c7ccccc7)c7ccc([nH]7)c(-c7ccccc7)c7nc(c(-c8ccccc8)c8ccc5[nH]8)C=C7)C=C6)cc4)[C@@H]4C=C[C@H]3C4)cc2)c1
REMARK SMILES IDX 20 1 21 2 22 3 19 5 18 6 80 7 77 8 79 9 81 10 78 11 16 12
REMARK SMILES IDX 15 13 17 15 14 16 11 17 12 18 83 19 13 20 82 21 10 22 8 23
REMARK SMILES IDX 9 24 7 26 3 27 4 28 84 29 5 30 6 31 2 32 1 33 23 34 24 35
REMARK SMILES IDX 25 36 26 37 27 38 28 40 29 41 30 42 76 43 31 44 75 45 32 46
REMARK SMILES IDX 33 47 34 48 69 49 35 50 74 51 68 52 70 53 36 54 73 55 67 56
REMARK SMILES IDX 66 57 37 59 59 60 44 61 58 62 45 63 48 64 57 65 71 66 46 67
REMARK SMILES IDX 47 68 56 70 72 71 49 72 38 73 39 74 43 75 40 76 42 77 41 78
REMARK SMILES IDX 60 79 61 80 65 81 62 82 64 83 63 84 50 85 51 86 55 87 52 88
REMARK SMILES IDX 54 89 53 90
REMARK H PARENT 22 4 15 14 10 25 26 39 70 58 48 69
REMARK Flexibility Score: inf
ROOT
ATOM      1  C   UNL A   1      35.167  20.304  25.118  1.00  0.00     0.224 C 
ATOM      2  O   UNL A   1      34.168  19.607  24.895  1.00  0.00    -0.275 OA
ATOM      3  N   UNL A   1      36.355  19.653  24.934  1.00  0.00    -0.356 N 
ATOM      4  H   UNL A   1      36.205  18.682  24.875  1.00  0.00     0.163 HD
ENDROOT
BRANCH   1   5
ATOM      5  C   UNL A   1      34.958  21.748  25.621  1.00  0.00     0.098 C 
ATOM      6  C   UNL A   1      33.513  22.445  25.368  1.00  0.00     0.099 C 
ATOM      7  C   UNL A   1      33.970  23.633  24.536  1.00  0.00     0.025 C 
ATOM      8  C   UNL A   1      35.930  22.690  24.883  1.00  0.00     0.025 C 
ATOM      9  C   UNL A   1      34.786  24.561  25.387  1.00  0.00    -0.027 C 
ATOM     10  C   UNL A   1      35.069  23.076  23.692  1.00  0.00     0.017 C 
ATOM     11  C   UNL A   1      35.976  24.002  25.599  1.00  0.00    -0.027 C 
BRANCH   6  12
ATOM     12  C   UNL A   1      32.633  22.912  26.573  1.00  0.00     0.228 C 
ATOM     13  N   UNL A   1      31.341  23.450  26.516  1.00  0.00    -0.326 N 
ATOM     14  H   UNL A   1      30.839  23.339  27.355  1.00  0.00     0.169 HD
ATOM     15  O   UNL A   1      33.079  22.766  27.721  1.00  0.00    -0.274 OA
BRANCH  13  16
ATOM     16  C   UNL A   1      30.595  24.126  25.501  1.00  0.00     0.041 A 
ATOM     17  C   UNL A   1      30.379  26.255  23.719  1.00  0.00     0.041 A 
ATOM     18  C   UNL A   1      30.615  24.962  23.244  1.00  0.00     0.028 A 
ATOM     19  C   UNL A   1      29.780  26.350  24.964  1.00  0.00     0.028 A 
ATOM     20  C   UNL A   1      30.652  23.871  24.143  1.00  0.00     0.028 A 
ATOM     21  C   UNL A   1      29.895  25.276  25.871  1.00  0.00     0.028 A 
BRANCH  17  22
ATOM     22  N   UNL A   1      30.903  27.337  22.976  1.00  0.00    -0.322 N 
ATOM     23  C   UNL A   1      31.741  28.409  23.255  1.00  0.00     0.255 C 
ATOM     24  O   UNL A   1      31.993  29.192  22.334  1.00  0.00    -0.269 OA
ATOM     25  H   UNL A   1      30.602  27.330  22.039  1.00  0.00     0.170 HD
BRANCH  23  26
ATOM     26  C   UNL A   1      32.376  28.685  24.571  1.00  0.00     0.043 A 
ATOM     27  C   UNL A   1      32.774  30.101  26.504  1.00  0.00     0.119 A 
ATOM     28  C   UNL A   1      33.777  29.227  26.923  1.00  0.00     0.046 A 
ATOM     29  C   UNL A   1      32.023  29.771  25.377  1.00  0.00     0.060 A 
ATOM     30  C   UNL A   1      34.025  28.045  26.225  1.00  0.00     0.005 A 
ATOM     31  C   UNL A   1      33.333  27.778  25.042  1.00  0.00     0.014 A 
BRANCH  27  32
ATOM     32  O   UNL A   1      32.658  31.236  27.254  1.00  0.00    -0.497 OA
ATOM     33  C   UNL A   1      33.837  31.893  27.704  1.00  0.00     0.278 C 
ENDBRANCH  27  32
ENDBRANCH  23  26
ENDBRANCH  17  22
ENDBRANCH  13  16
ENDBRANCH   6  12
ENDBRANCH   1   5
BRANCH   3  34
ATOM     34  C   UNL A   1      37.790  19.953  24.796  1.00  0.00     0.117 C 
BRANCH  34  35
ATOM     35  C   UNL A   1      38.768  18.935  25.376  1.00  0.00     0.042 C 
BRANCH  35  36
ATOM     36  C   UNL A   1      39.875  19.591  26.184  1.00  0.00     0.118 C 
BRANCH  36  37
ATOM     37  N   UNL A   1      41.198  19.058  25.870  1.00  0.00    -0.352 N 
ATOM     38  C   UNL A   1      42.417  19.680  25.842  1.00  0.00     0.251 C 
ATOM     39  H   UNL A   1      41.217  18.100  25.644  1.00  0.00     0.163 HD
ATOM     40  O   UNL A   1      43.400  19.072  25.407  1.00  0.00    -0.269 OA
BRANCH  38  41
ATOM     41  C   UNL A   1      42.558  21.074  26.299  1.00  0.00     0.039 A 
ATOM     42  C   UNL A   1      42.584  21.337  27.671  1.00  0.00     0.014 A 
ATOM     43  C   UNL A   1      42.667  22.121  25.381  1.00  0.00     0.014 A 
ATOM     44  C   UNL A   1      42.783  22.642  28.118  1.00  0.00     0.010 A 
ATOM     45  C   UNL A   1      42.979  23.397  25.824  1.00  0.00     0.010 A 
ATOM     46  C   UNL A   1      43.022  23.673  27.197  1.00  0.00    -0.014 A 
BRANCH  46  47
ATOM     47  C   UNL A   1      43.302  25.056  27.643  1.00  0.00     0.031 A 
ATOM     48  C   UNL A   1      44.725  25.512  27.818  1.00  0.00     0.074 A 
ATOM     49  C   UNL A   1      42.277  25.872  27.954  1.00  0.00     0.049 A 
ATOM     50  N   UNL A   1      45.174  26.661  28.253  1.00  0.00    -0.248 NA
ATOM     51  C   UNL A   1      45.782  24.541  27.490  1.00  0.00     0.031 C 
ATOM     52  C   UNL A   1      40.857  25.520  27.869  1.00  0.00     0.029 A 
ATOM     53  N   UNL A   1      42.272  27.165  28.408  1.00  0.00    -0.354 N 
ATOM     54  C   UNL A   1      46.558  26.541  28.269  1.00  0.00     0.074 A 
ATOM     55  C   UNL A   1      46.874  25.192  27.860  1.00  0.00     0.031 C 
ATOM     56  C   UNL A   1      40.120  26.584  28.222  1.00  0.00     0.029 A 
ATOM     57  C   UNL A   1      41.012  27.673  28.604  1.00  0.00     0.049 A 
ATOM     58  H   UNL A   1      43.095  27.680  28.577  1.00  0.00     0.167 HD
ATOM     59  C   UNL A   1      47.483  27.480  28.574  1.00  0.00     0.031 A 
ATOM     60  C   UNL A   1      40.621  28.881  29.050  1.00  0.00     0.031 A 
ATOM     61  C   UNL A   1      47.161  28.823  28.973  1.00  0.00     0.049 A 
ATOM     62  C   UNL A   1      41.669  29.899  29.400  1.00  0.00     0.074 A 
ATOM     63  C   UNL A   1      48.021  29.870  29.248  1.00  0.00     0.029 A 
ATOM     64  N   UNL A   1      45.872  29.301  29.156  1.00  0.00    -0.354 N 
ATOM     65  N   UNL A   1      42.975  29.796  29.335  1.00  0.00    -0.248 NA
ATOM     66  C   UNL A   1      41.189  31.204  29.870  1.00  0.00     0.031 C 
ATOM     67  C   UNL A   1      47.254  30.964  29.659  1.00  0.00     0.029 A 
ATOM     68  C   UNL A   1      45.914  30.620  29.572  1.00  0.00     0.049 A 
ATOM     69  H   UNL A   1      45.050  28.779  29.013  1.00  0.00     0.167 HD
ATOM     70  C   UNL A   1      43.472  31.032  29.731  1.00  0.00     0.074 A 
ATOM     71  C   UNL A   1      42.325  31.872  30.012  1.00  0.00     0.031 C 
ATOM     72  C   UNL A   1      44.760  31.436  29.850  1.00  0.00     0.031 A 
BRANCH  59  73
ATOM     73  C   UNL A   1      48.931  27.078  28.495  1.00  0.00    -0.014 A 
ATOM     74  C   UNL A   1      49.672  27.241  27.313  1.00  0.00     0.009 A 
ATOM     75  C   UNL A   1      49.573  26.555  29.629  1.00  0.00     0.009 A 
ATOM     76  C   UNL A   1      51.012  26.853  27.257  1.00  0.00     0.001 A 
ATOM     77  C   UNL A   1      50.922  26.199  29.579  1.00  0.00     0.001 A 
ATOM     78  C   UNL A   1      51.637  26.338  28.391  1.00  0.00     0.000 A 
ENDBRANCH  59  73
BRANCH  60  79
ATOM     79  C   UNL A   1      39.174  29.196  29.179  1.00  0.00    -0.014 A 
ATOM     80  C   UNL A   1      38.454  29.700  28.085  1.00  0.00     0.009 A 
ATOM     81  C   UNL A   1      38.503  28.995  30.396  1.00  0.00     0.009 A 
ATOM     82  C   UNL A   1      37.102  30.027  28.217  1.00  0.00     0.001 A 
ATOM     83  C   UNL A   1      37.145  29.292  30.515  1.00  0.00     0.001 A 
ATOM     84  C   UNL A   1      36.447  29.818  29.430  1.00  0.00     0.000 A 
ENDBRANCH  60  79
BRANCH  72  85
ATOM     85  C   UNL A   1      44.994  32.860  30.270  1.00  0.00    -0.014 A 
ATOM     86  C   UNL A   1      45.061  33.898  29.328  1.00  0.00     0.009 A 
ATOM     87  C   UNL A   1      45.109  33.169  31.634  1.00  0.00     0.009 A 
ATOM     88  C   UNL A   1      45.276  35.213  29.744  1.00  0.00     0.001 A 
ATOM     89  C   UNL A   1      45.290  34.489  32.049  1.00  0.00     0.001 A 
ATOM     90  C   UNL A   1      45.385  35.508  31.103  1.00  0.00     0.000 A 
ENDBRANCH  72  85
ENDBRANCH  46  47
ENDBRANCH  38  41
ENDBRANCH  36  37
ENDBRANCH  35  36
ENDBRANCH  34  35
ENDBRANCH   3  34
TORSDOF 15
ENDMDL
