MODEL 1
REMARK VINA RESULT:     -10.8      0.000      0.000
REMARK SMILES O=C(NCCCNC(=O)[C@@H]1CCC(=O)N1C(=O)/C=C/c1ccccc1)c1ccc(-c2c3nc(c(-c4ccccc4)c4ccc([nH]4)c(-c4ccccc4)c4nc(c(-c5ccccc5)c5ccc2[nH]5)C=C4)C=C3)cc1
REMARK SMILES IDX 5 1 4 2 3 3 1 4 2 5 26 7 27 8 73 9 28 10 72 11 29 12 30 13
REMARK SMILES IDX 31 14 66 15 32 16 71 17 65 18 67 19 33 20 70 21 64 22 63 23
REMARK SMILES IDX 34 25 56 26 41 27 55 28 42 29 45 30 54 31 68 32 43 33 44 34
REMARK SMILES IDX 53 36 69 37 46 38 35 39 36 40 40 41 37 42 39 43 38 44 57 45
REMARK SMILES IDX 58 46 62 47 59 48 61 49 60 50 47 51 48 52 52 53 49 54 51 55
REMARK SMILES IDX 50 56 6 57 7 58 8 59 9 61 10 62 11 63 15 64 12 65 13 66
REMARK SMILES IDX 14 67 16 68 17 69 18 70 19 71 20 72 21 73 25 74 22 75 24 76
REMARK SMILES IDX 23 77
REMARK H PARENT 3 6 67 24 45 35 7 60
REMARK Flexibility Score: inf
ROOT
ATOM      1  C   UNL A   1      32.131  27.886  27.631  1.00  0.00     0.042 C 
ENDROOT
BRANCH   1   2
ATOM      2  C   UNL A   1      33.451  28.526  27.214  1.00  0.00     0.118 C 
BRANCH   2   3
ATOM      3  N   UNL A   1      33.433  29.977  27.337  1.00  0.00    -0.352 N 
ATOM      4  O   UNL A   1      34.061  32.009  28.070  1.00  0.00    -0.269 OA
ATOM      5  C   UNL A   1      34.351  30.829  27.898  1.00  0.00     0.251 C 
ATOM      6  H   UNL A   1      32.636  30.415  26.958  1.00  0.00     0.163 HD
BRANCH   5   7
ATOM      7  C   UNL A   1      35.681  30.331  28.311  1.00  0.00     0.039 A 
ATOM      8  C   UNL A   1      35.862  29.707  29.546  1.00  0.00     0.014 A 
ATOM      9  C   UNL A   1      36.755  30.454  27.423  1.00  0.00     0.014 A 
ATOM     10  C   UNL A   1      37.138  29.330  29.950  1.00  0.00     0.010 A 
ATOM     11  C   UNL A   1      38.022  30.000  27.798  1.00  0.00     0.010 A 
ATOM     12  C   UNL A   1      38.229  29.459  29.075  1.00  0.00    -0.014 A 
BRANCH  12  13
ATOM     13  C   UNL A   1      39.564  28.967  29.498  1.00  0.00     0.031 A 
ATOM     14  C   UNL A   1      40.405  29.741  30.473  1.00  0.00     0.074 A 
ATOM     15  C   UNL A   1      40.003  27.790  29.011  1.00  0.00     0.049 A 
ATOM     16  N   UNL A   1      41.578  29.435  30.967  1.00  0.00    -0.248 NA
ATOM     17  C   UNL A   1      39.868  31.024  30.950  1.00  0.00     0.031 C 
ATOM     18  C   UNL A   1      39.278  26.950  28.054  1.00  0.00     0.029 A 
ATOM     19  N   UNL A   1      41.150  27.087  29.270  1.00  0.00    -0.354 N 
ATOM     20  C   UNL A   1      41.929  30.493  31.797  1.00  0.00     0.074 A 
ATOM     21  C   UNL A   1      40.853  31.459  31.724  1.00  0.00     0.031 C 
ATOM     22  C   UNL A   1      39.975  25.823  27.844  1.00  0.00     0.029 A 
ATOM     23  C   UNL A   1      41.217  25.887  28.606  1.00  0.00     0.049 A 
ATOM     24  H   UNL A   1      41.858  27.410  29.874  1.00  0.00     0.167 HD
ATOM     25  C   UNL A   1      43.043  30.642  32.554  1.00  0.00     0.031 A 
ATOM     26  C   UNL A   1      42.175  24.943  28.598  1.00  0.00     0.031 A 
ATOM     27  C   UNL A   1      44.111  29.679  32.629  1.00  0.00     0.049 A 
ATOM     28  C   UNL A   1      43.408  25.147  29.427  1.00  0.00     0.074 A 
ATOM     29  C   UNL A   1      45.264  29.730  33.392  1.00  0.00     0.029 A 
ATOM     30  N   UNL A   1      44.157  28.495  31.911  1.00  0.00    -0.354 N 
ATOM     31  N   UNL A   1      43.706  26.138  30.230  1.00  0.00    -0.248 NA
ATOM     32  C   UNL A   1      44.436  24.100  29.346  1.00  0.00     0.031 C 
ATOM     33  C   UNL A   1      46.030  28.594  33.104  1.00  0.00     0.029 A 
ATOM     34  C   UNL A   1      45.330  27.817  32.196  1.00  0.00     0.049 A 
ATOM     35  H   UNL A   1      43.460  28.182  31.290  1.00  0.00     0.167 HD
ATOM     36  C   UNL A   1      44.952  25.833  30.758  1.00  0.00     0.074 A 
ATOM     37  C   UNL A   1      45.342  24.552  30.202  1.00  0.00     0.031 C 
ATOM     38  C   UNL A   1      45.707  26.550  31.624  1.00  0.00     0.031 A 
BRANCH  25  39
ATOM     39  C   UNL A   1      43.176  31.911  33.347  1.00  0.00    -0.014 A 
ATOM     40  C   UNL A   1      43.714  33.075  32.776  1.00  0.00     0.009 A 
ATOM     41  C   UNL A   1      42.713  31.955  34.671  1.00  0.00     0.009 A 
ATOM     42  C   UNL A   1      43.810  34.250  33.525  1.00  0.00     0.001 A 
ATOM     43  C   UNL A   1      42.790  33.137  35.410  1.00  0.00     0.001 A 
ATOM     44  C   UNL A   1      43.345  34.281  34.839  1.00  0.00     0.000 A 
ENDBRANCH  25  39
BRANCH  26  45
ATOM     45  C   UNL A   1      42.002  23.726  27.768  1.00  0.00    -0.014 A 
ATOM     46  C   UNL A   1      41.350  22.597  28.284  1.00  0.00     0.009 A 
ATOM     47  C   UNL A   1      42.469  23.697  26.445  1.00  0.00     0.009 A 
ATOM     48  C   UNL A   1      41.183  21.456  27.496  1.00  0.00     0.001 A 
ATOM     49  C   UNL A   1      42.278  22.566  25.651  1.00  0.00     0.001 A 
ATOM     50  C   UNL A   1      41.641  21.445  26.179  1.00  0.00     0.000 A 
ENDBRANCH  26  45
BRANCH  38  51
ATOM     51  C   UNL A   1      47.022  25.953  32.033  1.00  0.00    -0.014 A 
ATOM     52  C   UNL A   1      48.176  26.148  31.259  1.00  0.00     0.009 A 
ATOM     53  C   UNL A   1      47.110  25.205  33.217  1.00  0.00     0.009 A 
ATOM     54  C   UNL A   1      49.389  25.577  31.648  1.00  0.00     0.001 A 
ATOM     55  C   UNL A   1      48.329  24.656  33.615  1.00  0.00     0.001 A 
ATOM     56  C   UNL A   1      49.465  24.835  32.827  1.00  0.00     0.000 A 
ENDBRANCH  38  51
ENDBRANCH  12  13
ENDBRANCH   5   7
ENDBRANCH   2   3
ENDBRANCH   1   2
BRANCH   1  57
ATOM     57  C   UNL A   1      31.746  26.678  26.788  1.00  0.00     0.117 C 
BRANCH  57  58
ATOM     58  N   UNL A   1      30.859  27.052  25.701  1.00  0.00    -0.354 N 
ATOM     59  C   UNL A   1      31.131  27.279  24.386  1.00  0.00     0.243 C 
ATOM     60  H   UNL A   1      29.914  27.159  25.955  1.00  0.00     0.163 HD
ATOM     61  O   UNL A   1      30.195  27.609  23.653  1.00  0.00    -0.273 OA
BRANCH  59  62
ATOM     62  C   UNL A   1      32.572  27.173  23.863  1.00  0.00     0.183 C 
ATOM     63  C   UNL A   1      32.896  28.424  23.061  1.00  0.00     0.046 C 
ATOM     64  N   UNL A   1      32.643  26.078  22.915  1.00  0.00    -0.266 N 
ATOM     65  C   UNL A   1      33.688  27.909  21.879  1.00  0.00     0.103 C 
ATOM     66  C   UNL A   1      33.167  26.509  21.687  1.00  0.00     0.230 C 
ATOM     67  O   UNL A   1      33.278  25.891  20.640  1.00  0.00    -0.274 OA
BRANCH  64  68
ATOM     68  C   UNL A   1      32.421  24.792  23.392  1.00  0.00     0.253 C 
ATOM     69  O   UNL A   1      31.384  24.170  23.162  1.00  0.00    -0.269 OA
BRANCH  68  70
ATOM     70  C   UNL A   1      33.483  24.133  24.178  1.00  0.00     0.072 C 
ATOM     71  C   UNL A   1      34.743  24.076  23.724  1.00  0.00     0.014 C 
BRANCH  71  72
ATOM     72  C   UNL A   1      35.882  23.465  24.428  1.00  0.00    -0.025 A 
ATOM     73  C   UNL A   1      36.319  22.199  24.006  1.00  0.00     0.008 A 
ATOM     74  C   UNL A   1      36.558  24.078  25.493  1.00  0.00     0.008 A 
ATOM     75  C   UNL A   1      37.394  21.563  24.633  1.00  0.00     0.001 A 
ATOM     76  C   UNL A   1      37.631  23.440  26.123  1.00  0.00     0.001 A 
ATOM     77  C   UNL A   1      38.048  22.183  25.692  1.00  0.00     0.000 A 
ENDBRANCH  71  72
ENDBRANCH  68  70
ENDBRANCH  64  68
ENDBRANCH  59  62
ENDBRANCH  57  58
ENDBRANCH   1  57
TORSDOF 13
ENDMDL
MODEL 2
REMARK VINA RESULT:     -10.7      2.785      7.577
REMARK SMILES O=C(NCCCNC(=O)[C@@H]1CCC(=O)N1C(=O)/C=C/c1ccccc1)c1ccc(-c2c3nc(c(-c4ccccc4)c4ccc([nH]4)c(-c4ccccc4)c4nc(c(-c5ccccc5)c5ccc2[nH]5)C=C4)C=C3)cc1
REMARK SMILES IDX 5 1 4 2 3 3 1 4 2 5 26 7 27 8 73 9 28 10 72 11 29 12 30 13
REMARK SMILES IDX 31 14 66 15 32 16 71 17 65 18 67 19 33 20 70 21 64 22 63 23
REMARK SMILES IDX 34 25 56 26 41 27 55 28 42 29 45 30 54 31 68 32 43 33 44 34
REMARK SMILES IDX 53 36 69 37 46 38 35 39 36 40 40 41 37 42 39 43 38 44 57 45
REMARK SMILES IDX 58 46 62 47 59 48 61 49 60 50 47 51 48 52 52 53 49 54 51 55
REMARK SMILES IDX 50 56 6 57 7 58 8 59 9 61 10 62 11 63 15 64 12 65 13 66
REMARK SMILES IDX 14 67 16 68 17 69 18 70 19 71 20 72 21 73 25 74 22 75 24 76
REMARK SMILES IDX 23 77
REMARK H PARENT 3 6 67 24 45 35 7 60
REMARK Flexibility Score: inf
ROOT
ATOM      1  C   UNL A   1      36.654  23.337  23.547  1.00  0.00     0.042 C 
ENDROOT
BRANCH   1   2
ATOM      2  C   UNL A   1      37.039  23.598  24.999  1.00  0.00     0.118 C 
BRANCH   2   3
ATOM      3  N   UNL A   1      37.913  22.566  25.540  1.00  0.00    -0.352 N 
ATOM      4  O   UNL A   1      39.756  21.691  26.489  1.00  0.00    -0.269 OA
ATOM      5  C   UNL A   1      39.056  22.680  26.290  1.00  0.00     0.251 C 
ATOM      6  H   UNL A   1      37.641  21.642  25.335  1.00  0.00     0.163 HD
BRANCH   5   7
ATOM      7  C   UNL A   1      39.461  23.989  26.846  1.00  0.00     0.039 A 
ATOM      8  C   UNL A   1      39.215  24.308  28.182  1.00  0.00     0.014 A 
ATOM      9  C   UNL A   1      40.140  24.893  26.023  1.00  0.00     0.014 A 
ATOM     10  C   UNL A   1      39.524  25.579  28.658  1.00  0.00     0.010 A 
ATOM     11  C   UNL A   1      40.523  26.140  26.525  1.00  0.00     0.010 A 
ATOM     12  C   UNL A   1      40.193  26.502  27.839  1.00  0.00    -0.014 A 
BRANCH  12  13
ATOM     13  C   UNL A   1      40.589  27.818  28.399  1.00  0.00     0.031 A 
ATOM     14  C   UNL A   1      39.578  28.908  28.617  1.00  0.00     0.074 A 
ATOM     15  C   UNL A   1      41.877  28.015  28.739  1.00  0.00     0.049 A 
ATOM     16  N   UNL A   1      39.754  30.101  29.125  1.00  0.00    -0.248 NA
ATOM     17  C   UNL A   1      38.192  28.627  28.209  1.00  0.00     0.031 C 
ATOM     18  C   UNL A   1      42.954  27.035  28.569  1.00  0.00     0.029 A 
ATOM     19  N   UNL A   1      42.496  29.092  29.316  1.00  0.00    -0.354 N 
ATOM     20  C   UNL A   1      38.511  30.721  29.079  1.00  0.00     0.074 A 
ATOM     21  C   UNL A   1      37.592  29.779  28.476  1.00  0.00     0.031 C 
ATOM     22  C   UNL A   1      44.089  27.538  29.077  1.00  0.00     0.029 A 
ATOM     23  C   UNL A   1      43.834  28.892  29.554  1.00  0.00     0.049 A 
ATOM     24  H   UNL A   1      42.028  29.930  29.538  1.00  0.00     0.167 HD
ATOM     25  C   UNL A   1      38.167  31.960  29.506  1.00  0.00     0.031 A 
ATOM     26  C   UNL A   1      44.760  29.708  30.088  1.00  0.00     0.031 A 
ATOM     27  C   UNL A   1      39.080  32.896  30.109  1.00  0.00     0.049 A 
ATOM     28  C   UNL A   1      44.355  31.083  30.529  1.00  0.00     0.074 A 
ATOM     29  C   UNL A   1      38.816  34.163  30.601  1.00  0.00     0.029 A 
ATOM     30  N   UNL A   1      40.434  32.668  30.297  1.00  0.00    -0.354 N 
ATOM     31  N   UNL A   1      43.169  31.638  30.508  1.00  0.00    -0.248 NA
ATOM     32  C   UNL A   1      45.419  31.942  31.066  1.00  0.00     0.031 C 
ATOM     33  C   UNL A   1      40.020  34.718  31.050  1.00  0.00     0.029 A 
ATOM     34  C   UNL A   1      41.023  33.778  30.877  1.00  0.00     0.049 A 
ATOM     35  H   UNL A   1      40.907  31.839  30.054  1.00  0.00     0.167 HD
ATOM     36  C   UNL A   1      43.340  32.910  31.037  1.00  0.00     0.074 A 
ATOM     37  C   UNL A   1      44.740  33.033  31.391  1.00  0.00     0.031 C 
ATOM     38  C   UNL A   1      42.419  33.888  31.212  1.00  0.00     0.031 A 
BRANCH  25  39
ATOM     39  C   UNL A   1      36.740  32.387  29.312  1.00  0.00    -0.014 A 
ATOM     40  C   UNL A   1      35.756  32.096  30.270  1.00  0.00     0.009 A 
ATOM     41  C   UNL A   1      36.384  33.133  28.177  1.00  0.00     0.009 A 
ATOM     42  C   UNL A   1      34.438  32.520  30.080  1.00  0.00     0.001 A 
ATOM     43  C   UNL A   1      35.072  33.574  28.001  1.00  0.00     0.001 A 
ATOM     44  C   UNL A   1      34.098  33.261  28.949  1.00  0.00     0.000 A 
ENDBRANCH  25  39
BRANCH  26  45
ATOM     45  C   UNL A   1      46.162  29.241  30.222  1.00  0.00    -0.014 A 
ATOM     46  C   UNL A   1      46.588  28.590  31.389  1.00  0.00     0.009 A 
ATOM     47  C   UNL A   1      47.075  29.427  29.173  1.00  0.00     0.009 A 
ATOM     48  C   UNL A   1      47.907  28.146  31.507  1.00  0.00     0.001 A 
ATOM     49  C   UNL A   1      48.385  28.959  29.284  1.00  0.00     0.001 A 
ATOM     50  C   UNL A   1      48.801  28.326  30.453  1.00  0.00     0.000 A 
ENDBRANCH  26  45
BRANCH  38  51
ATOM     51  C   UNL A   1      42.900  35.169  31.828  1.00  0.00    -0.014 A 
ATOM     52  C   UNL A   1      43.491  36.172  31.043  1.00  0.00     0.009 A 
ATOM     53  C   UNL A   1      42.741  35.383  33.206  1.00  0.00     0.009 A 
ATOM     54  C   UNL A   1      43.942  37.353  31.634  1.00  0.00     0.001 A 
ATOM     55  C   UNL A   1      43.172  36.575  33.788  1.00  0.00     0.001 A 
ATOM     56  C   UNL A   1      43.779  37.555  33.005  1.00  0.00     0.000 A 
ENDBRANCH  38  51
ENDBRANCH  12  13
ENDBRANCH   5   7
ENDBRANCH   2   3
ENDBRANCH   1   2
BRANCH   1  57
ATOM     57  C   UNL A   1      35.192  23.632  23.241  1.00  0.00     0.117 C 
BRANCH  57  58
ATOM     58  N   UNL A   1      34.373  22.440  23.365  1.00  0.00    -0.354 N 
ATOM     59  C   UNL A   1      33.645  21.983  24.421  1.00  0.00     0.243 C 
ATOM     60  H   UNL A   1      34.340  21.873  22.561  1.00  0.00     0.163 HD
ATOM     61  O   UNL A   1      33.040  20.916  24.285  1.00  0.00    -0.273 OA
BRANCH  59  62
ATOM     62  C   UNL A   1      33.632  22.758  25.747  1.00  0.00     0.183 C 
ATOM     63  C   UNL A   1      33.816  21.775  26.894  1.00  0.00     0.046 C 
ATOM     64  N   UNL A   1      32.313  23.331  25.939  1.00  0.00    -0.266 N 
ATOM     65  C   UNL A   1      32.866  22.271  27.961  1.00  0.00     0.103 C 
ATOM     66  C   UNL A   1      31.774  22.948  27.176  1.00  0.00     0.230 C 
ATOM     67  O   UNL A   1      30.658  23.158  27.626  1.00  0.00    -0.274 OA
BRANCH  64  68
ATOM     68  C   UNL A   1      31.891  24.302  25.040  1.00  0.00     0.253 C 
ATOM     69  O   UNL A   1      31.562  24.038  23.883  1.00  0.00    -0.269 OA
BRANCH  68  70
ATOM     70  C   UNL A   1      31.804  25.703  25.498  1.00  0.00     0.072 C 
ATOM     71  C   UNL A   1      32.911  26.408  25.775  1.00  0.00     0.014 C 
BRANCH  71  72
ATOM     72  C   UNL A   1      32.946  27.812  26.219  1.00  0.00    -0.025 A 
ATOM     73  C   UNL A   1      31.810  28.605  25.995  1.00  0.00     0.008 A 
ATOM     74  C   UNL A   1      34.049  28.398  26.855  1.00  0.00     0.008 A 
ATOM     75  C   UNL A   1      31.778  29.944  26.391  1.00  0.00     0.001 A 
ATOM     76  C   UNL A   1      34.019  29.740  27.248  1.00  0.00     0.001 A 
ATOM     77  C   UNL A   1      32.884  30.512  27.015  1.00  0.00     0.000 A 
ENDBRANCH  71  72
ENDBRANCH  68  70
ENDBRANCH  64  68
ENDBRANCH  59  62
ENDBRANCH  57  58
ENDBRANCH   1  57
TORSDOF 13
ENDMDL
MODEL 3
REMARK VINA RESULT:     -10.7      1.402      3.528
REMARK SMILES O=C(NCCCNC(=O)[C@@H]1CCC(=O)N1C(=O)/C=C/c1ccccc1)c1ccc(-c2c3nc(c(-c4ccccc4)c4ccc([nH]4)c(-c4ccccc4)c4nc(c(-c5ccccc5)c5ccc2[nH]5)C=C4)C=C3)cc1
REMARK SMILES IDX 5 1 4 2 3 3 1 4 2 5 26 7 27 8 73 9 28 10 72 11 29 12 30 13
REMARK SMILES IDX 31 14 66 15 32 16 71 17 65 18 67 19 33 20 70 21 64 22 63 23
REMARK SMILES IDX 34 25 56 26 41 27 55 28 42 29 45 30 54 31 68 32 43 33 44 34
REMARK SMILES IDX 53 36 69 37 46 38 35 39 36 40 40 41 37 42 39 43 38 44 57 45
REMARK SMILES IDX 58 46 62 47 59 48 61 49 60 50 47 51 48 52 52 53 49 54 51 55
REMARK SMILES IDX 50 56 6 57 7 58 8 59 9 61 10 62 11 63 15 64 12 65 13 66
REMARK SMILES IDX 14 67 16 68 17 69 18 70 19 71 20 72 21 73 25 74 22 75 24 76
REMARK SMILES IDX 23 77
REMARK H PARENT 3 6 67 24 45 35 7 60
REMARK Flexibility Score: inf
ROOT
ATOM      1  C   UNL A   1      32.285  27.860  26.269  1.00  0.00     0.042 C 
ENDROOT
BRANCH   1   2
ATOM      2  C   UNL A   1      33.508  28.412  26.994  1.00  0.00     0.118 C 
BRANCH   2   3
ATOM      3  N   UNL A   1      33.432  29.852  27.200  1.00  0.00    -0.352 N 
ATOM      4  O   UNL A   1      33.976  31.860  28.057  1.00  0.00    -0.269 OA
ATOM      5  C   UNL A   1      34.312  30.703  27.820  1.00  0.00     0.251 C 
ATOM      6  H   UNL A   1      32.623  30.281  26.838  1.00  0.00     0.163 HD
BRANCH   5   7
ATOM      7  C   UNL A   1      35.656  30.233  28.220  1.00  0.00     0.039 A 
ATOM      8  C   UNL A   1      35.871  29.657  29.473  1.00  0.00     0.014 A 
ATOM      9  C   UNL A   1      36.708  30.332  27.303  1.00  0.00     0.014 A 
ATOM     10  C   UNL A   1      37.160  29.305  29.860  1.00  0.00     0.010 A 
ATOM     11  C   UNL A   1      37.988  29.903  27.664  1.00  0.00     0.010 A 
ATOM     12  C   UNL A   1      38.229  29.412  28.956  1.00  0.00    -0.014 A 
BRANCH  12  13
ATOM     13  C   UNL A   1      39.578  28.947  29.365  1.00  0.00     0.031 A 
ATOM     14  C   UNL A   1      40.433  29.761  30.293  1.00  0.00     0.074 A 
ATOM     15  C   UNL A   1      40.018  27.759  28.908  1.00  0.00     0.049 A 
ATOM     16  N   UNL A   1      41.619  29.483  30.772  1.00  0.00    -0.248 NA
ATOM     17  C   UNL A   1      39.893  31.055  30.739  1.00  0.00     0.031 C 
ATOM     18  C   UNL A   1      39.281  26.879  27.996  1.00  0.00     0.029 A 
ATOM     19  N   UNL A   1      41.177  27.076  29.165  1.00  0.00    -0.354 N 
ATOM     20  C   UNL A   1      41.977  30.573  31.557  1.00  0.00     0.074 A 
ATOM     21  C   UNL A   1      40.891  31.525  31.476  1.00  0.00     0.031 C 
ATOM     22  C   UNL A   1      39.984  25.753  27.809  1.00  0.00     0.029 A 
ATOM     23  C   UNL A   1      41.242  25.854  28.540  1.00  0.00     0.049 A 
ATOM     24  H   UNL A   1      41.896  27.426  29.741  1.00  0.00     0.167 HD
ATOM     25  C   UNL A   1      43.106  30.758  32.283  1.00  0.00     0.031 A 
ATOM     26  C   UNL A   1      42.209  24.920  28.543  1.00  0.00     0.031 A 
ATOM     27  C   UNL A   1      44.185  29.808  32.367  1.00  0.00     0.049 A 
ATOM     28  C   UNL A   1      43.458  25.163  29.336  1.00  0.00     0.074 A 
ATOM     29  C   UNL A   1      45.355  29.896  33.102  1.00  0.00     0.029 A 
ATOM     30  N   UNL A   1      44.228  28.601  31.688  1.00  0.00    -0.354 N 
ATOM     31  N   UNL A   1      43.764  26.184  30.098  1.00  0.00    -0.248 NA
ATOM     32  C   UNL A   1      44.495  24.124  29.268  1.00  0.00     0.031 C 
ATOM     33  C   UNL A   1      46.126  28.758  32.835  1.00  0.00     0.029 A 
ATOM     34  C   UNL A   1      45.414  27.944  31.969  1.00  0.00     0.049 A 
ATOM     35  H   UNL A   1      43.521  28.261  31.094  1.00  0.00     0.167 HD
ATOM     36  C   UNL A   1      45.025  25.908  30.609  1.00  0.00     0.074 A 
ATOM     37  C   UNL A   1      45.415  24.614  30.087  1.00  0.00     0.031 C 
ATOM     38  C   UNL A   1      45.791  26.662  31.433  1.00  0.00     0.031 A 
BRANCH  25  39
ATOM     39  C   UNL A   1      43.244  32.054  33.030  1.00  0.00    -0.014 A 
ATOM     40  C   UNL A   1      43.821  33.184  32.429  1.00  0.00     0.009 A 
ATOM     41  C   UNL A   1      42.746  32.160  34.338  1.00  0.00     0.009 A 
ATOM     42  C   UNL A   1      43.922  34.385  33.134  1.00  0.00     0.001 A 
ATOM     43  C   UNL A   1      42.827  33.369  35.032  1.00  0.00     0.001 A 
ATOM     44  C   UNL A   1      43.422  34.478  34.432  1.00  0.00     0.000 A 
ENDBRANCH  25  39
BRANCH  26  45
ATOM     45  C   UNL A   1      42.030  23.673  27.758  1.00  0.00    -0.014 A 
ATOM     46  C   UNL A   1      41.422  22.549  28.335  1.00  0.00     0.009 A 
ATOM     47  C   UNL A   1      42.448  23.611  26.420  1.00  0.00     0.009 A 
ATOM     48  C   UNL A   1      41.249  21.381  27.589  1.00  0.00     0.001 A 
ATOM     49  C   UNL A   1      42.251  22.451  25.670  1.00  0.00     0.001 A 
ATOM     50  C   UNL A   1      41.658  21.335  26.257  1.00  0.00     0.000 A 
ENDBRANCH  26  45
BRANCH  38  51
ATOM     51  C   UNL A   1      47.120  26.092  31.832  1.00  0.00    -0.014 A 
ATOM     52  C   UNL A   1      48.255  26.267  31.024  1.00  0.00     0.009 A 
ATOM     53  C   UNL A   1      47.243  25.389  33.040  1.00  0.00     0.009 A 
ATOM     54  C   UNL A   1      49.481  25.722  31.405  1.00  0.00     0.001 A 
ATOM     55  C   UNL A   1      48.477  24.865  33.429  1.00  0.00     0.001 A 
ATOM     56  C   UNL A   1      49.592  25.025  32.608  1.00  0.00     0.000 A 
ENDBRANCH  38  51
ENDBRANCH  12  13
ENDBRANCH   5   7
ENDBRANCH   2   3
ENDBRANCH   1   2
BRANCH   1  57
ATOM     57  C   UNL A   1      32.278  26.341  26.153  1.00  0.00     0.117 C 
BRANCH  57  58
ATOM     58  N   UNL A   1      33.582  25.835  25.764  1.00  0.00    -0.354 N 
ATOM     59  C   UNL A   1      33.920  24.932  24.803  1.00  0.00     0.243 C 
ATOM     60  H   UNL A   1      34.339  26.202  26.276  1.00  0.00     0.163 HD
ATOM     61  O   UNL A   1      35.114  24.646  24.676  1.00  0.00    -0.273 OA
BRANCH  59  62
ATOM     62  C   UNL A   1      32.832  24.262  23.951  1.00  0.00     0.183 C 
ATOM     63  C   UNL A   1      32.971  22.751  24.073  1.00  0.00     0.046 C 
ATOM     64  N   UNL A   1      33.086  24.560  22.554  1.00  0.00    -0.266 N 
ATOM     65  C   UNL A   1      32.716  22.243  22.672  1.00  0.00     0.103 C 
ATOM     66  C   UNL A   1      33.163  23.383  21.795  1.00  0.00     0.230 C 
ATOM     67  O   UNL A   1      33.458  23.247  20.618  1.00  0.00    -0.274 OA
BRANCH  64  68
ATOM     68  C   UNL A   1      32.988  25.885  22.146  1.00  0.00     0.253 C 
ATOM     69  O   UNL A   1      33.967  26.545  21.797  1.00  0.00    -0.269 OA
BRANCH  68  70
ATOM     70  C   UNL A   1      31.655  26.517  22.099  1.00  0.00     0.072 C 
ATOM     71  C   UNL A   1      31.465  27.762  22.560  1.00  0.00     0.014 C 
BRANCH  71  72
ATOM     72  C   UNL A   1      30.189  28.496  22.547  1.00  0.00    -0.025 A 
ATOM     73  C   UNL A   1      29.074  27.897  23.153  1.00  0.00     0.008 A 
ATOM     74  C   UNL A   1      30.028  29.762  21.967  1.00  0.00     0.008 A 
ATOM     75  C   UNL A   1      27.834  28.540  23.174  1.00  0.00     0.001 A 
ATOM     76  C   UNL A   1      28.785  30.405  21.985  1.00  0.00     0.001 A 
ATOM     77  C   UNL A   1      27.690  29.794  22.588  1.00  0.00     0.000 A 
ENDBRANCH  71  72
ENDBRANCH  68  70
ENDBRANCH  64  68
ENDBRANCH  59  62
ENDBRANCH  57  58
ENDBRANCH   1  57
TORSDOF 13
ENDMDL
