MODEL 1
REMARK VINA RESULT:     -13.1      0.000      0.000
REMARK SMILES Cc1cc(C(=O)NCCCNC(=O)c2ccc(-c3c4nc(c(-c5ccccc5)c5ccc([nH]5)c(-c5ccccc5)c5nc(c(-c6ccccc6)c6ccc3[nH]6)C=C5)C=C4)cc2)ccc1NS(=O)(=O)c1ccc2c(c1)CCC2
REMARK SMILES IDX 8 1 7 2 5 3 6 4 4 6 1 7 2 8 3 9 64 10 63 11 62 12 65 13
REMARK SMILES IDX 66 15 67 16 68 17 69 18 70 19 74 20 71 21 73 22 72 23 75 24
REMARK SMILES IDX 77 25 76 26 9 27 10 28 11 29 12 30 13 32 14 33 15 34 61 35
REMARK SMILES IDX 16 36 60 37 17 38 18 39 19 40 54 41 20 42 59 43 53 44 55 45
REMARK SMILES IDX 21 46 58 47 52 48 51 49 22 51 44 52 29 53 43 54 30 55 33 56
REMARK SMILES IDX 42 57 56 58 31 59 32 60 41 62 57 63 34 64 23 65 24 66 28 67
REMARK SMILES IDX 25 68 27 69 26 70 45 71 46 72 50 73 47 74 49 75 48 76 35 77
REMARK SMILES IDX 36 78 40 79 37 80 39 81 38 82
REMARK H PARENT 7 5 65 14 11 31 55 50 33 61
REMARK Flexibility Score: inf
ROOT
ATOM      1  C   UNL A   1      37.728  21.582  25.411  1.00  0.00     0.118 C 
ENDROOT
BRANCH   1   2
ATOM      2  N   UNL A   1      36.534  21.300  26.203  1.00  0.00    -0.352 N 
ATOM      3  C   UNL A   1      35.197  21.559  25.989  1.00  0.00     0.251 C 
ATOM      4  O   UNL A   1      34.399  21.348  26.901  1.00  0.00    -0.269 OA
ATOM      5  H   UNL A   1      36.719  20.836  27.051  1.00  0.00     0.163 HD
BRANCH   3   6
ATOM      6  C   UNL A   1      34.702  22.166  24.728  1.00  0.00     0.040 A 
ATOM      7  C   UNL A   1      31.939  21.428  22.234  1.00  0.00     0.046 C 
ATOM      8  C   UNL A   1      32.979  22.194  23.007  1.00  0.00    -0.026 A 
ATOM      9  C   UNL A   1      33.631  21.549  24.072  1.00  0.00     0.019 A 
ATOM     10  C   UNL A   1      33.354  23.508  22.688  1.00  0.00     0.052 A 
ATOM     11  C   UNL A   1      34.595  23.973  23.128  1.00  0.00     0.028 A 
ATOM     12  C   UNL A   1      35.272  23.297  24.148  1.00  0.00     0.016 A 
BRANCH  10  13
ATOM     13  N   UNL A   1      32.349  24.374  22.164  1.00  0.00    -0.279 N 
ATOM     14  H   UNL A   1      31.493  23.941  21.939  1.00  0.00     0.180 HD
BRANCH  13  15
ATOM     15  S   UNL A   1      32.419  26.015  21.878  1.00  0.00     0.261 S 
ATOM     16  O   UNL A   1      33.467  26.245  20.884  1.00  0.00    -0.201 OA
ATOM     17  O   UNL A   1      31.066  26.419  21.641  1.00  0.00    -0.201 OA
BRANCH  15  18
ATOM     18  C   UNL A   1      32.949  26.863  23.361  1.00  0.00     0.088 A 
ATOM     19  C   UNL A   1      33.829  27.952  23.337  1.00  0.00     0.022 A 
ATOM     20  C   UNL A   1      32.282  26.516  24.547  1.00  0.00     0.026 A 
ATOM     21  C   UNL A   1      33.863  28.838  24.417  1.00  0.00     0.005 A 
ATOM     22  C   UNL A   1      32.385  27.371  25.631  1.00  0.00    -0.043 A 
ATOM     23  C   UNL A   1      33.102  28.562  25.533  1.00  0.00    -0.045 A 
ATOM     24  C   UNL A   1      31.781  27.247  26.994  1.00  0.00     0.036 C 
ATOM     25  C   UNL A   1      32.905  29.419  26.745  1.00  0.00     0.036 C 
ATOM     26  C   UNL A   1      31.701  28.725  27.399  1.00  0.00     0.010 C 
ENDBRANCH  15  18
ENDBRANCH  13  15
ENDBRANCH  10  13
ENDBRANCH   3   6
ENDBRANCH   1   2
BRANCH   1  27
ATOM     27  C   UNL A   1      38.607  22.655  26.047  1.00  0.00     0.042 C 
BRANCH  27  28
ATOM     28  C   UNL A   1      39.836  22.094  26.746  1.00  0.00     0.118 C 
BRANCH  28  29
ATOM     29  N   UNL A   1      40.522  21.001  26.044  1.00  0.00    -0.352 N 
ATOM     30  C   UNL A   1      41.891  20.755  26.001  1.00  0.00     0.251 C 
ATOM     31  H   UNL A   1      39.949  20.371  25.550  1.00  0.00     0.163 HD
ATOM     32  O   UNL A   1      42.344  19.759  25.452  1.00  0.00    -0.269 OA
BRANCH  30  33
ATOM     33  C   UNL A   1      42.779  21.671  26.753  1.00  0.00     0.039 A 
ATOM     34  C   UNL A   1      42.761  21.577  28.146  1.00  0.00     0.014 A 
ATOM     35  C   UNL A   1      43.255  22.814  26.118  1.00  0.00     0.014 A 
ATOM     36  C   UNL A   1      42.910  22.739  28.894  1.00  0.00     0.010 A 
ATOM     37  C   UNL A   1      43.292  23.986  26.848  1.00  0.00     0.010 A 
ATOM     38  C   UNL A   1      43.028  23.957  28.221  1.00  0.00    -0.014 A 
BRANCH  38  39
ATOM     39  C   UNL A   1      42.754  25.234  28.870  1.00  0.00     0.031 A 
ATOM     40  C   UNL A   1      41.581  26.026  28.468  1.00  0.00     0.074 A 
ATOM     41  C   UNL A   1      43.579  25.742  29.815  1.00  0.00     0.049 A 
ATOM     42  N   UNL A   1      41.566  27.317  28.420  1.00  0.00    -0.248 NA
ATOM     43  C   UNL A   1      40.336  25.407  28.038  1.00  0.00     0.031 C 
ATOM     44  C   UNL A   1      43.344  26.928  30.637  1.00  0.00     0.029 A 
ATOM     45  N   UNL A   1      44.915  25.428  30.057  1.00  0.00    -0.354 N 
ATOM     46  C   UNL A   1      40.252  27.691  28.288  1.00  0.00     0.074 A 
ATOM     47  C   UNL A   1      39.546  26.477  27.939  1.00  0.00     0.031 C 
ATOM     48  C   UNL A   1      44.532  27.432  31.005  1.00  0.00     0.029 A 
ATOM     49  C   UNL A   1      45.562  26.640  30.360  1.00  0.00     0.049 A 
ATOM     50  H   UNL A   1      45.325  24.533  30.023  1.00  0.00     0.167 HD
ATOM     51  C   UNL A   1      39.858  28.944  28.651  1.00  0.00     0.031 A 
ATOM     52  C   UNL A   1      46.632  27.118  29.661  1.00  0.00     0.031 A 
ATOM     53  C   UNL A   1      40.970  29.775  29.119  1.00  0.00     0.049 A 
ATOM     54  C   UNL A   1      46.390  28.479  29.036  1.00  0.00     0.074 A 
ATOM     55  C   UNL A   1      41.378  30.217  30.369  1.00  0.00     0.029 A 
ATOM     56  N   UNL A   1      42.019  30.056  28.256  1.00  0.00    -0.354 N 
ATOM     57  N   UNL A   1      45.283  29.159  29.145  1.00  0.00    -0.248 NA
ATOM     58  C   UNL A   1      47.337  29.119  28.122  1.00  0.00     0.031 C 
ATOM     59  C   UNL A   1      42.677  30.783  30.243  1.00  0.00     0.029 A 
ATOM     60  C   UNL A   1      43.056  30.689  28.919  1.00  0.00     0.049 A 
ATOM     61  H   UNL A   1      42.024  29.836  27.297  1.00  0.00     0.167 HD
ATOM     62  C   UNL A   1      45.319  30.249  28.309  1.00  0.00     0.074 A 
ATOM     63  C   UNL A   1      46.630  30.177  27.691  1.00  0.00     0.031 C 
ATOM     64  C   UNL A   1      44.243  31.080  28.167  1.00  0.00     0.031 A 
BRANCH  51  65
ATOM     65  C   UNL A   1      38.404  29.294  28.861  1.00  0.00    -0.014 A 
ATOM     66  C   UNL A   1      37.661  29.866  27.814  1.00  0.00     0.009 A 
ATOM     67  C   UNL A   1      37.724  29.133  30.081  1.00  0.00     0.009 A 
ATOM     68  C   UNL A   1      36.366  30.365  28.009  1.00  0.00     0.001 A 
ATOM     69  C   UNL A   1      36.450  29.676  30.300  1.00  0.00     0.001 A 
ATOM     70  C   UNL A   1      35.776  30.307  29.265  1.00  0.00     0.000 A 
ENDBRANCH  51  65
BRANCH  52  71
ATOM     71  C   UNL A   1      47.474  26.045  29.070  1.00  0.00    -0.014 A 
ATOM     72  C   UNL A   1      47.213  25.675  27.734  1.00  0.00     0.009 A 
ATOM     73  C   UNL A   1      48.718  25.721  29.627  1.00  0.00     0.009 A 
ATOM     74  C   UNL A   1      48.222  25.134  26.934  1.00  0.00     0.001 A 
ATOM     75  C   UNL A   1      49.719  25.161  28.825  1.00  0.00     0.001 A 
ATOM     76  C   UNL A   1      49.486  24.914  27.471  1.00  0.00     0.000 A 
ENDBRANCH  52  71
BRANCH  64  77
ATOM     77  C   UNL A   1      44.154  32.319  27.296  1.00  0.00    -0.014 A 
ATOM     78  C   UNL A   1      44.260  32.330  25.899  1.00  0.00     0.009 A 
ATOM     79  C   UNL A   1      44.039  33.589  27.912  1.00  0.00     0.009 A 
ATOM     80  C   UNL A   1      44.167  33.521  25.161  1.00  0.00     0.001 A 
ATOM     81  C   UNL A   1      43.966  34.781  27.187  1.00  0.00     0.001 A 
ATOM     82  C   UNL A   1      44.012  34.745  25.804  1.00  0.00     0.000 A 
ENDBRANCH  64  77
ENDBRANCH  38  39
ENDBRANCH  30  33
ENDBRANCH  28  29
ENDBRANCH  27  28
ENDBRANCH   1  27
TORSDOF 13
ENDMDL
MODEL 2
REMARK VINA RESULT:     -13.0      3.209      8.378
REMARK SMILES Cc1cc(C(=O)NCCCNC(=O)c2ccc(-c3c4nc(c(-c5ccccc5)c5ccc([nH]5)c(-c5ccccc5)c5nc(c(-c6ccccc6)c6ccc3[nH]6)C=C5)C=C4)cc2)ccc1NS(=O)(=O)c1ccc2c(c1)CCC2
REMARK SMILES IDX 8 1 7 2 5 3 6 4 4 6 1 7 2 8 3 9 64 10 63 11 62 12 65 13
REMARK SMILES IDX 66 15 67 16 68 17 69 18 70 19 74 20 71 21 73 22 72 23 75 24
REMARK SMILES IDX 77 25 76 26 9 27 10 28 11 29 12 30 13 32 14 33 15 34 61 35
REMARK SMILES IDX 16 36 60 37 17 38 18 39 19 40 54 41 20 42 59 43 53 44 55 45
REMARK SMILES IDX 21 46 58 47 52 48 51 49 22 51 44 52 29 53 43 54 30 55 33 56
REMARK SMILES IDX 42 57 56 58 31 59 32 60 41 62 57 63 34 64 23 65 24 66 28 67
REMARK SMILES IDX 25 68 27 69 26 70 45 71 46 72 50 73 47 74 49 75 48 76 35 77
REMARK SMILES IDX 36 78 40 79 37 80 39 81 38 82
REMARK H PARENT 7 5 65 14 11 31 55 50 33 61
REMARK Flexibility Score: inf
ROOT
ATOM      1  C   UNL A   1      31.892  29.473  26.139  1.00  0.00     0.118 C 
ENDROOT
BRANCH   1   2
ATOM      2  N   UNL A   1      32.560  29.641  24.851  1.00  0.00    -0.352 N 
ATOM      3  C   UNL A   1      32.612  28.852  23.723  1.00  0.00     0.251 C 
ATOM      4  O   UNL A   1      33.383  29.161  22.817  1.00  0.00    -0.269 OA
ATOM      5  H   UNL A   1      33.070  30.480  24.774  1.00  0.00     0.163 HD
BRANCH   3   6
ATOM      6  C   UNL A   1      31.833  27.593  23.604  1.00  0.00     0.040 A 
ATOM      7  C   UNL A   1      32.547  24.021  22.542  1.00  0.00     0.046 C 
ATOM      8  C   UNL A   1      31.871  25.191  23.205  1.00  0.00    -0.026 A 
ATOM      9  C   UNL A   1      32.488  26.451  23.129  1.00  0.00     0.019 A 
ATOM     10  C   UNL A   1      30.636  25.087  23.862  1.00  0.00     0.052 A 
ATOM     11  C   UNL A   1      29.876  26.245  24.041  1.00  0.00     0.028 A 
ATOM     12  C   UNL A   1      30.477  27.502  23.907  1.00  0.00     0.016 A 
BRANCH  10  13
ATOM     13  N   UNL A   1      30.346  23.864  24.537  1.00  0.00    -0.279 N 
ATOM     14  H   UNL A   1      29.719  23.263  24.072  1.00  0.00     0.180 HD
BRANCH  13  15
ATOM     15  S   UNL A   1      30.918  23.309  26.002  1.00  0.00     0.261 S 
ATOM     16  O   UNL A   1      31.028  24.461  26.897  1.00  0.00    -0.201 OA
ATOM     17  O   UNL A   1      30.094  22.185  26.332  1.00  0.00    -0.201 OA
BRANCH  15  18
ATOM     18  C   UNL A   1      32.579  22.678  25.800  1.00  0.00     0.088 A 
ATOM     19  C   UNL A   1      32.850  21.432  25.220  1.00  0.00     0.022 A 
ATOM     20  C   UNL A   1      33.623  23.578  26.067  1.00  0.00     0.026 A 
ATOM     21  C   UNL A   1      34.116  21.179  24.686  1.00  0.00     0.005 A 
ATOM     22  C   UNL A   1      34.887  23.276  25.591  1.00  0.00    -0.043 A 
ATOM     23  C   UNL A   1      35.107  22.125  24.835  1.00  0.00    -0.045 A 
ATOM     24  C   UNL A   1      36.159  24.051  25.726  1.00  0.00     0.036 C 
ATOM     25  C   UNL A   1      36.487  22.110  24.254  1.00  0.00     0.036 C 
ATOM     26  C   UNL A   1      36.915  23.568  24.481  1.00  0.00     0.010 C 
ENDBRANCH  15  18
ENDBRANCH  13  15
ENDBRANCH  10  13
ENDBRANCH   3   6
ENDBRANCH   1   2
BRANCH   1  27
ATOM     27  C   UNL A   1      32.418  30.439  27.196  1.00  0.00     0.042 C 
BRANCH  27  28
ATOM     28  C   UNL A   1      33.935  30.450  27.304  1.00  0.00     0.118 C 
BRANCH  28  29
ATOM     29  N   UNL A   1      34.492  31.331  28.340  1.00  0.00    -0.352 N 
ATOM     30  C   UNL A   1      35.676  31.153  29.050  1.00  0.00     0.251 C 
ATOM     31  H   UNL A   1      33.970  32.136  28.556  1.00  0.00     0.163 HD
ATOM     32  O   UNL A   1      36.084  32.001  29.834  1.00  0.00    -0.269 OA
BRANCH  30  33
ATOM     33  C   UNL A   1      36.497  29.961  28.733  1.00  0.00     0.039 A 
ATOM     34  C   UNL A   1      36.807  29.101  29.788  1.00  0.00     0.014 A 
ATOM     35  C   UNL A   1      37.245  29.957  27.560  1.00  0.00     0.014 A 
ATOM     36  C   UNL A   1      38.050  28.478  29.795  1.00  0.00     0.010 A 
ATOM     37  C   UNL A   1      38.521  29.433  27.615  1.00  0.00     0.010 A 
ATOM     38  C   UNL A   1      38.952  28.773  28.771  1.00  0.00    -0.014 A 
BRANCH  38  39
ATOM     39  C   UNL A   1      40.385  28.537  28.905  1.00  0.00     0.031 A 
ATOM     40  C   UNL A   1      40.981  27.305  28.366  1.00  0.00     0.074 A 
ATOM     41  C   UNL A   1      41.190  29.410  29.555  1.00  0.00     0.049 A 
ATOM     42  N   UNL A   1      41.956  26.671  28.929  1.00  0.00    -0.248 NA
ATOM     43  C   UNL A   1      40.480  26.663  27.160  1.00  0.00     0.031 C 
ATOM     44  C   UNL A   1      42.649  29.363  29.634  1.00  0.00     0.029 A 
ATOM     45  N   UNL A   1      40.837  30.383  30.487  1.00  0.00    -0.354 N 
ATOM     46  C   UNL A   1      42.417  25.762  28.010  1.00  0.00     0.074 A 
ATOM     47  C   UNL A   1      41.402  25.715  26.980  1.00  0.00     0.031 C 
ATOM     48  C   UNL A   1      43.034  29.985  30.759  1.00  0.00     0.029 A 
ATOM     49  C   UNL A   1      41.834  30.368  31.479  1.00  0.00     0.049 A 
ATOM     50  H   UNL A   1      40.044  30.967  30.457  1.00  0.00     0.167 HD
ATOM     51  C   UNL A   1      43.683  25.267  28.114  1.00  0.00     0.031 A 
ATOM     52  C   UNL A   1      41.580  30.150  32.801  1.00  0.00     0.031 A 
ATOM     53  C   UNL A   1      44.396  25.775  29.288  1.00  0.00     0.049 A 
ATOM     54  C   UNL A   1      42.305  28.944  33.369  1.00  0.00     0.074 A 
ATOM     55  C   UNL A   1      45.413  26.702  29.467  1.00  0.00     0.029 A 
ATOM     56  N   UNL A   1      43.894  25.515  30.555  1.00  0.00    -0.354 N 
ATOM     57  N   UNL A   1      43.109  28.176  32.690  1.00  0.00    -0.248 NA
ATOM     58  C   UNL A   1      42.069  28.432  34.719  1.00  0.00     0.031 C 
ATOM     59  C   UNL A   1      45.527  26.981  30.857  1.00  0.00     0.029 A 
ATOM     60  C   UNL A   1      44.585  26.223  31.522  1.00  0.00     0.049 A 
ATOM     61  H   UNL A   1      43.144  24.905  30.741  1.00  0.00     0.167 HD
ATOM     62  C   UNL A   1      43.444  27.072  33.437  1.00  0.00     0.074 A 
ATOM     63  C   UNL A   1      42.765  27.282  34.702  1.00  0.00     0.031 C 
ATOM     64  C   UNL A   1      44.208  26.061  32.922  1.00  0.00     0.031 A 
BRANCH  51  65
ATOM     65  C   UNL A   1      44.359  24.556  26.966  1.00  0.00    -0.014 A 
ATOM     66  C   UNL A   1      44.505  23.158  26.994  1.00  0.00     0.009 A 
ATOM     67  C   UNL A   1      44.917  25.210  25.855  1.00  0.00     0.009 A 
ATOM     68  C   UNL A   1      45.273  22.473  26.043  1.00  0.00     0.001 A 
ATOM     69  C   UNL A   1      45.730  24.541  24.928  1.00  0.00     0.001 A 
ATOM     70  C   UNL A   1      45.920  23.171  25.032  1.00  0.00     0.000 A 
ENDBRANCH  51  65
BRANCH  52  71
ATOM     71  C   UNL A   1      40.230  30.611  33.224  1.00  0.00    -0.014 A 
ATOM     72  C   UNL A   1      39.986  32.000  33.215  1.00  0.00     0.009 A 
ATOM     73  C   UNL A   1      39.137  29.735  33.211  1.00  0.00     0.009 A 
ATOM     74  C   UNL A   1      38.691  32.495  33.045  1.00  0.00     0.001 A 
ATOM     75  C   UNL A   1      37.840  30.238  33.060  1.00  0.00     0.001 A 
ATOM     76  C   UNL A   1      37.623  31.611  32.928  1.00  0.00     0.000 A 
ENDBRANCH  52  71
BRANCH  64  77
ATOM     77  C   UNL A   1      44.661  24.803  33.638  1.00  0.00    -0.014 A 
ATOM     78  C   UNL A   1      45.995  24.441  33.863  1.00  0.00     0.009 A 
ATOM     79  C   UNL A   1      43.691  23.859  34.053  1.00  0.00     0.009 A 
ATOM     80  C   UNL A   1      46.335  23.257  34.536  1.00  0.00     0.001 A 
ATOM     81  C   UNL A   1      44.021  22.668  34.706  1.00  0.00     0.001 A 
ATOM     82  C   UNL A   1      45.348  22.375  34.965  1.00  0.00     0.000 A 
ENDBRANCH  64  77
ENDBRANCH  38  39
ENDBRANCH  30  33
ENDBRANCH  28  29
ENDBRANCH  27  28
ENDBRANCH   1  27
TORSDOF 13
ENDMDL
MODEL 3
REMARK VINA RESULT:     -12.9      1.796      2.195
REMARK SMILES Cc1cc(C(=O)NCCCNC(=O)c2ccc(-c3c4nc(c(-c5ccccc5)c5ccc([nH]5)c(-c5ccccc5)c5nc(c(-c6ccccc6)c6ccc3[nH]6)C=C5)C=C4)cc2)ccc1NS(=O)(=O)c1ccc2c(c1)CCC2
REMARK SMILES IDX 8 1 7 2 5 3 6 4 4 6 1 7 2 8 3 9 64 10 63 11 62 12 65 13
REMARK SMILES IDX 66 15 67 16 68 17 69 18 70 19 74 20 71 21 73 22 72 23 75 24
REMARK SMILES IDX 77 25 76 26 9 27 10 28 11 29 12 30 13 32 14 33 15 34 61 35
REMARK SMILES IDX 16 36 60 37 17 38 18 39 19 40 54 41 20 42 59 43 53 44 55 45
REMARK SMILES IDX 21 46 58 47 52 48 51 49 22 51 44 52 29 53 43 54 30 55 33 56
REMARK SMILES IDX 42 57 56 58 31 59 32 60 41 62 57 63 34 64 23 65 24 66 28 67
REMARK SMILES IDX 25 68 27 69 26 70 45 71 46 72 50 73 47 74 49 75 48 76 35 77
REMARK SMILES IDX 36 78 40 79 37 80 39 81 38 82
REMARK H PARENT 7 5 65 14 11 31 55 50 33 61
REMARK Flexibility Score: inf
ROOT
ATOM      1  C   UNL A   1      37.875  21.759  25.607  1.00  0.00     0.118 C 
ENDROOT
BRANCH   1   2
ATOM      2  N   UNL A   1      37.679  22.171  24.219  1.00  0.00    -0.352 N 
ATOM      3  C   UNL A   1      36.609  22.738  23.563  1.00  0.00     0.251 C 
ATOM      4  O   UNL A   1      36.653  22.847  22.338  1.00  0.00    -0.269 OA
ATOM      5  H   UNL A   1      38.462  22.014  23.643  1.00  0.00     0.163 HD
BRANCH   3   6
ATOM      6  C   UNL A   1      35.369  23.140  24.274  1.00  0.00     0.040 A 
ATOM      7  C   UNL A   1      34.021  26.320  25.845  1.00  0.00     0.046 C 
ATOM      8  C   UNL A   1      34.043  24.954  25.214  1.00  0.00    -0.026 A 
ATOM      9  C   UNL A   1      35.268  24.456  24.738  1.00  0.00     0.019 A 
ATOM     10  C   UNL A   1      32.905  24.140  25.114  1.00  0.00     0.052 A 
ATOM     11  C   UNL A   1      33.080  22.765  24.950  1.00  0.00     0.028 A 
ATOM     12  C   UNL A   1      34.318  22.264  24.532  1.00  0.00     0.016 A 
BRANCH  10  13
ATOM     13  N   UNL A   1      31.646  24.784  24.925  1.00  0.00    -0.279 N 
ATOM     14  H   UNL A   1      31.087  24.866  25.732  1.00  0.00     0.180 HD
BRANCH  13  15
ATOM     15  S   UNL A   1      30.988  25.416  23.529  1.00  0.00     0.261 S 
ATOM     16  O   UNL A   1      32.074  25.577  22.563  1.00  0.00    -0.201 OA
ATOM     17  O   UNL A   1      29.849  24.598  23.240  1.00  0.00    -0.201 OA
BRANCH  15  18
ATOM     18  C   UNL A   1      30.362  27.061  23.848  1.00  0.00     0.088 A 
ATOM     19  C   UNL A   1      31.166  28.092  24.352  1.00  0.00     0.022 A 
ATOM     20  C   UNL A   1      29.067  27.335  23.381  1.00  0.00     0.026 A 
ATOM     21  C   UNL A   1      30.779  29.422  24.168  1.00  0.00     0.005 A 
ATOM     22  C   UNL A   1      28.675  28.658  23.272  1.00  0.00    -0.043 A 
ATOM     23  C   UNL A   1      29.559  29.691  23.586  1.00  0.00    -0.045 A 
ATOM     24  C   UNL A   1      27.372  29.224  22.805  1.00  0.00     0.036 C 
ATOM     25  C   UNL A   1      28.999  31.024  23.198  1.00  0.00     0.036 C 
ATOM     26  C   UNL A   1      27.829  30.598  22.298  1.00  0.00     0.010 C 
ENDBRANCH  15  18
ENDBRANCH  13  15
ENDBRANCH  10  13
ENDBRANCH   3   6
ENDBRANCH   1   2
BRANCH   1  27
ATOM     27  C   UNL A   1      38.796  22.708  26.369  1.00  0.00     0.042 C 
BRANCH  27  28
ATOM     28  C   UNL A   1      39.990  22.011  27.004  1.00  0.00     0.118 C 
BRANCH  28  29
ATOM     29  N   UNL A   1      40.702  21.058  26.142  1.00  0.00    -0.352 N 
ATOM     30  C   UNL A   1      42.079  20.909  26.008  1.00  0.00     0.251 C 
ATOM     31  H   UNL A   1      40.143  20.458  25.598  1.00  0.00     0.163 HD
ATOM     32  O   UNL A   1      42.561  20.019  25.319  1.00  0.00    -0.269 OA
BRANCH  30  33
ATOM     33  C   UNL A   1      42.950  21.782  26.830  1.00  0.00     0.039 A 
ATOM     34  C   UNL A   1      42.851  21.657  28.216  1.00  0.00     0.014 A 
ATOM     35  C   UNL A   1      43.493  22.924  26.248  1.00  0.00     0.014 A 
ATOM     36  C   UNL A   1      42.991  22.799  28.999  1.00  0.00     0.010 A 
ATOM     37  C   UNL A   1      43.522  24.078  27.006  1.00  0.00     0.010 A 
ATOM     38  C   UNL A   1      43.181  24.027  28.362  1.00  0.00    -0.014 A 
BRANCH  38  39
ATOM     39  C   UNL A   1      42.907  25.297  29.025  1.00  0.00     0.031 A 
ATOM     40  C   UNL A   1      41.735  26.094  28.630  1.00  0.00     0.074 A 
ATOM     41  C   UNL A   1      43.732  25.794  29.976  1.00  0.00     0.049 A 
ATOM     42  N   UNL A   1      41.721  27.385  28.597  1.00  0.00    -0.248 NA
ATOM     43  C   UNL A   1      40.490  25.480  28.193  1.00  0.00     0.031 C 
ATOM     44  C   UNL A   1      43.498  26.972  30.810  1.00  0.00     0.029 A 
ATOM     45  N   UNL A   1      45.067  25.476  30.215  1.00  0.00    -0.354 N 
ATOM     46  C   UNL A   1      40.408  27.761  28.468  1.00  0.00     0.074 A 
ATOM     47  C   UNL A   1      39.700  26.552  28.106  1.00  0.00     0.031 C 
ATOM     48  C   UNL A   1      44.686  27.471  31.184  1.00  0.00     0.029 A 
ATOM     49  C   UNL A   1      45.715  26.685  30.531  1.00  0.00     0.049 A 
ATOM     50  H   UNL A   1      45.477  24.582  30.172  1.00  0.00     0.167 HD
ATOM     51  C   UNL A   1      40.014  29.011  28.845  1.00  0.00     0.031 A 
ATOM     52  C   UNL A   1      46.786  27.169  29.839  1.00  0.00     0.031 A 
ATOM     53  C   UNL A   1      41.126  29.836  29.321  1.00  0.00     0.049 A 
ATOM     54  C   UNL A   1      46.546  28.538  29.228  1.00  0.00     0.074 A 
ATOM     55  C   UNL A   1      41.534  30.264  30.576  1.00  0.00     0.029 A 
ATOM     56  N   UNL A   1      42.176  30.126  28.462  1.00  0.00    -0.354 N 
ATOM     57  N   UNL A   1      45.439  29.217  29.344  1.00  0.00    -0.248 NA
ATOM     58  C   UNL A   1      47.494  29.186  28.322  1.00  0.00     0.031 C 
ATOM     59  C   UNL A   1      42.833  30.830  30.458  1.00  0.00     0.029 A 
ATOM     60  C   UNL A   1      43.213  30.750  29.133  1.00  0.00     0.049 A 
ATOM     61  H   UNL A   1      42.182  29.916  27.501  1.00  0.00     0.167 HD
ATOM     62  C   UNL A   1      45.476  30.315  28.520  1.00  0.00     0.074 A 
ATOM     63  C   UNL A   1      46.787  30.250  27.901  1.00  0.00     0.031 C 
ATOM     64  C   UNL A   1      44.400  31.149  28.385  1.00  0.00     0.031 A 
BRANCH  51  65
ATOM     65  C   UNL A   1      38.560  29.360  29.057  1.00  0.00    -0.014 A 
ATOM     66  C   UNL A   1      37.814  29.929  28.011  1.00  0.00     0.009 A 
ATOM     67  C   UNL A   1      37.883  29.199  30.279  1.00  0.00     0.009 A 
ATOM     68  C   UNL A   1      36.519  30.427  28.209  1.00  0.00     0.001 A 
ATOM     69  C   UNL A   1      36.609  29.741  30.500  1.00  0.00     0.001 A 
ATOM     70  C   UNL A   1      35.932  30.370  29.465  1.00  0.00     0.000 A 
ENDBRANCH  51  65
BRANCH  52  71
ATOM     71  C   UNL A   1      47.628  26.102  29.236  1.00  0.00    -0.014 A 
ATOM     72  C   UNL A   1      47.256  25.622  27.963  1.00  0.00     0.009 A 
ATOM     73  C   UNL A   1      48.938  25.887  29.681  1.00  0.00     0.009 A 
ATOM     74  C   UNL A   1      48.211  25.078  27.100  1.00  0.00     0.001 A 
ATOM     75  C   UNL A   1      49.886  25.324  28.818  1.00  0.00     0.001 A 
ATOM     76  C   UNL A   1      49.534  24.966  27.516  1.00  0.00     0.000 A 
ENDBRANCH  52  71
BRANCH  64  77
ATOM     77  C   UNL A   1      44.313  32.397  27.528  1.00  0.00    -0.014 A 
ATOM     78  C   UNL A   1      44.166  33.701  28.018  1.00  0.00     0.009 A 
ATOM     79  C   UNL A   1      44.294  32.265  26.118  1.00  0.00     0.009 A 
ATOM     80  C   UNL A   1      44.093  34.809  27.157  1.00  0.00     0.001 A 
ATOM     81  C   UNL A   1      44.203  33.361  25.254  1.00  0.00     0.001 A 
ATOM     82  C   UNL A   1      44.120  34.639  25.777  1.00  0.00     0.000 A 
ENDBRANCH  64  77
ENDBRANCH  38  39
ENDBRANCH  30  33
ENDBRANCH  28  29
ENDBRANCH  27  28
ENDBRANCH   1  27
TORSDOF 13
ENDMDL
