MODEL 1
REMARK VINA RESULT:     -12.0      0.000      0.000
REMARK SMILES COc1ccc(-c2cccc(C(=O)NCC(=O)NCCCNC(=O)c3ccc(-c4c5nc(c(-c6ccccc6)c6ccc([nH]6)c(-c6ccccc6)c6nc(c(-c7ccccc7)c7ccc4[nH]7)C=C6)C=C5)cc3)c2)cc1
REMARK SMILES IDX 19 1 18 2 16 3 17 4 15 6 14 7 12 8 13 9 11 11 7 12 8 13
REMARK SMILES IDX 73 14 9 15 10 16 6 17 3 18 4 19 75 20 5 21 74 22 2 23 1 24
REMARK SMILES IDX 20 25 21 26 22 27 23 28 24 30 25 31 26 32 72 33 27 34 71 35
REMARK SMILES IDX 28 36 29 37 30 38 65 39 31 40 70 41 64 42 66 43 32 44 69 45
REMARK SMILES IDX 63 46 62 47 33 49 55 50 40 51 54 52 41 53 44 54 53 55 67 56
REMARK SMILES IDX 42 57 43 58 52 60 68 61 45 62 34 63 35 64 39 65 36 66 38 67
REMARK SMILES IDX 37 68 56 69 57 70 61 71 58 72 60 73 59 74 46 75 47 76 51 77
REMARK SMILES IDX 48 78 50 79 49 80
REMARK H PARENT 18 5 14 10 22 29 66 48 44 59
REMARK Flexibility Score: inf
ROOT
ATOM      1  C   UNL A   1      31.245  30.146  25.125  1.00  0.00     0.117 C 
ENDROOT
BRANCH   1   2
ATOM      2  N   UNL A   1      30.579  30.132  23.842  1.00  0.00    -0.355 N 
ATOM      3  C   UNL A   1      30.559  29.177  22.876  1.00  0.00     0.239 C 
ATOM      4  O   UNL A   1      29.858  29.399  21.884  1.00  0.00    -0.273 OA
ATOM      5  H   UNL A   1      30.058  30.942  23.637  1.00  0.00     0.163 HD
BRANCH   3   6
ATOM      6  C   UNL A   1      31.200  27.797  23.078  1.00  0.00     0.216 C 
BRANCH   6   7
ATOM      7  N   UNL A   1      32.051  27.247  22.025  1.00  0.00    -0.343 N 
ATOM      8  C   UNL A   1      32.944  26.216  21.890  1.00  0.00     0.251 C 
ATOM      9  O   UNL A   1      33.386  26.032  20.753  1.00  0.00    -0.269 OA
ATOM     10  H   UNL A   1      31.957  27.754  21.187  1.00  0.00     0.164 HD
BRANCH   8  11
ATOM     11  C   UNL A   1      33.494  25.380  23.001  1.00  0.00     0.040 A 
ATOM     12  C   UNL A   1      33.874  23.257  24.168  1.00  0.00    -0.018 A 
ATOM     13  C   UNL A   1      34.253  23.967  25.315  1.00  0.00     0.009 A 
ATOM     14  C   UNL A   1      33.564  23.988  23.004  1.00  0.00     0.022 A 
ATOM     15  C   UNL A   1      34.289  25.360  25.306  1.00  0.00     0.001 A 
ATOM     16  C   UNL A   1      33.895  26.059  24.164  1.00  0.00     0.014 A 
BRANCH  12  17
ATOM     17  C   UNL A   1      33.721  21.791  24.179  1.00  0.00    -0.018 A 
ATOM     18  C   UNL A   1      33.393  18.994  24.323  1.00  0.00     0.118 A 
ATOM     19  C   UNL A   1      34.557  19.584  24.806  1.00  0.00     0.047 A 
ATOM     20  C   UNL A   1      32.375  19.790  23.804  1.00  0.00     0.047 A 
ATOM     21  C   UNL A   1      34.723  20.970  24.726  1.00  0.00     0.012 A 
ATOM     22  C   UNL A   1      32.543  21.175  23.725  1.00  0.00     0.012 A 
BRANCH  18  23
ATOM     23  O   UNL A   1      33.302  17.635  24.443  1.00  0.00    -0.497 OA
ATOM     24  C   UNL A   1      34.152  16.939  23.533  1.00  0.00     0.278 C 
ENDBRANCH  18  23
ENDBRANCH  12  17
ENDBRANCH   8  11
ENDBRANCH   6   7
ENDBRANCH   3   6
ENDBRANCH   1   2
BRANCH   1  25
ATOM     25  C   UNL A   1      31.003  31.449  25.873  1.00  0.00     0.042 C 
BRANCH  25  26
ATOM     26  C   UNL A   1      32.151  31.820  26.807  1.00  0.00     0.118 C 
BRANCH  26  27
ATOM     27  N   UNL A   1      32.113  33.220  27.212  1.00  0.00    -0.352 N 
ATOM     28  C   UNL A   1      32.957  33.924  28.033  1.00  0.00     0.251 C 
ATOM     29  H   UNL A   1      31.366  33.741  26.839  1.00  0.00     0.163 HD
ATOM     30  O   UNL A   1      32.651  35.053  28.401  1.00  0.00    -0.269 OA
BRANCH  28  31
ATOM     31  C   UNL A   1      34.223  33.317  28.494  1.00  0.00     0.039 A 
ATOM     32  C   UNL A   1      35.417  33.709  27.882  1.00  0.00     0.014 A 
ATOM     33  C   UNL A   1      34.236  32.361  29.512  1.00  0.00     0.014 A 
ATOM     34  C   UNL A   1      36.630  33.193  28.341  1.00  0.00     0.010 A 
ATOM     35  C   UNL A   1      35.448  31.911  30.022  1.00  0.00     0.010 A 
ATOM     36  C   UNL A   1      36.657  32.323  29.442  1.00  0.00    -0.014 A 
BRANCH  36  37
ATOM     37  C   UNL A   1      37.941  31.848  30.015  1.00  0.00     0.031 A 
ATOM     38  C   UNL A   1      38.585  30.591  29.505  1.00  0.00     0.074 A 
ATOM     39  C   UNL A   1      38.485  32.512  31.053  1.00  0.00     0.049 A 
ATOM     40  N   UNL A   1      39.668  29.990  29.926  1.00  0.00    -0.248 NA
ATOM     41  C   UNL A   1      37.906  29.904  28.395  1.00  0.00     0.031 C 
ATOM     42  C   UNL A   1      37.933  33.718  31.671  1.00  0.00     0.029 A 
ATOM     43  N   UNL A   1      39.620  32.254  31.781  1.00  0.00    -0.354 N 
ATOM     44  C   UNL A   1      39.792  28.847  29.147  1.00  0.00     0.074 A 
ATOM     45  C   UNL A   1      38.644  28.812  28.267  1.00  0.00     0.031 C 
ATOM     46  C   UNL A   1      38.739  34.108  32.669  1.00  0.00     0.029 A 
ATOM     47  C   UNL A   1      39.837  33.155  32.793  1.00  0.00     0.049 A 
ATOM     48  H   UNL A   1      40.220  31.497  31.594  1.00  0.00     0.167 HD
ATOM     49  C   UNL A   1      40.777  27.918  29.152  1.00  0.00     0.031 A 
ATOM     50  C   UNL A   1      40.801  33.203  33.731  1.00  0.00     0.031 A 
ATOM     51  C   UNL A   1      41.912  27.950  30.038  1.00  0.00     0.049 A 
ATOM     52  C   UNL A   1      41.870  32.148  33.740  1.00  0.00     0.074 A 
ATOM     53  C   UNL A   1      42.997  27.094  30.080  1.00  0.00     0.029 A 
ATOM     54  N   UNL A   1      42.097  28.880  31.051  1.00  0.00    -0.354 N 
ATOM     55  N   UNL A   1      42.022  31.122  32.939  1.00  0.00    -0.248 NA
ATOM     56  C   UNL A   1      42.906  32.265  34.776  1.00  0.00     0.031 C 
ATOM     57  C   UNL A   1      43.803  27.463  31.163  1.00  0.00     0.029 A 
ATOM     58  C   UNL A   1      43.255  28.591  31.753  1.00  0.00     0.049 A 
ATOM     59  H   UNL A   1      41.492  29.633  31.243  1.00  0.00     0.167 HD
ATOM     60  C   UNL A   1      43.175  30.475  33.365  1.00  0.00     0.074 A 
ATOM     61  C   UNL A   1      43.695  31.242  34.479  1.00  0.00     0.031 C 
ATOM     62  C   UNL A   1      43.750  29.348  32.876  1.00  0.00     0.031 A 
BRANCH  49  63
ATOM     63  C   UNL A   1      40.645  26.771  28.185  1.00  0.00    -0.014 A 
ATOM     64  C   UNL A   1      41.242  26.810  26.914  1.00  0.00     0.009 A 
ATOM     65  C   UNL A   1      39.904  25.635  28.549  1.00  0.00     0.009 A 
ATOM     66  C   UNL A   1      41.053  25.762  26.009  1.00  0.00     0.001 A 
ATOM     67  C   UNL A   1      39.748  24.573  27.656  1.00  0.00     0.001 A 
ATOM     68  C   UNL A   1      40.308  24.644  26.382  1.00  0.00     0.000 A 
ENDBRANCH  49  63
BRANCH  50  69
ATOM     69  C   UNL A   1      40.787  34.295  34.739  1.00  0.00    -0.014 A 
ATOM     70  C   UNL A   1      41.440  35.510  34.484  1.00  0.00     0.009 A 
ATOM     71  C   UNL A   1      40.081  34.142  35.944  1.00  0.00     0.009 A 
ATOM     72  C   UNL A   1      41.397  36.545  35.421  1.00  0.00     0.001 A 
ATOM     73  C   UNL A   1      40.015  35.189  36.865  1.00  0.00     0.001 A 
ATOM     74  C   UNL A   1      40.678  36.388  36.606  1.00  0.00     0.000 A 
ENDBRANCH  50  69
BRANCH  62  75
ATOM     75  C   UNL A   1      45.014  28.878  33.543  1.00  0.00    -0.014 A 
ATOM     76  C   UNL A   1      44.980  27.955  34.599  1.00  0.00     0.009 A 
ATOM     77  C   UNL A   1      46.258  29.333  33.079  1.00  0.00     0.009 A 
ATOM     78  C   UNL A   1      46.165  27.522  35.199  1.00  0.00     0.001 A 
ATOM     79  C   UNL A   1      47.443  28.874  33.657  1.00  0.00     0.001 A 
ATOM     80  C   UNL A   1      47.395  27.977  34.724  1.00  0.00     0.000 A 
ENDBRANCH  62  75
ENDBRANCH  36  37
ENDBRANCH  28  31
ENDBRANCH  26  27
ENDBRANCH  25  26
ENDBRANCH   1  25
TORSDOF 14
ENDMDL
MODEL 2
REMARK VINA RESULT:     -12.0      5.043     10.265
REMARK SMILES COc1ccc(-c2cccc(C(=O)NCC(=O)NCCCNC(=O)c3ccc(-c4c5nc(c(-c6ccccc6)c6ccc([nH]6)c(-c6ccccc6)c6nc(c(-c7ccccc7)c7ccc4[nH]7)C=C6)C=C5)cc3)c2)cc1
REMARK SMILES IDX 19 1 18 2 16 3 17 4 15 6 14 7 12 8 13 9 11 11 7 12 8 13
REMARK SMILES IDX 73 14 9 15 10 16 6 17 3 18 4 19 75 20 5 21 74 22 2 23 1 24
REMARK SMILES IDX 20 25 21 26 22 27 23 28 24 30 25 31 26 32 72 33 27 34 71 35
REMARK SMILES IDX 28 36 29 37 30 38 65 39 31 40 70 41 64 42 66 43 32 44 69 45
REMARK SMILES IDX 63 46 62 47 33 49 55 50 40 51 54 52 41 53 44 54 53 55 67 56
REMARK SMILES IDX 42 57 43 58 52 60 68 61 45 62 34 63 35 64 39 65 36 66 38 67
REMARK SMILES IDX 37 68 56 69 57 70 61 71 58 72 60 73 59 74 46 75 47 76 51 77
REMARK SMILES IDX 48 78 50 79 49 80
REMARK H PARENT 18 5 14 10 22 29 66 48 44 59
REMARK Flexibility Score: inf
ROOT
ATOM      1  C   UNL A   1      42.411  20.803  26.240  1.00  0.00     0.117 C 
ENDROOT
BRANCH   1   2
ATOM      2  N   UNL A   1      42.783  19.477  26.677  1.00  0.00    -0.355 N 
ATOM      3  C   UNL A   1      43.412  18.478  26.004  1.00  0.00     0.239 C 
ATOM      4  O   UNL A   1      43.662  17.447  26.636  1.00  0.00    -0.273 OA
ATOM      5  H   UNL A   1      42.544  19.263  27.608  1.00  0.00     0.163 HD
BRANCH   3   6
ATOM      6  C   UNL A   1      43.981  18.675  24.592  1.00  0.00     0.216 C 
BRANCH   6   7
ATOM      7  N   UNL A   1      45.391  19.022  24.434  1.00  0.00    -0.343 N 
ATOM      8  C   UNL A   1      46.184  20.124  24.627  1.00  0.00     0.251 C 
ATOM      9  O   UNL A   1      47.394  19.952  24.460  1.00  0.00    -0.269 OA
ATOM     10  H   UNL A   1      45.913  18.258  24.099  1.00  0.00     0.164 HD
BRANCH   8  11
ATOM     11  C   UNL A   1      45.704  21.510  24.917  1.00  0.00     0.040 A 
ATOM     12  C   UNL A   1      45.279  23.420  26.395  1.00  0.00    -0.018 A 
ATOM     13  C   UNL A   1      44.442  23.976  25.419  1.00  0.00     0.009 A 
ATOM     14  C   UNL A   1      45.951  22.219  26.092  1.00  0.00     0.022 A 
ATOM     15  C   UNL A   1      44.259  23.336  24.195  1.00  0.00     0.001 A 
ATOM     16  C   UNL A   1      44.870  22.105  23.955  1.00  0.00     0.014 A 
BRANCH  12  17
ATOM     17  C   UNL A   1      45.407  24.015  27.738  1.00  0.00    -0.018 A 
ATOM     18  C   UNL A   1      45.695  25.041  30.349  1.00  0.00     0.118 A 
ATOM     19  C   UNL A   1      44.576  24.283  30.018  1.00  0.00     0.047 A 
ATOM     20  C   UNL A   1      46.691  25.259  29.400  1.00  0.00     0.047 A 
ATOM     21  C   UNL A   1      44.428  23.783  28.720  1.00  0.00     0.012 A 
ATOM     22  C   UNL A   1      46.542  24.757  28.104  1.00  0.00     0.012 A 
BRANCH  18  23
ATOM     23  O   UNL A   1      45.770  25.488  31.638  1.00  0.00    -0.497 OA
ATOM     24  C   UNL A   1      44.606  26.203  32.047  1.00  0.00     0.278 C 
ENDBRANCH  18  23
ENDBRANCH  12  17
ENDBRANCH   8  11
ENDBRANCH   6   7
ENDBRANCH   3   6
ENDBRANCH   1   2
BRANCH   1  25
ATOM     25  C   UNL A   1      42.216  21.750  27.416  1.00  0.00     0.042 C 
BRANCH  25  26
ATOM     26  C   UNL A   1      40.794  21.724  27.970  1.00  0.00     0.118 C 
BRANCH  26  27
ATOM     27  N   UNL A   1      39.784  21.766  26.921  1.00  0.00    -0.352 N 
ATOM     28  C   UNL A   1      39.051  22.824  26.443  1.00  0.00     0.251 C 
ATOM     29  H   UNL A   1      39.597  20.902  26.488  1.00  0.00     0.163 HD
ATOM     30  O   UNL A   1      38.113  22.621  25.679  1.00  0.00    -0.269 OA
BRANCH  28  31
ATOM     31  C   UNL A   1      39.376  24.202  26.862  1.00  0.00     0.039 A 
ATOM     32  C   UNL A   1      38.917  24.653  28.103  1.00  0.00     0.014 A 
ATOM     33  C   UNL A   1      40.119  25.050  26.038  1.00  0.00     0.014 A 
ATOM     34  C   UNL A   1      39.262  25.930  28.545  1.00  0.00     0.010 A 
ATOM     35  C   UNL A   1      40.531  26.290  26.514  1.00  0.00     0.010 A 
ATOM     36  C   UNL A   1      40.107  26.742  27.771  1.00  0.00    -0.014 A 
BRANCH  36  37
ATOM     37  C   UNL A   1      40.576  28.059  28.270  1.00  0.00     0.031 A 
ATOM     38  C   UNL A   1      42.035  28.300  28.529  1.00  0.00     0.074 A 
ATOM     39  C   UNL A   1      39.672  29.013  28.565  1.00  0.00     0.049 A 
ATOM     40  N   UNL A   1      42.621  29.361  29.025  1.00  0.00    -0.248 NA
ATOM     41  C   UNL A   1      42.953  27.194  28.217  1.00  0.00     0.031 C 
ATOM     42  C   UNL A   1      38.223  28.885  28.403  1.00  0.00     0.029 A 
ATOM     43  N   UNL A   1      39.841  30.275  29.077  1.00  0.00    -0.354 N 
ATOM     44  C   UNL A   1      43.971  29.044  29.101  1.00  0.00     0.074 A 
ATOM     45  C   UNL A   1      44.108  27.675  28.652  1.00  0.00     0.031 C 
ATOM     46  C   UNL A   1      37.636  30.029  28.787  1.00  0.00     0.029 A 
ATOM     47  C   UNL A   1      38.662  30.951  29.267  1.00  0.00     0.049 A 
ATOM     48  H   UNL A   1      40.722  30.658  29.287  1.00  0.00     0.167 HD
ATOM     49  C   UNL A   1      45.005  29.824  29.494  1.00  0.00     0.031 A 
ATOM     50  C   UNL A   1      38.424  32.170  29.785  1.00  0.00     0.031 A 
ATOM     51  C   UNL A   1      44.863  31.183  29.951  1.00  0.00     0.049 A 
ATOM     52  C   UNL A   1      39.581  33.011  30.243  1.00  0.00     0.074 A 
ATOM     53  C   UNL A   1      45.853  32.079  30.310  1.00  0.00     0.029 A 
ATOM     54  N   UNL A   1      43.651  31.833  30.129  1.00  0.00    -0.354 N 
ATOM     55  N   UNL A   1      40.861  32.731  30.226  1.00  0.00    -0.248 NA
ATOM     56  C   UNL A   1      39.260  34.340  30.781  1.00  0.00     0.031 C 
ATOM     57  C   UNL A   1      45.237  33.248  30.773  1.00  0.00     0.029 A 
ATOM     58  C   UNL A   1      43.865  33.104  30.636  1.00  0.00     0.049 A 
ATOM     59  H   UNL A   1      42.768  31.447  29.926  1.00  0.00     0.167 HD
ATOM     60  C   UNL A   1      41.502  33.851  30.740  1.00  0.00     0.074 A 
ATOM     61  C   UNL A   1      40.469  34.823  31.035  1.00  0.00     0.031 C 
ATOM     62  C   UNL A   1      42.826  34.054  30.948  1.00  0.00     0.031 A 
BRANCH  49  63
ATOM     63  C   UNL A   1      46.378  29.206  29.474  1.00  0.00    -0.014 A 
ATOM     64  C   UNL A   1      46.988  28.732  30.648  1.00  0.00     0.009 A 
ATOM     65  C   UNL A   1      47.077  29.102  28.261  1.00  0.00     0.009 A 
ATOM     66  C   UNL A   1      48.287  28.220  30.616  1.00  0.00     0.001 A 
ATOM     67  C   UNL A   1      48.362  28.556  28.226  1.00  0.00     0.001 A 
ATOM     68  C   UNL A   1      48.972  28.131  29.405  1.00  0.00     0.000 A 
ENDBRANCH  49  63
BRANCH  50  69
ATOM     69  C   UNL A   1      37.024  32.657  29.896  1.00  0.00    -0.014 A 
ATOM     70  C   UNL A   1      36.256  32.371  31.034  1.00  0.00     0.009 A 
ATOM     71  C   UNL A   1      36.464  33.448  28.879  1.00  0.00     0.009 A 
ATOM     72  C   UNL A   1      34.952  32.859  31.147  1.00  0.00     0.001 A 
ATOM     73  C   UNL A   1      35.171  33.958  29.008  1.00  0.00     0.001 A 
ATOM     74  C   UNL A   1      34.414  33.658  30.139  1.00  0.00     0.000 A 
ENDBRANCH  50  69
BRANCH  62  75
ATOM     75  C   UNL A   1      43.234  35.384  31.520  1.00  0.00    -0.014 A 
ATOM     76  C   UNL A   1      43.655  36.435  30.692  1.00  0.00     0.009 A 
ATOM     77  C   UNL A   1      43.155  35.601  32.905  1.00  0.00     0.009 A 
ATOM     78  C   UNL A   1      44.019  37.667  31.241  1.00  0.00     0.001 A 
ATOM     79  C   UNL A   1      43.489  36.843  33.449  1.00  0.00     0.001 A 
ATOM     80  C   UNL A   1      43.931  37.872  32.618  1.00  0.00     0.000 A 
ENDBRANCH  62  75
ENDBRANCH  36  37
ENDBRANCH  28  31
ENDBRANCH  26  27
ENDBRANCH  25  26
ENDBRANCH   1  25
TORSDOF 14
ENDMDL
MODEL 3
REMARK VINA RESULT:     -11.9      1.721      2.562
REMARK SMILES COc1ccc(-c2cccc(C(=O)NCC(=O)NCCCNC(=O)c3ccc(-c4c5nc(c(-c6ccccc6)c6ccc([nH]6)c(-c6ccccc6)c6nc(c(-c7ccccc7)c7ccc4[nH]7)C=C6)C=C5)cc3)c2)cc1
REMARK SMILES IDX 19 1 18 2 16 3 17 4 15 6 14 7 12 8 13 9 11 11 7 12 8 13
REMARK SMILES IDX 73 14 9 15 10 16 6 17 3 18 4 19 75 20 5 21 74 22 2 23 1 24
REMARK SMILES IDX 20 25 21 26 22 27 23 28 24 30 25 31 26 32 72 33 27 34 71 35
REMARK SMILES IDX 28 36 29 37 30 38 65 39 31 40 70 41 64 42 66 43 32 44 69 45
REMARK SMILES IDX 63 46 62 47 33 49 55 50 40 51 54 52 41 53 44 54 53 55 67 56
REMARK SMILES IDX 42 57 43 58 52 60 68 61 45 62 34 63 35 64 39 65 36 66 38 67
REMARK SMILES IDX 37 68 56 69 57 70 61 71 58 72 60 73 59 74 46 75 47 76 51 77
REMARK SMILES IDX 48 78 50 79 49 80
REMARK H PARENT 18 5 14 10 22 29 66 48 44 59
REMARK Flexibility Score: inf
ROOT
ATOM      1  C   UNL A   1      31.784  30.489  25.835  1.00  0.00     0.117 C 
ENDROOT
BRANCH   1   2
ATOM      2  N   UNL A   1      30.907  30.287  24.705  1.00  0.00    -0.355 N 
ATOM      3  C   UNL A   1      30.859  29.271  23.804  1.00  0.00     0.239 C 
ATOM      4  O   UNL A   1      29.964  29.317  22.955  1.00  0.00    -0.273 OA
ATOM      5  H   UNL A   1      30.238  30.996  24.567  1.00  0.00     0.163 HD
BRANCH   3   6
ATOM      6  C   UNL A   1      31.731  28.015  23.942  1.00  0.00     0.216 C 
BRANCH   6   7
ATOM      7  N   UNL A   1      32.546  27.587  22.808  1.00  0.00    -0.343 N 
ATOM      8  C   UNL A   1      33.099  26.418  22.350  1.00  0.00     0.251 C 
ATOM      9  O   UNL A   1      33.654  26.479  21.250  1.00  0.00    -0.269 OA
ATOM     10  H   UNL A   1      32.754  28.340  22.210  1.00  0.00     0.164 HD
BRANCH   8  11
ATOM     11  C   UNL A   1      33.174  25.129  23.105  1.00  0.00     0.040 A 
ATOM     12  C   UNL A   1      34.376  23.335  24.267  1.00  0.00    -0.018 A 
ATOM     13  C   UNL A   1      33.233  22.530  24.186  1.00  0.00     0.009 A 
ATOM     14  C   UNL A   1      34.299  24.655  23.778  1.00  0.00     0.022 A 
ATOM     15  C   UNL A   1      32.063  23.018  23.607  1.00  0.00     0.001 A 
ATOM     16  C   UNL A   1      32.041  24.300  23.055  1.00  0.00     0.014 A 
BRANCH  12  17
ATOM     17  C   UNL A   1      35.659  22.813  24.773  1.00  0.00    -0.018 A 
ATOM     18  C   UNL A   1      38.157  21.818  25.622  1.00  0.00     0.118 A 
ATOM     19  C   UNL A   1      37.228  20.962  25.038  1.00  0.00     0.047 A 
ATOM     20  C   UNL A   1      37.866  23.174  25.750  1.00  0.00     0.047 A 
ATOM     21  C   UNL A   1      35.985  21.453  24.627  1.00  0.00     0.012 A 
ATOM     22  C   UNL A   1      36.624  23.663  25.338  1.00  0.00     0.012 A 
BRANCH  18  23
ATOM     23  O   UNL A   1      39.351  21.264  25.992  1.00  0.00    -0.497 OA
ATOM     24  C   UNL A   1      40.047  22.043  26.962  1.00  0.00     0.278 C 
ENDBRANCH  18  23
ENDBRANCH  12  17
ENDBRANCH   8  11
ENDBRANCH   6   7
ENDBRANCH   3   6
ENDBRANCH   1   2
BRANCH   1  25
ATOM     25  C   UNL A   1      31.428  31.751  26.608  1.00  0.00     0.042 C 
BRANCH  25  26
ATOM     26  C   UNL A   1      32.645  32.429  27.231  1.00  0.00     0.118 C 
BRANCH  26  27
ATOM     27  N   UNL A   1      32.406  33.833  27.542  1.00  0.00    -0.352 N 
ATOM     28  C   UNL A   1      32.998  34.643  28.479  1.00  0.00     0.251 C 
ATOM     29  H   UNL A   1      31.712  34.268  26.997  1.00  0.00     0.163 HD
ATOM     30  O   UNL A   1      32.528  35.751  28.713  1.00  0.00    -0.269 OA
BRANCH  28  31
ATOM     31  C   UNL A   1      34.186  34.174  29.221  1.00  0.00     0.039 A 
ATOM     32  C   UNL A   1      33.999  33.470  30.414  1.00  0.00     0.014 A 
ATOM     33  C   UNL A   1      35.477  34.434  28.754  1.00  0.00     0.014 A 
ATOM     34  C   UNL A   1      35.105  32.966  31.100  1.00  0.00     0.010 A 
ATOM     35  C   UNL A   1      36.571  33.863  29.393  1.00  0.00     0.010 A 
ATOM     36  C   UNL A   1      36.396  33.123  30.572  1.00  0.00    -0.014 A 
BRANCH  36  37
ATOM     37  C   UNL A   1      37.575  32.503  31.226  1.00  0.00     0.031 A 
ATOM     38  C   UNL A   1      38.253  31.315  30.607  1.00  0.00     0.074 A 
ATOM     39  C   UNL A   1      37.984  32.965  32.424  1.00  0.00     0.049 A 
ATOM     40  N   UNL A   1      39.252  30.603  31.065  1.00  0.00    -0.248 NA
ATOM     41  C   UNL A   1      37.721  30.848  29.317  1.00  0.00     0.031 C 
ATOM     42  C   UNL A   1      37.379  34.081  33.152  1.00  0.00     0.029 A 
ATOM     43  N   UNL A   1      38.999  32.540  33.245  1.00  0.00    -0.354 N 
ATOM     44  C   UNL A   1      39.456  29.596  30.130  1.00  0.00     0.074 A 
ATOM     45  C   UNL A   1      38.442  29.757  29.110  1.00  0.00     0.031 C 
ATOM     46  C   UNL A   1      38.046  34.267  34.301  1.00  0.00     0.029 A 
ATOM     47  C   UNL A   1      39.093  33.256  34.412  1.00  0.00     0.049 A 
ATOM     48  H   UNL A   1      39.600  31.795  33.018  1.00  0.00     0.167 HD
ATOM     49  C   UNL A   1      40.408  28.633  30.115  1.00  0.00     0.031 A 
ATOM     50  C   UNL A   1      39.916  33.107  35.467  1.00  0.00     0.031 A 
ATOM     51  C   UNL A   1      41.407  28.469  31.138  1.00  0.00     0.049 A 
ATOM     52  C   UNL A   1      40.947  32.015  35.445  1.00  0.00     0.074 A 
ATOM     53  C   UNL A   1      42.454  27.567  31.184  1.00  0.00     0.029 A 
ATOM     54  N   UNL A   1      41.470  29.214  32.307  1.00  0.00    -0.354 N 
ATOM     55  N   UNL A   1      41.185  31.125  34.513  1.00  0.00    -0.248 NA
ATOM     56  C   UNL A   1      41.829  31.915  36.615  1.00  0.00     0.031 C 
ATOM     57  C   UNL A   1      43.109  27.719  32.412  1.00  0.00     0.029 A 
ATOM     58  C   UNL A   1      42.511  28.763  33.101  1.00  0.00     0.049 A 
ATOM     59  H   UNL A   1      40.863  29.954  32.538  1.00  0.00     0.167 HD
ATOM     60  C   UNL A   1      42.251  30.365  34.977  1.00  0.00     0.074 A 
ATOM     61  C   UNL A   1      42.627  30.917  36.263  1.00  0.00     0.031 C 
ATOM     62  C   UNL A   1      42.861  29.305  34.391  1.00  0.00     0.031 A 
BRANCH  49  63
ATOM     63  C   UNL A   1      40.385  27.664  28.962  1.00  0.00    -0.014 A 
ATOM     64  C   UNL A   1      39.647  26.469  29.021  1.00  0.00     0.009 A 
ATOM     65  C   UNL A   1      41.118  27.948  27.799  1.00  0.00     0.009 A 
ATOM     66  C   UNL A   1      39.692  25.555  27.965  1.00  0.00     0.001 A 
ATOM     67  C   UNL A   1      41.131  27.050  26.730  1.00  0.00     0.001 A 
ATOM     68  C   UNL A   1      40.431  25.848  26.820  1.00  0.00     0.000 A 
ENDBRANCH  49  63
BRANCH  50  69
ATOM     69  C   UNL A   1      39.786  34.023  36.630  1.00  0.00    -0.014 A 
ATOM     70  C   UNL A   1      39.002  33.665  37.736  1.00  0.00     0.009 A 
ATOM     71  C   UNL A   1      40.483  35.242  36.656  1.00  0.00     0.009 A 
ATOM     72  C   UNL A   1      38.909  34.516  38.840  1.00  0.00     0.001 A 
ATOM     73  C   UNL A   1      40.412  36.076  37.773  1.00  0.00     0.001 A 
ATOM     74  C   UNL A   1      39.620  35.716  38.862  1.00  0.00     0.000 A 
ENDBRANCH  50  69
BRANCH  62  75
ATOM     75  C   UNL A   1      44.006  28.675  35.135  1.00  0.00    -0.014 A 
ATOM     76  C   UNL A   1      43.800  27.607  36.021  1.00  0.00     0.009 A 
ATOM     77  C   UNL A   1      45.316  29.129  34.913  1.00  0.00     0.009 A 
ATOM     78  C   UNL A   1      44.878  27.028  36.695  1.00  0.00     0.001 A 
ATOM     79  C   UNL A   1      46.396  28.527  35.562  1.00  0.00     0.001 A 
ATOM     80  C   UNL A   1      46.175  27.484  36.460  1.00  0.00     0.000 A 
ENDBRANCH  62  75
ENDBRANCH  36  37
ENDBRANCH  28  31
ENDBRANCH  26  27
ENDBRANCH  25  26
ENDBRANCH   1  25
TORSDOF 14
ENDMDL
