MODEL 1
REMARK VINA RESULT:     -10.5      0.000      0.000
REMARK SMILES Cc1cc(I)ccc1[C@H]([NH3+])C(=O)NCCCNC(=O)c1ccc(-c2c3nc(c(-c4ccccc4)c4ccc([nH]4)c(-c4ccccc4)c4nc(c(-c5ccccc5)c5ccc2[nH]5)C=C4)C=C3)cc1
REMARK SMILES IDX 15 1 14 2 13 3 11 4 12 5 9 7 8 8 1 9 2 10 3 11 4 12 7 13
REMARK SMILES IDX 5 14 6 15 10 16 16 20 17 21 18 22 19 24 20 25 21 26 67 27
REMARK SMILES IDX 22 28 66 29 23 30 24 31 25 32 60 33 26 34 65 35 59 36 61 37
REMARK SMILES IDX 27 38 64 39 58 40 57 41 28 43 50 44 35 45 49 46 36 47 39 48
REMARK SMILES IDX 48 49 62 50 37 51 38 52 47 54 63 55 40 56 29 57 30 58 34 59
REMARK SMILES IDX 31 60 33 61 32 62 51 63 52 64 56 65 53 66 55 67 54 68 41 69
REMARK SMILES IDX 42 70 46 71 43 72 45 73 44 74
REMARK H PARENT 13 6 10 17 10 18 10 19 17 23 61 42 39 53
REMARK Flexibility Score: inf
ROOT
ATOM      1  C   UNL A   1      32.133  28.920  26.658  1.00  0.00     0.042 C 
ENDROOT
BRANCH   1   2
ATOM      2  C   UNL A   1      31.954  29.703  25.369  1.00  0.00     0.118 C 
BRANCH   2   3
ATOM      3  N   UNL A   1      33.100  29.602  24.483  1.00  0.00    -0.351 N 
ATOM      4  C   UNL A   1      33.336  28.683  23.496  1.00  0.00     0.283 C 
ATOM      5  O   UNL A   1      34.311  28.879  22.763  1.00  0.00    -0.268 OA
ATOM      6  H   UNL A   1      33.800  30.283  24.610  1.00  0.00     0.163 HD
BRANCH   4   7
ATOM      7  C   UNL A   1      32.450  27.435  23.328  1.00  0.00     0.302 C 
BRANCH   7   8
ATOM      8  C   UNL A   1      32.640  26.232  24.263  1.00  0.00     0.022 A 
ATOM      9  C   UNL A   1      30.241  25.943  25.258  1.00  0.00     0.045 C 
ATOM     10  C   UNL A   1      31.709  25.631  25.141  1.00  0.00    -0.040 A 
ATOM     11  C   UNL A   1      32.148  24.603  26.012  1.00  0.00     0.018 A 
ATOM     12  C   UNL A   1      33.440  24.089  25.952  1.00  0.00     0.013 A 
ATOM     13  C   UNL A   1      33.923  25.619  24.176  1.00  0.00     0.012 A 
ATOM     14  I   UNL A   1      34.028  22.578  27.246  1.00  0.00    -0.044 I 
ATOM     15  C   UNL A   1      34.323  24.572  25.005  1.00  0.00     0.015 A 
ENDBRANCH   7   8
BRANCH   7  16
ATOM     16  N   UNL A   1      32.493  27.047  21.890  1.00  0.00    -0.343 N 
ATOM     17  H   UNL A   1      32.550  27.886  21.313  1.00  0.00     0.345 HD
ATOM     18  H   UNL A   1      31.648  26.527  21.652  1.00  0.00     0.345 HD
ATOM     19  H   UNL A   1      33.311  26.462  21.720  1.00  0.00     0.345 HD
ENDBRANCH   7  16
ENDBRANCH   4   7
ENDBRANCH   2   3
ENDBRANCH   1   2
BRANCH   1  20
ATOM     20  C   UNL A   1      33.481  29.128  27.337  1.00  0.00     0.118 C 
BRANCH  20  21
ATOM     21  N   UNL A   1      33.652  30.453  27.922  1.00  0.00    -0.352 N 
ATOM     22  C   UNL A   1      34.739  31.012  28.556  1.00  0.00     0.251 C 
ATOM     23  H   UNL A   1      32.865  31.041  27.853  1.00  0.00     0.163 HD
ATOM     24  O   UNL A   1      34.644  32.110  29.090  1.00  0.00    -0.269 OA
BRANCH  22  25
ATOM     25  C   UNL A   1      36.011  30.265  28.625  1.00  0.00     0.039 A 
ATOM     26  C   UNL A   1      36.865  30.272  27.519  1.00  0.00     0.014 A 
ATOM     27  C   UNL A   1      36.382  29.599  29.793  1.00  0.00     0.014 A 
ATOM     28  C   UNL A   1      38.137  29.705  27.627  1.00  0.00     0.010 A 
ATOM     29  C   UNL A   1      37.682  29.131  29.933  1.00  0.00     0.010 A 
ATOM     30  C   UNL A   1      38.577  29.185  28.854  1.00  0.00    -0.014 A 
BRANCH  30  31
ATOM     31  C   UNL A   1      39.968  28.699  29.049  1.00  0.00     0.031 A 
ATOM     32  C   UNL A   1      41.026  29.641  29.558  1.00  0.00     0.074 A 
ATOM     33  C   UNL A   1      40.301  27.447  28.677  1.00  0.00     0.049 A 
ATOM     34  N   UNL A   1      42.318  29.455  29.660  1.00  0.00    -0.248 NA
ATOM     35  C   UNL A   1      40.578  30.981  29.971  1.00  0.00     0.031 C 
ATOM     36  C   UNL A   1      39.383  26.449  28.120  1.00  0.00     0.029 A 
ATOM     37  N   UNL A   1      41.513  26.803  28.700  1.00  0.00    -0.354 N 
ATOM     38  C   UNL A   1      42.836  30.661  30.112  1.00  0.00     0.074 A 
ATOM     39  C   UNL A   1      41.729  31.586  30.219  1.00  0.00     0.031 C 
ATOM     40  C   UNL A   1      40.058  25.311  27.888  1.00  0.00     0.029 A 
ATOM     41  C   UNL A   1      41.461  25.512  28.233  1.00  0.00     0.049 A 
ATOM     42  H   UNL A   1      42.342  27.227  29.021  1.00  0.00     0.167 HD
ATOM     43  C   UNL A   1      44.115  30.970  30.432  1.00  0.00     0.031 A 
ATOM     44  C   UNL A   1      42.435  24.593  28.093  1.00  0.00     0.031 A 
ATOM     45  C   UNL A   1      45.209  30.041  30.365  1.00  0.00     0.049 A 
ATOM     46  C   UNL A   1      43.842  24.953  28.481  1.00  0.00     0.074 A 
ATOM     47  C   UNL A   1      46.532  30.241  30.721  1.00  0.00     0.029 A 
ATOM     48  N   UNL A   1      45.104  28.731  29.927  1.00  0.00    -0.354 N 
ATOM     49  N   UNL A   1      44.307  26.086  28.948  1.00  0.00    -0.248 NA
ATOM     50  C   UNL A   1      44.858  23.901  28.328  1.00  0.00     0.031 C 
ATOM     51  C   UNL A   1      47.233  29.055  30.473  1.00  0.00     0.029 A 
ATOM     52  C   UNL A   1      46.338  28.110  30.002  1.00  0.00     0.049 A 
ATOM     53  H   UNL A   1      44.274  28.306  29.611  1.00  0.00     0.167 HD
ATOM     54  C   UNL A   1      45.660  25.874  29.174  1.00  0.00     0.074 A 
ATOM     55  C   UNL A   1      45.939  24.502  28.804  1.00  0.00     0.031 C 
ATOM     56  C   UNL A   1      46.590  26.740  29.643  1.00  0.00     0.031 A 
BRANCH  43  57
ATOM     57  C   UNL A   1      44.391  32.371  30.898  1.00  0.00    -0.014 A 
ATOM     58  C   UNL A   1      44.789  33.367  29.993  1.00  0.00     0.009 A 
ATOM     59  C   UNL A   1      44.224  32.707  32.250  1.00  0.00     0.009 A 
ATOM     60  C   UNL A   1      45.049  34.665  30.438  1.00  0.00     0.001 A 
ATOM     61  C   UNL A   1      44.458  34.012  32.688  1.00  0.00     0.001 A 
ATOM     62  C   UNL A   1      44.879  34.987  31.783  1.00  0.00     0.000 A 
ENDBRANCH  43  57
BRANCH  44  63
ATOM     63  C   UNL A   1      42.120  23.234  27.583  1.00  0.00    -0.014 A 
ATOM     64  C   UNL A   1      42.402  22.896  26.250  1.00  0.00     0.009 A 
ATOM     65  C   UNL A   1      41.515  22.277  28.413  1.00  0.00     0.009 A 
ATOM     66  C   UNL A   1      42.057  21.640  25.748  1.00  0.00     0.001 A 
ATOM     67  C   UNL A   1      41.196  21.011  27.915  1.00  0.00     0.001 A 
ATOM     68  C   UNL A   1      41.456  20.697  26.581  1.00  0.00     0.000 A 
ENDBRANCH  44  63
BRANCH  56  69
ATOM     69  C   UNL A   1      47.983  26.214  29.827  1.00  0.00    -0.014 A 
ATOM     70  C   UNL A   1      48.431  25.767  31.079  1.00  0.00     0.009 A 
ATOM     71  C   UNL A   1      48.842  26.128  28.721  1.00  0.00     0.009 A 
ATOM     72  C   UNL A   1      49.728  25.270  31.224  1.00  0.00     0.001 A 
ATOM     73  C   UNL A   1      50.129  25.607  28.865  1.00  0.00     0.001 A 
ATOM     74  C   UNL A   1      50.572  25.186  30.117  1.00  0.00     0.000 A 
ENDBRANCH  56  69
ENDBRANCH  30  31
ENDBRANCH  22  25
ENDBRANCH  20  21
ENDBRANCH   1  20
TORSDOF 12
ENDMDL
MODEL 2
REMARK VINA RESULT:     -10.5      4.315      9.687
REMARK SMILES Cc1cc(I)ccc1[C@H]([NH3+])C(=O)NCCCNC(=O)c1ccc(-c2c3nc(c(-c4ccccc4)c4ccc([nH]4)c(-c4ccccc4)c4nc(c(-c5ccccc5)c5ccc2[nH]5)C=C4)C=C3)cc1
REMARK SMILES IDX 15 1 14 2 13 3 11 4 12 5 9 7 8 8 1 9 2 10 3 11 4 12 7 13
REMARK SMILES IDX 5 14 6 15 10 16 16 20 17 21 18 22 19 24 20 25 21 26 67 27
REMARK SMILES IDX 22 28 66 29 23 30 24 31 25 32 60 33 26 34 65 35 59 36 61 37
REMARK SMILES IDX 27 38 64 39 58 40 57 41 28 43 50 44 35 45 49 46 36 47 39 48
REMARK SMILES IDX 48 49 62 50 37 51 38 52 47 54 63 55 40 56 29 57 30 58 34 59
REMARK SMILES IDX 31 60 33 61 32 62 51 63 52 64 56 65 53 66 55 67 54 68 41 69
REMARK SMILES IDX 42 70 46 71 43 72 45 73 44 74
REMARK H PARENT 13 6 10 17 10 18 10 19 17 23 61 42 39 53
REMARK Flexibility Score: inf
ROOT
ATOM      1  C   UNL A   1      44.051  18.709  25.274  1.00  0.00     0.042 C 
ENDROOT
BRANCH   1   2
ATOM      2  C   UNL A   1      44.674  20.093  25.317  1.00  0.00     0.118 C 
BRANCH   2   3
ATOM      3  N   UNL A   1      44.203  20.957  24.249  1.00  0.00    -0.351 N 
ATOM      4  C   UNL A   1      44.724  22.149  23.825  1.00  0.00     0.283 C 
ATOM      5  O   UNL A   1      44.249  22.641  22.795  1.00  0.00    -0.268 OA
ATOM      6  H   UNL A   1      43.403  20.644  23.767  1.00  0.00     0.163 HD
BRANCH   4   7
ATOM      7  C   UNL A   1      45.829  22.874  24.617  1.00  0.00     0.302 C 
BRANCH   7   8
ATOM      8  C   UNL A   1      45.592  24.304  25.124  1.00  0.00     0.022 A 
ATOM      9  C   UNL A   1      47.952  24.941  26.049  1.00  0.00     0.045 C 
ATOM     10  C   UNL A   1      46.484  25.169  25.797  1.00  0.00    -0.040 A 
ATOM     11  C   UNL A   1      46.003  26.407  26.291  1.00  0.00     0.018 A 
ATOM     12  C   UNL A   1      44.708  26.847  26.036  1.00  0.00     0.013 A 
ATOM     13  C   UNL A   1      44.306  24.830  24.813  1.00  0.00     0.012 A 
ATOM     14  I   UNL A   1      44.057  28.673  26.776  1.00  0.00    -0.044 I 
ATOM     15  C   UNL A   1      43.864  26.074  25.262  1.00  0.00     0.015 A 
ENDBRANCH   7   8
BRANCH   7  16
ATOM     16  N   UNL A   1      47.092  22.751  23.835  1.00  0.00    -0.343 N 
ATOM     17  H   UNL A   1      46.924  23.036  22.870  1.00  0.00     0.345 HD
ATOM     18  H   UNL A   1      47.410  21.782  23.854  1.00  0.00     0.345 HD
ATOM     19  H   UNL A   1      47.806  23.351  24.248  1.00  0.00     0.345 HD
ENDBRANCH   7  16
ENDBRANCH   4   7
ENDBRANCH   2   3
ENDBRANCH   1   2
BRANCH   1  20
ATOM     20  C   UNL A   1      43.075  18.423  26.409  1.00  0.00     0.118 C 
BRANCH  20  21
ATOM     21  N   UNL A   1      41.674  18.614  26.048  1.00  0.00    -0.352 N 
ATOM     22  C   UNL A   1      40.857  19.710  26.204  1.00  0.00     0.251 C 
ATOM     23  H   UNL A   1      41.246  17.835  25.626  1.00  0.00     0.163 HD
ATOM     24  O   UNL A   1      39.663  19.632  25.942  1.00  0.00    -0.269 OA
BRANCH  22  25
ATOM     25  C   UNL A   1      41.417  20.973  26.728  1.00  0.00     0.039 A 
ATOM     26  C   UNL A   1      41.596  22.050  25.856  1.00  0.00     0.014 A 
ATOM     27  C   UNL A   1      41.720  21.109  28.082  1.00  0.00     0.014 A 
ATOM     28  C   UNL A   1      41.973  23.295  26.367  1.00  0.00     0.010 A 
ATOM     29  C   UNL A   1      41.991  22.369  28.602  1.00  0.00     0.010 A 
ATOM     30  C   UNL A   1      42.113  23.478  27.751  1.00  0.00    -0.014 A 
BRANCH  30  31
ATOM     31  C   UNL A   1      42.376  24.814  28.346  1.00  0.00     0.031 A 
ATOM     32  C   UNL A   1      43.728  25.119  28.933  1.00  0.00     0.074 A 
ATOM     33  C   UNL A   1      41.378  25.713  28.448  1.00  0.00     0.049 A 
ATOM     34  N   UNL A   1      44.113  26.163  29.622  1.00  0.00    -0.248 NA
ATOM     35  C   UNL A   1      44.775  24.098  28.755  1.00  0.00     0.031 C 
ATOM     36  C   UNL A   1      40.006  25.525  27.967  1.00  0.00     0.029 A 
ATOM     37  N   UNL A   1      41.361  26.967  29.005  1.00  0.00    -0.354 N 
ATOM     38  C   UNL A   1      45.428  25.908  29.987  1.00  0.00     0.074 A 
ATOM     39  C   UNL A   1      45.761  24.592  29.487  1.00  0.00     0.031 C 
ATOM     40  C   UNL A   1      39.293  26.635  28.219  1.00  0.00     0.029 A 
ATOM     41  C   UNL A   1      40.141  27.593  28.920  1.00  0.00     0.049 A 
ATOM     42  H   UNL A   1      42.149  27.379  29.427  1.00  0.00     0.167 HD
ATOM     43  C   UNL A   1      46.293  26.704  30.659  1.00  0.00     0.031 A 
ATOM     44  C   UNL A   1      39.746  28.802  29.362  1.00  0.00     0.031 A 
ATOM     45  C   UNL A   1      45.978  28.027  31.122  1.00  0.00     0.049 A 
ATOM     46  C   UNL A   1      40.733  29.678  30.082  1.00  0.00     0.074 A 
ATOM     47  C   UNL A   1      46.803  28.936  31.764  1.00  0.00     0.029 A 
ATOM     48  N   UNL A   1      44.743  28.638  30.976  1.00  0.00    -0.354 N 
ATOM     49  N   UNL A   1      41.986  29.437  30.381  1.00  0.00    -0.248 NA
ATOM     50  C   UNL A   1      40.251  30.995  30.519  1.00  0.00     0.031 C 
ATOM     51  C   UNL A   1      46.056  30.089  32.030  1.00  0.00     0.029 A 
ATOM     52  C   UNL A   1      44.782  29.911  31.518  1.00  0.00     0.049 A 
ATOM     53  H   UNL A   1      43.956  28.228  30.550  1.00  0.00     0.167 HD
ATOM     54  C   UNL A   1      42.450  30.583  31.012  1.00  0.00     0.074 A 
ATOM     55  C   UNL A   1      41.349  31.522  31.042  1.00  0.00     0.031 C 
ATOM     56  C   UNL A   1      43.678  30.834  31.524  1.00  0.00     0.031 A 
BRANCH  43  57
ATOM     57  C   UNL A   1      47.669  26.162  30.921  1.00  0.00    -0.014 A 
ATOM     58  C   UNL A   1      48.641  26.138  29.908  1.00  0.00     0.009 A 
ATOM     59  C   UNL A   1      48.009  25.698  32.201  1.00  0.00     0.009 A 
ATOM     60  C   UNL A   1      49.915  25.627  30.161  1.00  0.00     0.001 A 
ATOM     61  C   UNL A   1      49.293  25.212  32.458  1.00  0.00     0.001 A 
ATOM     62  C   UNL A   1      50.241  25.169  31.436  1.00  0.00     0.000 A 
ENDBRANCH  43  57
BRANCH  44  63
ATOM     63  C   UNL A   1      38.358  29.275  29.120  1.00  0.00    -0.014 A 
ATOM     64  C   UNL A   1      38.003  29.816  27.874  1.00  0.00     0.009 A 
ATOM     65  C   UNL A   1      37.390  29.213  30.134  1.00  0.00     0.009 A 
ATOM     66  C   UNL A   1      36.717  30.314  27.658  1.00  0.00     0.001 A 
ATOM     67  C   UNL A   1      36.096  29.687  29.906  1.00  0.00     0.001 A 
ATOM     68  C   UNL A   1      35.763  30.247  28.673  1.00  0.00     0.000 A 
ENDBRANCH  44  63
BRANCH  56  69
ATOM     69  C   UNL A   1      43.908  32.194  32.116  1.00  0.00    -0.014 A 
ATOM     70  C   UNL A   1      43.695  32.437  33.482  1.00  0.00     0.009 A 
ATOM     71  C   UNL A   1      44.382  33.233  31.301  1.00  0.00     0.009 A 
ATOM     72  C   UNL A   1      43.927  33.706  34.013  1.00  0.00     0.001 A 
ATOM     73  C   UNL A   1      44.636  34.495  31.841  1.00  0.00     0.001 A 
ATOM     74  C   UNL A   1      44.401  34.731  33.194  1.00  0.00     0.000 A 
ENDBRANCH  56  69
ENDBRANCH  30  31
ENDBRANCH  22  25
ENDBRANCH  20  21
ENDBRANCH   1  20
TORSDOF 12
ENDMDL
MODEL 3
REMARK VINA RESULT:     -10.5      2.017      2.686
REMARK SMILES Cc1cc(I)ccc1[C@H]([NH3+])C(=O)NCCCNC(=O)c1ccc(-c2c3nc(c(-c4ccccc4)c4ccc([nH]4)c(-c4ccccc4)c4nc(c(-c5ccccc5)c5ccc2[nH]5)C=C4)C=C3)cc1
REMARK SMILES IDX 15 1 14 2 13 3 11 4 12 5 9 7 8 8 1 9 2 10 3 11 4 12 7 13
REMARK SMILES IDX 5 14 6 15 10 16 16 20 17 21 18 22 19 24 20 25 21 26 67 27
REMARK SMILES IDX 22 28 66 29 23 30 24 31 25 32 60 33 26 34 65 35 59 36 61 37
REMARK SMILES IDX 27 38 64 39 58 40 57 41 28 43 50 44 35 45 49 46 36 47 39 48
REMARK SMILES IDX 48 49 62 50 37 51 38 52 47 54 63 55 40 56 29 57 30 58 34 59
REMARK SMILES IDX 31 60 33 61 32 62 51 63 52 64 56 65 53 66 55 67 54 68 41 69
REMARK SMILES IDX 42 70 46 71 43 72 45 73 44 74
REMARK H PARENT 13 6 10 17 10 18 10 19 17 23 61 42 39 53
REMARK Flexibility Score: inf
ROOT
ATOM      1  C   UNL A   1      32.399  28.567  27.031  1.00  0.00     0.042 C 
ENDROOT
BRANCH   1   2
ATOM      2  C   UNL A   1      32.571  27.119  26.604  1.00  0.00     0.118 C 
BRANCH   2   3
ATOM      3  N   UNL A   1      31.397  26.308  26.876  1.00  0.00    -0.351 N 
ATOM      4  C   UNL A   1      30.648  25.573  25.997  1.00  0.00     0.283 C 
ATOM      5  O   UNL A   1      29.778  24.836  26.475  1.00  0.00    -0.268 OA
ATOM      6  H   UNL A   1      31.100  26.285  27.815  1.00  0.00     0.163 HD
BRANCH   4   7
ATOM      7  C   UNL A   1      30.848  25.686  24.475  1.00  0.00     0.302 C 
BRANCH   7   8
ATOM      8  C   UNL A   1      30.426  26.968  23.742  1.00  0.00     0.022 A 
ATOM      9  C   UNL A   1      32.730  27.918  22.957  1.00  0.00     0.045 C 
ATOM     10  C   UNL A   1      31.237  27.961  23.146  1.00  0.00    -0.040 A 
ATOM     11  C   UNL A   1      30.627  29.134  22.636  1.00  0.00     0.018 A 
ATOM     12  C   UNL A   1      29.244  29.288  22.601  1.00  0.00     0.013 A 
ATOM     13  C   UNL A   1      29.017  27.129  23.609  1.00  0.00     0.012 A 
ATOM     14  I   UNL A   1      28.403  31.023  21.835  1.00  0.00    -0.044 I 
ATOM     15  C   UNL A   1      28.431  28.267  23.055  1.00  0.00     0.015 A 
ENDBRANCH   7   8
BRANCH   7  16
ATOM     16  N   UNL A   1      30.266  24.461  23.856  1.00  0.00    -0.343 N 
ATOM     17  H   UNL A   1      29.323  24.662  23.525  1.00  0.00     0.345 HD
ATOM     18  H   UNL A   1      30.232  23.714  24.550  1.00  0.00     0.345 HD
ATOM     19  H   UNL A   1      30.848  24.169  23.071  1.00  0.00     0.345 HD
ENDBRANCH   7  16
ENDBRANCH   4   7
ENDBRANCH   2   3
ENDBRANCH   1   2
BRANCH   1  20
ATOM     20  C   UNL A   1      33.625  29.441  26.795  1.00  0.00     0.118 C 
BRANCH  20  21
ATOM     21  N   UNL A   1      33.678  30.629  27.641  1.00  0.00    -0.352 N 
ATOM     22  C   UNL A   1      34.653  31.058  28.511  1.00  0.00     0.251 C 
ATOM     23  H   UNL A   1      32.891  31.217  27.578  1.00  0.00     0.163 HD
ATOM     24  O   UNL A   1      34.456  32.032  29.226  1.00  0.00    -0.269 OA
BRANCH  22  25
ATOM     25  C   UNL A   1      35.926  30.314  28.610  1.00  0.00     0.039 A 
ATOM     26  C   UNL A   1      36.797  30.311  27.518  1.00  0.00     0.014 A 
ATOM     27  C   UNL A   1      36.279  29.664  29.792  1.00  0.00     0.014 A 
ATOM     28  C   UNL A   1      38.069  29.748  27.653  1.00  0.00     0.010 A 
ATOM     29  C   UNL A   1      37.578  29.200  29.958  1.00  0.00     0.010 A 
ATOM     30  C   UNL A   1      38.490  29.243  28.893  1.00  0.00    -0.014 A 
BRANCH  30  31
ATOM     31  C   UNL A   1      39.879  28.763  29.116  1.00  0.00     0.031 A 
ATOM     32  C   UNL A   1      40.912  29.698  29.684  1.00  0.00     0.074 A 
ATOM     33  C   UNL A   1      40.233  27.525  28.720  1.00  0.00     0.049 A 
ATOM     34  N   UNL A   1      42.202  29.520  29.819  1.00  0.00    -0.248 NA
ATOM     35  C   UNL A   1      40.441  31.023  30.121  1.00  0.00     0.031 C 
ATOM     36  C   UNL A   1      39.342  26.535  28.107  1.00  0.00     0.029 A 
ATOM     37  N   UNL A   1      41.450  26.890  28.761  1.00  0.00    -0.354 N 
ATOM     38  C   UNL A   1      42.696  30.717  30.321  1.00  0.00     0.074 A 
ATOM     39  C   UNL A   1      41.579  31.630  30.421  1.00  0.00     0.031 C 
ATOM     40  C   UNL A   1      40.033  25.410  27.863  1.00  0.00     0.029 A 
ATOM     41  C   UNL A   1      41.423  25.612  28.257  1.00  0.00     0.049 A 
ATOM     42  H   UNL A   1      42.265  27.311  29.119  1.00  0.00     0.167 HD
ATOM     43  C   UNL A   1      43.962  31.026  30.689  1.00  0.00     0.031 A 
ATOM     44  C   UNL A   1      42.409  24.706  28.120  1.00  0.00     0.031 A 
ATOM     45  C   UNL A   1      45.066  30.108  30.629  1.00  0.00     0.049 A 
ATOM     46  C   UNL A   1      43.801  25.065  28.560  1.00  0.00     0.074 A 
ATOM     47  C   UNL A   1      46.376  30.308  31.030  1.00  0.00     0.029 A 
ATOM     48  N   UNL A   1      44.985  28.811  30.151  1.00  0.00    -0.354 N 
ATOM     49  N   UNL A   1      44.241  26.188  29.073  1.00  0.00    -0.248 NA
ATOM     50  C   UNL A   1      44.830  24.026  28.409  1.00  0.00     0.031 C 
ATOM     51  C   UNL A   1      47.094  29.136  30.770  1.00  0.00     0.029 A 
ATOM     52  C   UNL A   1      46.222  28.197  30.245  1.00  0.00     0.049 A 
ATOM     53  H   UNL A   1      44.169  28.388  29.798  1.00  0.00     0.167 HD
ATOM     54  C   UNL A   1      45.589  25.981  29.334  1.00  0.00     0.074 A 
ATOM     55  C   UNL A   1      45.891  24.622  28.935  1.00  0.00     0.031 C 
ATOM     56  C   UNL A   1      46.496  26.840  29.855  1.00  0.00     0.031 A 
BRANCH  43  57
ATOM     57  C   UNL A   1      44.212  32.415  31.202  1.00  0.00    -0.014 A 
ATOM     58  C   UNL A   1      44.109  32.710  32.571  1.00  0.00     0.009 A 
ATOM     59  C   UNL A   1      44.583  33.435  30.313  1.00  0.00     0.009 A 
ATOM     60  C   UNL A   1      44.338  34.006  33.035  1.00  0.00     0.001 A 
ATOM     61  C   UNL A   1      44.839  34.725  30.783  1.00  0.00     0.001 A 
ATOM     62  C   UNL A   1      44.706  35.011  32.142  1.00  0.00     0.000 A 
ENDBRANCH  43  57
BRANCH  44  63
ATOM     63  C   UNL A   1      42.121  23.359  27.563  1.00  0.00    -0.014 A 
ATOM     64  C   UNL A   1      42.364  23.089  26.206  1.00  0.00     0.009 A 
ATOM     65  C   UNL A   1      41.583  22.346  28.371  1.00  0.00     0.009 A 
ATOM     66  C   UNL A   1      42.043  21.844  25.663  1.00  0.00     0.001 A 
ATOM     67  C   UNL A   1      41.287  21.093  27.830  1.00  0.00     0.001 A 
ATOM     68  C   UNL A   1      41.507  20.846  26.475  1.00  0.00     0.000 A 
ENDBRANCH  44  63
BRANCH  56  69
ATOM     69  C   UNL A   1      47.888  26.320  30.067  1.00  0.00    -0.014 A 
ATOM     70  C   UNL A   1      48.295  25.819  31.312  1.00  0.00     0.009 A 
ATOM     71  C   UNL A   1      48.789  26.295  28.991  1.00  0.00     0.009 A 
ATOM     72  C   UNL A   1      49.591  25.329  31.483  1.00  0.00     0.001 A 
ATOM     73  C   UNL A   1      50.076  25.781  29.158  1.00  0.00     0.001 A 
ATOM     74  C   UNL A   1      50.477  25.306  30.406  1.00  0.00     0.000 A 
ENDBRANCH  56  69
ENDBRANCH  30  31
ENDBRANCH  22  25
ENDBRANCH  20  21
ENDBRANCH   1  20
TORSDOF 12
ENDMDL
