MODEL 1
REMARK VINA RESULT:     -10.7      0.000      0.000
REMARK SMILES O=C(NCCCNC(=O)[C@H]1CC[C@@H](CNc2ccccc2C(F)(F)F)O1)c1ccc(-c2c3nc(c(-c4ccccc4)c4ccc([nH]4)c(-c4ccccc4)c4nc(c(-c5ccccc5)c5ccc2[nH]5)C=C4)C=C3)cc1
REMARK SMILES IDX 6 1 5 2 4 3 3 4 1 5 2 6 27 8 28 9 74 10 29 11 73 12 30 13
REMARK SMILES IDX 31 14 32 15 67 16 33 17 72 18 66 19 68 20 34 21 71 22 65 23
REMARK SMILES IDX 64 24 35 26 57 27 42 28 56 29 43 30 46 31 55 32 69 33 44 34
REMARK SMILES IDX 45 35 54 37 70 38 47 39 36 40 37 41 41 42 38 43 40 44 39 45
REMARK SMILES IDX 58 46 59 47 63 48 60 49 62 50 61 51 48 52 49 53 53 54 50 55
REMARK SMILES IDX 52 56 51 57 7 58 8 59 9 61 10 62 11 63 26 64 12 65 13 66
REMARK SMILES IDX 14 67 15 68 16 70 17 71 21 72 18 73 20 74 19 75 22 76 23 77
REMARK SMILES IDX 24 78 25 79
REMARK H PARENT 3 7 68 25 46 36 7 60 15 69
REMARK Flexibility Score: inf
ROOT
ATOM      1  C   UNL A   1      37.446  20.914  24.964  1.00  0.00     0.117 C 
ENDROOT
BRANCH   1   2
ATOM      2  C   UNL A   1      38.360  19.692  25.004  1.00  0.00     0.042 C 
BRANCH   2   3
ATOM      3  C   UNL A   1      39.321  19.671  26.188  1.00  0.00     0.118 C 
BRANCH   3   4
ATOM      4  N   UNL A   1      40.597  19.043  25.873  1.00  0.00    -0.352 N 
ATOM      5  O   UNL A   1      42.802  18.918  25.439  1.00  0.00    -0.269 OA
ATOM      6  C   UNL A   1      41.864  19.567  25.898  1.00  0.00     0.251 C 
ATOM      7  H   UNL A   1      40.541  18.098  25.603  1.00  0.00     0.163 HD
BRANCH   6   8
ATOM      8  C   UNL A   1      42.108  20.913  26.457  1.00  0.00     0.039 A 
ATOM      9  C   UNL A   1      42.161  21.118  27.838  1.00  0.00     0.014 A 
ATOM     10  C   UNL A   1      42.330  21.981  25.582  1.00  0.00     0.014 A 
ATOM     11  C   UNL A   1      42.310  22.405  28.343  1.00  0.00     0.010 A 
ATOM     12  C   UNL A   1      42.565  23.260  26.092  1.00  0.00     0.010 A 
ATOM     13  C   UNL A   1      42.539  23.486  27.477  1.00  0.00    -0.014 A 
BRANCH  13  14
ATOM     14  C   UNL A   1      42.841  24.824  28.041  1.00  0.00     0.031 A 
ATOM     15  C   UNL A   1      41.758  25.837  28.276  1.00  0.00     0.074 A 
ATOM     16  C   UNL A   1      44.122  25.120  28.338  1.00  0.00     0.049 A 
ATOM     17  N   UNL A   1      41.860  27.055  28.743  1.00  0.00    -0.248 NA
ATOM     18  C   UNL A   1      40.383  25.437  27.936  1.00  0.00     0.031 C 
ATOM     19  C   UNL A   1      45.263  24.219  28.149  1.00  0.00     0.029 A 
ATOM     20  N   UNL A   1      44.682  26.255  28.869  1.00  0.00    -0.354 N 
ATOM     21  C   UNL A   1      40.572  27.576  28.736  1.00  0.00     0.074 A 
ATOM     22  C   UNL A   1      39.707  26.548  28.196  1.00  0.00     0.031 C 
ATOM     23  C   UNL A   1      46.378  24.821  28.587  1.00  0.00     0.029 A 
ATOM     24  C   UNL A   1      46.044  26.172  29.022  1.00  0.00     0.049 A 
ATOM     25  H   UNL A   1      44.157  27.050  29.116  1.00  0.00     0.167 HD
ATOM     26  C   UNL A   1      40.154  28.799  29.143  1.00  0.00     0.031 A 
ATOM     27  C   UNL A   1      46.936  27.089  29.438  1.00  0.00     0.031 A 
ATOM     28  C   UNL A   1      41.022  29.817  29.677  1.00  0.00     0.049 A 
ATOM     29  C   UNL A   1      46.447  28.451  29.834  1.00  0.00     0.074 A 
ATOM     30  C   UNL A   1      40.684  31.069  30.162  1.00  0.00     0.029 A 
ATOM     31  N   UNL A   1      42.401  29.706  29.785  1.00  0.00    -0.354 N 
ATOM     32  N   UNL A   1      45.219  28.907  29.874  1.00  0.00    -0.248 NA
ATOM     33  C   UNL A   1      47.468  29.426  30.241  1.00  0.00     0.031 C 
ATOM     34  C   UNL A   1      41.863  31.740  30.501  1.00  0.00     0.029 A 
ATOM     35  C   UNL A   1      42.930  30.882  30.289  1.00  0.00     0.049 A 
ATOM     36  H   UNL A   1      42.924  28.910  29.539  1.00  0.00     0.167 HD
ATOM     37  C   UNL A   1      45.318  30.216  30.327  1.00  0.00     0.074 A 
ATOM     38  C   UNL A   1      46.722  30.471  30.570  1.00  0.00     0.031 C 
ATOM     39  C   UNL A   1      44.332  31.124  30.520  1.00  0.00     0.031 A 
BRANCH  26  40
ATOM     40  C   UNL A   1      38.692  29.126  28.997  1.00  0.00    -0.014 A 
ATOM     41  C   UNL A   1      37.800  29.001  30.073  1.00  0.00     0.009 A 
ATOM     42  C   UNL A   1      38.214  29.632  27.776  1.00  0.00     0.009 A 
ATOM     43  C   UNL A   1      36.455  29.349  29.921  1.00  0.00     0.001 A 
ATOM     44  C   UNL A   1      36.877  30.004  27.635  1.00  0.00     0.001 A 
ATOM     45  C   UNL A   1      35.997  29.855  28.705  1.00  0.00     0.000 A 
ENDBRANCH  26  40
BRANCH  27  46
ATOM     46  C   UNL A   1      48.384  26.756  29.464  1.00  0.00    -0.014 A 
ATOM     47  C   UNL A   1      49.198  27.003  28.350  1.00  0.00     0.009 A 
ATOM     48  C   UNL A   1      48.959  26.186  30.612  1.00  0.00     0.009 A 
ATOM     49  C   UNL A   1      50.552  26.663  28.375  1.00  0.00     0.001 A 
ATOM     50  C   UNL A   1      50.320  25.878  30.647  1.00  0.00     0.001 A 
ATOM     51  C   UNL A   1      51.113  26.106  29.524  1.00  0.00     0.000 A 
ENDBRANCH  27  46
BRANCH  39  52
ATOM     52  C   UNL A   1      44.738  32.472  31.045  1.00  0.00    -0.014 A 
ATOM     53  C   UNL A   1      45.029  33.534  30.176  1.00  0.00     0.009 A 
ATOM     54  C   UNL A   1      44.791  32.691  32.431  1.00  0.00     0.009 A 
ATOM     55  C   UNL A   1      45.396  34.782  30.686  1.00  0.00     0.001 A 
ATOM     56  C   UNL A   1      45.127  33.947  32.937  1.00  0.00     0.001 A 
ATOM     57  C   UNL A   1      45.436  34.989  32.064  1.00  0.00     0.000 A 
ENDBRANCH  39  52
ENDBRANCH  13  14
ENDBRANCH   6   8
ENDBRANCH   3   4
ENDBRANCH   2   3
ENDBRANCH   1   2
BRANCH   1  58
ATOM     58  N   UNL A   1      36.046  20.532  25.016  1.00  0.00    -0.354 N 
ATOM     59  C   UNL A   1      34.968  21.218  25.501  1.00  0.00     0.249 C 
ATOM     60  H   UNL A   1      35.842  19.643  24.645  1.00  0.00     0.163 HD
ATOM     61  O   UNL A   1      33.890  20.621  25.539  1.00  0.00    -0.272 OA
BRANCH  59  62
ATOM     62  C   UNL A   1      35.105  22.709  25.877  1.00  0.00     0.207 C 
ATOM     63  C   UNL A   1      35.069  23.630  24.659  1.00  0.00     0.045 C 
ATOM     64  O   UNL A   1      34.071  23.167  26.754  1.00  0.00    -0.363 OA
ATOM     65  C   UNL A   1      33.635  24.115  24.649  1.00  0.00     0.037 C 
ATOM     66  C   UNL A   1      33.370  24.271  26.131  1.00  0.00     0.138 C 
BRANCH  66  67
ATOM     67  C   UNL A   1      31.881  24.252  26.542  1.00  0.00     0.145 C 
BRANCH  67  68
ATOM     68  N   UNL A   1      31.452  25.631  26.727  1.00  0.00    -0.382 N 
ATOM     69  H   UNL A   1      31.298  25.901  27.662  1.00  0.00     0.160 HD
BRANCH  68  70
ATOM     70  C   UNL A   1      31.231  26.613  25.792  1.00  0.00     0.046 A 
ATOM     71  C   UNL A   1      30.216  26.333  24.850  1.00  0.00     0.026 A 
ATOM     72  C   UNL A   1      31.881  27.852  25.703  1.00  0.00     0.079 A 
ATOM     73  C   UNL A   1      29.815  27.252  23.882  1.00  0.00     0.002 A 
ATOM     74  C   UNL A   1      31.449  28.786  24.729  1.00  0.00     0.015 A 
ATOM     75  C   UNL A   1      30.425  28.492  23.830  1.00  0.00     0.001 A 
BRANCH  72  76
ATOM     76  C   UNL A   1      33.042  28.264  26.572  1.00  0.00     0.418 C 
ATOM     77  F   UNL A   1      33.499  29.520  26.275  1.00  0.00    -0.166 F 
ATOM     78  F   UNL A   1      32.711  28.311  27.896  1.00  0.00    -0.166 F 
ATOM     79  F   UNL A   1      34.145  27.470  26.488  1.00  0.00    -0.166 F 
ENDBRANCH  72  76
ENDBRANCH  68  70
ENDBRANCH  67  68
ENDBRANCH  66  67
ENDBRANCH  59  62
ENDBRANCH   1  58
TORSDOF 14
ENDMDL
MODEL 2
REMARK VINA RESULT:     -10.7      2.277      6.822
REMARK SMILES O=C(NCCCNC(=O)[C@H]1CC[C@@H](CNc2ccccc2C(F)(F)F)O1)c1ccc(-c2c3nc(c(-c4ccccc4)c4ccc([nH]4)c(-c4ccccc4)c4nc(c(-c5ccccc5)c5ccc2[nH]5)C=C4)C=C3)cc1
REMARK SMILES IDX 6 1 5 2 4 3 3 4 1 5 2 6 27 8 28 9 74 10 29 11 73 12 30 13
REMARK SMILES IDX 31 14 32 15 67 16 33 17 72 18 66 19 68 20 34 21 71 22 65 23
REMARK SMILES IDX 64 24 35 26 57 27 42 28 56 29 43 30 46 31 55 32 69 33 44 34
REMARK SMILES IDX 45 35 54 37 70 38 47 39 36 40 37 41 41 42 38 43 40 44 39 45
REMARK SMILES IDX 58 46 59 47 63 48 60 49 62 50 61 51 48 52 49 53 53 54 50 55
REMARK SMILES IDX 52 56 51 57 7 58 8 59 9 61 10 62 11 63 26 64 12 65 13 66
REMARK SMILES IDX 14 67 15 68 16 70 17 71 21 72 18 73 20 74 19 75 22 76 23 77
REMARK SMILES IDX 24 78 25 79
REMARK H PARENT 3 7 68 25 46 36 7 60 15 69
REMARK Flexibility Score: inf
ROOT
ATOM      1  C   UNL A   1      36.547  20.418  24.945  1.00  0.00     0.117 C 
ENDROOT
BRANCH   1   2
ATOM      2  C   UNL A   1      37.785  19.526  25.012  1.00  0.00     0.042 C 
BRANCH   2   3
ATOM      3  C   UNL A   1      38.964  20.152  25.748  1.00  0.00     0.118 C 
BRANCH   3   4
ATOM      4  N   UNL A   1      40.129  19.279  25.802  1.00  0.00    -0.352 N 
ATOM      5  O   UNL A   1      42.306  18.722  25.928  1.00  0.00    -0.269 OA
ATOM      6  C   UNL A   1      41.435  19.574  26.095  1.00  0.00     0.251 C 
ATOM      7  H   UNL A   1      39.951  18.333  25.596  1.00  0.00     0.163 HD
BRANCH   6   8
ATOM      8  C   UNL A   1      41.807  20.914  26.596  1.00  0.00     0.039 A 
ATOM      9  C   UNL A   1      42.267  21.904  25.725  1.00  0.00     0.014 A 
ATOM     10  C   UNL A   1      41.649  21.196  27.957  1.00  0.00     0.014 A 
ATOM     11  C   UNL A   1      42.688  23.130  26.229  1.00  0.00     0.010 A 
ATOM     12  C   UNL A   1      41.992  22.458  28.449  1.00  0.00     0.010 A 
ATOM     13  C   UNL A   1      42.532  23.429  27.592  1.00  0.00    -0.014 A 
BRANCH  13  14
ATOM     14  C   UNL A   1      42.849  24.792  28.083  1.00  0.00     0.031 A 
ATOM     15  C   UNL A   1      44.253  25.188  28.439  1.00  0.00     0.074 A 
ATOM     16  C   UNL A   1      41.843  25.680  28.209  1.00  0.00     0.049 A 
ATOM     17  N   UNL A   1      44.692  26.332  28.899  1.00  0.00    -0.248 NA
ATOM     18  C   UNL A   1      45.300  24.168  28.265  1.00  0.00     0.031 C 
ATOM     19  C   UNL A   1      40.435  25.409  27.899  1.00  0.00     0.029 A 
ATOM     20  N   UNL A   1      41.844  26.988  28.622  1.00  0.00    -0.354 N 
ATOM     21  C   UNL A   1      46.059  26.167  29.090  1.00  0.00     0.074 A 
ATOM     22  C   UNL A   1      46.374  24.805  28.716  1.00  0.00     0.031 C 
ATOM     23  C   UNL A   1      39.718  26.524  28.101  1.00  0.00     0.029 A 
ATOM     24  C   UNL A   1      40.598  27.564  28.619  1.00  0.00     0.049 A 
ATOM     25  H   UNL A   1      42.661  27.466  28.895  1.00  0.00     0.167 HD
ATOM     26  C   UNL A   1      46.964  27.072  29.535  1.00  0.00     0.031 A 
ATOM     27  C   UNL A   1      40.196  28.785  29.016  1.00  0.00     0.031 A 
ATOM     28  C   UNL A   1      46.641  28.426  29.907  1.00  0.00     0.049 A 
ATOM     29  C   UNL A   1      41.215  29.747  29.553  1.00  0.00     0.074 A 
ATOM     30  C   UNL A   1      47.498  29.431  30.323  1.00  0.00     0.029 A 
ATOM     31  N   UNL A   1      45.362  28.961  29.921  1.00  0.00    -0.354 N 
ATOM     32  N   UNL A   1      42.511  29.593  29.673  1.00  0.00    -0.248 NA
ATOM     33  C   UNL A   1      40.715  31.050  30.010  1.00  0.00     0.031 C 
ATOM     34  C   UNL A   1      46.730  30.552  30.652  1.00  0.00     0.029 A 
ATOM     35  C   UNL A   1      45.402  30.268  30.378  1.00  0.00     0.049 A 
ATOM     36  H   UNL A   1      44.547  28.482  29.647  1.00  0.00     0.167 HD
ATOM     37  C   UNL A   1      42.984  30.786  30.202  1.00  0.00     0.074 A 
ATOM     38  C   UNL A   1      41.840  31.659  30.357  1.00  0.00     0.031 C 
ATOM     39  C   UNL A   1      44.254  31.124  30.533  1.00  0.00     0.031 A 
BRANCH  26  40
ATOM     40  C   UNL A   1      48.392  26.622  29.682  1.00  0.00    -0.014 A 
ATOM     41  C   UNL A   1      48.844  25.980  30.845  1.00  0.00     0.009 A 
ATOM     42  C   UNL A   1      49.284  26.786  28.609  1.00  0.00     0.009 A 
ATOM     43  C   UNL A   1      50.166  25.537  30.940  1.00  0.00     0.001 A 
ATOM     44  C   UNL A   1      50.596  26.318  28.696  1.00  0.00     0.001 A 
ATOM     45  C   UNL A   1      51.038  25.701  29.864  1.00  0.00     0.000 A 
ENDBRANCH  26  40
BRANCH  27  46
ATOM     46  C   UNL A   1      38.756  29.148  28.954  1.00  0.00    -0.014 A 
ATOM     47  C   UNL A   1      38.198  29.673  27.781  1.00  0.00     0.009 A 
ATOM     48  C   UNL A   1      37.932  28.968  30.077  1.00  0.00     0.009 A 
ATOM     49  C   UNL A   1      36.849  30.035  27.741  1.00  0.00     0.001 A 
ATOM     50  C   UNL A   1      36.577  29.299  30.024  1.00  0.00     0.001 A 
ATOM     51  C   UNL A   1      36.039  29.843  28.859  1.00  0.00     0.000 A 
ENDBRANCH  27  46
BRANCH  39  52
ATOM     52  C   UNL A   1      44.474  32.509  31.072  1.00  0.00    -0.014 A 
ATOM     53  C   UNL A   1      44.446  32.766  32.451  1.00  0.00     0.009 A 
ATOM     54  C   UNL A   1      44.752  33.563  30.187  1.00  0.00     0.009 A 
ATOM     55  C   UNL A   1      44.662  34.060  32.931  1.00  0.00     0.001 A 
ATOM     56  C   UNL A   1      44.998  34.848  30.671  1.00  0.00     0.001 A 
ATOM     57  C   UNL A   1      44.945  35.096  32.042  1.00  0.00     0.000 A 
ENDBRANCH  39  52
ENDBRANCH  13  14
ENDBRANCH   6   8
ENDBRANCH   3   4
ENDBRANCH   2   3
ENDBRANCH   1   2
BRANCH   1  58
ATOM     58  N   UNL A   1      36.714  21.486  23.977  1.00  0.00    -0.354 N 
ATOM     59  C   UNL A   1      36.456  22.823  24.094  1.00  0.00     0.249 C 
ATOM     60  H   UNL A   1      37.068  21.205  23.102  1.00  0.00     0.163 HD
ATOM     61  O   UNL A   1      36.571  23.511  23.077  1.00  0.00    -0.272 OA
BRANCH  59  62
ATOM     62  C   UNL A   1      36.140  23.432  25.478  1.00  0.00     0.207 C 
ATOM     63  C   UNL A   1      35.053  24.503  25.416  1.00  0.00     0.045 C 
ATOM     64  O   UNL A   1      35.692  22.463  26.431  1.00  0.00    -0.363 OA
ATOM     65  C   UNL A   1      33.814  23.746  25.845  1.00  0.00     0.037 C 
ATOM     66  C   UNL A   1      34.381  22.840  26.917  1.00  0.00     0.138 C 
BRANCH  66  67
ATOM     67  C   UNL A   1      33.547  21.578  27.225  1.00  0.00     0.145 C 
BRANCH  67  68
ATOM     68  N   UNL A   1      32.682  21.325  26.081  1.00  0.00    -0.382 N 
ATOM     69  H   UNL A   1      32.006  22.019  25.905  1.00  0.00     0.160 HD
BRANCH  68  70
ATOM     70  C   UNL A   1      32.669  20.264  25.209  1.00  0.00     0.046 A 
ATOM     71  C   UNL A   1      32.860  18.994  25.800  1.00  0.00     0.026 A 
ATOM     72  C   UNL A   1      32.461  20.314  23.824  1.00  0.00     0.079 A 
ATOM     73  C   UNL A   1      32.800  17.809  25.069  1.00  0.00     0.002 A 
ATOM     74  C   UNL A   1      32.379  19.101  23.096  1.00  0.00     0.015 A 
ATOM     75  C   UNL A   1      32.543  17.862  23.711  1.00  0.00     0.001 A 
BRANCH  72  76
ATOM     76  C   UNL A   1      32.332  21.591  23.033  1.00  0.00     0.418 C 
ATOM     77  F   UNL A   1      33.503  22.301  22.990  1.00  0.00    -0.166 F 
ATOM     78  F   UNL A   1      32.006  21.366  21.727  1.00  0.00    -0.166 F 
ATOM     79  F   UNL A   1      31.412  22.479  23.502  1.00  0.00    -0.166 F 
ENDBRANCH  72  76
ENDBRANCH  68  70
ENDBRANCH  67  68
ENDBRANCH  66  67
ENDBRANCH  59  62
ENDBRANCH   1  58
TORSDOF 14
ENDMDL
MODEL 3
REMARK VINA RESULT:     -10.7      1.684      2.251
REMARK SMILES O=C(NCCCNC(=O)[C@H]1CC[C@@H](CNc2ccccc2C(F)(F)F)O1)c1ccc(-c2c3nc(c(-c4ccccc4)c4ccc([nH]4)c(-c4ccccc4)c4nc(c(-c5ccccc5)c5ccc2[nH]5)C=C4)C=C3)cc1
REMARK SMILES IDX 6 1 5 2 4 3 3 4 1 5 2 6 27 8 28 9 74 10 29 11 73 12 30 13
REMARK SMILES IDX 31 14 32 15 67 16 33 17 72 18 66 19 68 20 34 21 71 22 65 23
REMARK SMILES IDX 64 24 35 26 57 27 42 28 56 29 43 30 46 31 55 32 69 33 44 34
REMARK SMILES IDX 45 35 54 37 70 38 47 39 36 40 37 41 41 42 38 43 40 44 39 45
REMARK SMILES IDX 58 46 59 47 63 48 60 49 62 50 61 51 48 52 49 53 53 54 50 55
REMARK SMILES IDX 52 56 51 57 7 58 8 59 9 61 10 62 11 63 26 64 12 65 13 66
REMARK SMILES IDX 14 67 15 68 16 70 17 71 21 72 18 73 20 74 19 75 22 76 23 77
REMARK SMILES IDX 24 78 25 79
REMARK H PARENT 3 7 68 25 46 36 7 60 15 69
REMARK Flexibility Score: inf
ROOT
ATOM      1  C   UNL A   1      36.706  20.750  24.645  1.00  0.00     0.117 C 
ENDROOT
BRANCH   1   2
ATOM      2  C   UNL A   1      37.790  19.689  24.822  1.00  0.00     0.042 C 
BRANCH   2   3
ATOM      3  C   UNL A   1      38.905  20.092  25.781  1.00  0.00     0.118 C 
BRANCH   3   4
ATOM      4  N   UNL A   1      40.002  19.133  25.812  1.00  0.00    -0.352 N 
ATOM      5  O   UNL A   1      42.134  18.413  25.817  1.00  0.00    -0.269 OA
ATOM      6  C   UNL A   1      41.346  19.342  25.985  1.00  0.00     0.251 C 
ATOM      7  H   UNL A   1      39.737  18.193  25.692  1.00  0.00     0.163 HD
BRANCH   6   8
ATOM      8  C   UNL A   1      41.856  20.679  26.355  1.00  0.00     0.039 A 
ATOM      9  C   UNL A   1      42.160  21.628  25.377  1.00  0.00     0.014 A 
ATOM     10  C   UNL A   1      41.990  21.001  27.709  1.00  0.00     0.014 A 
ATOM     11  C   UNL A   1      42.715  22.849  25.744  1.00  0.00     0.010 A 
ATOM     12  C   UNL A   1      42.467  22.261  28.080  1.00  0.00     0.010 A 
ATOM     13  C   UNL A   1      42.851  23.189  27.099  1.00  0.00    -0.014 A 
BRANCH  13  14
ATOM     14  C   UNL A   1      43.307  24.551  27.470  1.00  0.00     0.031 A 
ATOM     15  C   UNL A   1      42.333  25.615  27.886  1.00  0.00     0.074 A 
ATOM     16  C   UNL A   1      44.626  24.821  27.423  1.00  0.00     0.049 A 
ATOM     17  N   UNL A   1      42.569  26.859  28.221  1.00  0.00    -0.248 NA
ATOM     18  C   UNL A   1      40.910  25.243  27.922  1.00  0.00     0.031 C 
ATOM     19  C   UNL A   1      45.669  23.868  27.029  1.00  0.00     0.029 A 
ATOM     20  N   UNL A   1      45.320  25.968  27.715  1.00  0.00    -0.354 N 
ATOM     21  C   UNL A   1      41.328  27.424  28.489  1.00  0.00     0.074 A 
ATOM     22  C   UNL A   1      40.338  26.393  28.256  1.00  0.00     0.031 C 
ATOM     23  C   UNL A   1      46.868  24.458  27.136  1.00  0.00     0.029 A 
ATOM     24  C   UNL A   1      46.676  25.846  27.536  1.00  0.00     0.049 A 
ATOM     25  H   UNL A   1      44.886  26.797  28.021  1.00  0.00     0.167 HD
ATOM     26  C   UNL A   1      41.045  28.686  28.894  1.00  0.00     0.031 A 
ATOM     27  C   UNL A   1      47.660  26.757  27.652  1.00  0.00     0.031 A 
ATOM     28  C   UNL A   1      42.037  29.706  29.122  1.00  0.00     0.049 A 
ATOM     29  C   UNL A   1      47.308  28.160  28.051  1.00  0.00     0.074 A 
ATOM     30  C   UNL A   1      41.851  31.000  29.579  1.00  0.00     0.029 A 
ATOM     31  N   UNL A   1      43.397  29.553  28.898  1.00  0.00    -0.354 N 
ATOM     32  N   UNL A   1      46.136  28.662  28.356  1.00  0.00    -0.248 NA
ATOM     33  C   UNL A   1      48.415  29.123  28.123  1.00  0.00     0.031 C 
ATOM     34  C   UNL A   1      43.089  31.649  29.568  1.00  0.00     0.029 A 
ATOM     35  C   UNL A   1      44.056  30.742  29.167  1.00  0.00     0.049 A 
ATOM     36  H   UNL A   1      43.830  28.724  28.591  1.00  0.00     0.167 HD
ATOM     37  C   UNL A   1      46.367  29.994  28.671  1.00  0.00     0.074 A 
ATOM     38  C   UNL A   1      47.792  30.214  28.544  1.00  0.00     0.031 C 
ATOM     39  C   UNL A   1      45.475  30.948  29.030  1.00  0.00     0.031 A 
BRANCH  26  40
ATOM     40  C   UNL A   1      39.599  29.054  29.084  1.00  0.00    -0.014 A 
ATOM     41  C   UNL A   1      38.825  29.560  28.028  1.00  0.00     0.009 A 
ATOM     42  C   UNL A   1      38.984  28.828  30.326  1.00  0.00     0.009 A 
ATOM     43  C   UNL A   1      37.473  29.858  28.222  1.00  0.00     0.001 A 
ATOM     44  C   UNL A   1      37.627  29.100  30.509  1.00  0.00     0.001 A 
ATOM     45  C   UNL A   1      36.875  29.622  29.459  1.00  0.00     0.000 A 
ENDBRANCH  26  40
BRANCH  27  46
ATOM     46  C   UNL A   1      49.063  26.375  27.349  1.00  0.00    -0.014 A 
ATOM     47  C   UNL A   1      49.529  26.338  26.027  1.00  0.00     0.009 A 
ATOM     48  C   UNL A   1      49.947  26.044  28.389  1.00  0.00     0.009 A 
ATOM     49  C   UNL A   1      50.842  25.953  25.751  1.00  0.00     0.001 A 
ATOM     50  C   UNL A   1      51.270  25.692  28.113  1.00  0.00     0.001 A 
ATOM     51  C   UNL A   1      51.712  25.635  26.793  1.00  0.00     0.000 A 
ENDBRANCH  27  46
BRANCH  39  52
ATOM     52  C   UNL A   1      46.022  32.314  29.338  1.00  0.00    -0.014 A 
ATOM     53  C   UNL A   1      46.472  32.644  30.625  1.00  0.00     0.009 A 
ATOM     54  C   UNL A   1      46.124  33.269  28.314  1.00  0.00     0.009 A 
ATOM     55  C   UNL A   1      46.985  33.916  30.887  1.00  0.00     0.001 A 
ATOM     56  C   UNL A   1      46.666  34.529  28.572  1.00  0.00     0.001 A 
ATOM     57  C   UNL A   1      47.088  34.853  29.860  1.00  0.00     0.000 A 
ENDBRANCH  39  52
ENDBRANCH  13  14
ENDBRANCH   6   8
ENDBRANCH   3   4
ENDBRANCH   2   3
ENDBRANCH   1   2
BRANCH   1  58
ATOM     58  N   UNL A   1      35.505  20.410  25.387  1.00  0.00    -0.354 N 
ATOM     59  C   UNL A   1      34.448  21.196  25.751  1.00  0.00     0.249 C 
ATOM     60  H   UNL A   1      35.442  19.469  25.670  1.00  0.00     0.163 HD
ATOM     61  O   UNL A   1      33.598  20.692  26.488  1.00  0.00    -0.272 OA
BRANCH  59  62
ATOM     62  C   UNL A   1      34.300  22.615  25.160  1.00  0.00     0.207 C 
ATOM     63  C   UNL A   1      33.410  22.648  23.920  1.00  0.00     0.045 C 
ATOM     64  O   UNL A   1      33.735  23.553  26.082  1.00  0.00    -0.363 OA
ATOM     65  C   UNL A   1      32.080  23.109  24.476  1.00  0.00     0.037 C 
ATOM     66  C   UNL A   1      32.529  24.118  25.511  1.00  0.00     0.138 C 
BRANCH  66  67
ATOM     67  C   UNL A   1      31.506  24.420  26.628  1.00  0.00     0.145 C 
BRANCH  67  68
ATOM     68  N   UNL A   1      30.645  25.498  26.162  1.00  0.00    -0.382 N 
ATOM     69  H   UNL A   1      29.708  25.244  25.996  1.00  0.00     0.160 HD
BRANCH  68  70
ATOM     70  C   UNL A   1      30.944  26.816  25.919  1.00  0.00     0.046 A 
ATOM     71  C   UNL A   1      31.457  27.533  27.023  1.00  0.00     0.026 A 
ATOM     72  C   UNL A   1      30.818  27.498  24.700  1.00  0.00     0.079 A 
ATOM     73  C   UNL A   1      31.881  28.857  26.928  1.00  0.00     0.002 A 
ATOM     74  C   UNL A   1      31.273  28.836  24.610  1.00  0.00     0.015 A 
ATOM     75  C   UNL A   1      31.802  29.509  25.710  1.00  0.00     0.001 A 
BRANCH  72  76
ATOM     76  C   UNL A   1      30.205  26.903  23.457  1.00  0.00     0.418 C 
ATOM     77  F   UNL A   1      30.887  25.804  23.011  1.00  0.00    -0.166 F 
ATOM     78  F   UNL A   1      28.927  26.469  23.662  1.00  0.00    -0.166 F 
ATOM     79  F   UNL A   1      30.151  27.733  22.379  1.00  0.00    -0.166 F 
ENDBRANCH  72  76
ENDBRANCH  68  70
ENDBRANCH  67  68
ENDBRANCH  66  67
ENDBRANCH  59  62
ENDBRANCH   1  58
TORSDOF 14
ENDMDL
