MODEL 1
REMARK VINA RESULT:     -11.2      0.000      0.000
REMARK SMILES O=C(NCCCNC(=O)[C@H]1C[C@H]2CCCC[C@@H]2[N@@H+]1C1CCSCC1)c1ccc(-c2c3nc(c(-c4ccccc4)c4ccc([nH]4)c(-c4ccccc4)c4nc(c(-c5ccccc5)c5ccc2[nH]5)C=C4)C=C3)cc1
REMARK SMILES IDX 4 1 3 2 1 3 2 4 25 6 26 7 72 8 27 9 71 10 28 11 29 12 30 13
REMARK SMILES IDX 65 14 31 15 70 16 64 17 66 18 32 19 69 20 63 21 62 22 33 24
REMARK SMILES IDX 55 25 40 26 54 27 41 28 44 29 53 30 67 31 42 32 43 33 52 35
REMARK SMILES IDX 68 36 45 37 34 38 35 39 39 40 36 41 38 42 37 43 56 44 57 45
REMARK SMILES IDX 61 46 58 47 60 48 59 49 46 50 47 51 51 52 48 53 50 54 49 55
REMARK SMILES IDX 5 56 6 57 7 58 8 59 9 61 10 62 11 63 18 64 12 65 17 66 13 68
REMARK SMILES IDX 16 69 14 70 15 71 19 72 20 73 24 74 21 75 23 76 22 77
REMARK H PARENT 3 5 66 23 44 34 7 60 18 67
REMARK Flexibility Score: inf
ROOT
ATOM      1  C   UNL A   1      33.513  28.622  27.157  1.00  0.00     0.118 C 
ENDROOT
BRANCH   1   2
ATOM      2  N   UNL A   1      33.588  30.020  27.582  1.00  0.00    -0.352 N 
ATOM      3  O   UNL A   1      34.312  31.823  28.711  1.00  0.00    -0.269 OA
ATOM      4  C   UNL A   1      34.573  30.720  28.245  1.00  0.00     0.251 C 
ATOM      5  H   UNL A   1      32.794  30.555  27.356  1.00  0.00     0.163 HD
BRANCH   4   6
ATOM      6  C   UNL A   1      35.928  30.149  28.420  1.00  0.00     0.039 A 
ATOM      7  C   UNL A   1      36.290  29.518  29.605  1.00  0.00     0.014 A 
ATOM      8  C   UNL A   1      36.850  30.213  27.369  1.00  0.00     0.014 A 
ATOM      9  C   UNL A   1      37.613  29.174  29.832  1.00  0.00     0.010 A 
ATOM     10  C   UNL A   1      38.149  29.719  27.545  1.00  0.00     0.010 A 
ATOM     11  C   UNL A   1      38.559  29.241  28.798  1.00  0.00    -0.014 A 
BRANCH  11  12
ATOM     12  C   UNL A   1      39.939  28.755  29.066  1.00  0.00     0.031 A 
ATOM     13  C   UNL A   1      40.386  27.382  28.639  1.00  0.00     0.074 A 
ATOM     14  C   UNL A   1      40.822  29.600  29.638  1.00  0.00     0.049 A 
ATOM     15  N   UNL A   1      41.575  26.839  28.732  1.00  0.00    -0.248 NA
ATOM     16  C   UNL A   1      39.372  26.498  28.042  1.00  0.00     0.031 C 
ATOM     17  C   UNL A   1      40.513  30.958  30.101  1.00  0.00     0.029 A 
ATOM     18  N   UNL A   1      42.164  29.468  29.887  1.00  0.00    -0.354 N 
ATOM     19  C   UNL A   1      41.444  25.546  28.241  1.00  0.00     0.074 A 
ATOM     20  C   UNL A   1      40.056  25.375  27.871  1.00  0.00     0.031 C 
ATOM     21  C   UNL A   1      41.644  31.561  30.487  1.00  0.00     0.029 A 
ATOM     22  C   UNL A   1      42.742  30.610  30.389  1.00  0.00     0.049 A 
ATOM     23  H   UNL A   1      42.664  28.637  29.721  1.00  0.00     0.167 HD
ATOM     24  C   UNL A   1      42.394  24.587  28.107  1.00  0.00     0.031 A 
ATOM     25  C   UNL A   1      44.013  30.866  30.746  1.00  0.00     0.031 A 
ATOM     26  C   UNL A   1      43.779  24.764  28.464  1.00  0.00     0.049 A 
ATOM     27  C   UNL A   1      45.037  29.781  30.605  1.00  0.00     0.074 A 
ATOM     28  C   UNL A   1      44.824  23.864  28.337  1.00  0.00     0.029 A 
ATOM     29  N   UNL A   1      44.311  25.918  29.021  1.00  0.00    -0.354 N 
ATOM     30  N   UNL A   1      44.899  28.573  30.115  1.00  0.00    -0.248 NA
ATOM     31  C   UNL A   1      46.395  30.096  31.068  1.00  0.00     0.031 C 
ATOM     32  C   UNL A   1      45.976  24.454  28.868  1.00  0.00     0.029 A 
ATOM     33  C   UNL A   1      45.665  25.743  29.264  1.00  0.00     0.049 A 
ATOM     34  H   UNL A   1      43.804  26.739  29.213  1.00  0.00     0.167 HD
ATOM     35  C   UNL A   1      46.156  27.991  30.189  1.00  0.00     0.074 A 
ATOM     36  C   UNL A   1      47.047  28.987  30.749  1.00  0.00     0.031 C 
ATOM     37  C   UNL A   1      46.538  26.743  29.824  1.00  0.00     0.031 A 
BRANCH  24  38
ATOM     38  C   UNL A   1      41.961  23.243  27.588  1.00  0.00    -0.014 A 
ATOM     39  C   UNL A   1      41.488  22.237  28.447  1.00  0.00     0.009 A 
ATOM     40  C   UNL A   1      41.992  22.992  26.207  1.00  0.00     0.009 A 
ATOM     41  C   UNL A   1      41.091  20.998  27.935  1.00  0.00     0.001 A 
ATOM     42  C   UNL A   1      41.566  21.764  25.695  1.00  0.00     0.001 A 
ATOM     43  C   UNL A   1      41.126  20.764  26.560  1.00  0.00     0.000 A 
ENDBRANCH  24  38
BRANCH  25  44
ATOM     44  C   UNL A   1      44.380  32.203  31.282  1.00  0.00    -0.014 A 
ATOM     45  C   UNL A   1      44.307  32.469  32.658  1.00  0.00     0.009 A 
ATOM     46  C   UNL A   1      44.810  33.222  30.417  1.00  0.00     0.009 A 
ATOM     47  C   UNL A   1      44.633  33.734  33.152  1.00  0.00     0.001 A 
ATOM     48  C   UNL A   1      45.169  34.475  30.917  1.00  0.00     0.001 A 
ATOM     49  C   UNL A   1      45.070  34.733  32.283  1.00  0.00     0.000 A 
ENDBRANCH  25  44
BRANCH  37  50
ATOM     50  C   UNL A   1      47.995  26.408  29.976  1.00  0.00    -0.014 A 
ATOM     51  C   UNL A   1      48.499  25.839  31.156  1.00  0.00     0.009 A 
ATOM     52  C   UNL A   1      48.875  26.658  28.911  1.00  0.00     0.009 A 
ATOM     53  C   UNL A   1      49.863  25.570  31.283  1.00  0.00     0.001 A 
ATOM     54  C   UNL A   1      50.232  26.357  29.028  1.00  0.00     0.001 A 
ATOM     55  C   UNL A   1      50.727  25.826  30.218  1.00  0.00     0.000 A 
ENDBRANCH  37  50
ENDBRANCH  11  12
ENDBRANCH   4   6
ENDBRANCH   1   2
BRANCH   1  56
ATOM     56  C   UNL A   1      33.868  28.463  25.690  1.00  0.00     0.042 C 
BRANCH  56  57
ATOM     57  C   UNL A   1      32.880  27.565  24.962  1.00  0.00     0.118 C 
BRANCH  57  58
ATOM     58  N   UNL A   1      33.297  27.293  23.612  1.00  0.00    -0.351 N 
ATOM     59  C   UNL A   1      33.569  26.091  23.022  1.00  0.00     0.278 C 
ATOM     60  H   UNL A   1      33.399  28.082  23.032  1.00  0.00     0.163 HD
ATOM     61  O   UNL A   1      33.997  26.147  21.865  1.00  0.00    -0.268 OA
BRANCH  59  62
ATOM     62  C   UNL A   1      33.315  24.734  23.777  1.00  0.00     0.275 C 
ATOM     63  C   UNL A   1      34.052  23.608  23.002  1.00  0.00     0.085 C 
ATOM     64  N   UNL A   1      33.931  24.791  25.139  1.00  0.00    -0.320 N 
ATOM     65  C   UNL A   1      35.132  23.130  23.954  1.00  0.00     0.054 C 
ATOM     66  C   UNL A   1      35.317  24.316  24.895  1.00  0.00     0.188 C 
ATOM     67  H   UNL A   1      33.848  25.744  25.492  1.00  0.00     0.349 HD
ATOM     68  C   UNL A   1      36.458  22.669  23.368  1.00  0.00     0.010 C 
ATOM     69  C   UNL A   1      36.258  23.974  26.053  1.00  0.00     0.065 C 
ATOM     70  C   UNL A   1      37.404  22.289  24.516  1.00  0.00     0.001 C 
ATOM     71  C   UNL A   1      37.591  23.435  25.515  1.00  0.00     0.006 C 
BRANCH  64  72
ATOM     72  C   UNL A   1      33.252  24.193  26.324  1.00  0.00     0.186 C 
ATOM     73  C   UNL A   1      31.942  24.876  26.779  1.00  0.00     0.076 C 
ATOM     74  C   UNL A   1      33.083  22.667  26.479  1.00  0.00     0.076 C 
ATOM     75  C   UNL A   1      30.637  24.413  26.137  1.00  0.00     0.075 C 
ATOM     76  C   UNL A   1      31.950  22.055  25.675  1.00  0.00     0.075 C 
ATOM     77  S   UNL A   1      30.352  22.635  26.302  1.00  0.00    -0.162 SA
ENDBRANCH  64  72
ENDBRANCH  59  62
ENDBRANCH  57  58
ENDBRANCH  56  57
ENDBRANCH   1  56
TORSDOF 11
ENDMDL
MODEL 2
REMARK VINA RESULT:     -11.1      2.614      7.712
REMARK SMILES O=C(NCCCNC(=O)[C@H]1C[C@H]2CCCC[C@@H]2[N@@H+]1C1CCSCC1)c1ccc(-c2c3nc(c(-c4ccccc4)c4ccc([nH]4)c(-c4ccccc4)c4nc(c(-c5ccccc5)c5ccc2[nH]5)C=C4)C=C3)cc1
REMARK SMILES IDX 4 1 3 2 1 3 2 4 25 6 26 7 72 8 27 9 71 10 28 11 29 12 30 13
REMARK SMILES IDX 65 14 31 15 70 16 64 17 66 18 32 19 69 20 63 21 62 22 33 24
REMARK SMILES IDX 55 25 40 26 54 27 41 28 44 29 53 30 67 31 42 32 43 33 52 35
REMARK SMILES IDX 68 36 45 37 34 38 35 39 39 40 36 41 38 42 37 43 56 44 57 45
REMARK SMILES IDX 61 46 58 47 60 48 59 49 46 50 47 51 51 52 48 53 50 54 49 55
REMARK SMILES IDX 5 56 6 57 7 58 8 59 9 61 10 62 11 63 18 64 12 65 17 66 13 68
REMARK SMILES IDX 16 69 14 70 15 71 19 72 20 73 24 74 21 75 23 76 22 77
REMARK H PARENT 3 5 66 23 44 34 7 60 18 67
REMARK Flexibility Score: inf
ROOT
ATOM      1  C   UNL A   1      37.033  23.408  25.098  1.00  0.00     0.118 C 
ENDROOT
BRANCH   1   2
ATOM      2  N   UNL A   1      38.175  22.569  25.462  1.00  0.00    -0.352 N 
ATOM      3  O   UNL A   1      40.275  22.050  26.068  1.00  0.00    -0.269 OA
ATOM      4  C   UNL A   1      39.365  22.871  26.087  1.00  0.00     0.251 C 
ATOM      5  H   UNL A   1      38.076  21.621  25.216  1.00  0.00     0.163 HD
BRANCH   4   6
ATOM      6  C   UNL A   1      39.564  24.175  26.759  1.00  0.00     0.039 A 
ATOM      7  C   UNL A   1      40.168  25.237  26.095  1.00  0.00     0.014 A 
ATOM      8  C   UNL A   1      39.110  24.358  28.071  1.00  0.00     0.014 A 
ATOM      9  C   UNL A   1      40.532  26.377  26.794  1.00  0.00     0.010 A 
ATOM     10  C   UNL A   1      39.339  25.574  28.729  1.00  0.00     0.010 A 
ATOM     11  C   UNL A   1      40.100  26.577  28.113  1.00  0.00    -0.014 A 
BRANCH  11  12
ATOM     12  C   UNL A   1      40.427  27.867  28.778  1.00  0.00     0.031 A 
ATOM     13  C   UNL A   1      39.401  28.961  28.918  1.00  0.00     0.074 A 
ATOM     14  C   UNL A   1      41.649  28.019  29.329  1.00  0.00     0.049 A 
ATOM     15  N   UNL A   1      39.507  30.112  29.537  1.00  0.00    -0.248 NA
ATOM     16  C   UNL A   1      38.095  28.747  28.277  1.00  0.00     0.031 C 
ATOM     17  C   UNL A   1      42.735  27.034  29.260  1.00  0.00     0.029 A 
ATOM     18  N   UNL A   1      42.174  29.029  30.093  1.00  0.00    -0.354 N 
ATOM     19  C   UNL A   1      38.301  30.769  29.330  1.00  0.00     0.074 A 
ATOM     20  C   UNL A   1      37.484  29.901  28.509  1.00  0.00     0.031 C 
ATOM     21  C   UNL A   1      43.753  27.444  30.026  1.00  0.00     0.029 A 
ATOM     22  C   UNL A   1      43.436  28.759  30.565  1.00  0.00     0.049 A 
ATOM     23  H   UNL A   1      41.693  29.866  30.285  1.00  0.00     0.167 HD
ATOM     24  C   UNL A   1      37.907  31.985  29.783  1.00  0.00     0.031 A 
ATOM     25  C   UNL A   1      44.260  29.490  31.337  1.00  0.00     0.031 A 
ATOM     26  C   UNL A   1      38.717  32.843  30.610  1.00  0.00     0.049 A 
ATOM     27  C   UNL A   1      43.805  30.839  31.807  1.00  0.00     0.074 A 
ATOM     28  C   UNL A   1      38.395  34.078  31.146  1.00  0.00     0.029 A 
ATOM     29  N   UNL A   1      40.011  32.555  31.019  1.00  0.00    -0.354 N 
ATOM     30  N   UNL A   1      42.651  31.432  31.620  1.00  0.00    -0.248 NA
ATOM     31  C   UNL A   1      44.768  31.619  32.594  1.00  0.00     0.031 C 
ATOM     32  C   UNL A   1      39.514  34.562  31.833  1.00  0.00     0.029 A 
ATOM     33  C   UNL A   1      40.508  33.600  31.781  1.00  0.00     0.049 A 
ATOM     34  H   UNL A   1      40.502  31.730  30.802  1.00  0.00     0.167 HD
ATOM     35  C   UNL A   1      42.740  32.645  32.287  1.00  0.00     0.074 A 
ATOM     36  C   UNL A   1      44.052  32.691  32.900  1.00  0.00     0.031 C 
ATOM     37  C   UNL A   1      41.817  33.633  32.383  1.00  0.00     0.031 A 
BRANCH  24  38
ATOM     38  C   UNL A   1      36.551  32.482  29.359  1.00  0.00    -0.014 A 
ATOM     39  C   UNL A   1      35.398  32.217  30.117  1.00  0.00     0.009 A 
ATOM     40  C   UNL A   1      36.432  33.262  28.198  1.00  0.00     0.009 A 
ATOM     41  C   UNL A   1      34.151  32.693  29.699  1.00  0.00     0.001 A 
ATOM     42  C   UNL A   1      35.190  33.762  27.799  1.00  0.00     0.001 A 
ATOM     43  C   UNL A   1      34.049  33.468  28.544  1.00  0.00     0.000 A 
ENDBRANCH  24  38
BRANCH  25  44
ATOM     44  C   UNL A   1      45.602  28.963  31.700  1.00  0.00    -0.014 A 
ATOM     45  C   UNL A   1      45.788  28.230  32.882  1.00  0.00     0.009 A 
ATOM     46  C   UNL A   1      46.706  29.189  30.863  1.00  0.00     0.009 A 
ATOM     47  C   UNL A   1      47.056  27.757  33.228  1.00  0.00     0.001 A 
ATOM     48  C   UNL A   1      47.964  28.685  31.193  1.00  0.00     0.001 A 
ATOM     49  C   UNL A   1      48.141  27.978  32.381  1.00  0.00     0.000 A 
ENDBRANCH  25  44
BRANCH  37  50
ATOM     50  C   UNL A   1      42.183  34.823  33.224  1.00  0.00    -0.014 A 
ATOM     51  C   UNL A   1      42.967  35.870  32.714  1.00  0.00     0.009 A 
ATOM     52  C   UNL A   1      41.721  34.901  34.548  1.00  0.00     0.009 A 
ATOM     53  C   UNL A   1      43.320  36.948  33.528  1.00  0.00     0.001 A 
ATOM     54  C   UNL A   1      42.048  35.995  35.349  1.00  0.00     0.001 A 
ATOM     55  C   UNL A   1      42.857  37.011  34.843  1.00  0.00     0.000 A 
ENDBRANCH  37  50
ENDBRANCH  11  12
ENDBRANCH   4   6
ENDBRANCH   1   2
BRANCH   1  56
ATOM     56  C   UNL A   1      35.926  23.328  26.132  1.00  0.00     0.042 C 
BRANCH  56  57
ATOM     57  C   UNL A   1      34.548  23.320  25.489  1.00  0.00     0.118 C 
BRANCH  57  58
ATOM     58  N   UNL A   1      33.497  23.314  26.473  1.00  0.00    -0.351 N 
ATOM     59  C   UNL A   1      32.433  24.161  26.599  1.00  0.00     0.278 C 
ATOM     60  H   UNL A   1      33.551  22.599  27.147  1.00  0.00     0.163 HD
ATOM     61  O   UNL A   1      31.723  23.984  27.593  1.00  0.00    -0.268 OA
BRANCH  59  62
ATOM     62  C   UNL A   1      32.134  25.264  25.517  1.00  0.00     0.275 C 
ATOM     63  C   UNL A   1      31.112  26.266  26.123  1.00  0.00     0.085 C 
ATOM     64  N   UNL A   1      33.379  26.042  25.231  1.00  0.00    -0.320 N 
ATOM     65  C   UNL A   1      31.875  27.572  26.233  1.00  0.00     0.054 C 
ATOM     66  C   UNL A   1      33.333  27.124  26.247  1.00  0.00     0.188 C 
ATOM     67  H   UNL A   1      34.176  25.411  25.297  1.00  0.00     0.349 HD
ATOM     68  C   UNL A   1      31.561  28.494  27.402  1.00  0.00     0.010 C 
ATOM     69  C   UNL A   1      34.289  28.319  26.184  1.00  0.00     0.065 C 
ATOM     70  C   UNL A   1      32.488  29.716  27.335  1.00  0.00     0.001 C 
ATOM     71  C   UNL A   1      33.968  29.318  27.304  1.00  0.00     0.006 C 
BRANCH  64  72
ATOM     72  C   UNL A   1      33.719  26.482  23.848  1.00  0.00     0.186 C 
ATOM     73  C   UNL A   1      34.026  25.359  22.830  1.00  0.00     0.076 C 
ATOM     74  C   UNL A   1      32.919  27.586  23.126  1.00  0.00     0.076 C 
ATOM     75  C   UNL A   1      32.855  24.756  22.059  1.00  0.00     0.075 C 
ATOM     76  C   UNL A   1      31.596  27.142  22.527  1.00  0.00     0.075 C 
ATOM     77  S   UNL A   1      31.882  25.988  21.161  1.00  0.00    -0.162 SA
ENDBRANCH  64  72
ENDBRANCH  59  62
ENDBRANCH  57  58
ENDBRANCH  56  57
ENDBRANCH   1  56
TORSDOF 11
ENDMDL
MODEL 3
REMARK VINA RESULT:     -11.0      2.458      7.401
REMARK SMILES O=C(NCCCNC(=O)[C@H]1C[C@H]2CCCC[C@@H]2[N@@H+]1C1CCSCC1)c1ccc(-c2c3nc(c(-c4ccccc4)c4ccc([nH]4)c(-c4ccccc4)c4nc(c(-c5ccccc5)c5ccc2[nH]5)C=C4)C=C3)cc1
REMARK SMILES IDX 4 1 3 2 1 3 2 4 25 6 26 7 72 8 27 9 71 10 28 11 29 12 30 13
REMARK SMILES IDX 65 14 31 15 70 16 64 17 66 18 32 19 69 20 63 21 62 22 33 24
REMARK SMILES IDX 55 25 40 26 54 27 41 28 44 29 53 30 67 31 42 32 43 33 52 35
REMARK SMILES IDX 68 36 45 37 34 38 35 39 39 40 36 41 38 42 37 43 56 44 57 45
REMARK SMILES IDX 61 46 58 47 60 48 59 49 46 50 47 51 51 52 48 53 50 54 49 55
REMARK SMILES IDX 5 56 6 57 7 58 8 59 9 61 10 62 11 63 18 64 12 65 17 66 13 68
REMARK SMILES IDX 16 69 14 70 15 71 19 72 20 73 24 74 21 75 23 76 22 77
REMARK H PARENT 3 5 66 23 44 34 7 60 18 67
REMARK Flexibility Score: inf
ROOT
ATOM      1  C   UNL A   1      36.383  23.689  25.732  1.00  0.00     0.118 C 
ENDROOT
BRANCH   1   2
ATOM      2  N   UNL A   1      37.434  22.674  25.809  1.00  0.00    -0.352 N 
ATOM      3  O   UNL A   1      39.510  21.820  25.908  1.00  0.00    -0.269 OA
ATOM      4  C   UNL A   1      38.765  22.763  26.152  1.00  0.00     0.251 C 
ATOM      5  H   UNL A   1      37.137  21.765  25.572  1.00  0.00     0.163 HD
BRANCH   4   6
ATOM      6  C   UNL A   1      39.308  23.985  26.788  1.00  0.00     0.039 A 
ATOM      7  C   UNL A   1      39.215  24.178  28.161  1.00  0.00     0.014 A 
ATOM      8  C   UNL A   1      39.955  24.948  26.003  1.00  0.00     0.014 A 
ATOM      9  C   UNL A   1      39.539  25.408  28.713  1.00  0.00     0.010 A 
ATOM     10  C   UNL A   1      40.427  26.129  26.590  1.00  0.00     0.010 A 
ATOM     11  C   UNL A   1      40.176  26.393  27.945  1.00  0.00    -0.014 A 
BRANCH  11  12
ATOM     12  C   UNL A   1      40.600  27.652  28.615  1.00  0.00     0.031 A 
ATOM     13  C   UNL A   1      42.038  27.895  28.992  1.00  0.00     0.074 A 
ATOM     14  C   UNL A   1      39.680  28.618  28.817  1.00  0.00     0.049 A 
ATOM     15  N   UNL A   1      42.580  28.969  29.512  1.00  0.00    -0.248 NA
ATOM     16  C   UNL A   1      42.989  26.796  28.769  1.00  0.00     0.031 C 
ATOM     17  C   UNL A   1      38.252  28.505  28.499  1.00  0.00     0.029 A 
ATOM     18  N   UNL A   1      39.809  29.899  29.290  1.00  0.00    -0.354 N 
ATOM     19  C   UNL A   1      43.920  28.663  29.710  1.00  0.00     0.074 A 
ATOM     20  C   UNL A   1      44.108  27.295  29.276  1.00  0.00     0.031 C 
ATOM     21  C   UNL A   1      37.660  29.689  28.696  1.00  0.00     0.029 A 
ATOM     22  C   UNL A   1      38.639  30.619  29.242  1.00  0.00     0.049 A 
ATOM     23  H   UNL A   1      40.656  30.265  29.631  1.00  0.00     0.167 HD
ATOM     24  C   UNL A   1      44.908  29.449  30.207  1.00  0.00     0.031 A 
ATOM     25  C   UNL A   1      38.373  31.886  29.606  1.00  0.00     0.031 A 
ATOM     26  C   UNL A   1      44.721  30.814  30.627  1.00  0.00     0.049 A 
ATOM     27  C   UNL A   1      39.480  32.725  30.170  1.00  0.00     0.074 A 
ATOM     28  C   UNL A   1      45.665  31.703  31.114  1.00  0.00     0.029 A 
ATOM     29  N   UNL A   1      43.509  31.488  30.612  1.00  0.00    -0.354 N 
ATOM     30  N   UNL A   1      40.746  32.425  30.326  1.00  0.00    -0.248 NA
ATOM     31  C   UNL A   1      39.119  34.079  30.608  1.00  0.00     0.031 C 
ATOM     32  C   UNL A   1      45.013  32.895  31.446  1.00  0.00     0.029 A 
ATOM     33  C   UNL A   1      43.677  32.773  31.104  1.00  0.00     0.049 A 
ATOM     34  H   UNL A   1      42.656  31.110  30.298  1.00  0.00     0.167 HD
ATOM     35  C   UNL A   1      41.338  33.560  30.858  1.00  0.00     0.074 A 
ATOM     36  C   UNL A   1      40.297  34.561  30.977  1.00  0.00     0.031 C 
ATOM     37  C   UNL A   1      42.631  33.756  31.218  1.00  0.00     0.031 A 
BRANCH  24  38
ATOM     38  C   UNL A   1      46.274  28.838  30.362  1.00  0.00    -0.014 A 
ATOM     39  C   UNL A   1      46.653  28.166  31.536  1.00  0.00     0.009 A 
ATOM     40  C   UNL A   1      47.187  28.905  29.297  1.00  0.00     0.009 A 
ATOM     41  C   UNL A   1      47.930  27.608  31.652  1.00  0.00     0.001 A 
ATOM     42  C   UNL A   1      48.451  28.320  29.403  1.00  0.00     0.001 A 
ATOM     43  C   UNL A   1      48.825  27.681  30.584  1.00  0.00     0.000 A 
ENDBRANCH  24  38
BRANCH  25  44
ATOM     44  C   UNL A   1      36.997  32.429  29.459  1.00  0.00    -0.014 A 
ATOM     45  C   UNL A   1      36.616  33.110  28.292  1.00  0.00     0.009 A 
ATOM     46  C   UNL A   1      36.054  32.266  30.486  1.00  0.00     0.009 A 
ATOM     47  C   UNL A   1      35.328  33.636  28.170  1.00  0.00     0.001 A 
ATOM     48  C   UNL A   1      34.757  32.762  30.346  1.00  0.00     0.001 A 
ATOM     49  C   UNL A   1      34.398  33.456  29.193  1.00  0.00     0.000 A 
ENDBRANCH  25  44
BRANCH  37  50
ATOM     50  C   UNL A   1      42.993  35.124  31.725  1.00  0.00    -0.014 A 
ATOM     51  C   UNL A   1      43.499  36.115  30.870  1.00  0.00     0.009 A 
ATOM     52  C   UNL A   1      42.811  35.425  33.084  1.00  0.00     0.009 A 
ATOM     53  C   UNL A   1      43.859  37.366  31.375  1.00  0.00     0.001 A 
ATOM     54  C   UNL A   1      43.141  36.687  33.580  1.00  0.00     0.001 A 
ATOM     55  C   UNL A   1      43.676  37.652  32.728  1.00  0.00     0.000 A 
ENDBRANCH  37  50
ENDBRANCH  11  12
ENDBRANCH   4   6
ENDBRANCH   1   2
BRANCH   1  56
ATOM     56  C   UNL A   1      35.182  23.318  26.582  1.00  0.00     0.042 C 
BRANCH  56  57
ATOM     57  C   UNL A   1      33.925  23.151  25.744  1.00  0.00     0.118 C 
BRANCH  57  58
ATOM     58  N   UNL A   1      32.731  23.250  26.542  1.00  0.00    -0.351 N 
ATOM     59  C   UNL A   1      31.754  24.204  26.512  1.00  0.00     0.278 C 
ATOM     60  H   UNL A   1      32.600  22.530  27.200  1.00  0.00     0.163 HD
ATOM     61  O   UNL A   1      30.875  24.097  27.373  1.00  0.00    -0.268 OA
BRANCH  59  62
ATOM     62  C   UNL A   1      31.751  25.338  25.421  1.00  0.00     0.275 C 
ATOM     63  C   UNL A   1      30.865  26.503  25.941  1.00  0.00     0.085 C 
ATOM     64  N   UNL A   1      33.133  25.888  25.261  1.00  0.00    -0.320 N 
ATOM     65  C   UNL A   1      31.828  27.659  26.138  1.00  0.00     0.054 C 
ATOM     66  C   UNL A   1      33.180  26.965  26.281  1.00  0.00     0.188 C 
ATOM     67  H   UNL A   1      33.800  25.128  25.393  1.00  0.00     0.349 HD
ATOM     68  C   UNL A   1      31.571  28.625  27.284  1.00  0.00     0.010 C 
ATOM     69  C   UNL A   1      34.329  27.977  26.321  1.00  0.00     0.065 C 
ATOM     70  C   UNL A   1      32.697  29.668  27.317  1.00  0.00     0.001 C 
ATOM     71  C   UNL A   1      34.082  29.020  27.420  1.00  0.00     0.006 C 
BRANCH  64  72
ATOM     72  C   UNL A   1      33.672  26.256  23.921  1.00  0.00     0.186 C 
ATOM     73  C   UNL A   1      34.001  25.082  22.969  1.00  0.00     0.076 C 
ATOM     74  C   UNL A   1      33.061  27.400  23.085  1.00  0.00     0.076 C 
ATOM     75  C   UNL A   1      32.882  24.555  22.075  1.00  0.00     0.075 C 
ATOM     76  C   UNL A   1      31.785  27.050  22.340  1.00  0.00     0.075 C 
ATOM     77  S   UNL A   1      32.131  25.835  21.041  1.00  0.00    -0.162 SA
ENDBRANCH  64  72
ENDBRANCH  59  62
ENDBRANCH  57  58
ENDBRANCH  56  57
ENDBRANCH   1  56
TORSDOF 11
ENDMDL
