MODEL 1
REMARK VINA RESULT:     -11.0      0.000      0.000
REMARK SMILES C=CCn1nc(C(=O)NCCCNC(=O)c2ccc(-c3c4nc(c(-c5ccccc5)c5ccc([nH]5)c(-c5ccccc5)c5nc(c(-c6ccccc6)c6ccc3[nH]6)C=C5)C=C4)cc2)c2c1CC[C@@H]([NH2+]Cc1nc(C)cc(=O)[nH]1)C2
REMARK SMILES IDX 10 1 9 2 7 3 8 4 6 6 4 7 5 8 65 9 64 10 66 11 79 12 67 13
REMARK SMILES IDX 68 14 3 15 2 16 1 17 69 18 70 21 71 22 72 23 78 24 73 25
REMARK SMILES IDX 76 26 74 28 75 29 77 30 11 31 12 32 13 33 14 34 15 36 16 37
REMARK SMILES IDX 17 38 63 39 18 40 62 41 19 42 20 43 21 44 56 45 22 46 61 47
REMARK SMILES IDX 55 48 57 49 23 50 60 51 54 52 53 53 24 55 46 56 31 57 45 58
REMARK SMILES IDX 32 59 35 60 44 61 58 62 33 63 34 64 43 66 59 67 36 68 25 69
REMARK SMILES IDX 26 70 30 71 27 72 29 73 28 74 47 75 48 76 52 77 49 78 51 79
REMARK SMILES IDX 50 80 37 81 38 82 42 83 39 84 41 85 40 86
REMARK H PARENT 9 5 69 19 69 20 78 27 13 35 57 54 35 65
REMARK Flexibility Score: inf
ROOT
ATOM      1  C   UNL A   1      47.714  27.450  27.280  1.00  0.00     0.118 C 
ENDROOT
BRANCH   1   2
ATOM      2  N   UNL A   1      47.560  26.566  26.137  1.00  0.00    -0.351 N 
ATOM      3  C   UNL A   1      46.488  26.101  25.403  1.00  0.00     0.272 C 
ATOM      4  O   UNL A   1      46.829  25.481  24.385  1.00  0.00    -0.267 OA
ATOM      5  H   UNL A   1      48.421  26.216  25.811  1.00  0.00     0.163 HD
BRANCH   3   6
ATOM      6  C   UNL A   1      45.046  26.284  25.747  1.00  0.00     0.153 A 
ATOM      7  N   UNL A   1      43.128  27.272  25.605  1.00  0.00    -0.265 N 
ATOM      8  N   UNL A   1      44.434  27.415  25.317  1.00  0.00    -0.167 NA
ATOM      9  C   UNL A   1      42.862  26.128  26.288  1.00  0.00     0.043 A 
ATOM     10  C   UNL A   1      44.062  25.465  26.390  1.00  0.00     0.012 A 
ATOM     11  C   UNL A   1      41.530  25.613  26.709  1.00  0.00     0.062 C 
ATOM     12  C   UNL A   1      44.114  24.119  26.977  1.00  0.00     0.105 C 
ATOM     13  C   UNL A   1      41.703  24.422  27.668  1.00  0.00     0.072 C 
ATOM     14  C   UNL A   1      42.769  23.404  27.217  1.00  0.00     0.187 C 
BRANCH   7  15
ATOM     15  C   UNL A   1      42.167  28.258  25.123  1.00  0.00     0.171 C 
BRANCH  15  16
ATOM     16  C   UNL A   1      41.596  29.072  26.252  1.00  0.00    -0.011 C 
ATOM     17  C   UNL A   1      40.331  28.999  26.686  1.00  0.00     0.006 C 
ENDBRANCH  15  16
ENDBRANCH   7  15
BRANCH  14  18
ATOM     18  N   UNL A   1      42.331  22.624  26.038  1.00  0.00    -0.337 N 
ATOM     19  H   UNL A   1      41.546  23.104  25.598  1.00  0.00     0.346 HD
ATOM     20  H   UNL A   1      42.061  21.694  26.356  1.00  0.00     0.346 HD
BRANCH  18  21
ATOM     21  C   UNL A   1      43.416  22.472  25.044  1.00  0.00     0.337 C 
BRANCH  21  22
ATOM     22  C   UNL A   1      43.995  21.072  25.173  1.00  0.00     0.164 A 
ATOM     23  N   UNL A   1      43.252  20.086  25.573  1.00  0.00    -0.234 NA
ATOM     24  N   UNL A   1      45.319  20.943  24.863  1.00  0.00    -0.306 N 
ATOM     25  C   UNL A   1      43.854  18.855  25.698  1.00  0.00     0.045 A 
ATOM     26  C   UNL A   1      45.966  19.750  24.950  1.00  0.00     0.251 A 
ATOM     27  H   UNL A   1      45.819  21.737  24.569  1.00  0.00     0.171 HD
ATOM     28  C   UNL A   1      42.983  17.739  26.199  1.00  0.00     0.067 C 
ATOM     29  C   UNL A   1      45.144  18.625  25.415  1.00  0.00     0.095 A 
ATOM     30  O   UNL A   1      47.148  19.609  24.664  1.00  0.00    -0.270 OA
ENDBRANCH  21  22
ENDBRANCH  18  21
ENDBRANCH  14  18
ENDBRANCH   3   6
ENDBRANCH   1   2
BRANCH   1  31
ATOM     31  C   UNL A   1      47.615  26.701  28.615  1.00  0.00     0.042 C 
BRANCH  31  32
ATOM     32  C   UNL A   1      46.314  26.805  29.355  1.00  0.00     0.118 C 
BRANCH  32  33
ATOM     33  N   UNL A   1      45.994  25.594  30.116  1.00  0.00    -0.352 N 
ATOM     34  C   UNL A   1      45.065  25.474  31.145  1.00  0.00     0.251 C 
ATOM     35  H   UNL A   1      46.490  24.779  29.873  1.00  0.00     0.163 HD
ATOM     36  O   UNL A   1      45.139  24.588  31.971  1.00  0.00    -0.269 OA
BRANCH  34  37
ATOM     37  C   UNL A   1      43.994  26.486  31.190  1.00  0.00     0.039 A 
ATOM     38  C   UNL A   1      43.920  27.463  32.181  1.00  0.00     0.014 A 
ATOM     39  C   UNL A   1      43.161  26.526  30.084  1.00  0.00     0.014 A 
ATOM     40  C   UNL A   1      43.063  28.543  31.970  1.00  0.00     0.010 A 
ATOM     41  C   UNL A   1      42.606  27.721  29.743  1.00  0.00     0.010 A 
ATOM     42  C   UNL A   1      42.439  28.684  30.718  1.00  0.00    -0.014 A 
BRANCH  42  43
ATOM     43  C   UNL A   1      41.653  29.855  30.356  1.00  0.00     0.031 A 
ATOM     44  C   UNL A   1      42.460  31.030  29.965  1.00  0.00     0.074 A 
ATOM     45  C   UNL A   1      40.310  29.835  30.196  1.00  0.00     0.049 A 
ATOM     46  N   UNL A   1      42.768  32.036  30.711  1.00  0.00    -0.248 NA
ATOM     47  C   UNL A   1      43.146  31.014  28.664  1.00  0.00     0.031 C 
ATOM     48  C   UNL A   1      39.405  28.672  30.192  1.00  0.00     0.029 A 
ATOM     49  N   UNL A   1      39.463  30.861  29.901  1.00  0.00    -0.354 N 
ATOM     50  C   UNL A   1      43.454  32.912  29.880  1.00  0.00     0.074 A 
ATOM     51  C   UNL A   1      43.863  32.139  28.734  1.00  0.00     0.031 C 
ATOM     52  C   UNL A   1      38.207  29.019  29.678  1.00  0.00     0.029 A 
ATOM     53  C   UNL A   1      38.184  30.460  29.539  1.00  0.00     0.049 A 
ATOM     54  H   UNL A   1      39.736  31.806  29.940  1.00  0.00     0.167 HD
ATOM     55  C   UNL A   1      43.309  34.257  30.040  1.00  0.00     0.031 A 
ATOM     56  C   UNL A   1      37.147  31.254  29.193  1.00  0.00     0.031 A 
ATOM     57  C   UNL A   1      42.588  34.554  31.256  1.00  0.00     0.049 A 
ATOM     58  C   UNL A   1      37.403  32.586  29.771  1.00  0.00     0.074 A 
ATOM     59  C   UNL A   1      42.844  34.558  32.608  1.00  0.00     0.029 A 
ATOM     60  N   UNL A   1      41.226  34.525  31.096  1.00  0.00    -0.354 N 
ATOM     61  N   UNL A   1      37.432  32.808  31.055  1.00  0.00    -0.248 NA
ATOM     62  C   UNL A   1      37.986  33.632  28.940  1.00  0.00     0.031 C 
ATOM     63  C   UNL A   1      41.584  34.353  33.251  1.00  0.00     0.029 A 
ATOM     64  C   UNL A   1      40.587  34.276  32.280  1.00  0.00     0.049 A 
ATOM     65  H   UNL A   1      40.766  34.666  30.236  1.00  0.00     0.167 HD
ATOM     66  C   UNL A   1      38.407  33.774  31.208  1.00  0.00     0.074 A 
ATOM     67  C   UNL A   1      38.571  34.369  29.888  1.00  0.00     0.031 C 
ATOM     68  C   UNL A   1      39.226  33.778  32.299  1.00  0.00     0.031 A 
BRANCH  55  69
ATOM     69  C   UNL A   1      43.308  35.257  28.903  1.00  0.00    -0.014 A 
ATOM     70  C   UNL A   1      44.248  36.305  28.942  1.00  0.00     0.009 A 
ATOM     71  C   UNL A   1      42.263  35.389  27.971  1.00  0.00     0.009 A 
ATOM     72  C   UNL A   1      44.111  37.445  28.141  1.00  0.00     0.001 A 
ATOM     73  C   UNL A   1      42.139  36.511  27.145  1.00  0.00     0.001 A 
ATOM     74  C   UNL A   1      43.051  37.551  27.248  1.00  0.00     0.000 A 
ENDBRANCH  55  69
BRANCH  56  75
ATOM     75  C   UNL A   1      36.030  30.998  28.269  1.00  0.00    -0.014 A 
ATOM     76  C   UNL A   1      35.931  29.776  27.586  1.00  0.00     0.009 A 
ATOM     77  C   UNL A   1      34.901  31.835  28.297  1.00  0.00     0.009 A 
ATOM     78  C   UNL A   1      34.721  29.377  27.007  1.00  0.00     0.001 A 
ATOM     79  C   UNL A   1      33.691  31.434  27.719  1.00  0.00     0.001 A 
ATOM     80  C   UNL A   1      33.597  30.195  27.092  1.00  0.00     0.000 A 
ENDBRANCH  56  75
BRANCH  68  81
ATOM     81  C   UNL A   1      38.743  33.074  33.535  1.00  0.00    -0.014 A 
ATOM     82  C   UNL A   1      39.047  31.739  33.846  1.00  0.00     0.009 A 
ATOM     83  C   UNL A   1      37.998  33.823  34.458  1.00  0.00     0.009 A 
ATOM     84  C   UNL A   1      38.593  31.166  35.040  1.00  0.00     0.001 A 
ATOM     85  C   UNL A   1      37.563  33.258  35.656  1.00  0.00     0.001 A 
ATOM     86  C   UNL A   1      37.854  31.928  35.945  1.00  0.00     0.000 A 
ENDBRANCH  68  81
ENDBRANCH  42  43
ENDBRANCH  34  37
ENDBRANCH  32  33
ENDBRANCH  31  32
ENDBRANCH   1  31
TORSDOF 15
ENDMDL
MODEL 2
REMARK VINA RESULT:     -10.8      5.420     11.683
REMARK SMILES C=CCn1nc(C(=O)NCCCNC(=O)c2ccc(-c3c4nc(c(-c5ccccc5)c5ccc([nH]5)c(-c5ccccc5)c5nc(c(-c6ccccc6)c6ccc3[nH]6)C=C5)C=C4)cc2)c2c1CC[C@@H]([NH2+]Cc1nc(C)cc(=O)[nH]1)C2
REMARK SMILES IDX 10 1 9 2 7 3 8 4 6 6 4 7 5 8 65 9 64 10 66 11 79 12 67 13
REMARK SMILES IDX 68 14 3 15 2 16 1 17 69 18 70 21 71 22 72 23 78 24 73 25
REMARK SMILES IDX 76 26 74 28 75 29 77 30 11 31 12 32 13 33 14 34 15 36 16 37
REMARK SMILES IDX 17 38 63 39 18 40 62 41 19 42 20 43 21 44 56 45 22 46 61 47
REMARK SMILES IDX 55 48 57 49 23 50 60 51 54 52 53 53 24 55 46 56 31 57 45 58
REMARK SMILES IDX 32 59 35 60 44 61 58 62 33 63 34 64 43 66 59 67 36 68 25 69
REMARK SMILES IDX 26 70 30 71 27 72 29 73 28 74 47 75 48 76 52 77 49 78 51 79
REMARK SMILES IDX 50 80 37 81 38 82 42 83 39 84 41 85 40 86
REMARK H PARENT 9 5 69 19 69 20 78 27 13 35 57 54 35 65
REMARK Flexibility Score: inf
ROOT
ATOM      1  C   UNL A   1      33.936  30.246  27.372  1.00  0.00     0.118 C 
ENDROOT
BRANCH   1   2
ATOM      2  N   UNL A   1      32.803  29.429  27.773  1.00  0.00    -0.351 N 
ATOM      3  C   UNL A   1      32.277  28.223  27.355  1.00  0.00     0.272 C 
ATOM      4  O   UNL A   1      31.378  27.803  28.098  1.00  0.00    -0.267 OA
ATOM      5  H   UNL A   1      32.292  29.828  28.513  1.00  0.00     0.163 HD
BRANCH   3   6
ATOM      6  C   UNL A   1      32.694  27.459  26.141  1.00  0.00     0.153 A 
ATOM      7  N   UNL A   1      33.108  25.647  25.037  1.00  0.00    -0.265 N 
ATOM      8  N   UNL A   1      32.906  26.127  26.278  1.00  0.00    -0.167 NA
ATOM      9  C   UNL A   1      33.122  26.622  24.092  1.00  0.00     0.043 A 
ATOM     10  C   UNL A   1      32.852  27.793  24.758  1.00  0.00     0.012 A 
ATOM     11  C   UNL A   1      33.250  26.453  22.618  1.00  0.00     0.062 C 
ATOM     12  C   UNL A   1      32.676  29.045  24.007  1.00  0.00     0.105 C 
ATOM     13  C   UNL A   1      33.471  27.820  21.946  1.00  0.00     0.072 C 
ATOM     14  C   UNL A   1      32.547  28.934  22.475  1.00  0.00     0.187 C 
BRANCH   7  15
ATOM     15  C   UNL A   1      33.209  24.207  24.826  1.00  0.00     0.171 C 
BRANCH  15  16
ATOM     16  C   UNL A   1      33.071  23.448  26.117  1.00  0.00    -0.011 C 
ATOM     17  C   UNL A   1      34.086  22.892  26.792  1.00  0.00     0.006 C 
ENDBRANCH  15  16
ENDBRANCH   7  15
BRANCH  14  18
ATOM     18  N   UNL A   1      31.144  28.746  22.043  1.00  0.00    -0.337 N 
ATOM     19  H   UNL A   1      30.967  27.749  21.919  1.00  0.00     0.346 HD
ATOM     20  H   UNL A   1      31.010  29.254  21.170  1.00  0.00     0.346 HD
BRANCH  18  21
ATOM     21  C   UNL A   1      30.186  29.280  23.036  1.00  0.00     0.337 C 
BRANCH  21  22
ATOM     22  C   UNL A   1      29.439  30.446  22.407  1.00  0.00     0.164 A 
ATOM     23  N   UNL A   1      28.845  30.305  21.262  1.00  0.00    -0.234 NA
ATOM     24  N   UNL A   1      29.459  31.615  23.110  1.00  0.00    -0.306 N 
ATOM     25  C   UNL A   1      28.219  31.413  20.739  1.00  0.00     0.045 A 
ATOM     26  C   UNL A   1      28.844  32.740  22.654  1.00  0.00     0.251 A 
ATOM     27  H   UNL A   1      29.933  31.646  23.971  1.00  0.00     0.171 HD
ATOM     28  C   UNL A   1      27.572  31.238  19.395  1.00  0.00     0.067 C 
ATOM     29  C   UNL A   1      28.178  32.605  21.352  1.00  0.00     0.095 A 
ATOM     30  O   UNL A   1      28.837  33.795  23.275  1.00  0.00    -0.270 OA
ENDBRANCH  21  22
ENDBRANCH  18  21
ENDBRANCH  14  18
ENDBRANCH   3   6
ENDBRANCH   1   2
BRANCH   1  31
ATOM     31  C   UNL A   1      33.681  31.743  27.586  1.00  0.00     0.042 C 
BRANCH  31  32
ATOM     32  C   UNL A   1      34.850  32.572  28.033  1.00  0.00     0.118 C 
BRANCH  32  33
ATOM     33  N   UNL A   1      34.820  32.872  29.467  1.00  0.00    -0.352 N 
ATOM     34  C   UNL A   1      35.469  32.173  30.480  1.00  0.00     0.251 C 
ATOM     35  H   UNL A   1      34.283  33.649  29.743  1.00  0.00     0.163 HD
ATOM     36  O   UNL A   1      35.090  32.219  31.632  1.00  0.00    -0.269 OA
BRANCH  34  37
ATOM     37  C   UNL A   1      36.633  31.360  30.082  1.00  0.00     0.039 A 
ATOM     38  C   UNL A   1      37.902  31.901  29.885  1.00  0.00     0.014 A 
ATOM     39  C   UNL A   1      36.435  29.988  30.090  1.00  0.00     0.014 A 
ATOM     40  C   UNL A   1      38.982  31.022  29.811  1.00  0.00     0.010 A 
ATOM     41  C   UNL A   1      37.504  29.189  30.355  1.00  0.00     0.010 A 
ATOM     42  C   UNL A   1      38.774  29.661  30.093  1.00  0.00    -0.014 A 
BRANCH  42  43
ATOM     43  C   UNL A   1      39.865  28.701  30.191  1.00  0.00     0.031 A 
ATOM     44  C   UNL A   1      40.387  28.512  31.560  1.00  0.00     0.074 A 
ATOM     45  C   UNL A   1      40.250  27.898  29.171  1.00  0.00     0.049 A 
ATOM     46  N   UNL A   1      41.437  29.063  32.067  1.00  0.00    -0.248 NA
ATOM     47  C   UNL A   1      39.568  27.772  32.532  1.00  0.00     0.031 C 
ATOM     48  C   UNL A   1      39.600  27.705  27.862  1.00  0.00     0.029 A 
ATOM     49  N   UNL A   1      41.270  26.997  29.124  1.00  0.00    -0.354 N 
ATOM     50  C   UNL A   1      41.563  28.514  33.336  1.00  0.00     0.074 A 
ATOM     51  C   UNL A   1      40.281  27.935  33.650  1.00  0.00     0.031 C 
ATOM     52  C   UNL A   1      40.085  26.598  27.264  1.00  0.00     0.029 A 
ATOM     53  C   UNL A   1      41.228  26.145  28.027  1.00  0.00     0.049 A 
ATOM     54  H   UNL A   1      41.975  26.953  29.808  1.00  0.00     0.167 HD
ATOM     55  C   UNL A   1      42.800  28.271  33.854  1.00  0.00     0.031 A 
ATOM     56  C   UNL A   1      42.101  25.157  27.728  1.00  0.00     0.031 A 
ATOM     57  C   UNL A   1      43.826  28.860  33.026  1.00  0.00     0.049 A 
ATOM     58  C   UNL A   1      43.367  25.468  28.417  1.00  0.00     0.074 A 
ATOM     59  C   UNL A   1      44.328  30.117  32.776  1.00  0.00     0.029 A 
ATOM     60  N   UNL A   1      44.210  28.051  31.987  1.00  0.00    -0.354 N 
ATOM     61  N   UNL A   1      44.099  26.505  28.121  1.00  0.00    -0.248 NA
ATOM     62  C   UNL A   1      43.670  24.829  29.691  1.00  0.00     0.031 C 
ATOM     63  C   UNL A   1      44.877  30.070  31.458  1.00  0.00     0.029 A 
ATOM     64  C   UNL A   1      44.742  28.777  30.956  1.00  0.00     0.049 A 
ATOM     65  H   UNL A   1      44.115  27.070  31.984  1.00  0.00     0.167 HD
ATOM     66  C   UNL A   1      44.624  26.904  29.334  1.00  0.00     0.074 A 
ATOM     67  C   UNL A   1      44.488  25.748  30.212  1.00  0.00     0.031 C 
ATOM     68  C   UNL A   1      44.815  28.224  29.619  1.00  0.00     0.031 A 
BRANCH  55  69
ATOM     69  C   UNL A   1      43.136  27.094  34.746  1.00  0.00    -0.014 A 
ATOM     70  C   UNL A   1      43.586  25.909  34.134  1.00  0.00     0.009 A 
ATOM     71  C   UNL A   1      42.760  26.997  36.098  1.00  0.00     0.009 A 
ATOM     72  C   UNL A   1      43.596  24.687  34.819  1.00  0.00     0.001 A 
ATOM     73  C   UNL A   1      42.799  25.786  36.796  1.00  0.00     0.001 A 
ATOM     74  C   UNL A   1      43.194  24.625  36.148  1.00  0.00     0.000 A 
ENDBRANCH  55  69
BRANCH  56  75
ATOM     75  C   UNL A   1      41.879  23.883  27.024  1.00  0.00    -0.014 A 
ATOM     76  C   UNL A   1      42.855  23.363  26.162  1.00  0.00     0.009 A 
ATOM     77  C   UNL A   1      40.839  23.033  27.440  1.00  0.00     0.009 A 
ATOM     78  C   UNL A   1      42.828  22.016  25.781  1.00  0.00     0.001 A 
ATOM     79  C   UNL A   1      40.814  21.687  27.060  1.00  0.00     0.001 A 
ATOM     80  C   UNL A   1      41.821  21.174  26.247  1.00  0.00     0.000 A 
ENDBRANCH  56  75
BRANCH  68  81
ATOM     81  C   UNL A   1      44.936  29.174  28.461  1.00  0.00    -0.014 A 
ATOM     82  C   UNL A   1      43.896  30.007  28.018  1.00  0.00     0.009 A 
ATOM     83  C   UNL A   1      46.187  29.273  27.834  1.00  0.00     0.009 A 
ATOM     84  C   UNL A   1      44.102  30.898  26.958  1.00  0.00     0.001 A 
ATOM     85  C   UNL A   1      46.397  30.174  26.790  1.00  0.00     0.001 A 
ATOM     86  C   UNL A   1      45.352  30.982  26.347  1.00  0.00     0.000 A 
ENDBRANCH  68  81
ENDBRANCH  42  43
ENDBRANCH  34  37
ENDBRANCH  32  33
ENDBRANCH  31  32
ENDBRANCH   1  31
TORSDOF 15
ENDMDL
MODEL 3
REMARK VINA RESULT:     -10.8      5.427     12.081
REMARK SMILES C=CCn1nc(C(=O)NCCCNC(=O)c2ccc(-c3c4nc(c(-c5ccccc5)c5ccc([nH]5)c(-c5ccccc5)c5nc(c(-c6ccccc6)c6ccc3[nH]6)C=C5)C=C4)cc2)c2c1CC[C@@H]([NH2+]Cc1nc(C)cc(=O)[nH]1)C2
REMARK SMILES IDX 10 1 9 2 7 3 8 4 6 6 4 7 5 8 65 9 64 10 66 11 79 12 67 13
REMARK SMILES IDX 68 14 3 15 2 16 1 17 69 18 70 21 71 22 72 23 78 24 73 25
REMARK SMILES IDX 76 26 74 28 75 29 77 30 11 31 12 32 13 33 14 34 15 36 16 37
REMARK SMILES IDX 17 38 63 39 18 40 62 41 19 42 20 43 21 44 56 45 22 46 61 47
REMARK SMILES IDX 55 48 57 49 23 50 60 51 54 52 53 53 24 55 46 56 31 57 45 58
REMARK SMILES IDX 32 59 35 60 44 61 58 62 33 63 34 64 43 66 59 67 36 68 25 69
REMARK SMILES IDX 26 70 30 71 27 72 29 73 28 74 47 75 48 76 52 77 49 78 51 79
REMARK SMILES IDX 50 80 37 81 38 82 42 83 39 84 41 85 40 86
REMARK H PARENT 9 5 69 19 69 20 78 27 13 35 57 54 35 65
REMARK Flexibility Score: inf
ROOT
ATOM      1  C   UNL A   1      34.245  28.880  27.330  1.00  0.00     0.118 C 
ENDROOT
BRANCH   1   2
ATOM      2  N   UNL A   1      32.857  28.698  27.719  1.00  0.00    -0.351 N 
ATOM      3  C   UNL A   1      31.882  27.764  27.436  1.00  0.00     0.272 C 
ATOM      4  O   UNL A   1      30.862  27.903  28.127  1.00  0.00    -0.267 OA
ATOM      5  H   UNL A   1      32.538  29.406  28.325  1.00  0.00     0.163 HD
BRANCH   3   6
ATOM      6  C   UNL A   1      31.978  26.681  26.413  1.00  0.00     0.153 A 
ATOM      7  N   UNL A   1      31.462  24.757  25.570  1.00  0.00    -0.265 N 
ATOM      8  N   UNL A   1      31.377  25.497  26.690  1.00  0.00    -0.167 NA
ATOM      9  C   UNL A   1      32.171  25.372  24.587  1.00  0.00     0.043 A 
ATOM     10  C   UNL A   1      32.510  26.607  25.085  1.00  0.00     0.012 A 
ATOM     11  C   UNL A   1      32.408  24.883  23.201  1.00  0.00     0.062 C 
ATOM     12  C   UNL A   1      33.189  27.587  24.227  1.00  0.00     0.105 C 
ATOM     13  C   UNL A   1      33.463  25.760  22.504  1.00  0.00     0.072 C 
ATOM     14  C   UNL A   1      33.260  27.273  22.719  1.00  0.00     0.187 C 
BRANCH   7  15
ATOM     15  C   UNL A   1      30.765  23.479  25.491  1.00  0.00     0.171 C 
BRANCH  15  16
ATOM     16  C   UNL A   1      31.516  22.394  26.214  1.00  0.00    -0.011 C 
ATOM     17  C   UNL A   1      32.789  22.050  25.971  1.00  0.00     0.006 C 
ENDBRANCH  15  16
ENDBRANCH   7  15
BRANCH  14  18
ATOM     18  N   UNL A   1      32.084  27.788  21.984  1.00  0.00    -0.337 N 
ATOM     19  H   UNL A   1      31.255  27.278  22.289  1.00  0.00     0.346 HD
ATOM     20  H   UNL A   1      32.250  27.655  20.987  1.00  0.00     0.346 HD
BRANCH  18  21
ATOM     21  C   UNL A   1      31.872  29.232  22.226  1.00  0.00     0.337 C 
BRANCH  21  22
ATOM     22  C   UNL A   1      30.376  29.507  22.220  1.00  0.00     0.164 A 
ATOM     23  N   UNL A   1      29.558  28.712  22.839  1.00  0.00    -0.234 NA
ATOM     24  N   UNL A   1      29.975  30.608  21.520  1.00  0.00    -0.306 N 
ATOM     25  C   UNL A   1      28.216  29.006  22.761  1.00  0.00     0.045 A 
ATOM     26  C   UNL A   1      28.665  30.960  21.420  1.00  0.00     0.251 A 
ATOM     27  H   UNL A   1      30.654  31.162  21.073  1.00  0.00     0.171 HD
ATOM     28  C   UNL A   1      27.286  28.050  23.452  1.00  0.00     0.067 C 
ATOM     29  C   UNL A   1      27.722  30.064  22.102  1.00  0.00     0.095 A 
ATOM     30  O   UNL A   1      28.285  31.951  20.809  1.00  0.00    -0.270 OA
ENDBRANCH  21  22
ENDBRANCH  18  21
ENDBRANCH  14  18
ENDBRANCH   3   6
ENDBRANCH   1   2
BRANCH   1  31
ATOM     31  C   UNL A   1      34.630  30.360  27.211  1.00  0.00     0.042 C 
BRANCH  31  32
ATOM     32  C   UNL A   1      35.921  30.779  27.851  1.00  0.00     0.118 C 
BRANCH  32  33
ATOM     33  N   UNL A   1      35.916  30.605  29.306  1.00  0.00    -0.352 N 
ATOM     34  C   UNL A   1      36.623  29.655  30.037  1.00  0.00     0.251 C 
ATOM     35  H   UNL A   1      35.353  31.226  29.821  1.00  0.00     0.163 HD
ATOM     36  O   UNL A   1      36.273  29.314  31.147  1.00  0.00    -0.269 OA
BRANCH  34  37
ATOM     37  C   UNL A   1      37.810  29.070  29.387  1.00  0.00     0.039 A 
ATOM     38  C   UNL A   1      38.429  29.649  28.280  1.00  0.00     0.014 A 
ATOM     39  C   UNL A   1      38.390  28.001  30.051  1.00  0.00     0.014 A 
ATOM     40  C   UNL A   1      39.701  29.197  27.933  1.00  0.00     0.010 A 
ATOM     41  C   UNL A   1      39.731  27.816  29.917  1.00  0.00     0.010 A 
ATOM     42  C   UNL A   1      40.366  28.303  28.792  1.00  0.00    -0.014 A 
BRANCH  42  43
ATOM     43  C   UNL A   1      41.750  27.898  28.590  1.00  0.00     0.031 A 
ATOM     44  C   UNL A   1      41.915  26.697  27.745  1.00  0.00     0.074 A 
ATOM     45  C   UNL A   1      42.811  28.649  28.967  1.00  0.00     0.049 A 
ATOM     46  N   UNL A   1      42.102  25.488  28.154  1.00  0.00    -0.248 NA
ATOM     47  C   UNL A   1      41.675  26.813  26.299  1.00  0.00     0.031 C 
ATOM     48  C   UNL A   1      42.819  30.027  29.489  1.00  0.00     0.029 A 
ATOM     49  N   UNL A   1      44.141  28.367  28.872  1.00  0.00    -0.354 N 
ATOM     50  C   UNL A   1      42.284  24.737  27.001  1.00  0.00     0.074 A 
ATOM     51  C   UNL A   1      41.774  25.537  25.917  1.00  0.00     0.031 C 
ATOM     52  C   UNL A   1      44.068  30.536  29.433  1.00  0.00     0.029 A 
ATOM     53  C   UNL A   1      44.972  29.456  29.099  1.00  0.00     0.049 A 
ATOM     54  H   UNL A   1      44.482  27.469  28.661  1.00  0.00     0.167 HD
ATOM     55  C   UNL A   1      43.157  23.690  27.000  1.00  0.00     0.031 A 
ATOM     56  C   UNL A   1      46.324  29.472  29.065  1.00  0.00     0.031 A 
ATOM     57  C   UNL A   1      43.610  23.400  28.341  1.00  0.00     0.049 A 
ATOM     58  C   UNL A   1      46.783  28.089  29.292  1.00  0.00     0.074 A 
ATOM     59  C   UNL A   1      43.105  22.800  29.472  1.00  0.00     0.029 A 
ATOM     60  N   UNL A   1      44.680  24.167  28.726  1.00  0.00    -0.354 N 
ATOM     61  N   UNL A   1      46.598  27.455  30.416  1.00  0.00    -0.248 NA
ATOM     62  C   UNL A   1      47.146  27.255  28.154  1.00  0.00     0.031 C 
ATOM     63  C   UNL A   1      43.806  23.377  30.574  1.00  0.00     0.029 A 
ATOM     64  C   UNL A   1      44.753  24.277  30.088  1.00  0.00     0.049 A 
ATOM     65  H   UNL A   1      45.316  24.585  28.101  1.00  0.00     0.167 HD
ATOM     66  C   UNL A   1      46.383  26.146  30.033  1.00  0.00     0.074 A 
ATOM     67  C   UNL A   1      46.914  26.049  28.678  1.00  0.00     0.031 C 
ATOM     68  C   UNL A   1      45.503  25.351  30.707  1.00  0.00     0.031 A 
BRANCH  55  69
ATOM     69  C   UNL A   1      44.014  23.293  25.815  1.00  0.00    -0.014 A 
ATOM     70  C   UNL A   1      44.028  21.938  25.435  1.00  0.00     0.009 A 
ATOM     71  C   UNL A   1      45.011  24.112  25.255  1.00  0.00     0.009 A 
ATOM     72  C   UNL A   1      45.022  21.422  24.594  1.00  0.00     0.001 A 
ATOM     73  C   UNL A   1      45.986  23.608  24.388  1.00  0.00     0.001 A 
ATOM     74  C   UNL A   1      46.006  22.257  24.077  1.00  0.00     0.000 A 
ENDBRANCH  55  69
BRANCH  56  75
ATOM     75  C   UNL A   1      47.246  30.558  28.696  1.00  0.00    -0.014 A 
ATOM     76  C   UNL A   1      47.634  31.520  29.640  1.00  0.00     0.009 A 
ATOM     77  C   UNL A   1      47.981  30.467  27.501  1.00  0.00     0.009 A 
ATOM     78  C   UNL A   1      48.762  32.320  29.424  1.00  0.00     0.001 A 
ATOM     79  C   UNL A   1      49.109  31.265  27.286  1.00  0.00     0.001 A 
ATOM     80  C   UNL A   1      49.511  32.178  28.258  1.00  0.00     0.000 A 
ENDBRANCH  56  75
BRANCH  68  81
ATOM     81  C   UNL A   1      45.173  25.726  32.124  1.00  0.00    -0.014 A 
ATOM     82  C   UNL A   1      44.085  26.534  32.489  1.00  0.00     0.009 A 
ATOM     83  C   UNL A   1      45.970  25.177  33.140  1.00  0.00     0.009 A 
ATOM     84  C   UNL A   1      43.819  26.802  33.837  1.00  0.00     0.001 A 
ATOM     85  C   UNL A   1      45.693  25.429  34.484  1.00  0.00     0.001 A 
ATOM     86  C   UNL A   1      44.622  26.247  34.833  1.00  0.00     0.000 A 
ENDBRANCH  68  81
ENDBRANCH  42  43
ENDBRANCH  34  37
ENDBRANCH  32  33
ENDBRANCH  31  32
ENDBRANCH   1  31
TORSDOF 15
ENDMDL
