MODEL 1
REMARK VINA RESULT:     -12.6      0.000      0.000
REMARK SMILES CC1(C)[C@H](C(=O)N(Cc2ccccc2)Cc2ccccc2)CC[C@@]1(C)C(=O)NCCCNC(=O)c1ccc(-c2c3nc(c(-c4ccccc4)c4ccc([nH]4)c(-c4ccccc4)c4nc(c(-c5ccccc5)c5ccc2[nH]5)C=C4)C=C3)cc1
REMARK SMILES IDX 29 1 28 2 26 3 27 4 24 6 1 7 2 8 3 9 4 10 22 11 23 12 25 13
REMARK SMILES IDX 5 14 6 15 7 16 8 17 9 18 10 19 14 20 11 21 13 22 12 23 15 24
REMARK SMILES IDX 16 25 17 26 21 27 18 28 20 29 19 30 30 31 31 32 32 33 33 34
REMARK SMILES IDX 34 36 35 37 36 38 82 39 37 40 81 41 38 42 39 43 40 44 75 45
REMARK SMILES IDX 41 46 80 47 74 48 76 49 42 50 79 51 73 52 72 53 43 55 65 56
REMARK SMILES IDX 50 57 64 58 51 59 54 60 63 61 77 62 52 63 53 64 62 66 78 67
REMARK SMILES IDX 55 68 44 69 45 70 49 71 46 72 48 73 47 74 66 75 67 76 71 77
REMARK SMILES IDX 68 78 70 79 69 80 56 81 57 82 61 83 58 84 60 85 59 86
REMARK H PARENT 28 5 32 35 76 54 54 65
REMARK Flexibility Score: inf
ROOT
ATOM      1  C   UNL A   1      31.678  29.310  25.383  1.00  0.00     0.117 C 
ENDROOT
BRANCH   1   2
ATOM      2  N   UNL A   1      31.273  29.445  24.008  1.00  0.00    -0.356 N 
ATOM      3  C   UNL A   1      31.378  28.514  23.009  1.00  0.00     0.226 C 
ATOM      4  O   UNL A   1      30.698  28.719  22.001  1.00  0.00    -0.274 OA
ATOM      5  H   UNL A   1      30.874  30.308  23.756  1.00  0.00     0.163 HD
BRANCH   3   6
ATOM      6  C   UNL A   1      32.409  27.352  23.079  1.00  0.00     0.052 C 
ATOM      7  C   UNL A   1      30.718  26.065  24.748  1.00  0.00     0.013 C 
ATOM      8  C   UNL A   1      32.099  26.106  24.055  1.00  0.00    -0.010 C 
ATOM      9  C   UNL A   1      33.174  25.977  25.130  1.00  0.00     0.013 C 
ATOM     10  C   UNL A   1      32.121  24.865  23.102  1.00  0.00     0.085 C 
ATOM     11  C   UNL A   1      33.001  25.244  21.936  1.00  0.00     0.015 C 
ATOM     12  C   UNL A   1      32.522  26.673  21.671  1.00  0.00     0.018 C 
ATOM     13  C   UNL A   1      33.781  28.054  23.297  1.00  0.00     0.022 C 
BRANCH  10  14
ATOM     14  C   UNL A   1      32.152  23.442  23.705  1.00  0.00     0.226 C 
ATOM     15  O   UNL A   1      31.038  22.926  23.897  1.00  0.00    -0.275 OA
ATOM     16  N   UNL A   1      33.299  22.769  24.123  1.00  0.00    -0.334 N 
BRANCH  16  17
ATOM     17  C   UNL A   1      34.595  22.746  23.402  1.00  0.00     0.155 C 
BRANCH  17  18
ATOM     18  C   UNL A   1      35.875  22.764  24.237  1.00  0.00    -0.029 A 
ATOM     19  C   UNL A   1      36.147  23.842  25.101  1.00  0.00     0.005 A 
ATOM     20  C   UNL A   1      36.842  21.750  24.177  1.00  0.00     0.005 A 
ATOM     21  C   UNL A   1      37.230  23.820  25.986  1.00  0.00     0.000 A 
ATOM     22  C   UNL A   1      37.933  21.727  25.052  1.00  0.00     0.000 A 
ATOM     23  C   UNL A   1      38.111  22.746  25.979  1.00  0.00     0.000 A 
ENDBRANCH  17  18
ENDBRANCH  16  17
BRANCH  16  24
ATOM     24  C   UNL A   1      33.028  21.653  25.045  1.00  0.00     0.155 C 
BRANCH  24  25
ATOM     25  C   UNL A   1      33.183  20.270  24.430  1.00  0.00    -0.029 A 
ATOM     26  C   UNL A   1      34.195  19.415  24.896  1.00  0.00     0.005 A 
ATOM     27  C   UNL A   1      32.315  19.777  23.445  1.00  0.00     0.005 A 
ATOM     28  C   UNL A   1      34.341  18.124  24.380  1.00  0.00     0.000 A 
ATOM     29  C   UNL A   1      32.468  18.491  22.918  1.00  0.00     0.000 A 
ATOM     30  C   UNL A   1      33.480  17.663  23.389  1.00  0.00     0.000 A 
ENDBRANCH  24  25
ENDBRANCH  16  24
ENDBRANCH  10  14
ENDBRANCH   3   6
ENDBRANCH   1   2
BRANCH   1  31
ATOM     31  C   UNL A   1      33.054  29.809  25.740  1.00  0.00     0.042 C 
BRANCH  31  32
ATOM     32  C   UNL A   1      33.437  29.508  27.175  1.00  0.00     0.118 C 
BRANCH  32  33
ATOM     33  N   UNL A   1      33.628  30.703  28.004  1.00  0.00    -0.352 N 
ATOM     34  C   UNL A   1      34.676  31.126  28.787  1.00  0.00     0.251 C 
ATOM     35  H   UNL A   1      32.860  31.318  28.000  1.00  0.00     0.163 HD
ATOM     36  O   UNL A   1      34.543  32.113  29.506  1.00  0.00    -0.269 OA
BRANCH  34  37
ATOM     37  C   UNL A   1      35.950  30.380  28.798  1.00  0.00     0.039 A 
ATOM     38  C   UNL A   1      36.756  30.361  27.656  1.00  0.00     0.014 A 
ATOM     39  C   UNL A   1      36.368  29.727  29.951  1.00  0.00     0.014 A 
ATOM     40  C   UNL A   1      38.028  29.788  27.721  1.00  0.00     0.010 A 
ATOM     41  C   UNL A   1      37.683  29.314  30.064  1.00  0.00     0.010 A 
ATOM     42  C   UNL A   1      38.528  29.323  28.946  1.00  0.00    -0.014 A 
BRANCH  42  43
ATOM     43  C   UNL A   1      39.910  28.808  29.109  1.00  0.00     0.031 A 
ATOM     44  C   UNL A   1      40.986  29.724  29.631  1.00  0.00     0.074 A 
ATOM     45  C   UNL A   1      40.224  27.569  28.681  1.00  0.00     0.049 A 
ATOM     46  N   UNL A   1      42.280  29.538  29.681  1.00  0.00    -0.248 NA
ATOM     47  C   UNL A   1      40.553  31.051  30.105  1.00  0.00     0.031 C 
ATOM     48  C   UNL A   1      39.289  26.598  28.107  1.00  0.00     0.029 A 
ATOM     49  N   UNL A   1      41.431  26.917  28.660  1.00  0.00    -0.354 N 
ATOM     50  C   UNL A   1      42.810  30.737  30.142  1.00  0.00     0.074 A 
ATOM     51  C   UNL A   1      41.711  31.664  30.285  1.00  0.00     0.031 C 
ATOM     52  C   UNL A   1      39.946  25.458  27.841  1.00  0.00     0.029 A 
ATOM     53  C   UNL A   1      41.356  25.635  28.172  1.00  0.00     0.049 A 
ATOM     54  H   UNL A   1      42.271  27.328  28.965  1.00  0.00     0.167 HD
ATOM     55  C   UNL A   1      44.094  31.036  30.453  1.00  0.00     0.031 A 
ATOM     56  C   UNL A   1      42.317  24.708  28.010  1.00  0.00     0.031 A 
ATOM     57  C   UNL A   1      45.177  30.097  30.361  1.00  0.00     0.049 A 
ATOM     58  C   UNL A   1      43.731  25.051  28.380  1.00  0.00     0.074 A 
ATOM     59  C   UNL A   1      46.501  30.268  30.720  1.00  0.00     0.029 A 
ATOM     60  N   UNL A   1      45.050  28.800  29.888  1.00  0.00    -0.354 N 
ATOM     61  N   UNL A   1      44.211  26.172  28.860  1.00  0.00    -0.248 NA
ATOM     62  C   UNL A   1      44.736  23.996  28.190  1.00  0.00     0.031 C 
ATOM     63  C   UNL A   1      47.186  29.083  30.431  1.00  0.00     0.029 A 
ATOM     64  C   UNL A   1      46.276  28.161  29.936  1.00  0.00     0.049 A 
ATOM     65  H   UNL A   1      44.213  28.394  29.567  1.00  0.00     0.167 HD
ATOM     66  C   UNL A   1      45.567  25.950  29.059  1.00  0.00     0.074 A 
ATOM     67  C   UNL A   1      45.829  24.582  28.656  1.00  0.00     0.031 C 
ATOM     68  C   UNL A   1      46.510  26.798  29.534  1.00  0.00     0.031 A 
BRANCH  55  69
ATOM     69  C   UNL A   1      44.375  32.434  30.929  1.00  0.00    -0.014 A 
ATOM     70  C   UNL A   1      44.381  32.749  32.299  1.00  0.00     0.009 A 
ATOM     71  C   UNL A   1      44.625  33.454  29.999  1.00  0.00     0.009 A 
ATOM     72  C   UNL A   1      44.571  34.066  32.722  1.00  0.00     0.001 A 
ATOM     73  C   UNL A   1      44.850  34.764  30.427  1.00  0.00     0.001 A 
ATOM     74  C   UNL A   1      44.808  35.071  31.787  1.00  0.00     0.000 A 
ENDBRANCH  55  69
BRANCH  56  75
ATOM     75  C   UNL A   1      41.965  23.350  27.519  1.00  0.00    -0.014 A 
ATOM     76  C   UNL A   1      42.160  23.024  26.167  1.00  0.00     0.009 A 
ATOM     77  C   UNL A   1      41.444  22.378  28.384  1.00  0.00     0.009 A 
ATOM     78  C   UNL A   1      41.820  21.757  25.687  1.00  0.00     0.001 A 
ATOM     79  C   UNL A   1      41.128  21.103  27.906  1.00  0.00     0.001 A 
ATOM     80  C   UNL A   1      41.309  20.797  26.559  1.00  0.00     0.000 A 
ENDBRANCH  56  75
BRANCH  68  81
ATOM     81  C   UNL A   1      47.902  26.258  29.686  1.00  0.00    -0.014 A 
ATOM     82  C   UNL A   1      48.807  26.267  28.614  1.00  0.00     0.009 A 
ATOM     83  C   UNL A   1      48.326  25.780  30.935  1.00  0.00     0.009 A 
ATOM     84  C   UNL A   1      50.103  25.779  28.784  1.00  0.00     0.001 A 
ATOM     85  C   UNL A   1      49.631  25.318  31.109  1.00  0.00     0.001 A 
ATOM     86  C   UNL A   1      50.515  25.310  30.032  1.00  0.00     0.000 A 
ENDBRANCH  68  81
ENDBRANCH  42  43
ENDBRANCH  34  37
ENDBRANCH  32  33
ENDBRANCH  31  32
ENDBRANCH   1  31
TORSDOF 15
ENDMDL
MODEL 2
REMARK VINA RESULT:     -12.4      2.598      8.381
REMARK SMILES CC1(C)[C@H](C(=O)N(Cc2ccccc2)Cc2ccccc2)CC[C@@]1(C)C(=O)NCCCNC(=O)c1ccc(-c2c3nc(c(-c4ccccc4)c4ccc([nH]4)c(-c4ccccc4)c4nc(c(-c5ccccc5)c5ccc2[nH]5)C=C4)C=C3)cc1
REMARK SMILES IDX 29 1 28 2 26 3 27 4 24 6 1 7 2 8 3 9 4 10 22 11 23 12 25 13
REMARK SMILES IDX 5 14 6 15 7 16 8 17 9 18 10 19 14 20 11 21 13 22 12 23 15 24
REMARK SMILES IDX 16 25 17 26 21 27 18 28 20 29 19 30 30 31 31 32 32 33 33 34
REMARK SMILES IDX 34 36 35 37 36 38 82 39 37 40 81 41 38 42 39 43 40 44 75 45
REMARK SMILES IDX 41 46 80 47 74 48 76 49 42 50 79 51 73 52 72 53 43 55 65 56
REMARK SMILES IDX 50 57 64 58 51 59 54 60 63 61 77 62 52 63 53 64 62 66 78 67
REMARK SMILES IDX 55 68 44 69 45 70 49 71 46 72 48 73 47 74 66 75 67 76 71 77
REMARK SMILES IDX 68 78 70 79 69 80 56 81 57 82 61 83 58 84 60 85 59 86
REMARK H PARENT 28 5 32 35 76 54 54 65
REMARK Flexibility Score: inf
ROOT
ATOM      1  C   UNL A   1      35.350  21.670  24.791  1.00  0.00     0.117 C 
ENDROOT
BRANCH   1   2
ATOM      2  N   UNL A   1      34.207  20.845  25.086  1.00  0.00    -0.356 N 
ATOM      3  C   UNL A   1      32.915  21.248  25.295  1.00  0.00     0.226 C 
ATOM      4  O   UNL A   1      32.053  20.368  25.225  1.00  0.00    -0.274 OA
ATOM      5  H   UNL A   1      34.374  19.877  25.146  1.00  0.00     0.163 HD
BRANCH   3   6
ATOM      6  C   UNL A   1      32.573  22.696  25.746  1.00  0.00     0.052 C 
ATOM      7  C   UNL A   1      32.776  23.458  23.161  1.00  0.00     0.013 C 
ATOM      8  C   UNL A   1      32.581  23.869  24.638  1.00  0.00    -0.010 C 
ATOM      9  C   UNL A   1      33.623  24.930  24.978  1.00  0.00     0.013 C 
ATOM     10  C   UNL A   1      31.138  24.470  24.713  1.00  0.00     0.085 C 
ATOM     11  C   UNL A   1      30.633  24.183  26.107  1.00  0.00     0.015 C 
ATOM     12  C   UNL A   1      31.102  22.738  26.287  1.00  0.00     0.018 C 
ATOM     13  C   UNL A   1      33.468  22.943  26.996  1.00  0.00     0.022 C 
BRANCH  10  14
ATOM     14  C   UNL A   1      30.833  25.810  24.007  1.00  0.00     0.226 C 
ATOM     15  O   UNL A   1      30.324  25.708  22.878  1.00  0.00    -0.275 OA
ATOM     16  N   UNL A   1      31.171  27.072  24.494  1.00  0.00    -0.334 N 
BRANCH  16  17
ATOM     17  C   UNL A   1      31.042  27.515  25.903  1.00  0.00     0.155 C 
BRANCH  17  18
ATOM     18  C   UNL A   1      32.120  28.445  26.460  1.00  0.00    -0.029 A 
ATOM     19  C   UNL A   1      33.411  27.954  26.733  1.00  0.00     0.005 A 
ATOM     20  C   UNL A   1      31.889  29.798  26.748  1.00  0.00     0.005 A 
ATOM     21  C   UNL A   1      34.458  28.806  27.101  1.00  0.00     0.000 A 
ATOM     22  C   UNL A   1      32.930  30.653  27.126  1.00  0.00     0.000 A 
ATOM     23  C   UNL A   1      34.222  30.164  27.272  1.00  0.00     0.000 A 
ENDBRANCH  17  18
ENDBRANCH  16  17
BRANCH  16  24
ATOM     24  C   UNL A   1      31.178  28.123  23.461  1.00  0.00     0.155 C 
BRANCH  24  25
ATOM     25  C   UNL A   1      29.934  28.999  23.441  1.00  0.00    -0.029 A 
ATOM     26  C   UNL A   1      30.035  30.352  23.801  1.00  0.00     0.005 A 
ATOM     27  C   UNL A   1      28.683  28.529  23.016  1.00  0.00     0.005 A 
ATOM     28  C   UNL A   1      28.921  31.195  23.756  1.00  0.00     0.000 A 
ATOM     29  C   UNL A   1      27.564  29.366  22.983  1.00  0.00     0.000 A 
ATOM     30  C   UNL A   1      27.684  30.702  23.351  1.00  0.00     0.000 A 
ENDBRANCH  24  25
ENDBRANCH  16  24
ENDBRANCH  10  14
ENDBRANCH   3   6
ENDBRANCH   1   2
BRANCH   1  31
ATOM     31  C   UNL A   1      36.398  21.791  25.867  1.00  0.00     0.042 C 
BRANCH  31  32
ATOM     32  C   UNL A   1      37.486  22.788  25.520  1.00  0.00     0.118 C 
BRANCH  32  33
ATOM     33  N   UNL A   1      38.846  22.255  25.652  1.00  0.00    -0.352 N 
ATOM     34  C   UNL A   1      40.008  22.802  26.143  1.00  0.00     0.251 C 
ATOM     35  H   UNL A   1      38.946  21.332  25.327  1.00  0.00     0.163 HD
ATOM     36  O   UNL A   1      41.069  22.195  26.020  1.00  0.00    -0.269 OA
BRANCH  34  37
ATOM     37  C   UNL A   1      39.997  24.130  26.785  1.00  0.00     0.039 A 
ATOM     38  C   UNL A   1      39.450  24.282  28.062  1.00  0.00     0.014 A 
ATOM     39  C   UNL A   1      40.560  25.224  26.139  1.00  0.00     0.014 A 
ATOM     40  C   UNL A   1      39.583  25.504  28.727  1.00  0.00     0.010 A 
ATOM     41  C   UNL A   1      40.840  26.373  26.857  1.00  0.00     0.010 A 
ATOM     42  C   UNL A   1      40.341  26.537  28.156  1.00  0.00    -0.014 A 
BRANCH  42  43
ATOM     43  C   UNL A   1      40.616  27.816  28.856  1.00  0.00     0.031 A 
ATOM     44  C   UNL A   1      41.926  27.999  29.577  1.00  0.00     0.074 A 
ATOM     45  C   UNL A   1      39.655  28.756  28.946  1.00  0.00     0.049 A 
ATOM     46  N   UNL A   1      42.296  28.952  30.393  1.00  0.00    -0.248 NA
ATOM     47  C   UNL A   1      42.933  26.936  29.402  1.00  0.00     0.031 C 
ATOM     48  C   UNL A   1      38.324  28.682  28.340  1.00  0.00     0.029 A 
ATOM     49  N   UNL A   1      39.655  29.965  29.596  1.00  0.00    -0.354 N 
ATOM     50  C   UNL A   1      43.548  28.576  30.861  1.00  0.00     0.074 A 
ATOM     51  C   UNL A   1      43.843  27.278  30.299  1.00  0.00     0.031 C 
ATOM     52  C   UNL A   1      37.656  29.818  28.600  1.00  0.00     0.029 A 
ATOM     53  C   UNL A   1      38.490  30.675  29.437  1.00  0.00     0.049 A 
ATOM     54  H   UNL A   1      40.417  30.292  30.126  1.00  0.00     0.167 HD
ATOM     55  C   UNL A   1      44.399  29.260  31.661  1.00  0.00     0.031 A 
ATOM     56  C   UNL A   1      38.135  31.882  29.914  1.00  0.00     0.031 A 
ATOM     57  C   UNL A   1      44.129  30.574  32.176  1.00  0.00     0.049 A 
ATOM     58  C   UNL A   1      39.100  32.636  30.783  1.00  0.00     0.074 A 
ATOM     59  C   UNL A   1      44.947  31.391  32.933  1.00  0.00     0.029 A 
ATOM     60  N   UNL A   1      42.947  31.268  31.967  1.00  0.00    -0.354 N 
ATOM     61  N   UNL A   1      40.300  32.289  31.179  1.00  0.00    -0.248 NA
ATOM     62  C   UNL A   1      38.661  33.952  31.267  1.00  0.00     0.031 C 
ATOM     63  C   UNL A   1      44.247  32.569  33.213  1.00  0.00     0.029 A 
ATOM     64  C   UNL A   1      43.009  32.501  32.589  1.00  0.00     0.049 A 
ATOM     65  H   UNL A   1      42.178  30.933  31.452  1.00  0.00     0.167 HD
ATOM     66  C   UNL A   1      40.774  33.355  31.932  1.00  0.00     0.074 A 
ATOM     67  C   UNL A   1      39.733  34.364  31.929  1.00  0.00     0.031 C 
ATOM     68  C   UNL A   1      41.963  33.490  32.568  1.00  0.00     0.031 A 
BRANCH  55  69
ATOM     69  C   UNL A   1      45.700  28.592  32.010  1.00  0.00    -0.014 A 
ATOM     70  C   UNL A   1      46.850  28.783  31.226  1.00  0.00     0.009 A 
ATOM     71  C   UNL A   1      45.777  27.748  33.128  1.00  0.00     0.009 A 
ATOM     72  C   UNL A   1      48.031  28.098  31.519  1.00  0.00     0.001 A 
ATOM     73  C   UNL A   1      46.969  27.091  33.440  1.00  0.00     0.001 A 
ATOM     74  C   UNL A   1      48.090  27.256  32.627  1.00  0.00     0.000 A 
ENDBRANCH  55  69
BRANCH  56  75
ATOM     75  C   UNL A   1      36.824  32.473  29.539  1.00  0.00    -0.014 A 
ATOM     76  C   UNL A   1      35.697  32.244  30.345  1.00  0.00     0.009 A 
ATOM     77  C   UNL A   1      36.688  33.268  28.392  1.00  0.00     0.009 A 
ATOM     78  C   UNL A   1      34.456  32.781  29.997  1.00  0.00     0.001 A 
ATOM     79  C   UNL A   1      35.449  33.824  28.060  1.00  0.00     0.001 A 
ATOM     80  C   UNL A   1      34.335  33.573  28.857  1.00  0.00     0.000 A 
ENDBRANCH  56  75
BRANCH  68  81
ATOM     81  C   UNL A   1      42.218  34.789  33.274  1.00  0.00    -0.014 A 
ATOM     82  C   UNL A   1      42.969  35.809  32.672  1.00  0.00     0.009 A 
ATOM     83  C   UNL A   1      41.656  35.009  34.540  1.00  0.00     0.009 A 
ATOM     84  C   UNL A   1      43.175  37.017  33.340  1.00  0.00     0.001 A 
ATOM     85  C   UNL A   1      41.841  36.228  35.194  1.00  0.00     0.001 A 
ATOM     86  C   UNL A   1      42.607  37.227  34.596  1.00  0.00     0.000 A 
ENDBRANCH  68  81
ENDBRANCH  42  43
ENDBRANCH  34  37
ENDBRANCH  32  33
ENDBRANCH  31  32
ENDBRANCH   1  31
TORSDOF 15
ENDMDL
MODEL 3
REMARK VINA RESULT:     -12.2      1.138      1.872
REMARK SMILES CC1(C)[C@H](C(=O)N(Cc2ccccc2)Cc2ccccc2)CC[C@@]1(C)C(=O)NCCCNC(=O)c1ccc(-c2c3nc(c(-c4ccccc4)c4ccc([nH]4)c(-c4ccccc4)c4nc(c(-c5ccccc5)c5ccc2[nH]5)C=C4)C=C3)cc1
REMARK SMILES IDX 29 1 28 2 26 3 27 4 24 6 1 7 2 8 3 9 4 10 22 11 23 12 25 13
REMARK SMILES IDX 5 14 6 15 7 16 8 17 9 18 10 19 14 20 11 21 13 22 12 23 15 24
REMARK SMILES IDX 16 25 17 26 21 27 18 28 20 29 19 30 30 31 31 32 32 33 33 34
REMARK SMILES IDX 34 36 35 37 36 38 82 39 37 40 81 41 38 42 39 43 40 44 75 45
REMARK SMILES IDX 41 46 80 47 74 48 76 49 42 50 79 51 73 52 72 53 43 55 65 56
REMARK SMILES IDX 50 57 64 58 51 59 54 60 63 61 77 62 52 63 53 64 62 66 78 67
REMARK SMILES IDX 55 68 44 69 45 70 49 71 46 72 48 73 47 74 66 75 67 76 71 77
REMARK SMILES IDX 68 78 70 79 69 80 56 81 57 82 61 83 58 84 60 85 59 86
REMARK H PARENT 28 5 32 35 76 54 54 65
REMARK Flexibility Score: inf
ROOT
ATOM      1  C   UNL A   1      33.659  27.617  25.415  1.00  0.00     0.117 C 
ENDROOT
BRANCH   1   2
ATOM      2  N   UNL A   1      33.110  27.775  24.094  1.00  0.00    -0.356 N 
ATOM      3  C   UNL A   1      31.903  27.324  23.629  1.00  0.00     0.226 C 
ATOM      4  O   UNL A   1      31.502  27.831  22.577  1.00  0.00    -0.274 OA
ATOM      5  H   UNL A   1      33.667  28.266  23.448  1.00  0.00     0.163 HD
BRANCH   3   6
ATOM      6  C   UNL A   1      31.160  26.137  24.302  1.00  0.00     0.052 C 
ATOM      7  C   UNL A   1      32.790  24.460  22.948  1.00  0.00     0.013 C 
ATOM      8  C   UNL A   1      31.570  24.634  23.881  1.00  0.00    -0.010 C 
ATOM      9  C   UNL A   1      30.385  23.901  23.259  1.00  0.00     0.013 C 
ATOM     10  C   UNL A   1      31.985  23.964  25.233  1.00  0.00     0.085 C 
ATOM     11  C   UNL A   1      31.250  24.714  26.319  1.00  0.00     0.015 C 
ATOM     12  C   UNL A   1      31.438  26.156  25.844  1.00  0.00     0.018 C 
ATOM     13  C   UNL A   1      29.649  26.487  24.162  1.00  0.00     0.022 C 
BRANCH  10  14
ATOM     14  C   UNL A   1      32.170  22.431  25.298  1.00  0.00     0.226 C 
ATOM     15  O   UNL A   1      31.138  21.785  25.550  1.00  0.00    -0.275 OA
ATOM     16  N   UNL A   1      33.389  21.762  25.197  1.00  0.00    -0.334 N 
BRANCH  16  17
ATOM     17  C   UNL A   1      34.473  22.088  24.240  1.00  0.00     0.155 C 
BRANCH  17  18
ATOM     18  C   UNL A   1      35.860  22.390  24.810  1.00  0.00    -0.029 A 
ATOM     19  C   UNL A   1      36.137  23.648  25.378  1.00  0.00     0.005 A 
ATOM     20  C   UNL A   1      36.916  21.468  24.780  1.00  0.00     0.005 A 
ATOM     21  C   UNL A   1      37.343  23.906  26.039  1.00  0.00     0.000 A 
ATOM     22  C   UNL A   1      38.129  21.724  25.430  1.00  0.00     0.000 A 
ATOM     23  C   UNL A   1      38.331  22.931  26.088  1.00  0.00     0.000 A 
ENDBRANCH  17  18
ENDBRANCH  16  17
BRANCH  16  24
ATOM     24  C   UNL A   1      33.355  20.387  25.726  1.00  0.00     0.155 C 
BRANCH  24  25
ATOM     25  C   UNL A   1      33.414  19.299  24.665  1.00  0.00    -0.029 A 
ATOM     26  C   UNL A   1      34.463  18.365  24.688  1.00  0.00     0.005 A 
ATOM     27  C   UNL A   1      32.425  19.143  23.682  1.00  0.00     0.005 A 
ATOM     28  C   UNL A   1      34.526  17.329  23.752  1.00  0.00     0.000 A 
ATOM     29  C   UNL A   1      32.493  18.116  22.737  1.00  0.00     0.000 A 
ATOM     30  C   UNL A   1      33.543  17.206  22.774  1.00  0.00     0.000 A 
ENDBRANCH  24  25
ENDBRANCH  16  24
ENDBRANCH  10  14
ENDBRANCH   3   6
ENDBRANCH   1   2
BRANCH   1  31
ATOM     31  C   UNL A   1      34.131  28.867  26.111  1.00  0.00     0.042 C 
BRANCH  31  32
ATOM     32  C   UNL A   1      33.282  29.230  27.312  1.00  0.00     0.118 C 
BRANCH  32  33
ATOM     33  N   UNL A   1      33.502  30.592  27.808  1.00  0.00    -0.352 N 
ATOM     34  C   UNL A   1      34.576  31.188  28.426  1.00  0.00     0.251 C 
ATOM     35  H   UNL A   1      32.735  31.194  27.674  1.00  0.00     0.163 HD
ATOM     36  O   UNL A   1      34.469  32.325  28.877  1.00  0.00    -0.269 OA
BRANCH  34  37
ATOM     37  C   UNL A   1      35.848  30.457  28.583  1.00  0.00     0.039 A 
ATOM     38  C   UNL A   1      36.889  30.665  27.673  1.00  0.00     0.014 A 
ATOM     39  C   UNL A   1      36.028  29.588  29.653  1.00  0.00     0.014 A 
ATOM     40  C   UNL A   1      38.140  30.092  27.915  1.00  0.00     0.010 A 
ATOM     41  C   UNL A   1      37.303  29.163  29.982  1.00  0.00     0.010 A 
ATOM     42  C   UNL A   1      38.375  29.394  29.109  1.00  0.00    -0.014 A 
BRANCH  42  43
ATOM     43  C   UNL A   1      39.708  28.859  29.480  1.00  0.00     0.031 A 
ATOM     44  C   UNL A   1      40.637  29.699  30.317  1.00  0.00     0.074 A 
ATOM     45  C   UNL A   1      40.129  27.683  28.973  1.00  0.00     0.049 A 
ATOM     46  N   UNL A   1      41.898  29.504  30.603  1.00  0.00    -0.248 NA
ATOM     47  C   UNL A   1      40.088  30.956  30.857  1.00  0.00     0.031 C 
ATOM     48  C   UNL A   1      39.350  26.796  28.106  1.00  0.00     0.029 A 
ATOM     49  N   UNL A   1      41.330  27.036  29.112  1.00  0.00    -0.354 N 
ATOM     50  C   UNL A   1      42.299  30.633  31.307  1.00  0.00     0.074 A 
ATOM     51  C   UNL A   1      41.173  31.537  31.342  1.00  0.00     0.031 C 
ATOM     52  C   UNL A   1      40.073  25.697  27.836  1.00  0.00     0.029 A 
ATOM     53  C   UNL A   1      41.384  25.827  28.463  1.00  0.00     0.049 A 
ATOM     54  H   UNL A   1      42.084  27.403  29.629  1.00  0.00     0.167 HD
ATOM     55  C   UNL A   1      43.487  30.887  31.905  1.00  0.00     0.031 A 
ATOM     56  C   UNL A   1      42.379  24.925  28.383  1.00  0.00     0.031 A 
ATOM     57  C   UNL A   1      44.588  29.964  31.915  1.00  0.00     0.049 A 
ATOM     58  C   UNL A   1      43.683  25.214  29.069  1.00  0.00     0.074 A 
ATOM     59  C   UNL A   1      45.810  30.085  32.551  1.00  0.00     0.029 A 
ATOM     60  N   UNL A   1      44.588  28.738  31.269  1.00  0.00    -0.354 N 
ATOM     61  N   UNL A   1      44.031  26.265  29.772  1.00  0.00    -0.248 NA
ATOM     62  C   UNL A   1      44.729  24.189  28.955  1.00  0.00     0.031 C 
ATOM     63  C   UNL A   1      46.565  28.944  32.260  1.00  0.00     0.029 A 
ATOM     64  C   UNL A   1      45.794  28.094  31.481  1.00  0.00     0.049 A 
ATOM     65  H   UNL A   1      43.842  28.379  30.738  1.00  0.00     0.167 HD
ATOM     66  C   UNL A   1      45.325  26.015  30.210  1.00  0.00     0.074 A 
ATOM     67  C   UNL A   1      45.694  24.709  29.700  1.00  0.00     0.031 C 
ATOM     68  C   UNL A   1      46.135  26.793  30.968  1.00  0.00     0.031 A 
BRANCH  55  69
ATOM     69  C   UNL A   1      43.636  32.212  32.599  1.00  0.00    -0.014 A 
ATOM     70  C   UNL A   1      44.143  33.335  31.922  1.00  0.00     0.009 A 
ATOM     71  C   UNL A   1      43.281  32.340  33.949  1.00  0.00     0.009 A 
ATOM     72  C   UNL A   1      44.344  34.539  32.599  1.00  0.00     0.001 A 
ATOM     73  C   UNL A   1      43.451  33.556  34.615  1.00  0.00     0.001 A 
ATOM     74  C   UNL A   1      43.996  34.649  33.944  1.00  0.00     0.000 A 
ENDBRANCH  55  69
BRANCH  56  75
ATOM     75  C   UNL A   1      42.164  23.642  27.665  1.00  0.00    -0.014 A 
ATOM     76  C   UNL A   1      41.678  22.524  28.362  1.00  0.00     0.009 A 
ATOM     77  C   UNL A   1      42.431  23.524  26.294  1.00  0.00     0.009 A 
ATOM     78  C   UNL A   1      41.485  21.307  27.704  1.00  0.00     0.001 A 
ATOM     79  C   UNL A   1      42.213  22.311  25.634  1.00  0.00     0.001 A 
ATOM     80  C   UNL A   1      41.749  21.204  26.340  1.00  0.00     0.000 A 
ENDBRANCH  56  75
BRANCH  68  81
ATOM     81  C   UNL A   1      47.481  26.235  31.327  1.00  0.00    -0.014 A 
ATOM     82  C   UNL A   1      47.695  25.582  32.549  1.00  0.00     0.009 A 
ATOM     83  C   UNL A   1      48.534  26.324  30.404  1.00  0.00     0.009 A 
ATOM     84  C   UNL A   1      48.950  25.051  32.852  1.00  0.00     0.001 A 
ATOM     85  C   UNL A   1      49.780  25.770  30.698  1.00  0.00     0.001 A 
ATOM     86  C   UNL A   1      49.989  25.142  31.925  1.00  0.00     0.000 A 
ENDBRANCH  68  81
ENDBRANCH  42  43
ENDBRANCH  34  37
ENDBRANCH  32  33
ENDBRANCH  31  32
ENDBRANCH   1  31
TORSDOF 15
ENDMDL
