MODEL 1
REMARK VINA RESULT:     -11.2      0.000      0.000
REMARK SMILES C[C@@H]1[C@@H](C(=O)NCCCNC(=O)c2ccc(-c3c4nc(c(-c5ccccc5)c5ccc([nH]5)c(-c5ccccc5)c5nc(c(-c6ccccc6)c6ccc3[nH]6)C=C5)C=C4)cc2)CCN1C(=O)NC[C@@H]1COCCO1
REMARK SMILES IDX 7 1 6 2 4 3 5 4 3 6 1 7 2 8 63 9 61 10 62 11 64 12 65 13
REMARK SMILES IDX 66 14 67 16 68 17 69 18 73 19 70 20 72 21 71 22 8 23 9 24
REMARK SMILES IDX 10 25 11 26 12 28 13 29 14 30 60 31 15 32 59 33 16 34 17 35
REMARK SMILES IDX 18 36 53 37 19 38 58 39 52 40 54 41 20 42 57 43 51 44 50 45
REMARK SMILES IDX 21 47 43 48 28 49 42 50 29 51 32 52 41 53 55 54 30 55 31 56
REMARK SMILES IDX 40 58 56 59 33 60 22 61 23 62 27 63 24 64 26 65 25 66 44 67
REMARK SMILES IDX 45 68 49 69 46 70 48 71 47 72 34 73 35 74 39 75 36 76 38 77
REMARK SMILES IDX 37 78
REMARK H PARENT 6 5 66 15 10 27 54 46 32 57
REMARK Flexibility Score: inf
ROOT
ATOM      1  C   UNL A   1      36.647  20.953  24.959  1.00  0.00     0.117 C 
ENDROOT
BRANCH   1   2
ATOM      2  N   UNL A   1      35.377  20.352  25.316  1.00  0.00    -0.356 N 
ATOM      3  C   UNL A   1      34.112  20.777  25.066  1.00  0.00     0.225 C 
ATOM      4  O   UNL A   1      33.197  20.111  25.550  1.00  0.00    -0.275 OA
ATOM      5  H   UNL A   1      35.443  19.507  25.818  1.00  0.00     0.163 HD
BRANCH   3   6
ATOM      6  C   UNL A   1      33.886  22.076  24.300  1.00  0.00     0.102 C 
ATOM      7  C   UNL A   1      34.292  24.545  24.613  1.00  0.00     0.032 C 
ATOM      8  C   UNL A   1      33.784  23.266  25.280  1.00  0.00     0.096 C 
ATOM      9  N   UNL A   1      32.352  23.353  25.603  1.00  0.00    -0.321 N 
ATOM     10  C   UNL A   1      32.544  22.152  23.571  1.00  0.00     0.037 C 
ATOM     11  C   UNL A   1      31.578  22.566  24.659  1.00  0.00     0.122 C 
BRANCH   9  12
ATOM     12  C   UNL A   1      31.664  23.872  26.654  1.00  0.00     0.317 C 
ATOM     13  O   UNL A   1      31.553  23.240  27.710  1.00  0.00    -0.249 OA
ATOM     14  N   UNL A   1      31.075  25.074  26.644  1.00  0.00    -0.335 N 
ATOM     15  H   UNL A   1      30.649  25.274  27.509  1.00  0.00     0.165 HD
BRANCH  14  16
ATOM     16  C   UNL A   1      30.897  26.162  25.700  1.00  0.00     0.152 C 
BRANCH  16  17
ATOM     17  C   UNL A   1      31.460  27.475  26.251  1.00  0.00     0.163 C 
ATOM     18  C   UNL A   1      31.371  28.581  25.190  1.00  0.00     0.194 C 
ATOM     19  O   UNL A   1      32.837  27.263  26.630  1.00  0.00    -0.372 OA
ATOM     20  O   UNL A   1      31.949  29.800  25.678  1.00  0.00    -0.376 OA
ATOM     21  C   UNL A   1      33.405  28.486  27.120  1.00  0.00     0.189 C 
ATOM     22  C   UNL A   1      33.316  29.576  26.053  1.00  0.00     0.188 C 
ENDBRANCH  16  17
ENDBRANCH  14  16
ENDBRANCH   9  12
ENDBRANCH   3   6
ENDBRANCH   1   2
BRANCH   1  23
ATOM     23  C   UNL A   1      37.789  19.954  24.976  1.00  0.00     0.042 C 
BRANCH  23  24
ATOM     24  C   UNL A   1      38.967  20.370  25.842  1.00  0.00     0.118 C 
BRANCH  24  25
ATOM     25  N   UNL A   1      40.050  19.397  25.845  1.00  0.00    -0.352 N 
ATOM     26  C   UNL A   1      41.392  19.559  26.106  1.00  0.00     0.251 C 
ATOM     27  H   UNL A   1      39.780  18.475  25.628  1.00  0.00     0.163 HD
ATOM     28  O   UNL A   1      42.174  18.643  25.895  1.00  0.00    -0.269 OA
BRANCH  26  29
ATOM     29  C   UNL A   1      41.892  20.860  26.602  1.00  0.00     0.039 A 
ATOM     30  C   UNL A   1      42.323  21.817  25.680  1.00  0.00     0.014 A 
ATOM     31  C   UNL A   1      41.915  21.144  27.967  1.00  0.00     0.014 A 
ATOM     32  C   UNL A   1      42.686  23.090  26.127  1.00  0.00     0.010 A 
ATOM     33  C   UNL A   1      42.156  22.443  28.396  1.00  0.00     0.010 A 
ATOM     34  C   UNL A   1      42.554  23.429  27.483  1.00  0.00    -0.014 A 
BRANCH  34  35
ATOM     35  C   UNL A   1      42.837  24.801  27.976  1.00  0.00     0.031 A 
ATOM     36  C   UNL A   1      44.246  25.198  28.328  1.00  0.00     0.074 A 
ATOM     37  C   UNL A   1      41.823  25.667  28.175  1.00  0.00     0.049 A 
ATOM     38  N   UNL A   1      44.685  26.318  28.844  1.00  0.00    -0.248 NA
ATOM     39  C   UNL A   1      45.298  24.192  28.102  1.00  0.00     0.031 C 
ATOM     40  C   UNL A   1      40.406  25.392  27.918  1.00  0.00     0.029 A 
ATOM     41  N   UNL A   1      41.829  26.955  28.647  1.00  0.00    -0.354 N 
ATOM     42  C   UNL A   1      46.050  26.141  29.023  1.00  0.00     0.074 A 
ATOM     43  C   UNL A   1      46.360  24.786  28.622  1.00  0.00     0.031 C 
ATOM     44  C   UNL A   1      39.688  26.492  28.196  1.00  0.00     0.029 A 
ATOM     45  C   UNL A   1      40.582  27.531  28.698  1.00  0.00     0.049 A 
ATOM     46  H   UNL A   1      42.649  27.424  28.923  1.00  0.00     0.167 HD
ATOM     47  C   UNL A   1      46.974  27.031  29.457  1.00  0.00     0.031 A 
ATOM     48  C   UNL A   1      40.200  28.755  29.105  1.00  0.00     0.031 A 
ATOM     49  C   UNL A   1      46.671  28.383  29.839  1.00  0.00     0.049 A 
ATOM     50  C   UNL A   1      41.241  29.721  29.598  1.00  0.00     0.074 A 
ATOM     51  C   UNL A   1      47.543  29.381  30.238  1.00  0.00     0.029 A 
ATOM     52  N   UNL A   1      45.396  28.926  29.870  1.00  0.00    -0.354 N 
ATOM     53  N   UNL A   1      42.539  29.559  29.698  1.00  0.00    -0.248 NA
ATOM     54  C   UNL A   1      40.765  31.045  30.025  1.00  0.00     0.031 C 
ATOM     55  C   UNL A   1      46.788  30.513  30.562  1.00  0.00     0.029 A 
ATOM     56  C   UNL A   1      45.454  30.240  30.304  1.00  0.00     0.049 A 
ATOM     57  H   UNL A   1      44.572  28.449  29.620  1.00  0.00     0.167 HD
ATOM     58  C   UNL A   1      43.036  30.767  30.167  1.00  0.00     0.074 A 
ATOM     59  C   UNL A   1      41.904  31.657  30.317  1.00  0.00     0.031 C 
ATOM     60  C   UNL A   1      44.317  31.110  30.447  1.00  0.00     0.031 A 
BRANCH  47  61
ATOM     61  C   UNL A   1      48.400  26.563  29.540  1.00  0.00    -0.014 A 
ATOM     62  C   UNL A   1      49.316  26.829  28.508  1.00  0.00     0.009 A 
ATOM     63  C   UNL A   1      48.845  25.870  30.677  1.00  0.00     0.009 A 
ATOM     64  C   UNL A   1      50.635  26.377  28.596  1.00  0.00     0.001 A 
ATOM     65  C   UNL A   1      50.172  25.448  30.777  1.00  0.00     0.001 A 
ATOM     66  C   UNL A   1      51.062  25.691  29.732  1.00  0.00     0.000 A 
ENDBRANCH  47  61
BRANCH  48  67
ATOM     67  C   UNL A   1      38.767  29.149  29.049  1.00  0.00    -0.014 A 
ATOM     68  C   UNL A   1      38.229  29.710  27.880  1.00  0.00     0.009 A 
ATOM     69  C   UNL A   1      37.932  28.979  30.164  1.00  0.00     0.009 A 
ATOM     70  C   UNL A   1      36.895  30.119  27.839  1.00  0.00     0.001 A 
ATOM     71  C   UNL A   1      36.589  29.359  30.110  1.00  0.00     0.001 A 
ATOM     72  C   UNL A   1      36.075  29.939  28.951  1.00  0.00     0.000 A 
ENDBRANCH  48  67
BRANCH  60  73
ATOM     73  C   UNL A   1      44.568  32.520  30.905  1.00  0.00    -0.014 A 
ATOM     74  C   UNL A   1      44.582  32.855  32.268  1.00  0.00     0.009 A 
ATOM     75  C   UNL A   1      44.836  33.519  29.956  1.00  0.00     0.009 A 
ATOM     76  C   UNL A   1      44.827  34.171  32.668  1.00  0.00     0.001 A 
ATOM     77  C   UNL A   1      45.112  34.825  30.360  1.00  0.00     0.001 A 
ATOM     78  C   UNL A   1      45.097  35.152  31.714  1.00  0.00     0.000 A 
ENDBRANCH  60  73
ENDBRANCH  34  35
ENDBRANCH  26  29
ENDBRANCH  24  25
ENDBRANCH  23  24
ENDBRANCH   1  23
TORSDOF 13
ENDMDL
MODEL 2
REMARK VINA RESULT:     -11.2      1.637      7.977
REMARK SMILES C[C@@H]1[C@@H](C(=O)NCCCNC(=O)c2ccc(-c3c4nc(c(-c5ccccc5)c5ccc([nH]5)c(-c5ccccc5)c5nc(c(-c6ccccc6)c6ccc3[nH]6)C=C5)C=C4)cc2)CCN1C(=O)NC[C@@H]1COCCO1
REMARK SMILES IDX 7 1 6 2 4 3 5 4 3 6 1 7 2 8 63 9 61 10 62 11 64 12 65 13
REMARK SMILES IDX 66 14 67 16 68 17 69 18 73 19 70 20 72 21 71 22 8 23 9 24
REMARK SMILES IDX 10 25 11 26 12 28 13 29 14 30 60 31 15 32 59 33 16 34 17 35
REMARK SMILES IDX 18 36 53 37 19 38 58 39 52 40 54 41 20 42 57 43 51 44 50 45
REMARK SMILES IDX 21 47 43 48 28 49 42 50 29 51 32 52 41 53 55 54 30 55 31 56
REMARK SMILES IDX 40 58 56 59 33 60 22 61 23 62 27 63 24 64 26 65 25 66 44 67
REMARK SMILES IDX 45 68 49 69 46 70 48 71 47 72 34 73 35 74 39 75 36 76 38 77
REMARK SMILES IDX 37 78
REMARK H PARENT 6 5 66 15 10 27 54 46 32 57
REMARK Flexibility Score: inf
ROOT
ATOM      1  C   UNL A   1      31.612  27.122  26.385  1.00  0.00     0.117 C 
ENDROOT
BRANCH   1   2
ATOM      2  N   UNL A   1      31.467  25.770  26.888  1.00  0.00    -0.356 N 
ATOM      3  C   UNL A   1      31.973  24.604  26.411  1.00  0.00     0.225 C 
ATOM      4  O   UNL A   1      31.632  23.573  26.990  1.00  0.00    -0.275 OA
ATOM      5  H   UNL A   1      30.916  25.685  27.700  1.00  0.00     0.163 HD
BRANCH   3   6
ATOM      6  C   UNL A   1      32.839  24.611  25.156  1.00  0.00     0.102 C 
ATOM      7  C   UNL A   1      33.288  23.130  23.165  1.00  0.00     0.032 C 
ATOM      8  C   UNL A   1      33.113  23.166  24.684  1.00  0.00     0.096 C 
ATOM      9  N   UNL A   1      34.348  22.780  25.384  1.00  0.00    -0.321 N 
ATOM     10  C   UNL A   1      34.256  25.146  25.371  1.00  0.00     0.037 C 
ATOM     11  C   UNL A   1      34.997  23.956  25.937  1.00  0.00     0.122 C 
BRANCH   9  12
ATOM     12  C   UNL A   1      34.887  21.581  25.729  1.00  0.00     0.317 C 
ATOM     13  O   UNL A   1      36.058  21.504  26.118  1.00  0.00    -0.249 OA
ATOM     14  N   UNL A   1      34.222  20.420  25.688  1.00  0.00    -0.335 N 
ATOM     15  H   UNL A   1      34.783  19.673  25.999  1.00  0.00     0.165 HD
BRANCH  14  16
ATOM     16  C   UNL A   1      32.896  19.968  25.311  1.00  0.00     0.152 C 
BRANCH  16  17
ATOM     17  C   UNL A   1      32.937  18.561  24.709  1.00  0.00     0.163 C 
ATOM     18  C   UNL A   1      32.520  17.520  25.758  1.00  0.00     0.194 C 
ATOM     19  O   UNL A   1      34.282  18.294  24.254  1.00  0.00    -0.372 OA
ATOM     20  O   UNL A   1      32.611  16.193  25.219  1.00  0.00    -0.376 OA
ATOM     21  C   UNL A   1      34.362  16.967  23.715  1.00  0.00     0.189 C 
ATOM     22  C   UNL A   1      33.951  15.941  24.769  1.00  0.00     0.188 C 
ENDBRANCH  16  17
ENDBRANCH  14  16
ENDBRANCH   9  12
ENDBRANCH   3   6
ENDBRANCH   1   2
BRANCH   1  23
ATOM     23  C   UNL A   1      32.050  28.099  27.459  1.00  0.00     0.042 C 
BRANCH  23  24
ATOM     24  C   UNL A   1      33.394  28.757  27.191  1.00  0.00     0.118 C 
BRANCH  24  25
ATOM     25  N   UNL A   1      33.462  30.136  27.655  1.00  0.00    -0.352 N 
ATOM     26  C   UNL A   1      34.480  30.813  28.289  1.00  0.00     0.251 C 
ATOM     27  H   UNL A   1      32.652  30.670  27.488  1.00  0.00     0.163 HD
ATOM     28  O   UNL A   1      34.282  31.928  28.750  1.00  0.00    -0.269 OA
BRANCH  26  29
ATOM     29  C   UNL A   1      35.802  30.170  28.449  1.00  0.00     0.039 A 
ATOM     30  C   UNL A   1      36.699  30.190  27.378  1.00  0.00     0.014 A 
ATOM     31  C   UNL A   1      36.166  29.570  29.654  1.00  0.00     0.014 A 
ATOM     32  C   UNL A   1      37.992  29.690  27.553  1.00  0.00     0.010 A 
ATOM     33  C   UNL A   1      37.485  29.189  29.863  1.00  0.00     0.010 A 
ATOM     34  C   UNL A   1      38.412  29.236  28.814  1.00  0.00    -0.014 A 
BRANCH  34  35
ATOM     35  C   UNL A   1      39.807  28.791  29.058  1.00  0.00     0.031 A 
ATOM     36  C   UNL A   1      40.802  29.737  29.675  1.00  0.00     0.074 A 
ATOM     37  C   UNL A   1      40.201  27.564  28.660  1.00  0.00     0.049 A 
ATOM     38  N   UNL A   1      42.081  29.564  29.896  1.00  0.00    -0.248 NA
ATOM     39  C   UNL A   1      40.302  31.067  30.065  1.00  0.00     0.031 C 
ATOM     40  C   UNL A   1      39.349  26.566  28.007  1.00  0.00     0.029 A 
ATOM     41  N   UNL A   1      41.425  26.949  28.743  1.00  0.00    -0.354 N 
ATOM     42  C   UNL A   1      42.536  30.764  30.427  1.00  0.00     0.074 A 
ATOM     43  C   UNL A   1      41.417  31.678  30.435  1.00  0.00     0.031 C 
ATOM     44  C   UNL A   1      40.065  25.452  27.788  1.00  0.00     0.029 A 
ATOM     45  C   UNL A   1      41.436  25.671  28.236  1.00  0.00     0.049 A 
ATOM     46  H   UNL A   1      42.220  27.381  29.129  1.00  0.00     0.167 HD
ATOM     47  C   UNL A   1      43.770  31.074  30.892  1.00  0.00     0.031 A 
ATOM     48  C   UNL A   1      42.439  24.778  28.139  1.00  0.00     0.031 A 
ATOM     49  C   UNL A   1      44.880  30.160  30.901  1.00  0.00     0.049 A 
ATOM     50  C   UNL A   1      43.803  25.150  28.647  1.00  0.00     0.074 A 
ATOM     51  C   UNL A   1      46.155  30.358  31.402  1.00  0.00     0.029 A 
ATOM     52  N   UNL A   1      44.847  28.875  30.383  1.00  0.00    -0.354 N 
ATOM     53  N   UNL A   1      44.201  26.268  29.208  1.00  0.00    -0.248 NA
ATOM     54  C   UNL A   1      44.856  24.133  28.519  1.00  0.00     0.031 C 
ATOM     55  C   UNL A   1      46.908  29.210  31.138  1.00  0.00     0.029 A 
ATOM     56  C   UNL A   1      46.085  28.275  30.531  1.00  0.00     0.049 A 
ATOM     57  H   UNL A   1      44.058  28.451  29.972  1.00  0.00     0.167 HD
ATOM     58  C   UNL A   1      45.538  26.075  29.527  1.00  0.00     0.074 A 
ATOM     59  C   UNL A   1      45.880  24.731  29.113  1.00  0.00     0.031 C 
ATOM     60  C   UNL A   1      46.407  26.936  30.113  1.00  0.00     0.031 A 
BRANCH  47  61
ATOM     61  C   UNL A   1      43.978  32.463  31.428  1.00  0.00    -0.014 A 
ATOM     62  C   UNL A   1      43.772  32.758  32.786  1.00  0.00     0.009 A 
ATOM     63  C   UNL A   1      44.414  33.486  30.572  1.00  0.00     0.009 A 
ATOM     64  C   UNL A   1      43.958  34.057  33.266  1.00  0.00     0.001 A 
ATOM     65  C   UNL A   1      44.631  34.776  31.061  1.00  0.00     0.001 A 
ATOM     66  C   UNL A   1      44.392  35.062  32.404  1.00  0.00     0.000 A 
ENDBRANCH  47  61
BRANCH  48  67
ATOM     67  C   UNL A   1      42.189  23.434  27.552  1.00  0.00    -0.014 A 
ATOM     68  C   UNL A   1      41.627  22.412  28.333  1.00  0.00     0.009 A 
ATOM     69  C   UNL A   1      42.521  23.162  26.216  1.00  0.00     0.009 A 
ATOM     70  C   UNL A   1      41.430  21.138  27.796  1.00  0.00     0.001 A 
ATOM     71  C   UNL A   1      42.293  21.895  25.673  1.00  0.00     0.001 A 
ATOM     72  C   UNL A   1      41.759  20.882  26.466  1.00  0.00     0.000 A 
ENDBRANCH  48  67
BRANCH  60  73
ATOM     73  C   UNL A   1      47.799  26.434  30.379  1.00  0.00    -0.014 A 
ATOM     74  C   UNL A   1      48.136  25.823  31.596  1.00  0.00     0.009 A 
ATOM     75  C   UNL A   1      48.775  26.537  29.375  1.00  0.00     0.009 A 
ATOM     76  C   UNL A   1      49.435  25.357  31.814  1.00  0.00     0.001 A 
ATOM     77  C   UNL A   1      50.062  26.041  29.584  1.00  0.00     0.001 A 
ATOM     78  C   UNL A   1      50.394  25.461  30.806  1.00  0.00     0.000 A 
ENDBRANCH  60  73
ENDBRANCH  34  35
ENDBRANCH  26  29
ENDBRANCH  24  25
ENDBRANCH  23  24
ENDBRANCH   1  23
TORSDOF 13
ENDMDL
MODEL 3
REMARK VINA RESULT:     -11.2      1.156      1.648
REMARK SMILES C[C@@H]1[C@@H](C(=O)NCCCNC(=O)c2ccc(-c3c4nc(c(-c5ccccc5)c5ccc([nH]5)c(-c5ccccc5)c5nc(c(-c6ccccc6)c6ccc3[nH]6)C=C5)C=C4)cc2)CCN1C(=O)NC[C@@H]1COCCO1
REMARK SMILES IDX 7 1 6 2 4 3 5 4 3 6 1 7 2 8 63 9 61 10 62 11 64 12 65 13
REMARK SMILES IDX 66 14 67 16 68 17 69 18 73 19 70 20 72 21 71 22 8 23 9 24
REMARK SMILES IDX 10 25 11 26 12 28 13 29 14 30 60 31 15 32 59 33 16 34 17 35
REMARK SMILES IDX 18 36 53 37 19 38 58 39 52 40 54 41 20 42 57 43 51 44 50 45
REMARK SMILES IDX 21 47 43 48 28 49 42 50 29 51 32 52 41 53 55 54 30 55 31 56
REMARK SMILES IDX 40 58 56 59 33 60 22 61 23 62 27 63 24 64 26 65 25 66 44 67
REMARK SMILES IDX 45 68 49 69 46 70 48 71 47 72 34 73 35 74 39 75 36 76 38 77
REMARK SMILES IDX 37 78
REMARK H PARENT 6 5 66 15 10 27 54 46 32 57
REMARK Flexibility Score: inf
ROOT
ATOM      1  C   UNL A   1      36.791  20.663  24.924  1.00  0.00     0.117 C 
ENDROOT
BRANCH   1   2
ATOM      2  N   UNL A   1      35.491  20.120  25.261  1.00  0.00    -0.356 N 
ATOM      3  C   UNL A   1      34.250  20.626  25.039  1.00  0.00     0.225 C 
ATOM      4  O   UNL A   1      33.301  19.991  25.499  1.00  0.00    -0.275 OA
ATOM      5  H   UNL A   1      35.510  19.250  25.723  1.00  0.00     0.163 HD
BRANCH   3   6
ATOM      6  C   UNL A   1      34.096  21.969  24.335  1.00  0.00     0.102 C 
ATOM      7  C   UNL A   1      34.435  24.416  24.843  1.00  0.00     0.032 C 
ATOM      8  C   UNL A   1      33.872  23.095  25.369  1.00  0.00     0.096 C 
ATOM      9  N   UNL A   1      32.411  23.154  25.536  1.00  0.00    -0.321 N 
ATOM     10  C   UNL A   1      32.841  22.084  23.467  1.00  0.00     0.037 C 
ATOM     11  C   UNL A   1      31.756  22.425  24.464  1.00  0.00     0.122 C 
BRANCH   9  12
ATOM     12  C   UNL A   1      31.605  23.603  26.534  1.00  0.00     0.317 C 
ATOM     13  O   UNL A   1      31.562  23.019  27.622  1.00  0.00    -0.249 OA
ATOM     14  N   UNL A   1      30.822  24.684  26.435  1.00  0.00    -0.335 N 
ATOM     15  H   UNL A   1      30.336  24.854  27.275  1.00  0.00     0.165 HD
BRANCH  14  16
ATOM     16  C   UNL A   1      30.499  25.674  25.424  1.00  0.00     0.152 C 
BRANCH  16  17
ATOM     17  C   UNL A   1      31.025  27.059  25.812  1.00  0.00     0.163 C 
ATOM     18  C   UNL A   1      32.329  27.363  25.062  1.00  0.00     0.194 C 
ATOM     19  O   UNL A   1      31.256  27.081  27.237  1.00  0.00    -0.372 OA
ATOM     20  O   UNL A   1      32.859  28.635  25.462  1.00  0.00    -0.376 OA
ATOM     21  C   UNL A   1      31.782  28.357  27.628  1.00  0.00     0.189 C 
ATOM     22  C   UNL A   1      33.083  28.645  26.880  1.00  0.00     0.188 C 
ENDBRANCH  16  17
ENDBRANCH  14  16
ENDBRANCH   9  12
ENDBRANCH   3   6
ENDBRANCH   1   2
BRANCH   1  23
ATOM     23  C   UNL A   1      37.894  19.624  24.998  1.00  0.00     0.042 C 
BRANCH  23  24
ATOM     24  C   UNL A   1      39.131  20.083  25.753  1.00  0.00     0.118 C 
BRANCH  24  25
ATOM     25  N   UNL A   1      40.170  19.066  25.827  1.00  0.00    -0.352 N 
ATOM     26  C   UNL A   1      41.525  19.190  26.039  1.00  0.00     0.251 C 
ATOM     27  H   UNL A   1      39.854  18.141  25.706  1.00  0.00     0.163 HD
ATOM     28  O   UNL A   1      42.260  18.223  25.900  1.00  0.00    -0.269 OA
BRANCH  26  29
ATOM     29  C   UNL A   1      42.095  20.508  26.394  1.00  0.00     0.039 A 
ATOM     30  C   UNL A   1      42.596  21.326  25.379  1.00  0.00     0.014 A 
ATOM     31  C   UNL A   1      42.113  20.947  27.718  1.00  0.00     0.014 A 
ATOM     32  C   UNL A   1      43.029  22.619  25.685  1.00  0.00     0.010 A 
ATOM     33  C   UNL A   1      42.425  22.270  28.001  1.00  0.00     0.010 A 
ATOM     34  C   UNL A   1      42.896  23.119  26.991  1.00  0.00    -0.014 A 
BRANCH  34  35
ATOM     35  C   UNL A   1      43.254  24.520  27.329  1.00  0.00     0.031 A 
ATOM     36  C   UNL A   1      44.694  24.958  27.297  1.00  0.00     0.074 A 
ATOM     37  C   UNL A   1      42.297  25.379  27.735  1.00  0.00     0.049 A 
ATOM     38  N   UNL A   1      45.216  26.111  27.632  1.00  0.00    -0.248 NA
ATOM     39  C   UNL A   1      45.684  23.957  26.862  1.00  0.00     0.031 C 
ATOM     40  C   UNL A   1      40.870  25.069  27.856  1.00  0.00     0.029 A 
ATOM     41  N   UNL A   1      42.384  26.691  28.128  1.00  0.00    -0.354 N 
ATOM     42  C   UNL A   1      46.587  25.964  27.470  1.00  0.00     0.074 A 
ATOM     43  C   UNL A   1      46.825  24.596  27.069  1.00  0.00     0.031 C 
ATOM     44  C   UNL A   1      40.213  26.171  28.252  1.00  0.00     0.029 A 
ATOM     45  C   UNL A   1      41.173  27.249  28.463  1.00  0.00     0.049 A 
ATOM     46  H   UNL A   1      43.234  27.187  28.166  1.00  0.00     0.167 HD
ATOM     47  C   UNL A   1      47.564  26.891  27.614  1.00  0.00     0.031 A 
ATOM     48  C   UNL A   1      40.870  28.487  28.893  1.00  0.00     0.031 A 
ATOM     49  C   UNL A   1      47.328  28.257  27.995  1.00  0.00     0.049 A 
ATOM     50  C   UNL A   1      41.974  29.495  29.062  1.00  0.00     0.074 A 
ATOM     51  C   UNL A   1      48.242  29.289  28.113  1.00  0.00     0.029 A 
ATOM     52  N   UNL A   1      46.086  28.781  28.319  1.00  0.00    -0.354 N 
ATOM     53  N   UNL A   1      43.259  29.358  28.840  1.00  0.00    -0.248 NA
ATOM     54  C   UNL A   1      41.582  30.831  29.530  1.00  0.00     0.031 C 
ATOM     55  C   UNL A   1      47.560  30.424  28.562  1.00  0.00     0.029 A 
ATOM     56  C   UNL A   1      46.213  30.117  28.661  1.00  0.00     0.049 A 
ATOM     57  H   UNL A   1      45.239  28.279  28.307  1.00  0.00     0.167 HD
ATOM     58  C   UNL A   1      43.823  30.598  29.110  1.00  0.00     0.074 A 
ATOM     59  C   UNL A   1      42.739  31.477  29.497  1.00  0.00     0.031 C 
ATOM     60  C   UNL A   1      45.123  30.976  29.043  1.00  0.00     0.031 A 
BRANCH  47  61
ATOM     61  C   UNL A   1      48.979  26.451  27.359  1.00  0.00    -0.014 A 
ATOM     62  C   UNL A   1      49.791  25.969  28.399  1.00  0.00     0.009 A 
ATOM     63  C   UNL A   1      49.500  26.492  26.057  1.00  0.00     0.009 A 
ATOM     64  C   UNL A   1      51.107  25.577  28.147  1.00  0.00     0.001 A 
ATOM     65  C   UNL A   1      50.806  26.068  25.802  1.00  0.00     0.001 A 
ATOM     66  C   UNL A   1      51.612  25.621  26.849  1.00  0.00     0.000 A 
ENDBRANCH  47  61
BRANCH  48  67
ATOM     67  C   UNL A   1      39.458  28.855  29.181  1.00  0.00    -0.014 A 
ATOM     68  C   UNL A   1      38.919  28.653  30.461  1.00  0.00     0.009 A 
ATOM     69  C   UNL A   1      38.639  29.396  28.178  1.00  0.00     0.009 A 
ATOM     70  C   UNL A   1      37.581  28.958  30.722  1.00  0.00     0.001 A 
ATOM     71  C   UNL A   1      37.310  29.730  28.451  1.00  0.00     0.001 A 
ATOM     72  C   UNL A   1      36.780  29.500  29.719  1.00  0.00     0.000 A 
ENDBRANCH  48  67
BRANCH  60  73
ATOM     73  C   UNL A   1      45.439  32.412  29.355  1.00  0.00    -0.014 A 
ATOM     74  C   UNL A   1      45.360  33.409  28.371  1.00  0.00     0.009 A 
ATOM     75  C   UNL A   1      45.780  32.776  30.667  1.00  0.00     0.009 A 
ATOM     76  C   UNL A   1      45.649  34.738  28.689  1.00  0.00     0.001 A 
ATOM     77  C   UNL A   1      46.038  34.109  30.989  1.00  0.00     0.001 A 
ATOM     78  C   UNL A   1      45.982  35.087  29.998  1.00  0.00     0.000 A 
ENDBRANCH  60  73
ENDBRANCH  34  35
ENDBRANCH  26  29
ENDBRANCH  24  25
ENDBRANCH  23  24
ENDBRANCH   1  23
TORSDOF 13
ENDMDL
