MODEL 1
REMARK VINA RESULT:     -11.6      0.000      0.000
REMARK SMILES O=C(CCCCCN1C(=O)/C(=C2\C(=O)Nc3ccccc32)SC1=S)NCCCNC(=O)c1ccc(-c2c3nc(c(-c4ccccc4)c4ccc([nH]4)c(-c4ccccc4)c4nc(c(-c5ccccc5)c5ccc2[nH]5)C=C4)C=C3)cc1
REMARK SMILES IDX 1 1 2 2 25 3 3 5 4 6 5 7 6 8 7 9 8 10 9 11 23 12 10 13 11 14
REMARK SMILES IDX 22 15 24 16 12 17 13 18 21 19 14 20 15 21 16 22 20 23 17 25
REMARK SMILES IDX 19 26 18 27 26 28 27 29 28 30 29 31 30 32 31 34 32 35 33 36
REMARK SMILES IDX 79 37 34 38 78 39 35 40 36 41 37 42 72 43 38 44 77 45 71 46
REMARK SMILES IDX 73 47 39 48 76 49 70 50 69 51 40 53 62 54 47 55 61 56 48 57
REMARK SMILES IDX 51 58 60 59 74 60 49 61 50 62 59 64 75 65 52 66 41 67 42 68
REMARK SMILES IDX 46 69 43 70 45 71 44 72 63 73 64 74 68 75 65 76 67 77 66 78
REMARK SMILES IDX 53 79 54 80 58 81 55 82 57 83 56 84
REMARK H PARENT 25 4 15 24 29 33 73 52 51 63
REMARK Flexibility Score: inf
ROOT
ATOM      1  O   UNL A   1      35.587  30.921  27.908  1.00  0.00    -0.275 OA
ATOM      2  C   UNL A   1      34.420  31.077  27.572  1.00  0.00     0.219 C 
ATOM      3  N   UNL A   1      33.739  32.265  27.680  1.00  0.00    -0.356 N 
ATOM      4  H   UNL A   1      32.846  32.331  27.270  1.00  0.00     0.163 HD
ENDROOT
BRANCH   2   5
ATOM      5  C   UNL A   1      33.576  29.949  27.006  1.00  0.00     0.100 C 
BRANCH   5   6
ATOM      6  C   UNL A   1      34.366  28.650  26.827  1.00  0.00     0.010 C 
BRANCH   6   7
ATOM      7  C   UNL A   1      33.566  27.421  26.382  1.00  0.00     0.002 C 
BRANCH   7   8
ATOM      8  C   UNL A   1      34.375  26.275  25.753  1.00  0.00     0.022 C 
BRANCH   8   9
ATOM      9  C   UNL A   1      33.562  25.038  25.343  1.00  0.00     0.127 C 
BRANCH   9  10
ATOM     10  N   UNL A   1      32.308  25.324  24.649  1.00  0.00    -0.293 N 
ATOM     11  C   UNL A   1      32.314  25.923  23.399  1.00  0.00     0.267 C 
ATOM     12  C   UNL A   1      31.069  24.897  25.074  1.00  0.00     0.148 C 
ATOM     13  O   UNL A   1      33.216  25.870  22.580  1.00  0.00    -0.268 OA
ATOM     14  C   UNL A   1      30.977  26.533  23.176  1.00  0.00     0.093 C 
ATOM     15  S   UNL A   1      29.839  25.507  23.976  1.00  0.00    -0.053 SA
ATOM     16  S   UNL A   1      30.688  23.968  26.405  1.00  0.00    -0.052 S 
ATOM     17  C   UNL A   1      30.754  27.769  22.706  1.00  0.00     0.069 C 
ATOM     18  C   UNL A   1      31.844  28.716  22.259  1.00  0.00     0.257 C 
ATOM     19  C   UNL A   1      29.498  28.547  22.674  1.00  0.00     0.012 A 
ATOM     20  O   UNL A   1      33.050  28.546  22.245  1.00  0.00    -0.269 OA
ATOM     21  N   UNL A   1      31.202  29.901  21.955  1.00  0.00    -0.321 N 
ATOM     22  C   UNL A   1      29.841  29.824  22.218  1.00  0.00     0.049 A 
ATOM     23  C   UNL A   1      28.188  28.290  23.044  1.00  0.00     0.011 A 
ATOM     24  H   UNL A   1      31.653  30.700  21.597  1.00  0.00     0.170 HD
ATOM     25  C   UNL A   1      28.932  30.859  22.117  1.00  0.00     0.027 A 
ATOM     26  C   UNL A   1      27.249  29.326  22.967  1.00  0.00     0.001 A 
ATOM     27  C   UNL A   1      27.618  30.599  22.507  1.00  0.00     0.002 A 
ENDBRANCH   9  10
ENDBRANCH   8   9
ENDBRANCH   7   8
ENDBRANCH   6   7
ENDBRANCH   5   6
ENDBRANCH   2   5
BRANCH   3  28
ATOM     28  C   UNL A   1      34.266  33.427  28.365  1.00  0.00     0.117 C 
BRANCH  28  29
ATOM     29  C   UNL A   1      33.163  34.401  28.751  1.00  0.00     0.042 C 
BRANCH  29  30
ATOM     30  C   UNL A   1      33.624  35.588  29.592  1.00  0.00     0.118 C 
BRANCH  30  31
ATOM     31  N   UNL A   1      32.663  36.012  30.601  1.00  0.00    -0.352 N 
ATOM     32  C   UNL A   1      32.671  35.795  31.962  1.00  0.00     0.251 C 
ATOM     33  H   UNL A   1      31.898  36.530  30.262  1.00  0.00     0.163 HD
ATOM     34  O   UNL A   1      31.707  36.122  32.648  1.00  0.00    -0.269 OA
BRANCH  32  35
ATOM     35  C   UNL A   1      33.821  35.110  32.594  1.00  0.00     0.039 A 
ATOM     36  C   UNL A   1      35.035  35.773  32.782  1.00  0.00     0.014 A 
ATOM     37  C   UNL A   1      33.697  33.766  32.957  1.00  0.00     0.014 A 
ATOM     38  C   UNL A   1      36.171  35.042  33.115  1.00  0.00     0.010 A 
ATOM     39  C   UNL A   1      34.819  33.059  33.398  1.00  0.00     0.010 A 
ATOM     40  C   UNL A   1      36.082  33.672  33.414  1.00  0.00    -0.014 A 
BRANCH  40  41
ATOM     41  C   UNL A   1      37.318  32.902  33.721  1.00  0.00     0.031 A 
ATOM     42  C   UNL A   1      37.876  31.909  32.733  1.00  0.00     0.074 A 
ATOM     43  C   UNL A   1      37.979  33.141  34.871  1.00  0.00     0.049 A 
ATOM     44  N   UNL A   1      38.957  31.174  32.827  1.00  0.00    -0.248 NA
ATOM     45  C   UNL A   1      37.129  31.708  31.480  1.00  0.00     0.031 C 
ATOM     46  C   UNL A   1      37.558  34.095  35.899  1.00  0.00     0.029 A 
ATOM     47  N   UNL A   1      39.154  32.624  35.360  1.00  0.00    -0.354 N 
ATOM     48  C   UNL A   1      39.009  30.419  31.661  1.00  0.00     0.074 A 
ATOM     49  C   UNL A   1      37.834  30.753  30.889  1.00  0.00     0.031 C 
ATOM     50  C   UNL A   1      38.487  34.141  36.862  1.00  0.00     0.029 A 
ATOM     51  C   UNL A   1      39.531  33.163  36.566  1.00  0.00     0.049 A 
ATOM     52  H   UNL A   1      39.676  31.935  34.890  1.00  0.00     0.167 HD
ATOM     53  C   UNL A   1      39.959  29.539  31.263  1.00  0.00     0.031 A 
ATOM     54  C   UNL A   1      40.584  32.897  37.362  1.00  0.00     0.031 A 
ATOM     55  C   UNL A   1      41.137  29.218  32.029  1.00  0.00     0.049 A 
ATOM     56  C   UNL A   1      41.590  31.869  36.927  1.00  0.00     0.074 A 
ATOM     57  C   UNL A   1      42.168  28.358  31.691  1.00  0.00     0.029 A 
ATOM     58  N   UNL A   1      41.442  29.737  33.277  1.00  0.00    -0.354 N 
ATOM     59  N   UNL A   1      41.636  31.184  35.811  1.00  0.00    -0.248 NA
ATOM     60  C   UNL A   1      42.692  31.578  37.856  1.00  0.00     0.031 C 
ATOM     61  C   UNL A   1      43.054  28.295  32.767  1.00  0.00     0.029 A 
ATOM     62  C   UNL A   1      42.626  29.185  33.738  1.00  0.00     0.049 A 
ATOM     63  H   UNL A   1      40.899  30.399  33.763  1.00  0.00     0.167 HD
ATOM     64  C   UNL A   1      42.777  30.397  35.894  1.00  0.00     0.074 A 
ATOM     65  C   UNL A   1      43.408  30.707  37.159  1.00  0.00     0.031 C 
ATOM     66  C   UNL A   1      43.253  29.498  34.999  1.00  0.00     0.031 A 
BRANCH  53  67
ATOM     67  C   UNL A   1      39.781  28.839  29.941  1.00  0.00    -0.014 A 
ATOM     68  C   UNL A   1      39.290  27.523  29.911  1.00  0.00     0.009 A 
ATOM     69  C   UNL A   1      40.213  29.426  28.741  1.00  0.00     0.009 A 
ATOM     70  C   UNL A   1      39.255  26.803  28.715  1.00  0.00     0.001 A 
ATOM     71  C   UNL A   1      40.144  28.715  27.540  1.00  0.00     0.001 A 
ATOM     72  C   UNL A   1      39.679  27.400  27.530  1.00  0.00     0.000 A 
ENDBRANCH  53  67
BRANCH  54  73
ATOM     73  C   UNL A   1      40.729  33.633  38.647  1.00  0.00    -0.014 A 
ATOM     74  C   UNL A   1      41.485  34.816  38.710  1.00  0.00     0.009 A 
ATOM     75  C   UNL A   1      40.170  33.127  39.830  1.00  0.00     0.009 A 
ATOM     76  C   UNL A   1      41.714  35.452  39.931  1.00  0.00     0.001 A 
ATOM     77  C   UNL A   1      40.368  33.787  41.045  1.00  0.00     0.001 A 
ATOM     78  C   UNL A   1      41.151  34.939  41.098  1.00  0.00     0.000 A 
ENDBRANCH  54  73
BRANCH  66  79
ATOM     79  C   UNL A   1      44.532  28.776  35.327  1.00  0.00    -0.014 A 
ATOM     80  C   UNL A   1      45.759  29.296  34.881  1.00  0.00     0.009 A 
ATOM     81  C   UNL A   1      44.520  27.525  35.962  1.00  0.00     0.009 A 
ATOM     82  C   UNL A   1      46.940  28.569  35.039  1.00  0.00     0.001 A 
ATOM     83  C   UNL A   1      45.708  26.816  36.152  1.00  0.00     0.001 A 
ATOM     84  C   UNL A   1      46.914  27.332  35.678  1.00  0.00     0.000 A 
ENDBRANCH  66  79
ENDBRANCH  40  41
ENDBRANCH  32  35
ENDBRANCH  30  31
ENDBRANCH  29  30
ENDBRANCH  28  29
ENDBRANCH   3  28
TORSDOF 15
ENDMDL
MODEL 2
REMARK VINA RESULT:     -11.6      2.390      7.067
REMARK SMILES O=C(CCCCCN1C(=O)/C(=C2\C(=O)Nc3ccccc32)SC1=S)NCCCNC(=O)c1ccc(-c2c3nc(c(-c4ccccc4)c4ccc([nH]4)c(-c4ccccc4)c4nc(c(-c5ccccc5)c5ccc2[nH]5)C=C4)C=C3)cc1
REMARK SMILES IDX 1 1 2 2 25 3 3 5 4 6 5 7 6 8 7 9 8 10 9 11 23 12 10 13 11 14
REMARK SMILES IDX 22 15 24 16 12 17 13 18 21 19 14 20 15 21 16 22 20 23 17 25
REMARK SMILES IDX 19 26 18 27 26 28 27 29 28 30 29 31 30 32 31 34 32 35 33 36
REMARK SMILES IDX 79 37 34 38 78 39 35 40 36 41 37 42 72 43 38 44 77 45 71 46
REMARK SMILES IDX 73 47 39 48 76 49 70 50 69 51 40 53 62 54 47 55 61 56 48 57
REMARK SMILES IDX 51 58 60 59 74 60 49 61 50 62 59 64 75 65 52 66 41 67 42 68
REMARK SMILES IDX 46 69 43 70 45 71 44 72 63 73 64 74 68 75 65 76 67 77 66 78
REMARK SMILES IDX 53 79 54 80 58 81 55 82 57 83 56 84
REMARK H PARENT 25 4 15 24 29 33 73 52 51 63
REMARK Flexibility Score: inf
ROOT
ATOM      1  O   UNL A   1      36.308  31.279  27.625  1.00  0.00    -0.275 OA
ATOM      2  C   UNL A   1      35.241  30.887  28.080  1.00  0.00     0.219 C 
ATOM      3  N   UNL A   1      34.347  31.688  28.748  1.00  0.00    -0.356 N 
ATOM      4  H   UNL A   1      33.461  31.318  28.967  1.00  0.00     0.163 HD
ENDROOT
BRANCH   2   5
ATOM      5  C   UNL A   1      34.790  29.441  27.972  1.00  0.00     0.100 C 
BRANCH   5   6
ATOM      6  C   UNL A   1      33.690  29.241  26.926  1.00  0.00     0.010 C 
BRANCH   6   7
ATOM      7  C   UNL A   1      34.026  28.318  25.750  1.00  0.00     0.002 C 
BRANCH   7   8
ATOM      8  C   UNL A   1      33.199  27.026  25.641  1.00  0.00     0.022 C 
BRANCH   8   9
ATOM      9  C   UNL A   1      33.994  25.759  25.294  1.00  0.00     0.127 C 
BRANCH   9  10
ATOM     10  N   UNL A   1      33.204  24.671  24.723  1.00  0.00    -0.293 N 
ATOM     11  C   UNL A   1      32.575  23.748  25.545  1.00  0.00     0.267 C 
ATOM     12  C   UNL A   1      32.884  24.559  23.387  1.00  0.00     0.148 C 
ATOM     13  O   UNL A   1      32.216  23.936  26.695  1.00  0.00    -0.268 OA
ATOM     14  C   UNL A   1      32.296  22.530  24.739  1.00  0.00     0.093 C 
ATOM     15  S   UNL A   1      31.970  23.078  23.132  1.00  0.00    -0.053 SA
ATOM     16  S   UNL A   1      33.270  25.589  22.134  1.00  0.00    -0.052 S 
ATOM     17  C   UNL A   1      32.540  21.269  25.123  1.00  0.00     0.069 C 
ATOM     18  C   UNL A   1      33.079  20.887  26.484  1.00  0.00     0.257 C 
ATOM     19  C   UNL A   1      32.527  20.026  24.325  1.00  0.00     0.012 A 
ATOM     20  O   UNL A   1      33.374  21.605  27.422  1.00  0.00    -0.269 OA
ATOM     21  N   UNL A   1      33.283  19.522  26.429  1.00  0.00    -0.321 N 
ATOM     22  C   UNL A   1      32.992  19.013  25.170  1.00  0.00     0.049 A 
ATOM     23  C   UNL A   1      32.236  19.724  23.004  1.00  0.00     0.011 A 
ATOM     24  H   UNL A   1      33.597  18.977  27.187  1.00  0.00     0.170 HD
ATOM     25  C   UNL A   1      33.182  17.710  24.754  1.00  0.00     0.027 A 
ATOM     26  C   UNL A   1      32.435  18.414  22.552  1.00  0.00     0.001 A 
ATOM     27  C   UNL A   1      32.903  17.416  23.419  1.00  0.00     0.002 A 
ENDBRANCH   9  10
ENDBRANCH   8   9
ENDBRANCH   7   8
ENDBRANCH   6   7
ENDBRANCH   5   6
ENDBRANCH   2   5
BRANCH   3  28
ATOM     28  C   UNL A   1      34.637  33.050  29.144  1.00  0.00     0.117 C 
BRANCH  28  29
ATOM     29  C   UNL A   1      33.461  33.976  28.876  1.00  0.00     0.042 C 
BRANCH  29  30
ATOM     30  C   UNL A   1      33.640  35.402  29.392  1.00  0.00     0.118 C 
BRANCH  30  31
ATOM     31  N   UNL A   1      32.688  35.785  30.427  1.00  0.00    -0.352 N 
ATOM     32  C   UNL A   1      32.743  35.570  31.788  1.00  0.00     0.251 C 
ATOM     33  H   UNL A   1      31.892  36.267  30.109  1.00  0.00     0.163 HD
ATOM     34  O   UNL A   1      31.785  35.855  32.499  1.00  0.00    -0.269 OA
BRANCH  32  35
ATOM     35  C   UNL A   1      33.939  34.937  32.387  1.00  0.00     0.039 A 
ATOM     36  C   UNL A   1      35.137  35.643  32.511  1.00  0.00     0.014 A 
ATOM     37  C   UNL A   1      33.874  33.600  32.787  1.00  0.00     0.014 A 
ATOM     38  C   UNL A   1      36.309  34.958  32.814  1.00  0.00     0.010 A 
ATOM     39  C   UNL A   1      35.036  32.940  33.198  1.00  0.00     0.010 A 
ATOM     40  C   UNL A   1      36.278  33.594  33.149  1.00  0.00    -0.014 A 
BRANCH  40  41
ATOM     41  C   UNL A   1      37.549  32.872  33.423  1.00  0.00     0.031 A 
ATOM     42  C   UNL A   1      38.305  33.095  34.708  1.00  0.00     0.074 A 
ATOM     43  C   UNL A   1      37.999  31.962  32.535  1.00  0.00     0.049 A 
ATOM     44  N   UNL A   1      39.413  32.529  35.120  1.00  0.00    -0.248 NA
ATOM     45  C   UNL A   1      37.754  34.079  35.654  1.00  0.00     0.031 C 
ATOM     46  C   UNL A   1      37.347  31.634  31.266  1.00  0.00     0.029 A 
ATOM     47  N   UNL A   1      39.089  31.128  32.573  1.00  0.00    -0.354 N 
ATOM     48  C   UNL A   1      39.696  33.097  36.357  1.00  0.00     0.074 A 
ATOM     49  C   UNL A   1      38.668  34.079  36.615  1.00  0.00     0.031 C 
ATOM     50  C   UNL A   1      38.012  30.632  30.677  1.00  0.00     0.029 A 
ATOM     51  C   UNL A   1      39.183  30.297  31.482  1.00  0.00     0.049 A 
ATOM     52  H   UNL A   1      39.740  31.125  33.311  1.00  0.00     0.167 HD
ATOM     53  C   UNL A   1      40.712  32.814  37.207  1.00  0.00     0.031 A 
ATOM     54  C   UNL A   1      40.110  29.380  31.149  1.00  0.00     0.031 A 
ATOM     55  C   UNL A   1      41.728  31.824  36.952  1.00  0.00     0.049 A 
ATOM     56  C   UNL A   1      41.263  29.130  32.079  1.00  0.00     0.074 A 
ATOM     57  C   UNL A   1      42.781  31.450  37.771  1.00  0.00     0.029 A 
ATOM     58  N   UNL A   1      41.822  31.056  35.803  1.00  0.00    -0.354 N 
ATOM     59  N   UNL A   1      41.501  29.658  33.255  1.00  0.00    -0.248 NA
ATOM     60  C   UNL A   1      42.274  28.156  31.643  1.00  0.00     0.031 C 
ATOM     61  C   UNL A   1      43.556  30.516  37.083  1.00  0.00     0.029 A 
ATOM     62  C   UNL A   1      42.937  30.237  35.876  1.00  0.00     0.049 A 
ATOM     63  H   UNL A   1      41.190  31.086  35.049  1.00  0.00     0.167 HD
ATOM     64  C   UNL A   1      42.674  29.070  33.707  1.00  0.00     0.074 A 
ATOM     65  C   UNL A   1      43.088  28.126  32.690  1.00  0.00     0.031 C 
ATOM     66  C   UNL A   1      43.346  29.296  34.862  1.00  0.00     0.031 A 
BRANCH  53  67
ATOM     67  C   UNL A   1      40.801  33.580  38.501  1.00  0.00    -0.014 A 
ATOM     68  C   UNL A   1      41.588  34.742  38.569  1.00  0.00     0.009 A 
ATOM     69  C   UNL A   1      40.213  33.093  39.679  1.00  0.00     0.009 A 
ATOM     70  C   UNL A   1      41.805  35.386  39.790  1.00  0.00     0.001 A 
ATOM     71  C   UNL A   1      40.403  33.758  40.893  1.00  0.00     0.001 A 
ATOM     72  C   UNL A   1      41.210  34.895  40.950  1.00  0.00     0.000 A 
ENDBRANCH  53  67
BRANCH  54  73
ATOM     73  C   UNL A   1      39.965  28.630  29.871  1.00  0.00    -0.014 A 
ATOM     74  C   UNL A   1      39.340  27.372  29.849  1.00  0.00     0.009 A 
ATOM     75  C   UNL A   1      40.505  29.135  28.679  1.00  0.00     0.009 A 
ATOM     76  C   UNL A   1      39.296  26.617  28.676  1.00  0.00     0.001 A 
ATOM     77  C   UNL A   1      40.425  28.395  27.497  1.00  0.00     0.001 A 
ATOM     78  C   UNL A   1      39.835  27.132  27.499  1.00  0.00     0.000 A 
ENDBRANCH  54  73
BRANCH  66  79
ATOM     79  C   UNL A   1      44.602  28.510  35.121  1.00  0.00    -0.014 A 
ATOM     80  C   UNL A   1      45.835  28.991  34.649  1.00  0.00     0.009 A 
ATOM     81  C   UNL A   1      44.556  27.240  35.716  1.00  0.00     0.009 A 
ATOM     82  C   UNL A   1      46.987  28.209  34.742  1.00  0.00     0.001 A 
ATOM     83  C   UNL A   1      45.717  26.474  35.841  1.00  0.00     0.001 A 
ATOM     84  C   UNL A   1      46.928  26.954  35.341  1.00  0.00     0.000 A 
ENDBRANCH  66  79
ENDBRANCH  40  41
ENDBRANCH  32  35
ENDBRANCH  30  31
ENDBRANCH  29  30
ENDBRANCH  28  29
ENDBRANCH   3  28
TORSDOF 15
ENDMDL
MODEL 3
REMARK VINA RESULT:     -11.5      2.123      3.903
REMARK SMILES O=C(CCCCCN1C(=O)/C(=C2\C(=O)Nc3ccccc32)SC1=S)NCCCNC(=O)c1ccc(-c2c3nc(c(-c4ccccc4)c4ccc([nH]4)c(-c4ccccc4)c4nc(c(-c5ccccc5)c5ccc2[nH]5)C=C4)C=C3)cc1
REMARK SMILES IDX 1 1 2 2 25 3 3 5 4 6 5 7 6 8 7 9 8 10 9 11 23 12 10 13 11 14
REMARK SMILES IDX 22 15 24 16 12 17 13 18 21 19 14 20 15 21 16 22 20 23 17 25
REMARK SMILES IDX 19 26 18 27 26 28 27 29 28 30 29 31 30 32 31 34 32 35 33 36
REMARK SMILES IDX 79 37 34 38 78 39 35 40 36 41 37 42 72 43 38 44 77 45 71 46
REMARK SMILES IDX 73 47 39 48 76 49 70 50 69 51 40 53 62 54 47 55 61 56 48 57
REMARK SMILES IDX 51 58 60 59 74 60 49 61 50 62 59 64 75 65 52 66 41 67 42 68
REMARK SMILES IDX 46 69 43 70 45 71 44 72 63 73 64 74 68 75 65 76 67 77 66 78
REMARK SMILES IDX 53 79 54 80 58 81 55 82 57 83 56 84
REMARK H PARENT 25 4 15 24 29 33 73 52 51 63
REMARK Flexibility Score: inf
ROOT
ATOM      1  O   UNL A   1      36.234  31.204  27.959  1.00  0.00    -0.275 OA
ATOM      2  C   UNL A   1      35.038  31.057  27.739  1.00  0.00     0.219 C 
ATOM      3  N   UNL A   1      34.135  32.090  27.672  1.00  0.00    -0.356 N 
ATOM      4  H   UNL A   1      33.220  31.892  27.366  1.00  0.00     0.163 HD
ENDROOT
BRANCH   2   5
ATOM      5  C   UNL A   1      34.408  29.692  27.531  1.00  0.00     0.100 C 
BRANCH   5   6
ATOM      6  C   UNL A   1      32.943  29.776  27.093  1.00  0.00     0.010 C 
BRANCH   6   7
ATOM      7  C   UNL A   1      32.059  28.572  27.435  1.00  0.00     0.002 C 
BRANCH   7   8
ATOM      8  C   UNL A   1      31.639  27.680  26.255  1.00  0.00     0.022 C 
BRANCH   8   9
ATOM      9  C   UNL A   1      32.662  26.612  25.837  1.00  0.00     0.127 C 
BRANCH   9  10
ATOM     10  N   UNL A   1      32.088  25.399  25.260  1.00  0.00    -0.293 N 
ATOM     11  C   UNL A   1      31.720  24.337  26.072  1.00  0.00     0.267 C 
ATOM     12  C   UNL A   1      31.720  25.264  23.939  1.00  0.00     0.148 C 
ATOM     13  O   UNL A   1      31.400  24.406  27.246  1.00  0.00    -0.268 OA
ATOM     14  C   UNL A   1      31.658  23.114  25.229  1.00  0.00     0.093 C 
ATOM     15  S   UNL A   1      31.127  23.631  23.667  1.00  0.00    -0.053 SA
ATOM     16  S   UNL A   1      31.801  26.392  22.715  1.00  0.00    -0.052 S 
ATOM     17  C   UNL A   1      32.187  21.923  25.544  1.00  0.00     0.069 C 
ATOM     18  C   UNL A   1      32.875  21.622  26.856  1.00  0.00     0.257 C 
ATOM     19  C   UNL A   1      32.390  20.732  24.693  1.00  0.00     0.012 A 
ATOM     20  O   UNL A   1      33.068  22.356  27.809  1.00  0.00    -0.269 OA
ATOM     21  N   UNL A   1      33.362  20.335  26.731  1.00  0.00    -0.321 N 
ATOM     22  C   UNL A   1      33.110  19.816  25.467  1.00  0.00     0.049 A 
ATOM     23  C   UNL A   1      32.091  20.418  23.377  1.00  0.00     0.011 A 
ATOM     24  H   UNL A   1      33.829  19.846  27.447  1.00  0.00     0.170 HD
ATOM     25  C   UNL A   1      33.547  18.599  24.985  1.00  0.00     0.027 A 
ATOM     26  C   UNL A   1      32.536  19.196  22.858  1.00  0.00     0.001 A 
ATOM     27  C   UNL A   1      33.257  18.294  23.655  1.00  0.00     0.002 A 
ENDBRANCH   9  10
ENDBRANCH   8   9
ENDBRANCH   7   8
ENDBRANCH   6   7
ENDBRANCH   5   6
ENDBRANCH   2   5
BRANCH   3  28
ATOM     28  C   UNL A   1      34.458  33.456  28.025  1.00  0.00     0.117 C 
BRANCH  28  29
ATOM     29  C   UNL A   1      33.696  33.914  29.259  1.00  0.00     0.042 C 
BRANCH  29  30
ATOM     30  C   UNL A   1      33.645  35.426  29.455  1.00  0.00     0.118 C 
BRANCH  30  31
ATOM     31  N   UNL A   1      32.678  35.866  30.452  1.00  0.00    -0.352 N 
ATOM     32  C   UNL A   1      32.691  35.691  31.819  1.00  0.00     0.251 C 
ATOM     33  H   UNL A   1      31.904  36.359  30.098  1.00  0.00     0.163 HD
ATOM     34  O   UNL A   1      31.723  36.024  32.496  1.00  0.00    -0.269 OA
BRANCH  32  35
ATOM     35  C   UNL A   1      33.855  35.047  32.470  1.00  0.00     0.039 A 
ATOM     36  C   UNL A   1      35.096  35.683  32.512  1.00  0.00     0.014 A 
ATOM     37  C   UNL A   1      33.711  33.763  33.002  1.00  0.00     0.014 A 
ATOM     38  C   UNL A   1      36.227  34.958  32.873  1.00  0.00     0.010 A 
ATOM     39  C   UNL A   1      34.835  33.074  33.468  1.00  0.00     0.010 A 
ATOM     40  C   UNL A   1      36.115  33.639  33.343  1.00  0.00    -0.014 A 
BRANCH  40  41
ATOM     41  C   UNL A   1      37.342  32.868  33.677  1.00  0.00     0.031 A 
ATOM     42  C   UNL A   1      37.909  31.858  32.712  1.00  0.00     0.074 A 
ATOM     43  C   UNL A   1      37.988  33.119  34.833  1.00  0.00     0.049 A 
ATOM     44  N   UNL A   1      38.985  31.120  32.831  1.00  0.00    -0.248 NA
ATOM     45  C   UNL A   1      37.179  31.643  31.451  1.00  0.00     0.031 C 
ATOM     46  C   UNL A   1      37.557  34.090  35.842  1.00  0.00     0.029 A 
ATOM     47  N   UNL A   1      39.153  32.604  35.346  1.00  0.00    -0.354 N 
ATOM     48  C   UNL A   1      39.050  30.348  31.676  1.00  0.00     0.074 A 
ATOM     49  C   UNL A   1      37.887  30.677  30.884  1.00  0.00     0.031 C 
ATOM     50  C   UNL A   1      38.473  34.144  36.817  1.00  0.00     0.029 A 
ATOM     51  C   UNL A   1      39.516  33.158  36.550  1.00  0.00     0.049 A 
ATOM     52  H   UNL A   1      39.679  31.906  34.893  1.00  0.00     0.167 HD
ATOM     53  C   UNL A   1      40.001  29.458  31.305  1.00  0.00     0.031 A 
ATOM     54  C   UNL A   1      40.556  32.898  37.364  1.00  0.00     0.031 A 
ATOM     55  C   UNL A   1      41.167  29.143  32.091  1.00  0.00     0.049 A 
ATOM     56  C   UNL A   1      41.564  31.860  36.958  1.00  0.00     0.074 A 
ATOM     57  C   UNL A   1      42.198  28.273  31.779  1.00  0.00     0.029 A 
ATOM     58  N   UNL A   1      41.456  29.678  33.336  1.00  0.00    -0.354 N 
ATOM     59  N   UNL A   1      41.622  31.159  35.852  1.00  0.00    -0.248 NA
ATOM     60  C   UNL A   1      42.651  31.577  37.906  1.00  0.00     0.031 C 
ATOM     61  C   UNL A   1      43.068  28.221  32.869  1.00  0.00     0.029 A 
ATOM     62  C   UNL A   1      42.631  29.127  33.821  1.00  0.00     0.049 A 
ATOM     63  H   UNL A   1      40.910  30.349  33.805  1.00  0.00     0.167 HD
ATOM     64  C   UNL A   1      42.758  30.368  35.962  1.00  0.00     0.074 A 
ATOM     65  C   UNL A   1      43.373  30.692  37.232  1.00  0.00     0.031 C 
ATOM     66  C   UNL A   1      43.243  29.454  35.086  1.00  0.00     0.031 A 
BRANCH  53  67
ATOM     67  C   UNL A   1      39.839  28.741  29.990  1.00  0.00    -0.014 A 
ATOM     68  C   UNL A   1      39.288  27.448  29.966  1.00  0.00     0.009 A 
ATOM     69  C   UNL A   1      40.340  29.283  28.796  1.00  0.00     0.009 A 
ATOM     70  C   UNL A   1      39.262  26.706  28.782  1.00  0.00     0.001 A 
ATOM     71  C   UNL A   1      40.281  28.552  27.607  1.00  0.00     0.001 A 
ATOM     72  C   UNL A   1      39.756  27.260  27.604  1.00  0.00     0.000 A 
ENDBRANCH  53  67
BRANCH  54  73
ATOM     73  C   UNL A   1      40.687  33.652  38.640  1.00  0.00    -0.014 A 
ATOM     74  C   UNL A   1      41.412  34.855  38.688  1.00  0.00     0.009 A 
ATOM     75  C   UNL A   1      40.146  33.144  39.831  1.00  0.00     0.009 A 
ATOM     76  C   UNL A   1      41.630  35.510  39.902  1.00  0.00     0.001 A 
ATOM     77  C   UNL A   1      40.331  33.822  41.038  1.00  0.00     0.001 A 
ATOM     78  C   UNL A   1      41.084  34.995  41.075  1.00  0.00     0.000 A 
ENDBRANCH  54  73
BRANCH  66  79
ATOM     79  C   UNL A   1      44.513  28.731  35.442  1.00  0.00    -0.014 A 
ATOM     80  C   UNL A   1      44.452  27.547  36.196  1.00  0.00     0.009 A 
ATOM     81  C   UNL A   1      45.770  29.280  35.147  1.00  0.00     0.009 A 
ATOM     82  C   UNL A   1      45.619  26.942  36.668  1.00  0.00     0.001 A 
ATOM     83  C   UNL A   1      46.937  28.653  35.589  1.00  0.00     0.001 A 
ATOM     84  C   UNL A   1      46.859  27.494  36.361  1.00  0.00     0.000 A 
ENDBRANCH  66  79
ENDBRANCH  40  41
ENDBRANCH  32  35
ENDBRANCH  30  31
ENDBRANCH  29  30
ENDBRANCH  28  29
ENDBRANCH   3  28
TORSDOF 15
ENDMDL
