MODEL 1
REMARK VINA RESULT:     -12.4      0.000      0.000
REMARK SMILES COC(=O)c1c(NC(=O)[C@@H]2[C@H]3CC[C@H](CC3)[C@H]2C(=O)NCCCNC(=O)c2ccc(-c3c4nc(c(-c5ccccc5)c5ccc([nH]5)c(-c5ccccc5)c5nc(c(-c6ccccc6)c6ccc3[nH]6)C=C5)C=C4)cc2)sc(C)c1-c1ccc(C)cc1
REMARK SMILES IDX 21 1 20 2 18 3 19 4 17 6 10 7 11 8 16 9 12 10 14 11 15 12
REMARK SMILES IDX 13 13 8 14 7 15 9 17 6 18 5 19 78 20 75 21 76 22 77 23 3 24
REMARK SMILES IDX 4 25 2 26 1 27 79 28 80 29 85 30 81 31 84 32 82 33 83 34
REMARK SMILES IDX 22 35 23 36 24 37 25 38 26 40 27 41 28 42 74 43 29 44 73 45
REMARK SMILES IDX 30 46 31 47 32 48 67 49 33 50 72 51 66 52 68 53 34 54 71 55
REMARK SMILES IDX 65 56 64 57 35 59 57 60 42 61 56 62 43 63 46 64 55 65 69 66
REMARK SMILES IDX 44 67 45 68 54 70 70 71 47 72 36 73 37 74 41 75 38 76 40 77
REMARK SMILES IDX 39 78 58 79 59 80 63 81 60 82 62 83 61 84 48 85 49 86 53 87
REMARK SMILES IDX 50 88 52 89 51 90
REMARK H PARENT 20 5 7 16 24 39 68 58 46 69
REMARK Flexibility Score: inf
ROOT
ATOM      1  C   UNL A   1      37.806  21.720  24.970  1.00  0.00     0.117 C 
ENDROOT
BRANCH   1   2
ATOM      2  N   UNL A   1      37.165  22.205  23.777  1.00  0.00    -0.356 N 
ATOM      3  C   UNL A   1      35.919  22.724  23.600  1.00  0.00     0.224 C 
ATOM      4  O   UNL A   1      35.702  23.239  22.496  1.00  0.00    -0.275 OA
ATOM      5  H   UNL A   1      37.713  22.157  22.961  1.00  0.00     0.163 HD
BRANCH   3   6
ATOM      6  C   UNL A   1      34.797  22.702  24.653  1.00  0.00     0.094 C 
ATOM      7  C   UNL A   1      33.669  23.758  24.530  1.00  0.00     0.094 C 
ATOM      8  C   UNL A   1      32.299  23.039  24.873  1.00  0.00     0.002 C 
ATOM      9  C   UNL A   1      32.021  21.908  23.855  1.00  0.00     0.005 C 
ATOM     10  C   UNL A   1      32.318  22.313  26.243  1.00  0.00     0.005 C 
ATOM     11  C   UNL A   1      34.218  21.285  24.955  1.00  0.00     0.002 C 
ATOM     12  C   UNL A   1      33.111  20.822  23.984  1.00  0.00     0.005 C 
ATOM     13  C   UNL A   1      33.528  21.373  26.334  1.00  0.00     0.005 C 
BRANCH   7  14
ATOM     14  C   UNL A   1      33.915  24.950  25.495  1.00  0.00     0.229 C 
ATOM     15  N   UNL A   1      33.194  26.100  25.600  1.00  0.00    -0.317 N 
ATOM     16  H   UNL A   1      33.608  26.724  26.239  1.00  0.00     0.170 HD
ATOM     17  O   UNL A   1      34.875  24.909  26.278  1.00  0.00    -0.274 OA
BRANCH  15  18
ATOM     18  C   UNL A   1      32.041  26.631  25.054  1.00  0.00     0.111 A 
ATOM     19  C   UNL A   1      31.899  27.880  24.448  1.00  0.00     0.102 A 
ATOM     20  C   UNL A   1      30.528  28.095  23.998  1.00  0.00     0.012 A 
ATOM     21  S   UNL A   1      30.589  25.805  25.099  1.00  0.00    -0.122 S 
ATOM     22  C   UNL A   1      29.730  26.991  24.246  1.00  0.00     0.012 A 
ATOM     23  C   UNL A   1      28.300  26.715  23.907  1.00  0.00     0.057 C 
BRANCH  19  24
ATOM     24  C   UNL A   1      33.022  28.818  24.328  1.00  0.00     0.341 C 
ATOM     25  O   UNL A   1      33.464  29.190  23.253  1.00  0.00    -0.246 OA
BRANCH  24  26
ATOM     26  O   UNL A   1      33.527  29.198  25.536  1.00  0.00    -0.465 OA
ATOM     27  C   UNL A   1      32.693  30.060  26.309  1.00  0.00     0.282 C 
ENDBRANCH  24  26
ENDBRANCH  19  24
BRANCH  20  28
ATOM     28  C   UNL A   1      29.973  29.281  23.348  1.00  0.00    -0.016 A 
ATOM     29  C   UNL A   1      29.583  30.395  24.099  1.00  0.00     0.009 A 
ATOM     30  C   UNL A   1      29.797  29.294  21.959  1.00  0.00     0.009 A 
ATOM     31  C   UNL A   1      28.995  31.495  23.467  1.00  0.00     0.004 A 
ATOM     32  C   UNL A   1      29.228  30.401  21.328  1.00  0.00     0.004 A 
ATOM     33  C   UNL A   1      28.814  31.507  22.078  1.00  0.00    -0.051 A 
ATOM     34  C   UNL A   1      28.145  32.675  21.415  1.00  0.00     0.044 C 
ENDBRANCH  20  28
ENDBRANCH  15  18
ENDBRANCH   7  14
ENDBRANCH   3   6
ENDBRANCH   1   2
BRANCH   1  35
ATOM     35  C   UNL A   1      38.277  20.280  24.972  1.00  0.00     0.042 C 
BRANCH  35  36
ATOM     36  C   UNL A   1      39.048  19.899  26.214  1.00  0.00     0.118 C 
BRANCH  36  37
ATOM     37  N   UNL A   1      40.312  19.258  25.879  1.00  0.00    -0.352 N 
ATOM     38  C   UNL A   1      41.585  19.769  25.812  1.00  0.00     0.251 C 
ATOM     39  H   UNL A   1      40.243  18.300  25.663  1.00  0.00     0.163 HD
ATOM     40  O   UNL A   1      42.456  19.137  25.222  1.00  0.00    -0.269 OA
BRANCH  38  41
ATOM     41  C   UNL A   1      41.913  21.071  26.434  1.00  0.00     0.039 A 
ATOM     42  C   UNL A   1      42.251  22.150  25.613  1.00  0.00     0.014 A 
ATOM     43  C   UNL A   1      41.933  21.226  27.821  1.00  0.00     0.014 A 
ATOM     44  C   UNL A   1      42.550  23.388  26.185  1.00  0.00     0.010 A 
ATOM     45  C   UNL A   1      42.097  22.486  28.381  1.00  0.00     0.010 A 
ATOM     46  C   UNL A   1      42.437  23.576  27.574  1.00  0.00    -0.014 A 
BRANCH  46  47
ATOM     47  C   UNL A   1      42.694  24.900  28.191  1.00  0.00     0.031 A 
ATOM     48  C   UNL A   1      44.077  25.272  28.657  1.00  0.00     0.074 A 
ATOM     49  C   UNL A   1      41.666  25.753  28.372  1.00  0.00     0.049 A 
ATOM     50  N   UNL A   1      44.491  26.389  29.200  1.00  0.00    -0.248 NA
ATOM     51  C   UNL A   1      45.127  24.246  28.531  1.00  0.00     0.031 C 
ATOM     52  C   UNL A   1      40.267  25.480  28.031  1.00  0.00     0.029 A 
ATOM     53  N   UNL A   1      41.641  27.027  28.879  1.00  0.00    -0.354 N 
ATOM     54  C   UNL A   1      45.836  26.191  29.494  1.00  0.00     0.074 A 
ATOM     55  C   UNL A   1      46.151  24.828  29.135  1.00  0.00     0.031 C 
ATOM     56  C   UNL A   1      39.532  26.573  28.285  1.00  0.00     0.029 A 
ATOM     57  C   UNL A   1      40.396  27.607  28.843  1.00  0.00     0.049 A 
ATOM     58  H   UNL A   1      42.438  27.482  29.235  1.00  0.00     0.167 HD
ATOM     59  C   UNL A   1      46.736  27.072  29.991  1.00  0.00     0.031 A 
ATOM     60  C   UNL A   1      39.997  28.839  29.207  1.00  0.00     0.031 A 
ATOM     61  C   UNL A   1      46.421  28.433  30.331  1.00  0.00     0.049 A 
ATOM     62  C   UNL A   1      41.018  29.809  29.729  1.00  0.00     0.074 A 
ATOM     63  C   UNL A   1      47.270  29.430  30.778  1.00  0.00     0.029 A 
ATOM     64  N   UNL A   1      45.152  28.988  30.263  1.00  0.00    -0.354 N 
ATOM     65  N   UNL A   1      42.305  29.634  29.919  1.00  0.00    -0.248 NA
ATOM     66  C   UNL A   1      40.535  31.154  30.067  1.00  0.00     0.031 C 
ATOM     67  C   UNL A   1      46.504  30.572  31.035  1.00  0.00     0.029 A 
ATOM     68  C   UNL A   1      45.190  30.307  30.683  1.00  0.00     0.049 A 
ATOM     69  H   UNL A   1      44.343  28.514  29.961  1.00  0.00     0.167 HD
ATOM     70  C   UNL A   1      42.790  30.854  30.370  1.00  0.00     0.074 A 
ATOM     71  C   UNL A   1      41.663  31.764  30.405  1.00  0.00     0.031 C 
ATOM     72  C   UNL A   1      44.055  31.193  30.721  1.00  0.00     0.031 A 
BRANCH  59  73
ATOM     73  C   UNL A   1      48.145  26.581  30.198  1.00  0.00    -0.014 A 
ATOM     74  C   UNL A   1      48.538  25.973  31.402  1.00  0.00     0.009 A 
ATOM     75  C   UNL A   1      49.087  26.710  29.167  1.00  0.00     0.009 A 
ATOM     76  C   UNL A   1      49.856  25.547  31.584  1.00  0.00     0.001 A 
ATOM     77  C   UNL A   1      50.395  26.253  29.340  1.00  0.00     0.001 A 
ATOM     78  C   UNL A   1      50.782  25.683  30.551  1.00  0.00     0.000 A 
ENDBRANCH  59  73
BRANCH  60  79
ATOM     79  C   UNL A   1      38.573  29.235  29.048  1.00  0.00    -0.014 A 
ATOM     80  C   UNL A   1      37.682  29.150  30.128  1.00  0.00     0.009 A 
ATOM     81  C   UNL A   1      38.100  29.714  27.815  1.00  0.00     0.009 A 
ATOM     82  C   UNL A   1      36.342  29.510  29.971  1.00  0.00     0.001 A 
ATOM     83  C   UNL A   1      36.767  30.103  27.670  1.00  0.00     0.001 A 
ATOM     84  C   UNL A   1      35.887  29.992  28.745  1.00  0.00     0.000 A 
ENDBRANCH  60  79
BRANCH  72  85
ATOM     85  C   UNL A   1      44.288  32.618  31.138  1.00  0.00    -0.014 A 
ATOM     86  C   UNL A   1      44.654  33.605  30.209  1.00  0.00     0.009 A 
ATOM     87  C   UNL A   1      44.119  32.980  32.484  1.00  0.00     0.009 A 
ATOM     88  C   UNL A   1      44.893  34.915  30.628  1.00  0.00     0.001 A 
ATOM     89  C   UNL A   1      44.324  34.298  32.894  1.00  0.00     0.001 A 
ATOM     90  C   UNL A   1      44.724  35.260  31.969  1.00  0.00     0.000 A 
ENDBRANCH  72  85
ENDBRANCH  46  47
ENDBRANCH  38  41
ENDBRANCH  36  37
ENDBRANCH  35  36
ENDBRANCH   1  35
TORSDOF 15
ENDMDL
MODEL 2
REMARK VINA RESULT:     -12.1      3.814      9.668
REMARK SMILES COC(=O)c1c(NC(=O)[C@@H]2[C@H]3CC[C@H](CC3)[C@H]2C(=O)NCCCNC(=O)c2ccc(-c3c4nc(c(-c5ccccc5)c5ccc([nH]5)c(-c5ccccc5)c5nc(c(-c6ccccc6)c6ccc3[nH]6)C=C5)C=C4)cc2)sc(C)c1-c1ccc(C)cc1
REMARK SMILES IDX 21 1 20 2 18 3 19 4 17 6 10 7 11 8 16 9 12 10 14 11 15 12
REMARK SMILES IDX 13 13 8 14 7 15 9 17 6 18 5 19 78 20 75 21 76 22 77 23 3 24
REMARK SMILES IDX 4 25 2 26 1 27 79 28 80 29 85 30 81 31 84 32 82 33 83 34
REMARK SMILES IDX 22 35 23 36 24 37 25 38 26 40 27 41 28 42 74 43 29 44 73 45
REMARK SMILES IDX 30 46 31 47 32 48 67 49 33 50 72 51 66 52 68 53 34 54 71 55
REMARK SMILES IDX 65 56 64 57 35 59 57 60 42 61 56 62 43 63 46 64 55 65 69 66
REMARK SMILES IDX 44 67 45 68 54 70 70 71 47 72 36 73 37 74 41 75 38 76 40 77
REMARK SMILES IDX 39 78 58 79 59 80 63 81 60 82 62 83 61 84 48 85 49 86 53 87
REMARK SMILES IDX 50 88 52 89 51 90
REMARK H PARENT 20 5 7 16 24 39 68 58 46 69
REMARK Flexibility Score: inf
ROOT
ATOM      1  C   UNL A   1      31.079  31.134  26.153  1.00  0.00     0.117 C 
ENDROOT
BRANCH   1   2
ATOM      2  N   UNL A   1      30.670  30.642  24.865  1.00  0.00    -0.356 N 
ATOM      3  C   UNL A   1      30.924  29.449  24.260  1.00  0.00     0.224 C 
ATOM      4  O   UNL A   1      30.284  29.223  23.227  1.00  0.00    -0.275 OA
ATOM      5  H   UNL A   1      30.119  31.265  24.337  1.00  0.00     0.163 HD
BRANCH   3   6
ATOM      6  C   UNL A   1      31.932  28.402  24.766  1.00  0.00     0.094 C 
ATOM      7  C   UNL A   1      31.706  26.925  24.356  1.00  0.00     0.094 C 
ATOM      8  C   UNL A   1      33.122  26.298  24.019  1.00  0.00     0.002 C 
ATOM      9  C   UNL A   1      33.764  27.042  22.824  1.00  0.00     0.005 C 
ATOM     10  C   UNL A   1      34.153  26.470  25.164  1.00  0.00     0.005 C 
ATOM     11  C   UNL A   1      33.429  28.813  24.606  1.00  0.00     0.002 C 
ATOM     12  C   UNL A   1      34.036  28.510  23.219  1.00  0.00     0.005 C 
ATOM     13  C   UNL A   1      34.235  27.941  25.594  1.00  0.00     0.005 C 
BRANCH   7  14
ATOM     14  C   UNL A   1      31.018  26.129  25.499  1.00  0.00     0.229 C 
ATOM     15  N   UNL A   1      30.900  24.779  25.621  1.00  0.00    -0.317 N 
ATOM     16  H   UNL A   1      30.351  24.537  26.402  1.00  0.00     0.170 HD
ATOM     17  O   UNL A   1      30.483  26.746  26.431  1.00  0.00    -0.274 OA
BRANCH  15  18
ATOM     18  C   UNL A   1      31.340  23.654  24.948  1.00  0.00     0.111 A 
ATOM     19  C   UNL A   1      31.981  22.545  25.500  1.00  0.00     0.102 A 
ATOM     20  C   UNL A   1      32.303  21.558  24.475  1.00  0.00     0.012 A 
ATOM     21  S   UNL A   1      31.182  23.507  23.291  1.00  0.00    -0.122 S 
ATOM     22  C   UNL A   1      31.853  21.952  23.227  1.00  0.00     0.012 A 
ATOM     23  C   UNL A   1      31.883  21.255  21.905  1.00  0.00     0.057 C 
BRANCH  19  24
ATOM     24  C   UNL A   1      32.281  22.455  26.934  1.00  0.00     0.341 C 
ATOM     25  O   UNL A   1      31.471  22.741  27.801  1.00  0.00    -0.246 OA
BRANCH  24  26
ATOM     26  O   UNL A   1      33.559  22.048  27.184  1.00  0.00    -0.465 OA
ATOM     27  C   UNL A   1      34.567  23.043  27.019  1.00  0.00     0.282 C 
ENDBRANCH  24  26
ENDBRANCH  19  24
BRANCH  20  28
ATOM     28  C   UNL A   1      32.998  20.283  24.645  1.00  0.00    -0.016 A 
ATOM     29  C   UNL A   1      34.393  20.211  24.580  1.00  0.00     0.009 A 
ATOM     30  C   UNL A   1      32.259  19.110  24.843  1.00  0.00     0.009 A 
ATOM     31  C   UNL A   1      35.037  18.974  24.680  1.00  0.00     0.004 A 
ATOM     32  C   UNL A   1      32.904  17.878  24.963  1.00  0.00     0.004 A 
ATOM     33  C   UNL A   1      34.298  17.799  24.873  1.00  0.00    -0.051 A 
ATOM     34  C   UNL A   1      34.995  16.472  24.939  1.00  0.00     0.044 C 
ENDBRANCH  20  28
ENDBRANCH  15  18
ENDBRANCH   7  14
ENDBRANCH   3   6
ENDBRANCH   1   2
BRANCH   1  35
ATOM     35  C   UNL A   1      31.317  32.624  26.288  1.00  0.00     0.042 C 
BRANCH  35  36
ATOM     36  C   UNL A   1      32.476  32.971  27.192  1.00  0.00     0.118 C 
BRANCH  36  37
ATOM     37  N   UNL A   1      32.378  34.340  27.681  1.00  0.00    -0.352 N 
ATOM     38  C   UNL A   1      33.039  34.976  28.703  1.00  0.00     0.251 C 
ATOM     39  H   UNL A   1      31.729  34.903  27.199  1.00  0.00     0.163 HD
ATOM     40  O   UNL A   1      32.594  36.033  29.140  1.00  0.00    -0.269 OA
BRANCH  38  41
ATOM     41  C   UNL A   1      34.271  34.398  29.284  1.00  0.00     0.039 A 
ATOM     42  C   UNL A   1      34.195  33.728  30.508  1.00  0.00     0.014 A 
ATOM     43  C   UNL A   1      35.507  34.548  28.654  1.00  0.00     0.014 A 
ATOM     44  C   UNL A   1      35.347  33.168  31.063  1.00  0.00     0.010 A 
ATOM     45  C   UNL A   1      36.622  33.876  29.136  1.00  0.00     0.010 A 
ATOM     46  C   UNL A   1      36.565  33.202  30.361  1.00  0.00    -0.014 A 
BRANCH  46  47
ATOM     47  C   UNL A   1      37.783  32.559  30.908  1.00  0.00     0.031 A 
ATOM     48  C   UNL A   1      38.417  33.074  32.174  1.00  0.00     0.074 A 
ATOM     49  C   UNL A   1      38.347  31.536  30.237  1.00  0.00     0.049 A 
ATOM     50  N   UNL A   1      39.470  32.626  32.810  1.00  0.00    -0.248 NA
ATOM     51  C   UNL A   1      37.812  34.267  32.792  1.00  0.00     0.031 C 
ATOM     52  C   UNL A   1      37.871  30.995  28.961  1.00  0.00     0.029 A 
ATOM     53  N   UNL A   1      39.437  30.761  30.540  1.00  0.00    -0.354 N 
ATOM     54  C   UNL A   1      39.661  33.490  33.882  1.00  0.00     0.074 A 
ATOM     55  C   UNL A   1      38.661  34.526  33.774  1.00  0.00     0.031 C 
ATOM     56  C   UNL A   1      38.629  29.942  28.620  1.00  0.00     0.029 A 
ATOM     57  C   UNL A   1      39.667  29.759  29.629  1.00  0.00     0.049 A 
ATOM     58  H   UNL A   1      40.001  30.909  31.333  1.00  0.00     0.167 HD
ATOM     59  C   UNL A   1      40.568  33.414  34.884  1.00  0.00     0.031 A 
ATOM     60  C   UNL A   1      40.602  28.791  29.614  1.00  0.00     0.031 A 
ATOM     61  C   UNL A   1      41.552  32.371  34.997  1.00  0.00     0.049 A 
ATOM     62  C   UNL A   1      41.580  28.709  30.750  1.00  0.00     0.074 A 
ATOM     63  C   UNL A   1      42.475  32.160  36.006  1.00  0.00     0.029 A 
ATOM     64  N   UNL A   1      41.741  31.364  34.063  1.00  0.00    -0.354 N 
ATOM     65  N   UNL A   1      41.692  29.482  31.804  1.00  0.00    -0.248 NA
ATOM     66  C   UNL A   1      42.549  27.605  30.706  1.00  0.00     0.031 C 
ATOM     67  C   UNL A   1      43.260  31.057  35.653  1.00  0.00     0.029 A 
ATOM     68  C   UNL A   1      42.782  30.541  34.460  1.00  0.00     0.049 A 
ATOM     69  H   UNL A   1      41.213  31.250  33.239  1.00  0.00     0.167 HD
ATOM     70  C   UNL A   1      42.722  28.943  32.562  1.00  0.00     0.074 A 
ATOM     71  C   UNL A   1      43.187  27.766  31.857  1.00  0.00     0.031 C 
ATOM     72  C   UNL A   1      43.237  29.380  33.738  1.00  0.00     0.031 A 
BRANCH  59  73
ATOM     73  C   UNL A   1      40.536  34.495  35.932  1.00  0.00    -0.014 A 
ATOM     74  C   UNL A   1      41.322  35.654  35.813  1.00  0.00     0.009 A 
ATOM     75  C   UNL A   1      39.692  34.363  37.045  1.00  0.00     0.009 A 
ATOM     76  C   UNL A   1      41.297  36.633  36.809  1.00  0.00     0.001 A 
ATOM     77  C   UNL A   1      39.644  35.360  38.022  1.00  0.00     0.001 A 
ATOM     78  C   UNL A   1      40.454  36.488  37.910  1.00  0.00     0.000 A 
ENDBRANCH  59  73
BRANCH  60  79
ATOM     79  C   UNL A   1      40.626  27.800  28.506  1.00  0.00    -0.014 A 
ATOM     80  C   UNL A   1      41.344  28.059  27.329  1.00  0.00     0.009 A 
ATOM     81  C   UNL A   1      39.941  26.579  28.627  1.00  0.00     0.009 A 
ATOM     82  C   UNL A   1      41.353  27.132  26.285  1.00  0.00     0.001 A 
ATOM     83  C   UNL A   1      39.979  25.640  27.595  1.00  0.00     0.001 A 
ATOM     84  C   UNL A   1      40.676  25.921  26.421  1.00  0.00     0.000 A 
ENDBRANCH  60  79
BRANCH  72  85
ATOM     85  C   UNL A   1      44.336  28.557  34.349  1.00  0.00    -0.014 A 
ATOM     86  C   UNL A   1      45.687  28.823  34.083  1.00  0.00     0.009 A 
ATOM     87  C   UNL A   1      44.008  27.507  35.223  1.00  0.00     0.009 A 
ATOM     88  C   UNL A   1      46.687  28.024  34.641  1.00  0.00     0.001 A 
ATOM     89  C   UNL A   1      45.011  26.733  35.807  1.00  0.00     0.001 A 
ATOM     90  C   UNL A   1      46.348  26.983  35.505  1.00  0.00     0.000 A 
ENDBRANCH  72  85
ENDBRANCH  46  47
ENDBRANCH  38  41
ENDBRANCH  36  37
ENDBRANCH  35  36
ENDBRANCH   1  35
TORSDOF 15
ENDMDL
MODEL 3
REMARK VINA RESULT:     -12.0      3.064      9.216
REMARK SMILES COC(=O)c1c(NC(=O)[C@@H]2[C@H]3CC[C@H](CC3)[C@H]2C(=O)NCCCNC(=O)c2ccc(-c3c4nc(c(-c5ccccc5)c5ccc([nH]5)c(-c5ccccc5)c5nc(c(-c6ccccc6)c6ccc3[nH]6)C=C5)C=C4)cc2)sc(C)c1-c1ccc(C)cc1
REMARK SMILES IDX 21 1 20 2 18 3 19 4 17 6 10 7 11 8 16 9 12 10 14 11 15 12
REMARK SMILES IDX 13 13 8 14 7 15 9 17 6 18 5 19 78 20 75 21 76 22 77 23 3 24
REMARK SMILES IDX 4 25 2 26 1 27 79 28 80 29 85 30 81 31 84 32 82 33 83 34
REMARK SMILES IDX 22 35 23 36 24 37 25 38 26 40 27 41 28 42 74 43 29 44 73 45
REMARK SMILES IDX 30 46 31 47 32 48 67 49 33 50 72 51 66 52 68 53 34 54 71 55
REMARK SMILES IDX 65 56 64 57 35 59 57 60 42 61 56 62 43 63 46 64 55 65 69 66
REMARK SMILES IDX 44 67 45 68 54 70 70 71 47 72 36 73 37 74 41 75 38 76 40 77
REMARK SMILES IDX 39 78 58 79 59 80 63 81 60 82 62 83 61 84 48 85 49 86 53 87
REMARK SMILES IDX 50 88 52 89 51 90
REMARK H PARENT 20 5 7 16 24 39 68 58 46 69
REMARK Flexibility Score: inf
ROOT
ATOM      1  C   UNL A   1      33.718  29.699  27.296  1.00  0.00     0.117 C 
ENDROOT
BRANCH   1   2
ATOM      2  N   UNL A   1      32.536  28.946  27.622  1.00  0.00    -0.356 N 
ATOM      3  C   UNL A   1      31.869  28.005  26.900  1.00  0.00     0.224 C 
ATOM      4  O   UNL A   1      30.991  27.382  27.510  1.00  0.00    -0.275 OA
ATOM      5  H   UNL A   1      32.150  29.141  28.506  1.00  0.00     0.163 HD
BRANCH   3   6
ATOM      6  C   UNL A   1      32.128  27.683  25.418  1.00  0.00     0.094 C 
ATOM      7  C   UNL A   1      32.304  26.195  25.021  1.00  0.00     0.094 C 
ATOM      8  C   UNL A   1      31.547  25.972  23.647  1.00  0.00     0.002 C 
ATOM      9  C   UNL A   1      30.037  26.256  23.817  1.00  0.00     0.005 C 
ATOM     10  C   UNL A   1      31.991  26.962  22.540  1.00  0.00     0.005 C 
ATOM     11  C   UNL A   1      31.191  28.430  24.419  1.00  0.00     0.002 C 
ATOM     12  C   UNL A   1      29.830  27.743  24.175  1.00  0.00     0.005 C 
ATOM     13  C   UNL A   1      31.901  28.408  23.046  1.00  0.00     0.005 C 
BRANCH   7  14
ATOM     14  C   UNL A   1      33.807  25.830  24.880  1.00  0.00     0.229 C 
ATOM     15  N   UNL A   1      34.346  24.618  24.574  1.00  0.00    -0.317 N 
ATOM     16  H   UNL A   1      35.329  24.642  24.623  1.00  0.00     0.170 HD
ATOM     17  O   UNL A   1      34.665  26.705  25.072  1.00  0.00    -0.274 OA
BRANCH  15  18
ATOM     18  C   UNL A   1      33.890  23.365  24.213  1.00  0.00     0.111 A 
ATOM     19  C   UNL A   1      34.119  22.164  24.886  1.00  0.00     0.102 A 
ATOM     20  C   UNL A   1      33.484  21.044  24.199  1.00  0.00     0.012 A 
ATOM     21  S   UNL A   1      32.995  23.124  22.822  1.00  0.00    -0.122 S 
ATOM     22  C   UNL A   1      32.782  21.463  23.082  1.00  0.00     0.012 A 
ATOM     23  C   UNL A   1      31.925  20.706  22.118  1.00  0.00     0.057 C 
BRANCH  19  24
ATOM     24  C   UNL A   1      34.922  22.103  26.114  1.00  0.00     0.341 C 
ATOM     25  O   UNL A   1      35.975  21.491  26.188  1.00  0.00    -0.246 OA
BRANCH  24  26
ATOM     26  O   UNL A   1      34.351  22.773  27.156  1.00  0.00    -0.465 OA
ATOM     27  C   UNL A   1      33.153  22.199  27.677  1.00  0.00     0.282 C 
ENDBRANCH  24  26
ENDBRANCH  19  24
BRANCH  20  28
ATOM     28  C   UNL A   1      33.517  19.631  24.570  1.00  0.00    -0.016 A 
ATOM     29  C   UNL A   1      34.606  18.824  24.227  1.00  0.00     0.009 A 
ATOM     30  C   UNL A   1      32.429  19.064  25.247  1.00  0.00     0.009 A 
ATOM     31  C   UNL A   1      34.591  17.459  24.532  1.00  0.00     0.004 A 
ATOM     32  C   UNL A   1      32.425  17.706  25.568  1.00  0.00     0.004 A 
ATOM     33  C   UNL A   1      33.502  16.891  25.206  1.00  0.00    -0.051 A 
ATOM     34  C   UNL A   1      33.478  15.419  25.492  1.00  0.00     0.044 C 
ENDBRANCH  20  28
ENDBRANCH  15  18
ENDBRANCH   7  14
ENDBRANCH   3   6
ENDBRANCH   1   2
BRANCH   1  35
ATOM     35  C   UNL A   1      33.536  31.156  26.923  1.00  0.00     0.042 C 
BRANCH  35  36
ATOM     36  C   UNL A   1      32.157  31.691  27.231  1.00  0.00     0.118 C 
BRANCH  36  37
ATOM     37  N   UNL A   1      32.174  33.137  27.402  1.00  0.00    -0.352 N 
ATOM     38  C   UNL A   1      33.006  33.942  28.140  1.00  0.00     0.251 C 
ATOM     39  H   UNL A   1      31.471  33.618  26.907  1.00  0.00     0.163 HD
ATOM     40  O   UNL A   1      32.664  35.095  28.385  1.00  0.00    -0.269 OA
BRANCH  38  41
ATOM     41  C   UNL A   1      34.299  33.433  28.648  1.00  0.00     0.039 A 
ATOM     42  C   UNL A   1      34.327  32.738  29.859  1.00  0.00     0.014 A 
ATOM     43  C   UNL A   1      35.491  33.673  27.961  1.00  0.00     0.014 A 
ATOM     44  C   UNL A   1      35.539  32.241  30.344  1.00  0.00     0.010 A 
ATOM     45  C   UNL A   1      36.669  33.064  28.372  1.00  0.00     0.010 A 
ATOM     46  C   UNL A   1      36.715  32.366  29.583  1.00  0.00    -0.014 A 
BRANCH  46  47
ATOM     47  C   UNL A   1      37.998  31.792  30.056  1.00  0.00     0.031 A 
ATOM     48  C   UNL A   1      38.795  32.482  31.132  1.00  0.00     0.074 A 
ATOM     49  C   UNL A   1      38.468  30.668  29.481  1.00  0.00     0.049 A 
ATOM     50  N   UNL A   1      39.925  32.116  31.683  1.00  0.00    -0.248 NA
ATOM     51  C   UNL A   1      38.276  33.766  31.634  1.00  0.00     0.031 C 
ATOM     52  C   UNL A   1      37.826  29.947  28.378  1.00  0.00     0.029 A 
ATOM     53  N   UNL A   1      39.591  29.928  29.752  1.00  0.00    -0.354 N 
ATOM     54  C   UNL A   1      40.256  33.131  32.575  1.00  0.00     0.074 A 
ATOM     55  C   UNL A   1      39.248  34.156  32.443  1.00  0.00     0.031 C 
ATOM     56  C   UNL A   1      38.534  28.840  28.106  1.00  0.00     0.029 A 
ATOM     57  C   UNL A   1      39.698  28.794  28.983  1.00  0.00     0.049 A 
ATOM     58  H   UNL A   1      40.256  30.185  30.431  1.00  0.00     0.167 HD
ATOM     59  C   UNL A   1      41.290  33.192  33.447  1.00  0.00     0.031 A 
ATOM     60  C   UNL A   1      40.625  27.818  28.993  1.00  0.00     0.031 A 
ATOM     61  C   UNL A   1      42.282  32.160  33.586  1.00  0.00     0.049 A 
ATOM     62  C   UNL A   1      41.747  27.892  29.988  1.00  0.00     0.074 A 
ATOM     63  C   UNL A   1      43.333  32.088  34.484  1.00  0.00     0.029 A 
ATOM     64  N   UNL A   1      42.346  31.018  32.802  1.00  0.00    -0.354 N 
ATOM     65  N   UNL A   1      41.998  28.816  30.886  1.00  0.00    -0.248 NA
ATOM     66  C   UNL A   1      42.703  26.777  29.985  1.00  0.00     0.031 C 
ATOM     67  C   UNL A   1      44.066  30.930  34.204  1.00  0.00     0.029 A 
ATOM     68  C   UNL A   1      43.433  30.247  33.178  1.00  0.00     0.049 A 
ATOM     69  H   UNL A   1      41.712  30.790  32.083  1.00  0.00     0.167 HD
ATOM     70  C   UNL A   1      43.122  28.379  31.574  1.00  0.00     0.074 A 
ATOM     71  C   UNL A   1      43.490  27.100  31.002  1.00  0.00     0.031 C 
ATOM     72  C   UNL A   1      43.789  28.981  32.590  1.00  0.00     0.031 A 
BRANCH  59  73
ATOM     73  C   UNL A   1      41.397  34.420  34.311  1.00  0.00    -0.014 A 
ATOM     74  C   UNL A   1      40.758  34.495  35.560  1.00  0.00     0.009 A 
ATOM     75  C   UNL A   1      42.166  35.512  33.879  1.00  0.00     0.009 A 
ATOM     76  C   UNL A   1      40.849  35.654  36.335  1.00  0.00     0.001 A 
ATOM     77  C   UNL A   1      42.283  36.656  34.672  1.00  0.00     0.001 A 
ATOM     78  C   UNL A   1      41.615  36.731  35.892  1.00  0.00     0.000 A 
ENDBRANCH  59  73
BRANCH  60  79
ATOM     79  C   UNL A   1      40.502  26.669  28.058  1.00  0.00    -0.014 A 
ATOM     80  C   UNL A   1      41.080  26.721  26.781  1.00  0.00     0.009 A 
ATOM     81  C   UNL A   1      39.816  25.506  28.444  1.00  0.00     0.009 A 
ATOM     82  C   UNL A   1      40.951  25.645  25.900  1.00  0.00     0.001 A 
ATOM     83  C   UNL A   1      39.716  24.419  27.573  1.00  0.00     0.001 A 
ATOM     84  C   UNL A   1      40.275  24.493  26.299  1.00  0.00     0.000 A 
ENDBRANCH  60  79
BRANCH  72  85
ATOM     85  C   UNL A   1      44.962  28.240  33.168  1.00  0.00    -0.014 A 
ATOM     86  C   UNL A   1      46.255  28.391  32.646  1.00  0.00     0.009 A 
ATOM     87  C   UNL A   1      44.767  27.390  34.269  1.00  0.00     0.009 A 
ATOM     88  C   UNL A   1      47.322  27.669  33.185  1.00  0.00     0.001 A 
ATOM     89  C   UNL A   1      45.841  26.697  34.827  1.00  0.00     0.001 A 
ATOM     90  C   UNL A   1      47.115  26.826  34.276  1.00  0.00     0.000 A 
ENDBRANCH  72  85
ENDBRANCH  46  47
ENDBRANCH  38  41
ENDBRANCH  36  37
ENDBRANCH  35  36
ENDBRANCH   1  35
TORSDOF 15
ENDMDL
