MODEL 1
REMARK VINA RESULT:     -11.7      0.000      0.000
REMARK SMILES Cc1ccc(C)c(Oc2cccc(F)c2C(=O)NCCCNC(=O)c2ccc(-c3c4nc(c(-c5ccccc5)c5ccc([nH]5)c(-c5ccccc5)c5nc(c(-c6ccccc6)c6ccc3[nH]6)C=C5)C=C4)cc2)c1
REMARK SMILES IDX 20 1 19 2 18 3 16 4 17 5 15 7 9 8 10 9 11 10 13 11 12 12
REMARK SMILES IDX 14 13 8 14 7 15 1 16 2 17 3 18 73 19 4 20 5 21 6 22 21 23
REMARK SMILES IDX 22 24 23 25 24 27 25 28 26 29 72 30 27 31 71 32 28 33 29 34
REMARK SMILES IDX 30 35 65 36 31 37 70 38 64 39 66 40 32 41 69 42 63 43 62 44
REMARK SMILES IDX 33 46 55 47 40 48 54 49 41 50 44 51 53 52 67 53 42 54 43 55
REMARK SMILES IDX 52 57 68 58 45 59 34 60 35 61 39 62 36 63 38 64 37 65 56 66
REMARK SMILES IDX 57 67 61 68 58 69 60 70 59 71 46 72 47 73 51 74 48 75 50 76
REMARK SMILES IDX 49 77
REMARK H PARENT 18 6 22 26 66 45 44 56
REMARK Flexibility Score: inf
ROOT
ATOM      1  C   UNL A   1      38.873  20.171  25.057  1.00  0.00     0.042 C 
ENDROOT
BRANCH   1   2
ATOM      2  C   UNL A   1      38.168  21.501  25.387  1.00  0.00     0.118 C 
BRANCH   2   3
ATOM      3  N   UNL A   1      37.535  22.126  24.232  1.00  0.00    -0.352 N 
ATOM      4  C   UNL A   1      36.252  22.458  23.873  1.00  0.00     0.258 C 
ATOM      5  O   UNL A   1      36.181  23.011  22.770  1.00  0.00    -0.269 OA
ATOM      6  H   UNL A   1      38.190  22.368  23.539  1.00  0.00     0.163 HD
BRANCH   4   7
ATOM      7  C   UNL A   1      34.999  22.207  24.656  1.00  0.00     0.118 A 
ATOM      8  C   UNL A   1      34.204  23.311  25.057  1.00  0.00     0.143 A 
ATOM      9  C   UNL A   1      32.925  23.127  25.623  1.00  0.00     0.048 A 
ATOM     10  C   UNL A   1      32.464  21.854  25.924  1.00  0.00     0.007 A 
ATOM     11  C   UNL A   1      34.486  20.943  24.959  1.00  0.00     0.139 A 
ATOM     12  C   UNL A   1      33.258  20.764  25.608  1.00  0.00     0.040 A 
ATOM     13  F   UNL A   1      35.104  19.812  24.619  1.00  0.00    -0.206 F 
BRANCH   8  14
ATOM     14  O   UNL A   1      34.643  24.601  24.837  1.00  0.00    -0.456 OA
BRANCH  14  15
ATOM     15  C   UNL A   1      33.926  25.444  24.006  1.00  0.00     0.130 A 
ATOM     16  C   UNL A   1      32.532  25.695  20.461  1.00  0.00     0.044 C 
ATOM     17  C   UNL A   1      32.868  26.031  21.884  1.00  0.00    -0.047 A 
ATOM     18  C   UNL A   1      32.494  27.264  22.422  1.00  0.00     0.004 A 
ATOM     19  C   UNL A   1      33.555  25.116  22.692  1.00  0.00     0.050 A 
ATOM     20  C   UNL A   1      32.813  27.579  23.743  1.00  0.00     0.007 A 
ATOM     21  C   UNL A   1      33.534  26.680  24.546  1.00  0.00    -0.008 A 
ATOM     22  C   UNL A   1      33.834  27.079  25.965  1.00  0.00     0.048 C 
ENDBRANCH  14  15
ENDBRANCH   8  14
ENDBRANCH   4   7
ENDBRANCH   2   3
ENDBRANCH   1   2
BRANCH   1  23
ATOM     23  C   UNL A   1      39.636  19.458  26.178  1.00  0.00     0.118 C 
BRANCH  23  24
ATOM     24  N   UNL A   1      40.961  18.981  25.768  1.00  0.00    -0.352 N 
ATOM     25  C   UNL A   1      42.190  19.613  25.661  1.00  0.00     0.251 C 
ATOM     26  H   UNL A   1      40.982  18.028  25.521  1.00  0.00     0.163 HD
ATOM     27  O   UNL A   1      43.081  19.094  25.009  1.00  0.00    -0.269 OA
BRANCH  25  28
ATOM     28  C   UNL A   1      42.427  20.911  26.331  1.00  0.00     0.039 A 
ATOM     29  C   UNL A   1      42.905  22.028  25.638  1.00  0.00     0.014 A 
ATOM     30  C   UNL A   1      42.156  21.014  27.684  1.00  0.00     0.014 A 
ATOM     31  C   UNL A   1      43.051  23.234  26.327  1.00  0.00     0.010 A 
ATOM     32  C   UNL A   1      42.049  22.232  28.286  1.00  0.00     0.010 A 
ATOM     33  C   UNL A   1      42.605  23.325  27.655  1.00  0.00    -0.014 A 
BRANCH  33  34
ATOM     34  C   UNL A   1      42.600  24.573  28.399  1.00  0.00     0.031 A 
ATOM     35  C   UNL A   1      41.439  25.431  28.102  1.00  0.00     0.074 A 
ATOM     36  C   UNL A   1      43.413  24.840  29.444  1.00  0.00     0.049 A 
ATOM     37  N   UNL A   1      41.432  26.481  27.354  1.00  0.00    -0.248 NA
ATOM     38  C   UNL A   1      40.107  24.987  28.537  1.00  0.00     0.031 C 
ATOM     39  C   UNL A   1      44.383  23.956  30.102  1.00  0.00     0.029 A 
ATOM     40  N   UNL A   1      43.451  25.954  30.225  1.00  0.00    -0.354 N 
ATOM     41  C   UNL A   1      40.143  26.980  27.436  1.00  0.00     0.074 A 
ATOM     42  C   UNL A   1      39.332  25.908  27.959  1.00  0.00     0.031 C 
ATOM     43  C   UNL A   1      44.732  24.478  31.300  1.00  0.00     0.029 A 
ATOM     44  C   UNL A   1      44.147  25.801  31.418  1.00  0.00     0.049 A 
ATOM     45  H   UNL A   1      43.019  26.800  29.966  1.00  0.00     0.167 HD
ATOM     46  C   UNL A   1      39.918  28.321  27.382  1.00  0.00     0.031 A 
ATOM     47  C   UNL A   1      44.214  26.690  32.438  1.00  0.00     0.031 A 
ATOM     48  C   UNL A   1      41.093  29.042  26.938  1.00  0.00     0.049 A 
ATOM     49  C   UNL A   1      43.837  28.016  31.896  1.00  0.00     0.074 A 
ATOM     50  C   UNL A   1      41.945  28.941  25.854  1.00  0.00     0.029 A 
ATOM     51  N   UNL A   1      41.787  29.756  27.889  1.00  0.00    -0.354 N 
ATOM     52  N   UNL A   1      44.584  28.690  31.070  1.00  0.00    -0.248 NA
ATOM     53  C   UNL A   1      42.435  28.400  31.921  1.00  0.00     0.031 C 
ATOM     54  C   UNL A   1      43.252  29.156  26.389  1.00  0.00     0.029 A 
ATOM     55  C   UNL A   1      43.118  29.461  27.745  1.00  0.00     0.049 A 
ATOM     56  H   UNL A   1      41.397  30.369  28.554  1.00  0.00     0.167 HD
ATOM     57  C   UNL A   1      43.691  29.219  30.150  1.00  0.00     0.074 A 
ATOM     58  C   UNL A   1      42.382  29.119  30.795  1.00  0.00     0.031 C 
ATOM     59  C   UNL A   1      44.054  29.410  28.846  1.00  0.00     0.031 A 
BRANCH  46  60
ATOM     60  C   UNL A   1      38.829  29.002  28.173  1.00  0.00    -0.014 A 
ATOM     61  C   UNL A   1      38.783  28.791  29.561  1.00  0.00     0.009 A 
ATOM     62  C   UNL A   1      37.691  29.589  27.585  1.00  0.00     0.009 A 
ATOM     63  C   UNL A   1      37.626  29.063  30.300  1.00  0.00     0.001 A 
ATOM     64  C   UNL A   1      36.552  29.907  28.327  1.00  0.00     0.001 A 
ATOM     65  C   UNL A   1      36.509  29.612  29.680  1.00  0.00     0.000 A 
ENDBRANCH  46  60
BRANCH  47  66
ATOM     66  C   UNL A   1      44.408  26.464  33.886  1.00  0.00    -0.014 A 
ATOM     67  C   UNL A   1      43.423  25.810  34.644  1.00  0.00     0.009 A 
ATOM     68  C   UNL A   1      45.673  26.643  34.474  1.00  0.00     0.009 A 
ATOM     69  C   UNL A   1      43.709  25.303  35.919  1.00  0.00     0.001 A 
ATOM     70  C   UNL A   1      45.958  26.142  35.750  1.00  0.00     0.001 A 
ATOM     71  C   UNL A   1      44.981  25.455  36.464  1.00  0.00     0.000 A 
ENDBRANCH  47  66
BRANCH  59  72
ATOM     72  C   UNL A   1      45.521  29.306  28.493  1.00  0.00    -0.014 A 
ATOM     73  C   UNL A   1      46.171  28.091  28.209  1.00  0.00     0.009 A 
ATOM     74  C   UNL A   1      46.250  30.494  28.334  1.00  0.00     0.009 A 
ATOM     75  C   UNL A   1      47.519  28.065  27.834  1.00  0.00     0.001 A 
ATOM     76  C   UNL A   1      47.588  30.472  27.934  1.00  0.00     0.001 A 
ATOM     77  C   UNL A   1      48.226  29.257  27.696  1.00  0.00     0.000 A 
ENDBRANCH  59  72
ENDBRANCH  33  34
ENDBRANCH  25  28
ENDBRANCH  23  24
ENDBRANCH   1  23
TORSDOF 12
ENDMDL
MODEL 2
REMARK VINA RESULT:     -11.7      2.323      5.989
REMARK SMILES Cc1ccc(C)c(Oc2cccc(F)c2C(=O)NCCCNC(=O)c2ccc(-c3c4nc(c(-c5ccccc5)c5ccc([nH]5)c(-c5ccccc5)c5nc(c(-c6ccccc6)c6ccc3[nH]6)C=C5)C=C4)cc2)c1
REMARK SMILES IDX 20 1 19 2 18 3 16 4 17 5 15 7 9 8 10 9 11 10 13 11 12 12
REMARK SMILES IDX 14 13 8 14 7 15 1 16 2 17 3 18 73 19 4 20 5 21 6 22 21 23
REMARK SMILES IDX 22 24 23 25 24 27 25 28 26 29 72 30 27 31 71 32 28 33 29 34
REMARK SMILES IDX 30 35 65 36 31 37 70 38 64 39 66 40 32 41 69 42 63 43 62 44
REMARK SMILES IDX 33 46 55 47 40 48 54 49 41 50 44 51 53 52 67 53 42 54 43 55
REMARK SMILES IDX 52 57 68 58 45 59 34 60 35 61 39 62 36 63 38 64 37 65 56 66
REMARK SMILES IDX 57 67 61 68 58 69 60 70 59 71 46 72 47 73 51 74 48 75 50 76
REMARK SMILES IDX 49 77
REMARK H PARENT 18 6 22 26 66 45 44 56
REMARK Flexibility Score: inf
ROOT
ATOM      1  C   UNL A   1      38.895  21.540  26.060  1.00  0.00     0.042 C 
ENDROOT
BRANCH   1   2
ATOM      2  C   UNL A   1      37.824  22.610  25.770  1.00  0.00     0.118 C 
BRANCH   2   3
ATOM      3  N   UNL A   1      37.563  22.800  24.349  1.00  0.00    -0.352 N 
ATOM      4  C   UNL A   1      36.464  22.707  23.530  1.00  0.00     0.258 C 
ATOM      5  O   UNL A   1      36.709  22.986  22.351  1.00  0.00    -0.269 OA
ATOM      6  H   UNL A   1      38.374  23.057  23.855  1.00  0.00     0.163 HD
BRANCH   4   7
ATOM      7  C   UNL A   1      35.074  22.305  23.921  1.00  0.00     0.118 A 
ATOM      8  C   UNL A   1      33.976  23.057  23.434  1.00  0.00     0.143 A 
ATOM      9  C   UNL A   1      32.648  22.614  23.608  1.00  0.00     0.048 A 
ATOM     10  C   UNL A   1      32.374  21.493  24.378  1.00  0.00     0.007 A 
ATOM     11  C   UNL A   1      34.753  21.171  24.673  1.00  0.00     0.139 A 
ATOM     12  C   UNL A   1      33.431  20.786  24.926  1.00  0.00     0.040 A 
ATOM     13  F   UNL A   1      35.676  20.349  25.171  1.00  0.00    -0.206 F 
BRANCH   8  14
ATOM     14  O   UNL A   1      34.190  24.215  22.713  1.00  0.00    -0.456 OA
BRANCH  14  15
ATOM     15  C   UNL A   1      33.709  25.423  23.187  1.00  0.00     0.130 A 
ATOM     16  C   UNL A   1      33.729  27.659  26.281  1.00  0.00     0.044 C 
ATOM     17  C   UNL A   1      33.454  27.148  24.897  1.00  0.00    -0.047 A 
ATOM     18  C   UNL A   1      32.641  27.877  24.027  1.00  0.00     0.004 A 
ATOM     19  C   UNL A   1      34.009  25.940  24.458  1.00  0.00     0.050 A 
ATOM     20  C   UNL A   1      32.378  27.397  22.743  1.00  0.00     0.007 A 
ATOM     21  C   UNL A   1      32.902  26.168  22.311  1.00  0.00    -0.008 A 
ATOM     22  C   UNL A   1      32.590  25.716  20.910  1.00  0.00     0.048 C 
ENDBRANCH  14  15
ENDBRANCH   8  14
ENDBRANCH   4   7
ENDBRANCH   2   3
ENDBRANCH   1   2
BRANCH   1  23
ATOM     23  C   UNL A   1      40.106  21.938  26.910  1.00  0.00     0.118 C 
BRANCH  23  24
ATOM     24  N   UNL A   1      41.366  21.944  26.160  1.00  0.00    -0.352 N 
ATOM     25  C   UNL A   1      42.200  22.969  25.741  1.00  0.00     0.251 C 
ATOM     26  H   UNL A   1      41.681  21.047  25.903  1.00  0.00     0.163 HD
ATOM     27  O   UNL A   1      43.027  22.756  24.870  1.00  0.00    -0.269 OA
BRANCH  25  28
ATOM     28  C   UNL A   1      42.091  24.318  26.340  1.00  0.00     0.039 A 
ATOM     29  C   UNL A   1      41.281  25.314  25.787  1.00  0.00     0.014 A 
ATOM     30  C   UNL A   1      42.812  24.587  27.490  1.00  0.00     0.014 A 
ATOM     31  C   UNL A   1      41.186  26.544  26.442  1.00  0.00     0.010 A 
ATOM     32  C   UNL A   1      42.523  25.675  28.258  1.00  0.00     0.010 A 
ATOM     33  C   UNL A   1      41.807  26.707  27.690  1.00  0.00    -0.014 A 
BRANCH  33  34
ATOM     34  C   UNL A   1      41.651  27.906  28.495  1.00  0.00     0.031 A 
ATOM     35  C   UNL A   1      42.661  28.942  28.212  1.00  0.00     0.074 A 
ATOM     36  C   UNL A   1      40.563  28.183  29.246  1.00  0.00     0.049 A 
ATOM     37  N   UNL A   1      43.694  29.223  28.930  1.00  0.00    -0.248 NA
ATOM     38  C   UNL A   1      42.622  29.623  26.910  1.00  0.00     0.031 C 
ATOM     39  C   UNL A   1      39.308  27.428  29.359  1.00  0.00     0.029 A 
ATOM     40  N   UNL A   1      40.308  29.292  29.992  1.00  0.00    -0.354 N 
ATOM     41  C   UNL A   1      44.295  30.299  28.300  1.00  0.00     0.074 A 
ATOM     42  C   UNL A   1      43.749  30.337  26.965  1.00  0.00     0.031 C 
ATOM     43  C   UNL A   1      38.361  28.206  29.929  1.00  0.00     0.029 A 
ATOM     44  C   UNL A   1      38.980  29.442  30.371  1.00  0.00     0.049 A 
ATOM     45  H   UNL A   1      41.008  29.937  30.243  1.00  0.00     0.167 HD
ATOM     46  C   UNL A   1      44.931  31.257  29.028  1.00  0.00     0.031 A 
ATOM     47  C   UNL A   1      38.426  30.517  30.982  1.00  0.00     0.031 A 
ATOM     48  C   UNL A   1      45.141  30.835  30.397  1.00  0.00     0.049 A 
ATOM     49  C   UNL A   1      39.528  31.291  31.602  1.00  0.00     0.074 A 
ATOM     50  C   UNL A   1      45.702  29.724  30.999  1.00  0.00     0.029 A 
ATOM     51  N   UNL A   1      44.345  31.415  31.361  1.00  0.00    -0.354 N 
ATOM     52  N   UNL A   1      40.203  30.873  32.633  1.00  0.00    -0.248 NA
ATOM     53  C   UNL A   1      40.176  32.326  30.813  1.00  0.00     0.031 C 
ATOM     54  C   UNL A   1      44.842  29.425  32.099  1.00  0.00     0.029 A 
ATOM     55  C   UNL A   1      43.859  30.414  32.160  1.00  0.00     0.049 A 
ATOM     56  H   UNL A   1      44.159  32.377  31.458  1.00  0.00     0.167 HD
ATOM     57  C   UNL A   1      41.516  31.218  32.350  1.00  0.00     0.074 A 
ATOM     58  C   UNL A   1      41.421  32.219  31.288  1.00  0.00     0.031 C 
ATOM     59  C   UNL A   1      42.556  30.447  32.788  1.00  0.00     0.031 A 
BRANCH  46  60
ATOM     60  C   UNL A   1      44.926  32.717  28.646  1.00  0.00    -0.014 A 
ATOM     61  C   UNL A   1      43.701  33.404  28.660  1.00  0.00     0.009 A 
ATOM     62  C   UNL A   1      46.002  33.355  27.997  1.00  0.00     0.009 A 
ATOM     63  C   UNL A   1      43.539  34.616  27.979  1.00  0.00     0.001 A 
ATOM     64  C   UNL A   1      45.857  34.588  27.358  1.00  0.00     0.001 A 
ATOM     65  C   UNL A   1      44.615  35.202  27.321  1.00  0.00     0.000 A 
ENDBRANCH  46  60
BRANCH  47  66
ATOM     66  C   UNL A   1      37.042  31.034  30.931  1.00  0.00    -0.014 A 
ATOM     67  C   UNL A   1      36.383  31.427  32.107  1.00  0.00     0.009 A 
ATOM     68  C   UNL A   1      36.462  31.400  29.703  1.00  0.00     0.009 A 
ATOM     69  C   UNL A   1      35.219  32.206  32.058  1.00  0.00     0.001 A 
ATOM     70  C   UNL A   1      35.295  32.173  29.653  1.00  0.00     0.001 A 
ATOM     71  C   UNL A   1      34.686  32.592  30.831  1.00  0.00     0.000 A 
ENDBRANCH  47  66
BRANCH  59  72
ATOM     72  C   UNL A   1      42.268  29.383  33.823  1.00  0.00    -0.014 A 
ATOM     73  C   UNL A   1      41.841  28.081  33.504  1.00  0.00     0.009 A 
ATOM     74  C   UNL A   1      42.544  29.673  35.167  1.00  0.00     0.009 A 
ATOM     75  C   UNL A   1      41.643  27.122  34.504  1.00  0.00     0.001 A 
ATOM     76  C   UNL A   1      42.373  28.709  36.164  1.00  0.00     0.001 A 
ATOM     77  C   UNL A   1      41.911  27.438  35.834  1.00  0.00     0.000 A 
ENDBRANCH  59  72
ENDBRANCH  33  34
ENDBRANCH  25  28
ENDBRANCH  23  24
ENDBRANCH   1  23
TORSDOF 12
ENDMDL
MODEL 3
REMARK VINA RESULT:     -11.6      2.887      7.428
REMARK SMILES Cc1ccc(C)c(Oc2cccc(F)c2C(=O)NCCCNC(=O)c2ccc(-c3c4nc(c(-c5ccccc5)c5ccc([nH]5)c(-c5ccccc5)c5nc(c(-c6ccccc6)c6ccc3[nH]6)C=C5)C=C4)cc2)c1
REMARK SMILES IDX 20 1 19 2 18 3 16 4 17 5 15 7 9 8 10 9 11 10 13 11 12 12
REMARK SMILES IDX 14 13 8 14 7 15 1 16 2 17 3 18 73 19 4 20 5 21 6 22 21 23
REMARK SMILES IDX 22 24 23 25 24 27 25 28 26 29 72 30 27 31 71 32 28 33 29 34
REMARK SMILES IDX 30 35 65 36 31 37 70 38 64 39 66 40 32 41 69 42 63 43 62 44
REMARK SMILES IDX 33 46 55 47 40 48 54 49 41 50 44 51 53 52 67 53 42 54 43 55
REMARK SMILES IDX 52 57 68 58 45 59 34 60 35 61 39 62 36 63 38 64 37 65 56 66
REMARK SMILES IDX 57 67 61 68 58 69 60 70 59 71 46 72 47 73 51 74 48 75 50 76
REMARK SMILES IDX 49 77
REMARK H PARENT 18 6 22 26 66 45 44 56
REMARK Flexibility Score: inf
ROOT
ATOM      1  C   UNL A   1      32.644  29.791  27.267  1.00  0.00     0.042 C 
ENDROOT
BRANCH   1   2
ATOM      2  C   UNL A   1      32.877  28.312  26.903  1.00  0.00     0.118 C 
BRANCH   2   3
ATOM      3  N   UNL A   1      32.379  27.954  25.581  1.00  0.00    -0.352 N 
ATOM      4  C   UNL A   1      31.899  26.812  24.986  1.00  0.00     0.258 C 
ATOM      5  O   UNL A   1      31.560  26.980  23.810  1.00  0.00    -0.269 OA
ATOM      6  H   UNL A   1      32.391  28.718  24.961  1.00  0.00     0.163 HD
BRANCH   4   7
ATOM      7  C   UNL A   1      31.773  25.453  25.605  1.00  0.00     0.118 A 
ATOM      8  C   UNL A   1      32.948  24.712  25.887  1.00  0.00     0.143 A 
ATOM      9  C   UNL A   1      32.903  23.520  26.639  1.00  0.00     0.048 A 
ATOM     10  C   UNL A   1      31.685  22.970  27.014  1.00  0.00     0.007 A 
ATOM     11  C   UNL A   1      30.572  24.873  26.020  1.00  0.00     0.139 A 
ATOM     12  C   UNL A   1      30.520  23.641  26.683  1.00  0.00     0.040 A 
ATOM     13  F   UNL A   1      29.389  25.463  25.853  1.00  0.00    -0.206 F 
BRANCH   8  14
ATOM     14  O   UNL A   1      34.182  25.183  25.482  1.00  0.00    -0.456 OA
BRANCH  14  15
ATOM     15  C   UNL A   1      35.138  24.301  25.010  1.00  0.00     0.130 A 
ATOM     16  C   UNL A   1      38.394  22.580  26.016  1.00  0.00     0.044 C 
ATOM     17  C   UNL A   1      37.194  22.998  25.218  1.00  0.00    -0.047 A 
ATOM     18  C   UNL A   1      37.019  22.531  23.914  1.00  0.00     0.004 A 
ATOM     19  C   UNL A   1      36.234  23.856  25.768  1.00  0.00     0.050 A 
ATOM     20  C   UNL A   1      35.907  22.927  23.170  1.00  0.00     0.007 A 
ATOM     21  C   UNL A   1      34.960  23.816  23.704  1.00  0.00    -0.008 A 
ATOM     22  C   UNL A   1      33.779  24.192  22.851  1.00  0.00     0.048 C 
ENDBRANCH  14  15
ENDBRANCH   8  14
ENDBRANCH   4   7
ENDBRANCH   2   3
ENDBRANCH   1   2
BRANCH   1  23
ATOM     23  C   UNL A   1      33.840  30.748  27.217  1.00  0.00     0.118 C 
BRANCH  23  24
ATOM     24  N   UNL A   1      33.877  31.694  28.336  1.00  0.00    -0.352 N 
ATOM     25  C   UNL A   1      34.772  31.874  29.378  1.00  0.00     0.251 C 
ATOM     26  H   UNL A   1      33.119  32.322  28.352  1.00  0.00     0.163 HD
ATOM     27  O   UNL A   1      34.436  32.519  30.358  1.00  0.00    -0.269 OA
BRANCH  25  28
ATOM     28  C   UNL A   1      36.130  31.290  29.311  1.00  0.00     0.039 A 
ATOM     29  C   UNL A   1      37.283  32.069  29.449  1.00  0.00     0.014 A 
ATOM     30  C   UNL A   1      36.251  29.925  29.115  1.00  0.00     0.014 A 
ATOM     31  C   UNL A   1      38.528  31.437  29.432  1.00  0.00     0.010 A 
ATOM     32  C   UNL A   1      37.429  29.285  29.355  1.00  0.00     0.010 A 
ATOM     33  C   UNL A   1      38.586  30.034  29.396  1.00  0.00    -0.014 A 
BRANCH  33  34
ATOM     34  C   UNL A   1      39.832  29.296  29.505  1.00  0.00     0.031 A 
ATOM     35  C   UNL A   1      40.195  28.956  30.893  1.00  0.00     0.074 A 
ATOM     36  C   UNL A   1      40.483  28.742  28.460  1.00  0.00     0.049 A 
ATOM     37  N   UNL A   1      41.083  29.542  31.620  1.00  0.00    -0.248 NA
ATOM     38  C   UNL A   1      39.371  27.975  31.614  1.00  0.00     0.031 C 
ATOM     39  C   UNL A   1      40.072  28.677  27.052  1.00  0.00     0.029 A 
ATOM     40  N   UNL A   1      41.624  28.000  28.469  1.00  0.00    -0.354 N 
ATOM     41  C   UNL A   1      41.111  28.831  32.807  1.00  0.00     0.074 A 
ATOM     42  C   UNL A   1      39.893  28.058  32.840  1.00  0.00     0.031 C 
ATOM     43  C   UNL A   1      40.818  27.753  26.404  1.00  0.00     0.029 A 
ATOM     44  C   UNL A   1      41.861  27.288  27.300  1.00  0.00     0.049 A 
ATOM     45  H   UNL A   1      42.232  27.969  29.242  1.00  0.00     0.167 HD
ATOM     46  C   UNL A   1      42.276  28.685  33.496  1.00  0.00     0.031 A 
ATOM     47  C   UNL A   1      42.830  26.364  27.094  1.00  0.00     0.031 A 
ATOM     48  C   UNL A   1      43.302  29.582  33.006  1.00  0.00     0.049 A 
ATOM     49  C   UNL A   1      43.872  26.577  28.126  1.00  0.00     0.074 A 
ATOM     50  C   UNL A   1      43.378  30.943  32.778  1.00  0.00     0.029 A 
ATOM     51  N   UNL A   1      44.318  29.025  32.261  1.00  0.00    -0.354 N 
ATOM     52  N   UNL A   1      44.661  27.611  28.143  1.00  0.00    -0.248 NA
ATOM     53  C   UNL A   1      43.747  25.870  29.391  1.00  0.00     0.031 C 
ATOM     54  C   UNL A   1      44.092  31.073  31.548  1.00  0.00     0.029 A 
ATOM     55  C   UNL A   1      44.487  29.797  31.141  1.00  0.00     0.049 A 
ATOM     56  H   UNL A   1      44.830  28.216  32.491  1.00  0.00     0.167 HD
ATOM     57  C   UNL A   1      44.739  27.966  29.481  1.00  0.00     0.074 A 
ATOM     58  C   UNL A   1      44.267  26.789  30.211  1.00  0.00     0.031 C 
ATOM     59  C   UNL A   1      44.890  29.272  29.855  1.00  0.00     0.031 A 
BRANCH  46  60
ATOM     60  C   UNL A   1      42.625  27.432  34.261  1.00  0.00    -0.014 A 
ATOM     61  C   UNL A   1      43.544  26.536  33.688  1.00  0.00     0.009 A 
ATOM     62  C   UNL A   1      41.880  26.957  35.358  1.00  0.00     0.009 A 
ATOM     63  C   UNL A   1      43.639  25.212  34.128  1.00  0.00     0.001 A 
ATOM     64  C   UNL A   1      42.007  25.650  35.832  1.00  0.00     0.001 A 
ATOM     65  C   UNL A   1      42.864  24.767  35.193  1.00  0.00     0.000 A 
ENDBRANCH  46  60
BRANCH  47  66
ATOM     66  C   UNL A   1      42.855  25.195  26.189  1.00  0.00    -0.014 A 
ATOM     67  C   UNL A   1      43.883  25.046  25.244  1.00  0.00     0.009 A 
ATOM     68  C   UNL A   1      42.026  24.086  26.432  1.00  0.00     0.009 A 
ATOM     69  C   UNL A   1      44.110  23.818  24.609  1.00  0.00     0.001 A 
ATOM     70  C   UNL A   1      42.248  22.860  25.793  1.00  0.00     0.001 A 
ATOM     71  C   UNL A   1      43.302  22.722  24.897  1.00  0.00     0.000 A 
ENDBRANCH  47  66
BRANCH  59  72
ATOM     72  C   UNL A   1      45.260  30.280  28.790  1.00  0.00    -0.014 A 
ATOM     73  C   UNL A   1      46.586  30.635  28.479  1.00  0.00     0.009 A 
ATOM     74  C   UNL A   1      44.233  30.808  27.993  1.00  0.00     0.009 A 
ATOM     75  C   UNL A   1      46.866  31.534  27.444  1.00  0.00     0.001 A 
ATOM     76  C   UNL A   1      44.514  31.685  26.942  1.00  0.00     0.001 A 
ATOM     77  C   UNL A   1      45.829  32.057  26.675  1.00  0.00     0.000 A 
ENDBRANCH  59  72
ENDBRANCH  33  34
ENDBRANCH  25  28
ENDBRANCH  23  24
ENDBRANCH   1  23
TORSDOF 12
ENDMDL
