MODEL 1
REMARK VINA RESULT:     -13.0      0.000      0.000
REMARK SMILES O=C(NCCCNC(=O)c1cc(-c2ccccn2)nc2ccc(F)cc12)c1ccc(-c2c3nc(c(-c4ccccc4)c4ccc([nH]4)c(-c4ccccc4)c4nc(c(-c5ccccc5)c5ccc2[nH]5)C=C4)C=C3)cc1
REMARK SMILES IDX 4 1 3 2 1 3 2 4 27 6 28 7 74 8 29 9 73 10 30 11 31 12 32 13
REMARK SMILES IDX 67 14 33 15 72 16 66 17 68 18 34 19 71 20 65 21 64 22 35 24
REMARK SMILES IDX 57 25 42 26 56 27 43 28 46 29 55 30 69 31 44 32 45 33 54 35
REMARK SMILES IDX 70 36 47 37 36 38 37 39 41 40 38 41 40 42 39 43 58 44 59 45
REMARK SMILES IDX 63 46 60 47 62 48 61 49 48 50 49 51 53 52 50 53 52 54 51 55
REMARK SMILES IDX 5 56 6 57 7 58 8 59 9 61 10 62 11 63 26 64 12 65 20 66 25 67
REMARK SMILES IDX 19 68 21 69 23 70 22 71 24 72 13 73 14 74 18 75 15 76 17 77
REMARK SMILES IDX 16 78
REMARK H PARENT 3 5 68 23 46 34 7 60
REMARK Flexibility Score: inf
ROOT
ATOM      1  C   UNL A   1      33.840  30.091  27.127  1.00  0.00     0.118 C 
ENDROOT
BRANCH   1   2
ATOM      2  N   UNL A   1      34.015  31.042  28.213  1.00  0.00    -0.352 N 
ATOM      3  O   UNL A   1      34.831  31.924  30.105  1.00  0.00    -0.269 OA
ATOM      4  C   UNL A   1      35.004  31.163  29.155  1.00  0.00     0.251 C 
ATOM      5  H   UNL A   1      33.299  31.716  28.284  1.00  0.00     0.163 HD
BRANCH   4   6
ATOM      6  C   UNL A   1      36.275  30.408  29.049  1.00  0.00     0.039 A 
ATOM      7  C   UNL A   1      36.776  29.779  30.196  1.00  0.00     0.014 A 
ATOM      8  C   UNL A   1      37.030  30.405  27.875  1.00  0.00     0.014 A 
ATOM      9  C   UNL A   1      38.019  29.138  30.161  1.00  0.00     0.010 A 
ATOM     10  C   UNL A   1      38.232  29.703  27.818  1.00  0.00     0.010 A 
ATOM     11  C   UNL A   1      38.755  29.093  28.969  1.00  0.00    -0.014 A 
BRANCH  11  12
ATOM     12  C   UNL A   1      40.125  28.527  28.913  1.00  0.00     0.031 A 
ATOM     13  C   UNL A   1      41.300  29.445  29.127  1.00  0.00     0.074 A 
ATOM     14  C   UNL A   1      40.327  27.230  28.618  1.00  0.00     0.049 A 
ATOM     15  N   UNL A   1      42.574  29.215  28.940  1.00  0.00    -0.248 NA
ATOM     16  C   UNL A   1      40.999  30.811  29.591  1.00  0.00     0.031 C 
ATOM     17  C   UNL A   1      39.277  26.234  28.404  1.00  0.00     0.029 A 
ATOM     18  N   UNL A   1      41.495  26.531  28.432  1.00  0.00    -0.354 N 
ATOM     19  C   UNL A   1      43.217  30.413  29.224  1.00  0.00     0.074 A 
ATOM     20  C   UNL A   1      42.198  31.376  29.570  1.00  0.00     0.031 C 
ATOM     21  C   UNL A   1      39.849  25.051  28.121  1.00  0.00     0.029 A 
ATOM     22  C   UNL A   1      41.300  25.216  28.085  1.00  0.00     0.049 A 
ATOM     23  H   UNL A   1      42.387  26.935  28.537  1.00  0.00     0.167 HD
ATOM     24  C   UNL A   1      44.542  30.682  29.210  1.00  0.00     0.031 A 
ATOM     25  C   UNL A   1      42.188  24.259  27.751  1.00  0.00     0.031 A 
ATOM     26  C   UNL A   1      45.558  29.712  28.914  1.00  0.00     0.049 A 
ATOM     27  C   UNL A   1      43.657  24.585  27.731  1.00  0.00     0.074 A 
ATOM     28  C   UNL A   1      46.931  29.883  28.915  1.00  0.00     0.029 A 
ATOM     29  N   UNL A   1      45.314  28.389  28.587  1.00  0.00    -0.354 N 
ATOM     30  N   UNL A   1      44.250  25.722  28.004  1.00  0.00    -0.248 NA
ATOM     31  C   UNL A   1      44.580  23.501  27.360  1.00  0.00     0.031 C 
ATOM     32  C   UNL A   1      47.519  28.670  28.552  1.00  0.00     0.029 A 
ATOM     33  C   UNL A   1      46.513  27.734  28.372  1.00  0.00     0.049 A 
ATOM     34  H   UNL A   1      44.423  27.977  28.516  1.00  0.00     0.167 HD
ATOM     35  C   UNL A   1      45.612  25.484  27.860  1.00  0.00     0.074 A 
ATOM     36  C   UNL A   1      45.760  24.095  27.484  1.00  0.00     0.031 C 
ATOM     37  C   UNL A   1      46.644  26.346  28.023  1.00  0.00     0.031 A 
BRANCH  24  38
ATOM     38  C   UNL A   1      44.986  32.079  29.535  1.00  0.00    -0.014 A 
ATOM     39  C   UNL A   1      45.151  33.013  28.503  1.00  0.00     0.009 A 
ATOM     40  C   UNL A   1      45.336  32.438  30.845  1.00  0.00     0.009 A 
ATOM     41  C   UNL A   1      45.674  34.279  28.771  1.00  0.00     0.001 A 
ATOM     42  C   UNL A   1      45.835  33.713  31.116  1.00  0.00     0.001 A 
ATOM     43  C   UNL A   1      46.013  34.629  30.078  1.00  0.00     0.000 A 
ENDBRANCH  24  38
BRANCH  25  44
ATOM     44  C   UNL A   1      41.706  22.898  27.399  1.00  0.00    -0.014 A 
ATOM     45  C   UNL A   1      42.170  21.771  28.097  1.00  0.00     0.009 A 
ATOM     46  C   UNL A   1      40.794  22.715  26.349  1.00  0.00     0.009 A 
ATOM     47  C   UNL A   1      41.742  20.490  27.743  1.00  0.00     0.001 A 
ATOM     48  C   UNL A   1      40.347  21.434  26.014  1.00  0.00     0.001 A 
ATOM     49  C   UNL A   1      40.826  20.323  26.705  1.00  0.00     0.000 A 
ENDBRANCH  25  44
BRANCH  37  50
ATOM     50  C   UNL A   1      48.040  25.829  27.835  1.00  0.00    -0.014 A 
ATOM     51  C   UNL A   1      48.783  25.423  28.954  1.00  0.00     0.009 A 
ATOM     52  C   UNL A   1      48.667  25.893  26.582  1.00  0.00     0.009 A 
ATOM     53  C   UNL A   1      50.138  25.115  28.828  1.00  0.00     0.001 A 
ATOM     54  C   UNL A   1      50.017  25.563  26.456  1.00  0.00     0.001 A 
ATOM     55  C   UNL A   1      50.754  25.187  27.580  1.00  0.00     0.000 A 
ENDBRANCH  37  50
ENDBRANCH  11  12
ENDBRANCH   4   6
ENDBRANCH   1   2
BRANCH   1  56
ATOM     56  C   UNL A   1      32.737  29.078  27.406  1.00  0.00     0.042 C 
BRANCH  56  57
ATOM     57  C   UNL A   1      32.955  27.712  26.771  1.00  0.00     0.118 C 
BRANCH  57  58
ATOM     58  N   UNL A   1      31.808  26.824  26.923  1.00  0.00    -0.352 N 
ATOM     59  C   UNL A   1      30.829  26.479  26.025  1.00  0.00     0.252 C 
ATOM     60  H   UNL A   1      31.722  26.406  27.811  1.00  0.00     0.163 HD
ATOM     61  O   UNL A   1      29.897  25.762  26.384  1.00  0.00    -0.269 OA
BRANCH  59  62
ATOM     62  C   UNL A   1      30.910  26.944  24.625  1.00  0.00     0.051 A 
ATOM     63  C   UNL A   1      30.347  28.184  24.335  1.00  0.00     0.045 A 
ATOM     64  C   UNL A   1      31.535  26.181  23.615  1.00  0.00     0.016 A 
ATOM     65  C   UNL A   1      30.285  28.594  23.016  1.00  0.00     0.090 A 
ATOM     66  C   UNL A   1      31.477  26.717  22.310  1.00  0.00     0.072 A 
ATOM     67  C   UNL A   1      32.192  24.942  23.821  1.00  0.00     0.050 A 
ATOM     68  N   UNL A   1      30.853  27.871  22.020  1.00  0.00    -0.246 NA
ATOM     69  C   UNL A   1      32.077  26.016  21.271  1.00  0.00     0.032 A 
ATOM     70  C   UNL A   1      32.789  24.277  22.759  1.00  0.00     0.123 A 
ATOM     71  C   UNL A   1      32.739  24.804  21.481  1.00  0.00     0.041 A 
ATOM     72  F   UNL A   1      33.420  23.115  22.973  1.00  0.00    -0.207 F 
BRANCH  65  73
ATOM     73  C   UNL A   1      29.511  29.791  22.649  1.00  0.00     0.089 A 
ATOM     74  C   UNL A   1      29.045  30.688  23.611  1.00  0.00     0.030 A 
ATOM     75  N   UNL A   1      29.155  29.894  21.341  1.00  0.00    -0.255 NA
ATOM     76  C   UNL A   1      28.190  31.716  23.225  1.00  0.00     0.004 A 
ATOM     77  C   UNL A   1      28.335  30.909  20.992  1.00  0.00     0.112 A 
ATOM     78  C   UNL A   1      27.825  31.830  21.889  1.00  0.00     0.020 A 
ENDBRANCH  65  73
ENDBRANCH  59  62
ENDBRANCH  57  58
ENDBRANCH  56  57
ENDBRANCH   1  56
TORSDOF 11
ENDMDL
MODEL 2
REMARK VINA RESULT:     -12.8      3.875      8.832
REMARK SMILES O=C(NCCCNC(=O)c1cc(-c2ccccn2)nc2ccc(F)cc12)c1ccc(-c2c3nc(c(-c4ccccc4)c4ccc([nH]4)c(-c4ccccc4)c4nc(c(-c5ccccc5)c5ccc2[nH]5)C=C4)C=C3)cc1
REMARK SMILES IDX 4 1 3 2 1 3 2 4 27 6 28 7 74 8 29 9 73 10 30 11 31 12 32 13
REMARK SMILES IDX 67 14 33 15 72 16 66 17 68 18 34 19 71 20 65 21 64 22 35 24
REMARK SMILES IDX 57 25 42 26 56 27 43 28 46 29 55 30 69 31 44 32 45 33 54 35
REMARK SMILES IDX 70 36 47 37 36 38 37 39 41 40 38 41 40 42 39 43 58 44 59 45
REMARK SMILES IDX 63 46 60 47 62 48 61 49 48 50 49 51 53 52 50 53 52 54 51 55
REMARK SMILES IDX 5 56 6 57 7 58 8 59 9 61 10 62 11 63 26 64 12 65 20 66 25 67
REMARK SMILES IDX 19 68 21 69 23 70 22 71 24 72 13 73 14 74 18 75 15 76 17 77
REMARK SMILES IDX 16 78
REMARK H PARENT 3 5 68 23 46 34 7 60
REMARK Flexibility Score: inf
ROOT
ATOM      1  C   UNL A   1      39.050  19.572  26.074  1.00  0.00     0.118 C 
ENDROOT
BRANCH   1   2
ATOM      2  N   UNL A   1      40.383  19.039  25.839  1.00  0.00    -0.352 N 
ATOM      3  O   UNL A   1      42.593  19.034  25.467  1.00  0.00    -0.269 OA
ATOM      4  C   UNL A   1      41.616  19.634  25.912  1.00  0.00     0.251 C 
ATOM      5  H   UNL A   1      40.403  18.088  25.585  1.00  0.00     0.163 HD
BRANCH   4   6
ATOM      6  C   UNL A   1      41.800  20.973  26.519  1.00  0.00     0.039 A 
ATOM      7  C   UNL A   1      42.086  22.055  25.677  1.00  0.00     0.014 A 
ATOM      8  C   UNL A   1      41.807  21.155  27.903  1.00  0.00     0.014 A 
ATOM      9  C   UNL A   1      42.360  23.316  26.220  1.00  0.00     0.010 A 
ATOM     10  C   UNL A   1      42.005  22.425  28.441  1.00  0.00     0.010 A 
ATOM     11  C   UNL A   1      42.319  23.509  27.607  1.00  0.00    -0.014 A 
BRANCH  11  12
ATOM     12  C   UNL A   1      42.715  24.795  28.232  1.00  0.00     0.031 A 
ATOM     13  C   UNL A   1      41.659  25.842  28.475  1.00  0.00     0.074 A 
ATOM     14  C   UNL A   1      44.002  25.054  28.527  1.00  0.00     0.049 A 
ATOM     15  N   UNL A   1      41.802  27.093  28.828  1.00  0.00    -0.248 NA
ATOM     16  C   UNL A   1      40.259  25.433  28.267  1.00  0.00     0.031 C 
ATOM     17  C   UNL A   1      45.117  24.122  28.356  1.00  0.00     0.029 A 
ATOM     18  N   UNL A   1      44.591  26.193  29.020  1.00  0.00    -0.354 N 
ATOM     19  C   UNL A   1      40.519  27.625  28.847  1.00  0.00     0.074 A 
ATOM     20  C   UNL A   1      39.612  26.576  28.445  1.00  0.00     0.031 C 
ATOM     21  C   UNL A   1      46.254  24.725  28.743  1.00  0.00     0.029 A 
ATOM     22  C   UNL A   1      45.956  26.099  29.141  1.00  0.00     0.049 A 
ATOM     23  H   UNL A   1      44.082  27.000  29.262  1.00  0.00     0.167 HD
ATOM     24  C   UNL A   1      40.131  28.876  29.184  1.00  0.00     0.031 A 
ATOM     25  C   UNL A   1      46.868  27.022  29.508  1.00  0.00     0.031 A 
ATOM     26  C   UNL A   1      41.026  29.905  29.632  1.00  0.00     0.049 A 
ATOM     27  C   UNL A   1      46.412  28.411  29.867  1.00  0.00     0.074 A 
ATOM     28  C   UNL A   1      40.718  31.192  30.033  1.00  0.00     0.029 A 
ATOM     29  N   UNL A   1      42.397  29.758  29.756  1.00  0.00    -0.354 N 
ATOM     30  N   UNL A   1      45.196  28.899  29.882  1.00  0.00    -0.248 NA
ATOM     31  C   UNL A   1      47.451  29.376  30.259  1.00  0.00     0.031 C 
ATOM     32  C   UNL A   1      41.909  31.838  30.367  1.00  0.00     0.029 A 
ATOM     33  C   UNL A   1      42.951  30.937  30.219  1.00  0.00     0.049 A 
ATOM     34  H   UNL A   1      42.901  28.939  29.546  1.00  0.00     0.167 HD
ATOM     35  C   UNL A   1      45.319  30.216  30.306  1.00  0.00     0.074 A 
ATOM     36  C   UNL A   1      46.727  30.452  30.546  1.00  0.00     0.031 C 
ATOM     37  C   UNL A   1      44.350  31.146  30.476  1.00  0.00     0.031 A 
BRANCH  24  38
ATOM     38  C   UNL A   1      38.670  29.212  29.097  1.00  0.00    -0.014 A 
ATOM     39  C   UNL A   1      38.146  29.733  27.905  1.00  0.00     0.009 A 
ATOM     40  C   UNL A   1      37.838  29.110  30.222  1.00  0.00     0.009 A 
ATOM     41  C   UNL A   1      36.820  30.160  27.842  1.00  0.00     0.001 A 
ATOM     42  C   UNL A   1      36.504  29.515  30.150  1.00  0.00     0.001 A 
ATOM     43  C   UNL A   1      35.999  30.049  28.964  1.00  0.00     0.000 A 
ENDBRANCH  24  38
BRANCH  25  44
ATOM     44  C   UNL A   1      48.308  26.660  29.545  1.00  0.00    -0.014 A 
ATOM     45  C   UNL A   1      49.130  26.875  28.427  1.00  0.00     0.009 A 
ATOM     46  C   UNL A   1      48.866  26.078  30.693  1.00  0.00     0.009 A 
ATOM     47  C   UNL A   1      50.475  26.503  28.453  1.00  0.00     0.001 A 
ATOM     48  C   UNL A   1      50.220  25.730  30.725  1.00  0.00     0.001 A 
ATOM     49  C   UNL A   1      51.021  25.936  29.604  1.00  0.00     0.000 A 
ENDBRANCH  25  44
BRANCH  37  50
ATOM     50  C   UNL A   1      44.746  32.504  30.977  1.00  0.00    -0.014 A 
ATOM     51  C   UNL A   1      44.702  32.772  32.355  1.00  0.00     0.009 A 
ATOM     52  C   UNL A   1      45.004  33.553  30.083  1.00  0.00     0.009 A 
ATOM     53  C   UNL A   1      44.886  34.072  32.827  1.00  0.00     0.001 A 
ATOM     54  C   UNL A   1      45.209  34.848  30.561  1.00  0.00     0.001 A 
ATOM     55  C   UNL A   1      45.137  35.108  31.930  1.00  0.00     0.000 A 
ENDBRANCH  37  50
ENDBRANCH  11  12
ENDBRANCH   4   6
ENDBRANCH   1   2
BRANCH   1  56
ATOM     56  C   UNL A   1      38.566  20.465  24.940  1.00  0.00     0.042 C 
BRANCH  56  57
ATOM     57  C   UNL A   1      37.960  21.786  25.387  1.00  0.00     0.118 C 
BRANCH  57  58
ATOM     58  N   UNL A   1      37.422  22.570  24.280  1.00  0.00    -0.352 N 
ATOM     59  C   UNL A   1      36.130  22.708  23.837  1.00  0.00     0.252 C 
ATOM     60  H   UNL A   1      38.091  23.082  23.771  1.00  0.00     0.163 HD
ATOM     61  O   UNL A   1      35.899  23.368  22.825  1.00  0.00    -0.269 OA
BRANCH  59  62
ATOM     62  C   UNL A   1      35.018  22.087  24.587  1.00  0.00     0.051 A 
ATOM     63  C   UNL A   1      34.966  20.696  24.608  1.00  0.00     0.045 A 
ATOM     64  C   UNL A   1      34.048  22.857  25.265  1.00  0.00     0.016 A 
ATOM     65  C   UNL A   1      33.871  20.081  25.186  1.00  0.00     0.090 A 
ATOM     66  C   UNL A   1      33.005  22.132  25.881  1.00  0.00     0.072 A 
ATOM     67  C   UNL A   1      34.052  24.271  25.358  1.00  0.00     0.050 A 
ATOM     68  N   UNL A   1      32.909  20.794  25.822  1.00  0.00    -0.246 NA
ATOM     69  C   UNL A   1      32.020  22.831  26.569  1.00  0.00     0.032 A 
ATOM     70  C   UNL A   1      33.056  24.933  26.063  1.00  0.00     0.123 A 
ATOM     71  C   UNL A   1      32.036  24.224  26.673  1.00  0.00     0.041 A 
ATOM     72  F   UNL A   1      33.082  26.269  26.154  1.00  0.00    -0.207 F 
BRANCH  65  73
ATOM     73  C   UNL A   1      33.675  18.629  25.039  1.00  0.00     0.089 A 
ATOM     74  C   UNL A   1      34.458  17.867  24.172  1.00  0.00     0.030 A 
ATOM     75  N   UNL A   1      32.601  18.103  25.685  1.00  0.00    -0.255 NA
ATOM     76  C   UNL A   1      34.131  16.531  23.957  1.00  0.00     0.004 A 
ATOM     77  C   UNL A   1      32.314  16.801  25.468  1.00  0.00     0.112 A 
ATOM     78  C   UNL A   1      33.036  15.985  24.616  1.00  0.00     0.020 A 
ENDBRANCH  65  73
ENDBRANCH  59  62
ENDBRANCH  57  58
ENDBRANCH  56  57
ENDBRANCH   1  56
TORSDOF 11
ENDMDL
MODEL 3
REMARK VINA RESULT:     -12.8      4.533      8.024
REMARK SMILES O=C(NCCCNC(=O)c1cc(-c2ccccn2)nc2ccc(F)cc12)c1ccc(-c2c3nc(c(-c4ccccc4)c4ccc([nH]4)c(-c4ccccc4)c4nc(c(-c5ccccc5)c5ccc2[nH]5)C=C4)C=C3)cc1
REMARK SMILES IDX 4 1 3 2 1 3 2 4 27 6 28 7 74 8 29 9 73 10 30 11 31 12 32 13
REMARK SMILES IDX 67 14 33 15 72 16 66 17 68 18 34 19 71 20 65 21 64 22 35 24
REMARK SMILES IDX 57 25 42 26 56 27 43 28 46 29 55 30 69 31 44 32 45 33 54 35
REMARK SMILES IDX 70 36 47 37 36 38 37 39 41 40 38 41 40 42 39 43 58 44 59 45
REMARK SMILES IDX 63 46 60 47 62 48 61 49 48 50 49 51 53 52 50 53 52 54 51 55
REMARK SMILES IDX 5 56 6 57 7 58 8 59 9 61 10 62 11 63 26 64 12 65 20 66 25 67
REMARK SMILES IDX 19 68 21 69 23 70 22 71 24 72 13 73 14 74 18 75 15 76 17 77
REMARK SMILES IDX 16 78
REMARK H PARENT 3 5 68 23 46 34 7 60
REMARK Flexibility Score: inf
ROOT
ATOM      1  C   UNL A   1      32.608  31.883  27.506  1.00  0.00     0.118 C 
ENDROOT
BRANCH   1   2
ATOM      2  N   UNL A   1      32.479  33.331  27.570  1.00  0.00    -0.352 N 
ATOM      3  O   UNL A   1      32.682  35.410  28.380  1.00  0.00    -0.269 OA
ATOM      4  C   UNL A   1      33.106  34.256  28.363  1.00  0.00     0.251 C 
ATOM      5  H   UNL A   1      31.830  33.711  26.934  1.00  0.00     0.163 HD
BRANCH   4   6
ATOM      6  C   UNL A   1      34.283  33.903  29.191  1.00  0.00     0.039 A 
ATOM      7  C   UNL A   1      35.558  34.240  28.719  1.00  0.00     0.014 A 
ATOM      8  C   UNL A   1      34.158  33.150  30.360  1.00  0.00     0.014 A 
ATOM      9  C   UNL A   1      36.698  33.840  29.424  1.00  0.00     0.010 A 
ATOM     10  C   UNL A   1      35.288  32.816  31.102  1.00  0.00     0.010 A 
ATOM     11  C   UNL A   1      36.570  33.126  30.623  1.00  0.00    -0.014 A 
BRANCH  11  12
ATOM     12  C   UNL A   1      37.748  32.582  31.342  1.00  0.00     0.031 A 
ATOM     13  C   UNL A   1      38.453  31.377  30.776  1.00  0.00     0.074 A 
ATOM     14  C   UNL A   1      38.152  33.112  32.512  1.00  0.00     0.049 A 
ATOM     15  N   UNL A   1      39.373  30.625  31.322  1.00  0.00    -0.248 NA
ATOM     16  C   UNL A   1      38.050  30.947  29.425  1.00  0.00     0.031 C 
ATOM     17  C   UNL A   1      37.567  34.286  33.159  1.00  0.00     0.029 A 
ATOM     18  N   UNL A   1      39.146  32.715  33.372  1.00  0.00    -0.354 N 
ATOM     19  C   UNL A   1      39.628  29.617  30.402  1.00  0.00     0.074 A 
ATOM     20  C   UNL A   1      38.752  29.832  29.274  1.00  0.00     0.031 C 
ATOM     21  C   UNL A   1      38.216  34.518  34.313  1.00  0.00     0.029 A 
ATOM     22  C   UNL A   1      39.228  33.482  34.509  1.00  0.00     0.049 A 
ATOM     23  H   UNL A   1      39.743  31.953  33.191  1.00  0.00     0.167 HD
ATOM     24  C   UNL A   1      40.525  28.608  30.484  1.00  0.00     0.031 A 
ATOM     25  C   UNL A   1      40.012  33.351  35.599  1.00  0.00     0.031 A 
ATOM     26  C   UNL A   1      41.431  28.422  31.582  1.00  0.00     0.049 A 
ATOM     27  C   UNL A   1      40.994  32.214  35.672  1.00  0.00     0.074 A 
ATOM     28  C   UNL A   1      42.403  27.450  31.734  1.00  0.00     0.029 A 
ATOM     29  N   UNL A   1      41.490  29.234  32.701  1.00  0.00    -0.354 N 
ATOM     30  N   UNL A   1      41.225  31.270  34.792  1.00  0.00    -0.248 NA
ATOM     31  C   UNL A   1      41.823  32.121  36.884  1.00  0.00     0.031 C 
ATOM     32  C   UNL A   1      43.028  27.652  32.966  1.00  0.00     0.029 A 
ATOM     33  C   UNL A   1      42.476  28.778  33.555  1.00  0.00     0.049 A 
ATOM     34  H   UNL A   1      40.915  30.017  32.865  1.00  0.00     0.167 HD
ATOM     35  C   UNL A   1      42.239  30.487  35.332  1.00  0.00     0.074 A 
ATOM     36  C   UNL A   1      42.585  31.069  36.611  1.00  0.00     0.031 C 
ATOM     37  C   UNL A   1      42.825  29.383  34.812  1.00  0.00     0.031 A 
BRANCH  24  38
ATOM     38  C   UNL A   1      40.590  27.623  29.352  1.00  0.00    -0.014 A 
ATOM     39  C   UNL A   1      41.490  27.835  28.297  1.00  0.00     0.009 A 
ATOM     40  C   UNL A   1      39.693  26.547  29.281  1.00  0.00     0.009 A 
ATOM     41  C   UNL A   1      41.482  26.996  27.182  1.00  0.00     0.001 A 
ATOM     42  C   UNL A   1      39.705  25.693  28.176  1.00  0.00     0.001 A 
ATOM     43  C   UNL A   1      40.591  25.924  27.123  1.00  0.00     0.000 A 
ENDBRANCH  24  38
BRANCH  25  44
ATOM     44  C   UNL A   1      39.891  34.326  36.714  1.00  0.00    -0.014 A 
ATOM     45  C   UNL A   1      39.040  34.069  37.801  1.00  0.00     0.009 A 
ATOM     46  C   UNL A   1      40.611  35.530  36.688  1.00  0.00     0.009 A 
ATOM     47  C   UNL A   1      38.902  35.001  38.830  1.00  0.00     0.001 A 
ATOM     48  C   UNL A   1      40.491  36.449  37.734  1.00  0.00     0.001 A 
ATOM     49  C   UNL A   1      39.632  36.188  38.800  1.00  0.00     0.000 A 
ENDBRANCH  25  44
BRANCH  37  50
ATOM     50  C   UNL A   1      43.930  28.729  35.590  1.00  0.00    -0.014 A 
ATOM     51  C   UNL A   1      45.263  29.068  35.313  1.00  0.00     0.009 A 
ATOM     52  C   UNL A   1      43.660  27.675  36.473  1.00  0.00     0.009 A 
ATOM     53  C   UNL A   1      46.309  28.346  35.888  1.00  0.00     0.001 A 
ATOM     54  C   UNL A   1      44.709  26.968  37.063  1.00  0.00     0.001 A 
ATOM     55  C   UNL A   1      46.031  27.296  36.760  1.00  0.00     0.000 A 
ENDBRANCH  37  50
ENDBRANCH  11  12
ENDBRANCH   4   6
ENDBRANCH   1   2
BRANCH   1  56
ATOM     56  C   UNL A   1      34.040  31.432  27.252  1.00  0.00     0.042 C 
BRANCH  56  57
ATOM     57  C   UNL A   1      34.193  29.948  26.950  1.00  0.00     0.118 C 
BRANCH  57  58
ATOM     58  N   UNL A   1      33.194  29.124  27.621  1.00  0.00    -0.352 N 
ATOM     59  C   UNL A   1      32.135  28.418  27.106  1.00  0.00     0.252 C 
ATOM     60  H   UNL A   1      33.295  29.064  28.599  1.00  0.00     0.163 HD
ATOM     61  O   UNL A   1      31.360  27.841  27.865  1.00  0.00    -0.269 OA
BRANCH  59  62
ATOM     62  C   UNL A   1      31.946  28.329  25.643  1.00  0.00     0.051 A 
ATOM     63  C   UNL A   1      31.133  29.291  25.050  1.00  0.00     0.045 A 
ATOM     64  C   UNL A   1      32.561  27.323  24.866  1.00  0.00     0.016 A 
ATOM     65  C   UNL A   1      30.825  29.164  23.708  1.00  0.00     0.090 A 
ATOM     66  C   UNL A   1      32.235  27.318  23.493  1.00  0.00     0.072 A 
ATOM     67  C   UNL A   1      33.454  26.343  25.365  1.00  0.00     0.050 A 
ATOM     68  N   UNL A   1      31.379  28.194  22.940  1.00  0.00    -0.246 NA
ATOM     69  C   UNL A   1      32.811  26.356  22.671  1.00  0.00     0.032 A 
ATOM     70  C   UNL A   1      34.017  25.404  24.510  1.00  0.00     0.123 A 
ATOM     71  C   UNL A   1      33.704  25.402  23.163  1.00  0.00     0.041 A 
ATOM     72  F   UNL A   1      34.871  24.493  24.995  1.00  0.00    -0.207 F 
BRANCH  65  73
ATOM     73  C   UNL A   1      29.804  30.033  23.098  1.00  0.00     0.089 A 
ATOM     74  C   UNL A   1      29.099  30.975  23.847  1.00  0.00     0.030 A 
ATOM     75  N   UNL A   1      29.489  29.765  21.803  1.00  0.00    -0.255 NA
ATOM     76  C   UNL A   1      28.040  31.659  23.256  1.00  0.00     0.004 A 
ATOM     77  C   UNL A   1      28.467  30.454  21.251  1.00  0.00     0.112 A 
ATOM     78  C   UNL A   1      27.715  31.394  21.932  1.00  0.00     0.020 A 
ENDBRANCH  65  73
ENDBRANCH  59  62
ENDBRANCH  57  58
ENDBRANCH  56  57
ENDBRANCH   1  56
TORSDOF 11
ENDMDL
