MODEL 1
REMARK VINA RESULT:     -11.3      0.000      0.000
REMARK SMILES CCc1c(C)nn(CC(=O)N[C@H](C(=O)NCCCNC(=O)c2ccc(-c3c4nc(c(-c5ccccc5)c5ccc([nH]5)c(-c5ccccc5)c5nc(c(-c6ccccc6)c6ccc3[nH]6)C=C5)C=C4)cc2)c2c(C)n[nH]c2C)c1C
REMARK SMILES IDX 16 1 15 2 13 3 14 4 12 6 11 7 9 8 10 9 8 11 7 12 3 13 4 14
REMARK SMILES IDX 77 15 5 16 6 17 78 18 2 19 1 20 70 21 71 22 75 23 72 24
REMARK SMILES IDX 73 25 74 26 76 27 17 29 18 30 19 31 20 32 21 34 22 35 23 36
REMARK SMILES IDX 69 37 24 38 68 39 25 40 26 41 27 42 62 43 28 44 67 45 61 46
REMARK SMILES IDX 63 47 29 48 66 49 60 50 59 51 30 53 52 54 37 55 51 56 38 57
REMARK SMILES IDX 41 58 50 59 64 60 39 61 40 62 49 64 65 65 42 66 31 67 32 68
REMARK SMILES IDX 36 69 33 70 35 71 34 72 53 73 54 74 58 75 55 76 57 77 56 78
REMARK SMILES IDX 43 79 44 80 48 81 45 82 47 83 46 84
REMARK H PARENT 15 5 11 10 74 28 19 33 63 52 41 63
REMARK Flexibility Score: inf
ROOT
ATOM      1  C   UNL A   1      36.341  21.653  24.743  1.00  0.00     0.117 C 
ENDROOT
BRANCH   1   2
ATOM      2  N   UNL A   1      35.642  21.965  25.967  1.00  0.00    -0.354 N 
ATOM      3  C   UNL A   1      34.720  22.909  26.292  1.00  0.00     0.247 C 
ATOM      4  O   UNL A   1      34.394  22.874  27.491  1.00  0.00    -0.272 OA
ATOM      5  H   UNL A   1      35.881  21.376  26.718  1.00  0.00     0.163 HD
BRANCH   3   6
ATOM      6  C   UNL A   1      33.959  23.850  25.292  1.00  0.00     0.206 C 
BRANCH   6   7
ATOM      7  N   UNL A   1      33.322  22.977  24.291  1.00  0.00    -0.339 N 
ATOM      8  C   UNL A   1      32.852  23.131  23.032  1.00  0.00     0.242 C 
ATOM      9  O   UNL A   1      32.483  22.084  22.479  1.00  0.00    -0.273 OA
ATOM     10  H   UNL A   1      33.210  22.056  24.619  1.00  0.00     0.164 HD
BRANCH   8  11
ATOM     11  C   UNL A   1      32.889  24.417  22.257  1.00  0.00     0.244 C 
BRANCH  11  12
ATOM     12  N   UNL A   1      32.045  25.468  22.783  1.00  0.00    -0.260 N 
ATOM     13  C   UNL A   1      31.106  27.426  23.182  1.00  0.00    -0.004 A 
ATOM     14  C   UNL A   1      30.218  26.334  23.422  1.00  0.00     0.063 A 
ATOM     15  C   UNL A   1      32.287  26.822  22.770  1.00  0.00     0.039 A 
ATOM     16  C   UNL A   1      28.797  26.341  23.856  1.00  0.00     0.069 C 
ATOM     17  N   UNL A   1      30.805  25.158  23.190  1.00  0.00    -0.177 NA
ATOM     18  C   UNL A   1      33.584  27.392  22.321  1.00  0.00     0.066 C 
BRANCH  13  19
ATOM     19  C   UNL A   1      30.802  28.882  23.359  1.00  0.00     0.036 C 
ATOM     20  C   UNL A   1      31.304  29.495  24.657  1.00  0.00     0.009 C 
ENDBRANCH  13  19
ENDBRANCH  11  12
ENDBRANCH   8  11
ENDBRANCH   6   7
BRANCH   6  21
ATOM     21  C   UNL A   1      32.860  24.731  25.891  1.00  0.00     0.027 A 
ATOM     22  C   UNL A   1      31.577  24.299  26.395  1.00  0.00     0.065 A 
ATOM     23  C   UNL A   1      32.856  26.098  26.196  1.00  0.00     0.038 A 
ATOM     24  C   UNL A   1      30.965  22.940  26.463  1.00  0.00     0.069 C 
ATOM     25  N   UNL A   1      30.822  25.322  26.803  1.00  0.00    -0.180 NA
ATOM     26  N   UNL A   1      31.617  26.382  26.697  1.00  0.00    -0.282 N 
ATOM     27  C   UNL A   1      33.871  27.185  26.145  1.00  0.00     0.066 C 
ATOM     28  H   UNL A   1      31.339  27.290  26.955  1.00  0.00     0.190 HD
ENDBRANCH   6  21
ENDBRANCH   3   6
ENDBRANCH   1   2
BRANCH   1  29
ATOM     29  C   UNL A   1      37.303  20.487  24.918  1.00  0.00     0.042 C 
BRANCH  29  30
ATOM     30  C   UNL A   1      38.593  20.909  25.609  1.00  0.00     0.118 C 
BRANCH  30  31
ATOM     31  N   UNL A   1      39.581  19.834  25.647  1.00  0.00    -0.352 N 
ATOM     32  C   UNL A   1      40.912  19.868  25.987  1.00  0.00     0.251 C 
ATOM     33  H   UNL A   1      39.241  18.946  25.389  1.00  0.00     0.163 HD
ATOM     34  O   UNL A   1      41.624  18.888  25.785  1.00  0.00    -0.269 OA
BRANCH  32  35
ATOM     35  C   UNL A   1      41.486  21.094  26.571  1.00  0.00     0.039 A 
ATOM     36  C   UNL A   1      41.995  22.083  25.724  1.00  0.00     0.014 A 
ATOM     37  C   UNL A   1      41.498  21.276  27.955  1.00  0.00     0.014 A 
ATOM     38  C   UNL A   1      42.441  23.289  26.267  1.00  0.00     0.010 A 
ATOM     39  C   UNL A   1      41.837  22.512  28.481  1.00  0.00     0.010 A 
ATOM     40  C   UNL A   1      42.320  23.530  27.645  1.00  0.00    -0.014 A 
BRANCH  40  41
ATOM     41  C   UNL A   1      42.702  24.829  28.251  1.00  0.00     0.031 A 
ATOM     42  C   UNL A   1      41.659  25.893  28.449  1.00  0.00     0.074 A 
ATOM     43  C   UNL A   1      43.994  25.081  28.534  1.00  0.00     0.049 A 
ATOM     44  N   UNL A   1      41.804  27.130  28.850  1.00  0.00    -0.248 NA
ATOM     45  C   UNL A   1      40.269  25.532  28.113  1.00  0.00     0.031 C 
ATOM     46  C   UNL A   1      45.107  24.147  28.346  1.00  0.00     0.029 A 
ATOM     47  N   UNL A   1      44.593  26.210  29.034  1.00  0.00    -0.354 N 
ATOM     48  C   UNL A   1      40.537  27.696  28.787  1.00  0.00     0.074 A 
ATOM     49  C   UNL A   1      39.648  26.692  28.250  1.00  0.00     0.031 C 
ATOM     50  C   UNL A   1      46.245  24.726  28.760  1.00  0.00     0.029 A 
ATOM     51  C   UNL A   1      45.952  26.088  29.193  1.00  0.00     0.049 A 
ATOM     52  H   UNL A   1      44.096  27.029  29.258  1.00  0.00     0.167 HD
ATOM     53  C   UNL A   1      40.142  28.934  29.167  1.00  0.00     0.031 A 
ATOM     54  C   UNL A   1      46.861  26.978  29.633  1.00  0.00     0.031 A 
ATOM     55  C   UNL A   1      41.026  29.923  29.720  1.00  0.00     0.049 A 
ATOM     56  C   UNL A   1      46.401  28.350  30.038  1.00  0.00     0.074 A 
ATOM     57  C   UNL A   1      40.720  31.187  30.190  1.00  0.00     0.029 A 
ATOM     58  N   UNL A   1      42.393  29.755  29.878  1.00  0.00    -0.354 N 
ATOM     59  N   UNL A   1      45.188  28.851  30.032  1.00  0.00    -0.248 NA
ATOM     60  C   UNL A   1      47.433  29.277  30.521  1.00  0.00     0.031 C 
ATOM     61  C   UNL A   1      41.912  31.804  30.585  1.00  0.00     0.029 A 
ATOM     62  C   UNL A   1      42.949  30.900  30.419  1.00  0.00     0.049 A 
ATOM     63  H   UNL A   1      42.894  28.942  29.640  1.00  0.00     0.167 HD
ATOM     64  C   UNL A   1      45.307  30.138  30.540  1.00  0.00     0.074 A 
ATOM     65  C   UNL A   1      46.707  30.334  30.857  1.00  0.00     0.031 C 
ATOM     66  C   UNL A   1      44.345  31.073  30.731  1.00  0.00     0.031 A 
BRANCH  53  67
ATOM     67  C   UNL A   1      38.688  29.278  28.994  1.00  0.00    -0.014 A 
ATOM     68  C   UNL A   1      38.183  29.711  27.756  1.00  0.00     0.009 A 
ATOM     69  C   UNL A   1      37.805  29.153  30.078  1.00  0.00     0.009 A 
ATOM     70  C   UNL A   1      36.837  30.056  27.621  1.00  0.00     0.001 A 
ATOM     71  C   UNL A   1      36.452  29.465  29.931  1.00  0.00     0.001 A 
ATOM     72  C   UNL A   1      35.972  29.928  28.707  1.00  0.00     0.000 A 
ENDBRANCH  53  67
BRANCH  54  73
ATOM     73  C   UNL A   1      48.295  26.594  29.737  1.00  0.00    -0.014 A 
ATOM     74  C   UNL A   1      49.175  26.850  28.675  1.00  0.00     0.009 A 
ATOM     75  C   UNL A   1      48.789  25.968  30.892  1.00  0.00     0.009 A 
ATOM     76  C   UNL A   1      50.514  26.460  28.754  1.00  0.00     0.001 A 
ATOM     77  C   UNL A   1      50.135  25.607  30.981  1.00  0.00     0.001 A 
ATOM     78  C   UNL A   1      50.994  25.843  29.908  1.00  0.00     0.000 A 
ENDBRANCH  54  73
BRANCH  66  79
ATOM     79  C   UNL A   1      44.765  32.375  31.352  1.00  0.00    -0.014 A 
ATOM     80  C   UNL A   1      45.151  33.471  30.564  1.00  0.00     0.009 A 
ATOM     81  C   UNL A   1      44.728  32.518  32.748  1.00  0.00     0.009 A 
ATOM     82  C   UNL A   1      45.524  34.674  31.167  1.00  0.00     0.001 A 
ATOM     83  C   UNL A   1      45.071  33.731  33.345  1.00  0.00     0.001 A 
ATOM     84  C   UNL A   1      45.478  34.804  32.555  1.00  0.00     0.000 A 
ENDBRANCH  66  79
ENDBRANCH  40  41
ENDBRANCH  32  35
ENDBRANCH  30  31
ENDBRANCH  29  30
ENDBRANCH   1  29
TORSDOF 15
ENDMDL
MODEL 2
REMARK VINA RESULT:     -11.2      3.433      8.593
REMARK SMILES CCc1c(C)nn(CC(=O)N[C@H](C(=O)NCCCNC(=O)c2ccc(-c3c4nc(c(-c5ccccc5)c5ccc([nH]5)c(-c5ccccc5)c5nc(c(-c6ccccc6)c6ccc3[nH]6)C=C5)C=C4)cc2)c2c(C)n[nH]c2C)c1C
REMARK SMILES IDX 16 1 15 2 13 3 14 4 12 6 11 7 9 8 10 9 8 11 7 12 3 13 4 14
REMARK SMILES IDX 77 15 5 16 6 17 78 18 2 19 1 20 70 21 71 22 75 23 72 24
REMARK SMILES IDX 73 25 74 26 76 27 17 29 18 30 19 31 20 32 21 34 22 35 23 36
REMARK SMILES IDX 69 37 24 38 68 39 25 40 26 41 27 42 62 43 28 44 67 45 61 46
REMARK SMILES IDX 63 47 29 48 66 49 60 50 59 51 30 53 52 54 37 55 51 56 38 57
REMARK SMILES IDX 41 58 50 59 64 60 39 61 40 62 49 64 65 65 42 66 31 67 32 68
REMARK SMILES IDX 36 69 33 70 35 71 34 72 53 73 54 74 58 75 55 76 57 77 56 78
REMARK SMILES IDX 43 79 44 80 48 81 45 82 47 83 46 84
REMARK H PARENT 15 5 11 10 74 28 19 33 63 52 41 63
REMARK Flexibility Score: inf
ROOT
ATOM      1  C   UNL A   1      31.681  30.425  26.039  1.00  0.00     0.117 C 
ENDROOT
BRANCH   1   2
ATOM      2  N   UNL A   1      31.018  30.145  24.787  1.00  0.00    -0.354 N 
ATOM      3  C   UNL A   1      31.046  29.081  23.944  1.00  0.00     0.247 C 
ATOM      4  O   UNL A   1      30.354  29.254  22.925  1.00  0.00    -0.272 OA
ATOM      5  H   UNL A   1      30.427  30.871  24.483  1.00  0.00     0.163 HD
BRANCH   3   6
ATOM      6  C   UNL A   1      31.694  27.681  24.231  1.00  0.00     0.206 C 
BRANCH   6   7
ATOM      7  N   UNL A   1      30.701  26.902  24.991  1.00  0.00    -0.339 N 
ATOM      8  C   UNL A   1      30.745  25.967  25.968  1.00  0.00     0.242 C 
ATOM      9  O   UNL A   1      29.642  25.638  26.427  1.00  0.00    -0.273 OA
ATOM     10  H   UNL A   1      29.778  27.114  24.722  1.00  0.00     0.164 HD
BRANCH   8  11
ATOM     11  C   UNL A   1      32.006  25.444  26.593  1.00  0.00     0.244 C 
BRANCH  11  12
ATOM     12  N   UNL A   1      32.675  24.406  25.837  1.00  0.00    -0.260 N 
ATOM     13  C   UNL A   1      33.101  22.585  24.664  1.00  0.00    -0.004 A 
ATOM     14  C   UNL A   1      34.022  23.641  24.388  1.00  0.00     0.063 A 
ATOM     15  C   UNL A   1      32.240  23.121  25.614  1.00  0.00     0.039 A 
ATOM     16  C   UNL A   1      35.160  23.686  23.435  1.00  0.00     0.069 C 
ATOM     17  N   UNL A   1      33.759  24.729  25.116  1.00  0.00    -0.177 NA
ATOM     18  C   UNL A   1      31.036  22.563  26.281  1.00  0.00     0.066 C 
BRANCH  13  19
ATOM     19  C   UNL A   1      33.101  21.217  24.056  1.00  0.00     0.036 C 
ATOM     20  C   UNL A   1      32.237  21.060  22.814  1.00  0.00     0.009 C 
ENDBRANCH  13  19
ENDBRANCH  11  12
ENDBRANCH   8  11
ENDBRANCH   6   7
BRANCH   6  21
ATOM     21  C   UNL A   1      32.083  26.847  23.008  1.00  0.00     0.027 A 
ATOM     22  C   UNL A   1      33.207  27.067  22.127  1.00  0.00     0.065 A 
ATOM     23  C   UNL A   1      31.546  25.651  22.514  1.00  0.00     0.038 A 
ATOM     24  C   UNL A   1      34.258  28.125  22.136  1.00  0.00     0.069 C 
ATOM     25  N   UNL A   1      33.240  26.192  21.119  1.00  0.00    -0.180 NA
ATOM     26  N   UNL A   1      32.252  25.343  21.386  1.00  0.00    -0.282 N 
ATOM     27  C   UNL A   1      30.496  24.705  22.978  1.00  0.00     0.066 C 
ATOM     28  H   UNL A   1      32.048  24.563  20.821  1.00  0.00     0.190 HD
ENDBRANCH   6  21
ENDBRANCH   3   6
ENDBRANCH   1   2
BRANCH   1  29
ATOM     29  C   UNL A   1      31.460  31.861  26.492  1.00  0.00     0.042 C 
BRANCH  29  30
ATOM     30  C   UNL A   1      32.662  32.413  27.246  1.00  0.00     0.118 C 
BRANCH  30  31
ATOM     31  N   UNL A   1      32.470  33.801  27.661  1.00  0.00    -0.352 N 
ATOM     32  C   UNL A   1      33.163  34.553  28.577  1.00  0.00     0.251 C 
ATOM     33  H   UNL A   1      31.726  34.269  27.215  1.00  0.00     0.163 HD
ATOM     34  O   UNL A   1      32.736  35.653  28.920  1.00  0.00    -0.269 OA
BRANCH  32  35
ATOM     35  C   UNL A   1      34.408  34.026  29.165  1.00  0.00     0.039 A 
ATOM     36  C   UNL A   1      34.340  33.236  30.316  1.00  0.00     0.014 A 
ATOM     37  C   UNL A   1      35.639  34.292  28.563  1.00  0.00     0.014 A 
ATOM     38  C   UNL A   1      35.503  32.646  30.814  1.00  0.00     0.010 A 
ATOM     39  C   UNL A   1      36.771  33.618  28.992  1.00  0.00     0.010 A 
ATOM     40  C   UNL A   1      36.719  32.795  30.127  1.00  0.00    -0.014 A 
BRANCH  40  41
ATOM     41  C   UNL A   1      37.960  32.116  30.574  1.00  0.00     0.031 A 
ATOM     42  C   UNL A   1      38.826  32.762  31.620  1.00  0.00     0.074 A 
ATOM     43  C   UNL A   1      38.351  30.974  29.977  1.00  0.00     0.049 A 
ATOM     44  N   UNL A   1      40.001  32.395  32.062  1.00  0.00    -0.248 NA
ATOM     45  C   UNL A   1      38.323  34.010  32.221  1.00  0.00     0.031 C 
ATOM     46  C   UNL A   1      37.620  30.272  28.919  1.00  0.00     0.029 A 
ATOM     47  N   UNL A   1      39.471  30.205  30.170  1.00  0.00    -0.354 N 
ATOM     48  C   UNL A   1      40.384  33.377  32.967  1.00  0.00     0.074 A 
ATOM     49  C   UNL A   1      39.351  34.387  32.963  1.00  0.00     0.031 C 
ATOM     50  C   UNL A   1      38.291  29.158  28.584  1.00  0.00     0.029 A 
ATOM     51  C   UNL A   1      39.522  29.094  29.364  1.00  0.00     0.049 A 
ATOM     52  H   UNL A   1      40.170  30.428  30.825  1.00  0.00     0.167 HD
ATOM     53  C   UNL A   1      41.487  33.423  33.752  1.00  0.00     0.031 A 
ATOM     54  C   UNL A   1      40.460  28.134  29.261  1.00  0.00     0.031 A 
ATOM     55  C   UNL A   1      42.503  32.407  33.767  1.00  0.00     0.049 A 
ATOM     56  C   UNL A   1      41.682  28.213  30.134  1.00  0.00     0.074 A 
ATOM     57  C   UNL A   1      43.631  32.327  34.563  1.00  0.00     0.029 A 
ATOM     58  N   UNL A   1      42.510  31.290  32.945  1.00  0.00    -0.354 N 
ATOM     59  N   UNL A   1      42.001  29.116  31.030  1.00  0.00    -0.248 NA
ATOM     60  C   UNL A   1      42.668  27.134  29.988  1.00  0.00     0.031 C 
ATOM     61  C   UNL A   1      44.349  31.187  34.186  1.00  0.00     0.029 A 
ATOM     62  C   UNL A   1      43.635  30.525  33.200  1.00  0.00     0.049 A 
ATOM     63  H   UNL A   1      41.819  31.074  32.279  1.00  0.00     0.167 HD
ATOM     64  C   UNL A   1      43.206  28.697  31.578  1.00  0.00     0.074 A 
ATOM     65  C   UNL A   1      43.553  27.452  30.923  1.00  0.00     0.031 C 
ATOM     66  C   UNL A   1      43.958  29.287  32.539  1.00  0.00     0.031 A 
BRANCH  53  67
ATOM     67  C   UNL A   1      41.642  34.616  34.655  1.00  0.00    -0.014 A 
ATOM     68  C   UNL A   1      42.295  35.781  34.220  1.00  0.00     0.009 A 
ATOM     69  C   UNL A   1      41.113  34.583  35.955  1.00  0.00     0.009 A 
ATOM     70  C   UNL A   1      42.458  36.868  35.082  1.00  0.00     0.001 A 
ATOM     71  C   UNL A   1      41.246  35.684  36.803  1.00  0.00     0.001 A 
ATOM     72  C   UNL A   1      41.928  36.820  36.371  1.00  0.00     0.000 A 
ENDBRANCH  53  67
BRANCH  54  73
ATOM     73  C   UNL A   1      40.274  27.003  28.313  1.00  0.00    -0.014 A 
ATOM     74  C   UNL A   1      40.791  27.078  27.011  1.00  0.00     0.009 A 
ATOM     75  C   UNL A   1      39.576  25.849  28.701  1.00  0.00     0.009 A 
ATOM     76  C   UNL A   1      40.588  26.033  26.106  1.00  0.00     0.001 A 
ATOM     77  C   UNL A   1      39.402  24.792  27.804  1.00  0.00     0.001 A 
ATOM     78  C   UNL A   1      39.898  24.889  26.505  1.00  0.00     0.000 A 
ENDBRANCH  54  73
BRANCH  66  79
ATOM     79  C   UNL A   1      45.205  28.570  32.973  1.00  0.00    -0.014 A 
ATOM     80  C   UNL A   1      46.448  28.838  32.379  1.00  0.00     0.009 A 
ATOM     81  C   UNL A   1      45.138  27.643  34.026  1.00  0.00     0.009 A 
ATOM     82  C   UNL A   1      47.594  28.167  32.811  1.00  0.00     0.001 A 
ATOM     83  C   UNL A   1      46.290  26.999  34.476  1.00  0.00     0.001 A 
ATOM     84  C   UNL A   1      47.515  27.253  33.862  1.00  0.00     0.000 A 
ENDBRANCH  66  79
ENDBRANCH  40  41
ENDBRANCH  32  35
ENDBRANCH  30  31
ENDBRANCH  29  30
ENDBRANCH   1  29
TORSDOF 15
ENDMDL
MODEL 3
REMARK VINA RESULT:     -11.2      2.440      7.266
REMARK SMILES CCc1c(C)nn(CC(=O)N[C@H](C(=O)NCCCNC(=O)c2ccc(-c3c4nc(c(-c5ccccc5)c5ccc([nH]5)c(-c5ccccc5)c5nc(c(-c6ccccc6)c6ccc3[nH]6)C=C5)C=C4)cc2)c2c(C)n[nH]c2C)c1C
REMARK SMILES IDX 16 1 15 2 13 3 14 4 12 6 11 7 9 8 10 9 8 11 7 12 3 13 4 14
REMARK SMILES IDX 77 15 5 16 6 17 78 18 2 19 1 20 70 21 71 22 75 23 72 24
REMARK SMILES IDX 73 25 74 26 76 27 17 29 18 30 19 31 20 32 21 34 22 35 23 36
REMARK SMILES IDX 69 37 24 38 68 39 25 40 26 41 27 42 62 43 28 44 67 45 61 46
REMARK SMILES IDX 63 47 29 48 66 49 60 50 59 51 30 53 52 54 37 55 51 56 38 57
REMARK SMILES IDX 41 58 50 59 64 60 39 61 40 62 49 64 65 65 42 66 31 67 32 68
REMARK SMILES IDX 36 69 33 70 35 71 34 72 53 73 54 74 58 75 55 76 57 77 56 78
REMARK SMILES IDX 43 79 44 80 48 81 45 82 47 83 46 84
REMARK H PARENT 15 5 11 10 74 28 19 33 63 52 41 63
REMARK Flexibility Score: inf
ROOT
ATOM      1  C   UNL A   1      31.980  28.304  26.912  1.00  0.00     0.117 C 
ENDROOT
BRANCH   1   2
ATOM      2  N   UNL A   1      31.224  27.075  26.901  1.00  0.00    -0.354 N 
ATOM      3  C   UNL A   1      30.986  26.143  25.942  1.00  0.00     0.247 C 
ATOM      4  O   UNL A   1      30.229  25.235  26.327  1.00  0.00    -0.272 OA
ATOM      5  H   UNL A   1      30.793  26.870  27.763  1.00  0.00     0.163 HD
BRANCH   3   6
ATOM      6  C   UNL A   1      31.694  26.042  24.545  1.00  0.00     0.206 C 
BRANCH   6   7
ATOM      7  N   UNL A   1      31.304  24.746  23.965  1.00  0.00    -0.339 N 
ATOM      8  C   UNL A   1      31.942  23.741  23.323  1.00  0.00     0.242 C 
ATOM      9  O   UNL A   1      31.246  22.741  23.092  1.00  0.00    -0.273 OA
ATOM     10  H   UNL A   1      30.341  24.568  24.069  1.00  0.00     0.164 HD
BRANCH   8  11
ATOM     11  C   UNL A   1      33.413  23.717  23.023  1.00  0.00     0.244 C 
BRANCH  11  12
ATOM     12  N   UNL A   1      34.244  23.211  24.096  1.00  0.00    -0.260 N 
ATOM     13  C   UNL A   1      35.971  22.697  25.371  1.00  0.00    -0.004 A 
ATOM     14  C   UNL A   1      34.761  22.832  26.117  1.00  0.00     0.063 A 
ATOM     15  C   UNL A   1      35.593  22.949  24.058  1.00  0.00     0.039 A 
ATOM     16  C   UNL A   1      34.526  22.708  27.579  1.00  0.00     0.069 C 
ATOM     17  N   UNL A   1      33.724  23.128  25.330  1.00  0.00    -0.177 NA
ATOM     18  C   UNL A   1      36.380  23.017  22.800  1.00  0.00     0.066 C 
BRANCH  13  19
ATOM     19  C   UNL A   1      37.323  22.349  25.914  1.00  0.00     0.036 C 
ATOM     20  C   UNL A   1      38.228  23.536  26.207  1.00  0.00     0.009 C 
ENDBRANCH  13  19
ENDBRANCH  11  12
ENDBRANCH   8  11
ENDBRANCH   6   7
BRANCH   6  21
ATOM     21  C   UNL A   1      31.337  27.123  23.523  1.00  0.00     0.027 A 
ATOM     22  C   UNL A   1      30.013  27.568  23.153  1.00  0.00     0.065 A 
ATOM     23  C   UNL A   1      32.159  27.998  22.799  1.00  0.00     0.038 A 
ATOM     24  C   UNL A   1      28.670  27.118  23.620  1.00  0.00     0.069 C 
ATOM     25  N   UNL A   1      30.040  28.493  22.190  1.00  0.00    -0.180 NA
ATOM     26  N   UNL A   1      31.332  28.749  22.013  1.00  0.00    -0.282 N 
ATOM     27  C   UNL A   1      33.619  28.282  22.775  1.00  0.00     0.066 C 
ATOM     28  H   UNL A   1      31.663  29.420  21.373  1.00  0.00     0.190 HD
ENDBRANCH   6  21
ENDBRANCH   3   6
ENDBRANCH   1   2
BRANCH   1  29
ATOM     29  C   UNL A   1      33.476  28.053  27.025  1.00  0.00     0.042 C 
BRANCH  29  30
ATOM     30  C   UNL A   1      34.291  29.128  26.318  1.00  0.00     0.118 C 
BRANCH  30  31
ATOM     31  N   UNL A   1      33.972  30.472  26.795  1.00  0.00    -0.352 N 
ATOM     32  C   UNL A   1      34.558  31.219  27.787  1.00  0.00     0.251 C 
ATOM     33  H   UNL A   1      33.219  30.909  26.335  1.00  0.00     0.163 HD
ATOM     34  O   UNL A   1      34.032  32.263  28.164  1.00  0.00    -0.269 OA
BRANCH  32  35
ATOM     35  C   UNL A   1      35.808  30.751  28.413  1.00  0.00     0.039 A 
ATOM     36  C   UNL A   1      35.745  29.824  29.458  1.00  0.00     0.014 A 
ATOM     37  C   UNL A   1      37.042  31.211  27.951  1.00  0.00     0.014 A 
ATOM     38  C   UNL A   1      36.927  29.298  29.981  1.00  0.00     0.010 A 
ATOM     39  C   UNL A   1      38.208  30.607  28.395  1.00  0.00     0.010 A 
ATOM     40  C   UNL A   1      38.165  29.651  29.420  1.00  0.00    -0.014 A 
BRANCH  40  41
ATOM     41  C   UNL A   1      39.438  29.050  29.890  1.00  0.00     0.031 A 
ATOM     42  C   UNL A   1      40.242  29.747  30.952  1.00  0.00     0.074 A 
ATOM     43  C   UNL A   1      39.910  27.936  29.300  1.00  0.00     0.049 A 
ATOM     44  N   UNL A   1      41.429  29.454  31.417  1.00  0.00    -0.248 NA
ATOM     45  C   UNL A   1      39.650  30.960  31.545  1.00  0.00     0.031 C 
ATOM     46  C   UNL A   1      39.245  27.191  28.227  1.00  0.00     0.029 A 
ATOM     47  N   UNL A   1      41.072  27.239  29.513  1.00  0.00    -0.354 N 
ATOM     48  C   UNL A   1      41.733  30.456  32.329  1.00  0.00     0.074 A 
ATOM     49  C   UNL A   1      40.638  31.399  32.307  1.00  0.00     0.031 C 
ATOM     50  C   UNL A   1      39.991  26.122  27.904  1.00  0.00     0.029 A 
ATOM     51  C   UNL A   1      41.208  26.134  28.707  1.00  0.00     0.049 A 
ATOM     52  H   UNL A   1      41.745  27.504  30.182  1.00  0.00     0.167 HD
ATOM     53  C   UNL A   1      42.816  30.570  33.134  1.00  0.00     0.031 A 
ATOM     54  C   UNL A   1      42.207  25.236  28.621  1.00  0.00     0.031 A 
ATOM     55  C   UNL A   1      43.893  29.619  33.168  1.00  0.00     0.049 A 
ATOM     56  C   UNL A   1      43.405  25.389  29.517  1.00  0.00     0.074 A 
ATOM     57  C   UNL A   1      45.009  29.609  33.985  1.00  0.00     0.029 A 
ATOM     58  N   UNL A   1      43.986  28.507  32.346  1.00  0.00    -0.354 N 
ATOM     59  N   UNL A   1      43.650  26.309  30.420  1.00  0.00    -0.248 NA
ATOM     60  C   UNL A   1      44.460  24.375  29.389  1.00  0.00     0.031 C 
ATOM     61  C   UNL A   1      45.804  28.517  33.621  1.00  0.00     0.029 A 
ATOM     62  C   UNL A   1      45.151  27.814  32.621  1.00  0.00     0.049 A 
ATOM     63  H   UNL A   1      43.322  28.249  31.667  1.00  0.00     0.167 HD
ATOM     64  C   UNL A   1      44.869  25.966  30.990  1.00  0.00     0.074 A 
ATOM     65  C   UNL A   1      45.305  24.746  30.341  1.00  0.00     0.031 C 
ATOM     66  C   UNL A   1      45.564  26.600  31.965  1.00  0.00     0.031 A 
BRANCH  53  67
ATOM     67  C   UNL A   1      42.878  31.769  34.041  1.00  0.00    -0.014 A 
ATOM     68  C   UNL A   1      43.494  32.963  33.631  1.00  0.00     0.009 A 
ATOM     69  C   UNL A   1      42.300  31.711  35.319  1.00  0.00     0.009 A 
ATOM     70  C   UNL A   1      43.571  34.056  34.497  1.00  0.00     0.001 A 
ATOM     71  C   UNL A   1      42.347  32.816  36.170  1.00  0.00     0.001 A 
ATOM     72  C   UNL A   1      42.993  33.983  35.764  1.00  0.00     0.000 A 
ENDBRANCH  53  67
BRANCH  54  73
ATOM     73  C   UNL A   1      42.110  24.097  27.670  1.00  0.00    -0.014 A 
ATOM     74  C   UNL A   1      42.614  24.219  26.366  1.00  0.00     0.009 A 
ATOM     75  C   UNL A   1      41.510  22.888  28.055  1.00  0.00     0.009 A 
ATOM     76  C   UNL A   1      42.494  23.165  25.457  1.00  0.00     0.001 A 
ATOM     77  C   UNL A   1      41.419  21.824  27.154  1.00  0.00     0.001 A 
ATOM     78  C   UNL A   1      41.900  21.967  25.853  1.00  0.00     0.000 A 
ENDBRANCH  54  73
BRANCH  66  79
ATOM     79  C   UNL A   1      46.845  25.961  32.422  1.00  0.00    -0.014 A 
ATOM     80  C   UNL A   1      48.060  26.207  31.764  1.00  0.00     0.009 A 
ATOM     81  C   UNL A   1      46.839  25.137  33.559  1.00  0.00     0.009 A 
ATOM     82  C   UNL A   1      49.239  25.612  32.218  1.00  0.00     0.001 A 
ATOM     83  C   UNL A   1      48.024  24.569  34.028  1.00  0.00     0.001 A 
ATOM     84  C   UNL A   1      49.220  24.799  33.352  1.00  0.00     0.000 A 
ENDBRANCH  66  79
ENDBRANCH  40  41
ENDBRANCH  32  35
ENDBRANCH  30  31
ENDBRANCH  29  30
ENDBRANCH   1  29
TORSDOF 15
ENDMDL
