MODEL 1
REMARK VINA RESULT:     -13.0      0.000      0.000
REMARK SMILES O=C(NCCCNC(=O)[C@H]1[C@H]2CC[C@H](CC2)[C@@H]1C(=O)Nc1ccc(Cc2ccncc2)cc1)c1ccc(-c2c3nc(c(-c4ccccc4)c4ccc([nH]4)c(-c4ccccc4)c4nc(c(-c5ccccc5)c5ccc2[nH]5)C=C4)C=C3)cc1
REMARK SMILES IDX 6 1 5 2 4 3 3 4 1 5 2 6 34 8 35 9 81 10 36 11 80 12 37 13
REMARK SMILES IDX 38 14 39 15 74 16 40 17 79 18 73 19 75 20 41 21 78 22 72 23
REMARK SMILES IDX 71 24 42 26 64 27 49 28 63 29 50 30 53 31 62 32 76 33 51 34
REMARK SMILES IDX 52 35 61 37 77 38 54 39 43 40 44 41 48 42 45 43 47 44 46 45
REMARK SMILES IDX 65 46 66 47 70 48 67 49 69 50 68 51 55 52 56 53 60 54 57 55
REMARK SMILES IDX 59 56 58 57 7 58 8 59 9 61 10 62 11 63 17 64 12 65 16 66
REMARK SMILES IDX 14 67 13 68 15 69 18 70 19 71 20 72 21 74 22 75 33 76 23 77
REMARK SMILES IDX 32 78 24 79 25 80 26 81 27 82 31 83 28 84 30 85 29 86
REMARK H PARENT 3 7 75 25 53 36 7 60 20 73
REMARK Flexibility Score: inf
ROOT
ATOM      1  C   UNL A   1      33.713  27.546  25.244  1.00  0.00     0.117 C 
ENDROOT
BRANCH   1   2
ATOM      2  C   UNL A   1      33.876  28.959  25.792  1.00  0.00     0.042 C 
BRANCH   2   3
ATOM      3  C   UNL A   1      33.669  29.012  27.296  1.00  0.00     0.118 C 
BRANCH   3   4
ATOM      4  N   UNL A   1      33.773  30.381  27.785  1.00  0.00    -0.352 N 
ATOM      5  O   UNL A   1      34.514  32.027  29.122  1.00  0.00    -0.269 OA
ATOM      6  C   UNL A   1      34.749  30.967  28.550  1.00  0.00     0.251 C 
ATOM      7  H   UNL A   1      33.032  30.974  27.526  1.00  0.00     0.163 HD
BRANCH   6   8
ATOM      8  C   UNL A   1      36.082  30.338  28.682  1.00  0.00     0.039 A 
ATOM      9  C   UNL A   1      37.020  30.430  27.651  1.00  0.00     0.014 A 
ATOM     10  C   UNL A   1      36.430  29.718  29.886  1.00  0.00     0.014 A 
ATOM     11  C   UNL A   1      38.251  29.800  27.772  1.00  0.00     0.010 A 
ATOM     12  C   UNL A   1      37.709  29.176  30.047  1.00  0.00     0.010 A 
ATOM     13  C   UNL A   1      38.624  29.205  28.986  1.00  0.00    -0.014 A 
BRANCH  13  14
ATOM     14  C   UNL A   1      40.018  28.727  29.146  1.00  0.00     0.031 A 
ATOM     15  C   UNL A   1      40.427  27.352  28.712  1.00  0.00     0.074 A 
ATOM     16  C   UNL A   1      40.925  29.578  29.667  1.00  0.00     0.049 A 
ATOM     17  N   UNL A   1      41.613  26.798  28.754  1.00  0.00    -0.248 NA
ATOM     18  C   UNL A   1      39.376  26.481  28.163  1.00  0.00     0.031 C 
ATOM     19  C   UNL A   1      40.636  30.940  30.128  1.00  0.00     0.029 A 
ATOM     20  N   UNL A   1      42.273  29.441  29.869  1.00  0.00    -0.354 N 
ATOM     21  C   UNL A   1      41.449  25.510  28.260  1.00  0.00     0.074 A 
ATOM     22  C   UNL A   1      40.045  25.357  27.940  1.00  0.00     0.031 C 
ATOM     23  C   UNL A   1      41.779  31.534  30.496  1.00  0.00     0.029 A 
ATOM     24  C   UNL A   1      42.868  30.575  30.368  1.00  0.00     0.049 A 
ATOM     25  H   UNL A   1      42.768  28.613  29.674  1.00  0.00     0.167 HD
ATOM     26  C   UNL A   1      42.386  24.548  28.086  1.00  0.00     0.031 A 
ATOM     27  C   UNL A   1      44.148  30.814  30.704  1.00  0.00     0.031 A 
ATOM     28  C   UNL A   1      43.780  24.709  28.411  1.00  0.00     0.049 A 
ATOM     29  C   UNL A   1      45.155  29.717  30.535  1.00  0.00     0.074 A 
ATOM     30  C   UNL A   1      44.813  23.800  28.256  1.00  0.00     0.029 A 
ATOM     31  N   UNL A   1      44.335  25.854  28.963  1.00  0.00    -0.354 N 
ATOM     32  N   UNL A   1      44.986  28.513  30.044  1.00  0.00    -0.248 NA
ATOM     33  C   UNL A   1      46.527  30.009  30.969  1.00  0.00     0.031 C 
ATOM     34  C   UNL A   1      45.983  24.379  28.759  1.00  0.00     0.029 A 
ATOM     35  C   UNL A   1      45.691  25.667  29.177  1.00  0.00     0.049 A 
ATOM     36  H   UNL A   1      43.839  26.678  29.172  1.00  0.00     0.167 HD
ATOM     37  C   UNL A   1      46.231  27.906  30.099  1.00  0.00     0.074 A 
ATOM     38  C   UNL A   1      47.150  28.885  30.648  1.00  0.00     0.031 C 
ATOM     39  C   UNL A   1      46.584  26.651  29.732  1.00  0.00     0.031 A 
BRANCH  26  40
ATOM     40  C   UNL A   1      41.928  23.222  27.546  1.00  0.00    -0.014 A 
ATOM     41  C   UNL A   1      41.946  22.948  26.169  1.00  0.00     0.009 A 
ATOM     42  C   UNL A   1      41.511  22.216  28.433  1.00  0.00     0.009 A 
ATOM     43  C   UNL A   1      41.526  21.704  25.691  1.00  0.00     0.001 A 
ATOM     44  C   UNL A   1      41.117  20.966  27.953  1.00  0.00     0.001 A 
ATOM     45  C   UNL A   1      41.117  20.712  26.583  1.00  0.00     0.000 A 
ENDBRANCH  26  40
BRANCH  27  46
ATOM     46  C   UNL A   1      44.536  32.141  31.247  1.00  0.00    -0.014 A 
ATOM     47  C   UNL A   1      44.946  33.172  30.390  1.00  0.00     0.009 A 
ATOM     48  C   UNL A   1      44.477  32.389  32.628  1.00  0.00     0.009 A 
ATOM     49  C   UNL A   1      45.305  34.420  30.908  1.00  0.00     0.001 A 
ATOM     50  C   UNL A   1      44.808  33.644  33.140  1.00  0.00     0.001 A 
ATOM     51  C   UNL A   1      45.230  34.656  32.279  1.00  0.00     0.000 A 
ENDBRANCH  27  46
BRANCH  39  52
ATOM     52  C   UNL A   1      48.029  26.281  29.892  1.00  0.00    -0.014 A 
ATOM     53  C   UNL A   1      48.932  26.399  28.823  1.00  0.00     0.009 A 
ATOM     54  C   UNL A   1      48.497  25.826  31.135  1.00  0.00     0.009 A 
ATOM     55  C   UNL A   1      50.269  26.035  28.989  1.00  0.00     0.001 A 
ATOM     56  C   UNL A   1      49.840  25.490  31.304  1.00  0.00     0.001 A 
ATOM     57  C   UNL A   1      50.722  25.586  30.229  1.00  0.00     0.000 A 
ENDBRANCH  39  52
ENDBRANCH  13  14
ENDBRANCH   6   8
ENDBRANCH   3   4
ENDBRANCH   2   3
ENDBRANCH   1   2
BRANCH   1  58
ATOM     58  N   UNL A   1      32.685  26.839  25.951  1.00  0.00    -0.356 N 
ATOM     59  C   UNL A   1      32.445  25.529  26.135  1.00  0.00     0.224 C 
ATOM     60  H   UNL A   1      32.026  27.427  26.386  1.00  0.00     0.163 HD
ATOM     61  O   UNL A   1      31.464  25.307  26.857  1.00  0.00    -0.275 OA
BRANCH  59  62
ATOM     62  C   UNL A   1      33.295  24.344  25.637  1.00  0.00     0.094 C 
ATOM     63  C   UNL A   1      33.869  23.193  26.525  1.00  0.00     0.002 C 
ATOM     64  C   UNL A   1      32.680  23.772  24.344  1.00  0.00     0.094 C 
ATOM     65  C   UNL A   1      32.922  22.014  26.806  1.00  0.00     0.005 C 
ATOM     66  C   UNL A   1      34.998  22.515  25.694  1.00  0.00     0.005 C 
ATOM     67  C   UNL A   1      32.899  22.232  24.306  1.00  0.00     0.002 C 
ATOM     68  C   UNL A   1      32.190  21.612  25.527  1.00  0.00     0.005 C 
ATOM     69  C   UNL A   1      34.402  21.913  24.407  1.00  0.00     0.005 C 
BRANCH  64  70
ATOM     70  C   UNL A   1      32.920  24.398  22.941  1.00  0.00     0.228 C 
ATOM     71  O   UNL A   1      33.870  23.956  22.273  1.00  0.00    -0.274 OA
ATOM     72  N   UNL A   1      32.115  25.292  22.301  1.00  0.00    -0.326 N 
ATOM     73  H   UNL A   1      32.227  25.315  21.323  1.00  0.00     0.169 HD
BRANCH  72  74
ATOM     74  C   UNL A   1      31.158  26.179  22.793  1.00  0.00     0.041 A 
ATOM     75  C   UNL A   1      31.287  27.533  22.500  1.00  0.00     0.026 A 
ATOM     76  C   UNL A   1      30.058  25.729  23.517  1.00  0.00     0.026 A 
ATOM     77  C   UNL A   1      30.189  28.378  22.677  1.00  0.00     0.006 A 
ATOM     78  C   UNL A   1      28.969  26.578  23.722  1.00  0.00     0.006 A 
ATOM     79  C   UNL A   1      28.992  27.883  23.212  1.00  0.00    -0.043 A 
BRANCH  79  80
ATOM     80  C   UNL A   1      27.723  28.699  23.141  1.00  0.00     0.071 C 
BRANCH  80  81
ATOM     81  C   UNL A   1      27.903  30.107  22.651  1.00  0.00    -0.041 A 
ATOM     82  C   UNL A   1      27.915  30.385  21.283  1.00  0.00     0.024 A 
ATOM     83  C   UNL A   1      28.034  31.169  23.550  1.00  0.00     0.024 A 
ATOM     84  C   UNL A   1      28.061  31.700  20.876  1.00  0.00     0.111 A 
ATOM     85  C   UNL A   1      28.173  32.451  23.045  1.00  0.00     0.111 A 
ATOM     86  N   UNL A   1      28.189  32.741  21.727  1.00  0.00    -0.265 NA
ENDBRANCH  80  81
ENDBRANCH  79  80
ENDBRANCH  72  74
ENDBRANCH  64  70
ENDBRANCH  59  62
ENDBRANCH   1  58
TORSDOF 14
ENDMDL
MODEL 2
REMARK VINA RESULT:     -13.0      3.785      8.069
REMARK SMILES O=C(NCCCNC(=O)[C@H]1[C@H]2CC[C@H](CC2)[C@@H]1C(=O)Nc1ccc(Cc2ccncc2)cc1)c1ccc(-c2c3nc(c(-c4ccccc4)c4ccc([nH]4)c(-c4ccccc4)c4nc(c(-c5ccccc5)c5ccc2[nH]5)C=C4)C=C3)cc1
REMARK SMILES IDX 6 1 5 2 4 3 3 4 1 5 2 6 34 8 35 9 81 10 36 11 80 12 37 13
REMARK SMILES IDX 38 14 39 15 74 16 40 17 79 18 73 19 75 20 41 21 78 22 72 23
REMARK SMILES IDX 71 24 42 26 64 27 49 28 63 29 50 30 53 31 62 32 76 33 51 34
REMARK SMILES IDX 52 35 61 37 77 38 54 39 43 40 44 41 48 42 45 43 47 44 46 45
REMARK SMILES IDX 65 46 66 47 70 48 67 49 69 50 68 51 55 52 56 53 60 54 57 55
REMARK SMILES IDX 59 56 58 57 7 58 8 59 9 61 10 62 11 63 17 64 12 65 16 66
REMARK SMILES IDX 14 67 13 68 15 69 18 70 19 71 20 72 21 74 22 75 33 76 23 77
REMARK SMILES IDX 32 78 24 79 25 80 26 81 27 82 31 83 28 84 30 85 29 86
REMARK H PARENT 3 7 75 25 53 36 7 60 20 73
REMARK Flexibility Score: inf
ROOT
ATOM      1  C   UNL A   1      35.923  23.146  25.202  1.00  0.00     0.117 C 
ENDROOT
BRANCH   1   2
ATOM      2  C   UNL A   1      37.292  22.783  25.766  1.00  0.00     0.042 C 
BRANCH   2   3
ATOM      3  C   UNL A   1      38.054  24.009  26.241  1.00  0.00     0.118 C 
BRANCH   3   4
ATOM      4  N   UNL A   1      39.484  23.849  26.013  1.00  0.00    -0.352 N 
ATOM      5  O   UNL A   1      41.609  24.538  25.764  1.00  0.00    -0.269 OA
ATOM      6  C   UNL A   1      40.520  24.700  26.308  1.00  0.00     0.251 C 
ATOM      7  H   UNL A   1      39.747  23.003  25.584  1.00  0.00     0.163 HD
BRANCH   6   8
ATOM      8  C   UNL A   1      40.338  25.799  27.282  1.00  0.00     0.039 A 
ATOM      9  C   UNL A   1      39.577  25.610  28.437  1.00  0.00     0.014 A 
ATOM     10  C   UNL A   1      41.006  27.011  27.078  1.00  0.00     0.014 A 
ATOM     11  C   UNL A   1      39.380  26.663  29.320  1.00  0.00     0.010 A 
ATOM     12  C   UNL A   1      40.894  28.035  28.023  1.00  0.00     0.010 A 
ATOM     13  C   UNL A   1      40.072  27.871  29.146  1.00  0.00    -0.014 A 
BRANCH  13  14
ATOM     14  C   UNL A   1      40.000  28.894  30.216  1.00  0.00     0.031 A 
ATOM     15  C   UNL A   1      38.972  29.985  30.186  1.00  0.00     0.074 A 
ATOM     16  C   UNL A   1      40.869  28.800  31.243  1.00  0.00     0.049 A 
ATOM     17  N   UNL A   1      38.759  30.934  31.063  1.00  0.00    -0.248 NA
ATOM     18  C   UNL A   1      38.069  30.024  29.026  1.00  0.00     0.031 C 
ATOM     19  C   UNL A   1      41.915  27.780  31.372  1.00  0.00     0.029 A 
ATOM     20  N   UNL A   1      40.994  29.547  32.385  1.00  0.00    -0.354 N 
ATOM     21  C   UNL A   1      37.715  31.695  30.553  1.00  0.00     0.074 A 
ATOM     22  C   UNL A   1      37.349  31.109  29.280  1.00  0.00     0.031 C 
ATOM     23  C   UNL A   1      42.529  27.925  32.554  1.00  0.00     0.029 A 
ATOM     24  C   UNL A   1      41.974  29.088  33.232  1.00  0.00     0.049 A 
ATOM     25  H   UNL A   1      40.437  30.334  32.580  1.00  0.00     0.167 HD
ATOM     26  C   UNL A   1      37.117  32.779  31.101  1.00  0.00     0.031 A 
ATOM     27  C   UNL A   1      42.395  29.561  34.418  1.00  0.00     0.031 A 
ATOM     28  C   UNL A   1      37.492  33.357  32.365  1.00  0.00     0.049 A 
ATOM     29  C   UNL A   1      41.737  30.785  34.981  1.00  0.00     0.074 A 
ATOM     30  C   UNL A   1      36.936  34.446  33.015  1.00  0.00     0.029 A 
ATOM     31  N   UNL A   1      38.523  32.896  33.169  1.00  0.00    -0.354 N 
ATOM     32  N   UNL A   1      40.735  31.478  34.495  1.00  0.00    -0.248 NA
ATOM     33  C   UNL A   1      42.270  31.295  36.250  1.00  0.00     0.031 C 
ATOM     34  C   UNL A   1      37.663  34.672  34.189  1.00  0.00     0.029 A 
ATOM     35  C   UNL A   1      38.635  33.691  34.298  1.00  0.00     0.049 A 
ATOM     36  H   UNL A   1      39.091  32.117  32.968  1.00  0.00     0.167 HD
ATOM     37  C   UNL A   1      40.509  32.499  35.405  1.00  0.00     0.074 A 
ATOM     38  C   UNL A   1      41.462  32.320  36.483  1.00  0.00     0.031 C 
ATOM     39  C   UNL A   1      39.597  33.500  35.353  1.00  0.00     0.031 A 
BRANCH  26  40
ATOM     40  C   UNL A   1      36.012  33.432  30.318  1.00  0.00    -0.014 A 
ATOM     41  C   UNL A   1      34.723  33.579  30.856  1.00  0.00     0.009 A 
ATOM     42  C   UNL A   1      36.275  33.945  29.037  1.00  0.00     0.009 A 
ATOM     43  C   UNL A   1      33.714  34.200  30.115  1.00  0.00     0.001 A 
ATOM     44  C   UNL A   1      35.271  34.586  28.310  1.00  0.00     0.001 A 
ATOM     45  C   UNL A   1      33.990  34.707  28.844  1.00  0.00     0.000 A 
ENDBRANCH  26  40
BRANCH  27  46
ATOM     46  C   UNL A   1      43.502  28.881  35.136  1.00  0.00    -0.014 A 
ATOM     47  C   UNL A   1      43.235  27.863  36.063  1.00  0.00     0.009 A 
ATOM     48  C   UNL A   1      44.838  29.234  34.882  1.00  0.00     0.009 A 
ATOM     49  C   UNL A   1      44.282  27.224  36.732  1.00  0.00     0.001 A 
ATOM     50  C   UNL A   1      45.883  28.574  35.529  1.00  0.00     0.001 A 
ATOM     51  C   UNL A   1      45.604  27.575  36.461  1.00  0.00     0.000 A 
ENDBRANCH  27  46
BRANCH  39  52
ATOM     52  C   UNL A   1      39.576  34.457  36.508  1.00  0.00    -0.014 A 
ATOM     53  C   UNL A   1      40.236  35.694  36.438  1.00  0.00     0.009 A 
ATOM     54  C   UNL A   1      38.871  34.122  37.675  1.00  0.00     0.009 A 
ATOM     55  C   UNL A   1      40.217  36.563  37.530  1.00  0.00     0.001 A 
ATOM     56  C   UNL A   1      38.831  35.006  38.753  1.00  0.00     0.001 A 
ATOM     57  C   UNL A   1      39.512  36.221  38.684  1.00  0.00     0.000 A 
ENDBRANCH  39  52
ENDBRANCH  13  14
ENDBRANCH   6   8
ENDBRANCH   3   4
ENDBRANCH   2   3
ENDBRANCH   1   2
BRANCH   1  58
ATOM     58  N   UNL A   1      35.527  24.458  25.626  1.00  0.00    -0.356 N 
ATOM     59  C   UNL A   1      34.436  25.203  25.376  1.00  0.00     0.224 C 
ATOM     60  H   UNL A   1      36.182  24.899  26.215  1.00  0.00     0.163 HD
ATOM     61  O   UNL A   1      34.438  26.290  25.971  1.00  0.00    -0.275 OA
BRANCH  59  62
ATOM     62  C   UNL A   1      33.205  24.806  24.540  1.00  0.00     0.094 C 
ATOM     63  C   UNL A   1      33.186  24.572  22.995  1.00  0.00     0.002 C 
ATOM     64  C   UNL A   1      32.424  23.691  25.264  1.00  0.00     0.094 C 
ATOM     65  C   UNL A   1      33.597  23.170  22.515  1.00  0.00     0.005 C 
ATOM     66  C   UNL A   1      31.693  24.644  22.556  1.00  0.00     0.005 C 
ATOM     67  C   UNL A   1      31.801  22.731  24.212  1.00  0.00     0.002 C 
ATOM     68  C   UNL A   1      32.946  22.102  23.392  1.00  0.00     0.005 C 
ATOM     69  C   UNL A   1      30.896  23.522  23.248  1.00  0.00     0.005 C 
BRANCH  64  70
ATOM     70  C   UNL A   1      31.419  23.971  26.418  1.00  0.00     0.228 C 
ATOM     71  O   UNL A   1      31.288  23.093  27.287  1.00  0.00    -0.274 OA
ATOM     72  N   UNL A   1      30.761  25.140  26.657  1.00  0.00    -0.326 N 
ATOM     73  H   UNL A   1      30.450  25.252  27.584  1.00  0.00     0.169 HD
BRANCH  72  74
ATOM     74  C   UNL A   1      30.454  26.207  25.813  1.00  0.00     0.041 A 
ATOM     75  C   UNL A   1      31.277  27.330  25.826  1.00  0.00     0.026 A 
ATOM     76  C   UNL A   1      29.382  26.145  24.927  1.00  0.00     0.026 A 
ATOM     77  C   UNL A   1      31.201  28.244  24.772  1.00  0.00     0.006 A 
ATOM     78  C   UNL A   1      29.286  27.074  23.890  1.00  0.00     0.006 A 
ATOM     79  C   UNL A   1      30.258  28.072  23.751  1.00  0.00    -0.043 A 
BRANCH  79  80
ATOM     80  C   UNL A   1      30.354  28.875  22.475  1.00  0.00     0.071 C 
BRANCH  80  81
ATOM     81  C   UNL A   1      29.471  30.089  22.422  1.00  0.00    -0.041 A 
ATOM     82  C   UNL A   1      29.228  30.839  23.574  1.00  0.00     0.024 A 
ATOM     83  C   UNL A   1      28.898  30.508  21.218  1.00  0.00     0.024 A 
ATOM     84  C   UNL A   1      28.427  31.963  23.475  1.00  0.00     0.111 A 
ATOM     85  C   UNL A   1      28.112  31.649  21.221  1.00  0.00     0.111 A 
ATOM     86  N   UNL A   1      27.863  32.387  22.323  1.00  0.00    -0.265 NA
ENDBRANCH  80  81
ENDBRANCH  79  80
ENDBRANCH  72  74
ENDBRANCH  64  70
ENDBRANCH  59  62
ENDBRANCH   1  58
TORSDOF 14
ENDMDL
MODEL 3
REMARK VINA RESULT:     -13.0      0.302      5.693
REMARK SMILES O=C(NCCCNC(=O)[C@H]1[C@H]2CC[C@H](CC2)[C@@H]1C(=O)Nc1ccc(Cc2ccncc2)cc1)c1ccc(-c2c3nc(c(-c4ccccc4)c4ccc([nH]4)c(-c4ccccc4)c4nc(c(-c5ccccc5)c5ccc2[nH]5)C=C4)C=C3)cc1
REMARK SMILES IDX 6 1 5 2 4 3 3 4 1 5 2 6 34 8 35 9 81 10 36 11 80 12 37 13
REMARK SMILES IDX 38 14 39 15 74 16 40 17 79 18 73 19 75 20 41 21 78 22 72 23
REMARK SMILES IDX 71 24 42 26 64 27 49 28 63 29 50 30 53 31 62 32 76 33 51 34
REMARK SMILES IDX 52 35 61 37 77 38 54 39 43 40 44 41 48 42 45 43 47 44 46 45
REMARK SMILES IDX 65 46 66 47 70 48 67 49 69 50 68 51 55 52 56 53 60 54 57 55
REMARK SMILES IDX 59 56 58 57 7 58 8 59 9 61 10 62 11 63 17 64 12 65 16 66
REMARK SMILES IDX 14 67 13 68 15 69 18 70 19 71 20 72 21 74 22 75 33 76 23 77
REMARK SMILES IDX 32 78 24 79 25 80 26 81 27 82 31 83 28 84 30 85 29 86
REMARK H PARENT 3 7 75 25 53 36 7 60 20 73
REMARK Flexibility Score: inf
ROOT
ATOM      1  C   UNL A   1      33.740  27.514  25.237  1.00  0.00     0.117 C 
ENDROOT
BRANCH   1   2
ATOM      2  C   UNL A   1      33.877  28.930  25.783  1.00  0.00     0.042 C 
BRANCH   2   3
ATOM      3  C   UNL A   1      33.616  28.990  27.278  1.00  0.00     0.118 C 
BRANCH   3   4
ATOM      4  N   UNL A   1      33.673  30.365  27.758  1.00  0.00    -0.352 N 
ATOM      5  O   UNL A   1      34.357  32.045  29.085  1.00  0.00    -0.269 OA
ATOM      6  C   UNL A   1      34.629  30.991  28.518  1.00  0.00     0.251 C 
ATOM      7  H   UNL A   1      32.910  30.929  27.498  1.00  0.00     0.163 HD
BRANCH   6   8
ATOM      8  C   UNL A   1      35.984  30.410  28.650  1.00  0.00     0.039 A 
ATOM      9  C   UNL A   1      36.923  30.551  27.626  1.00  0.00     0.014 A 
ATOM     10  C   UNL A   1      36.348  29.788  29.849  1.00  0.00     0.014 A 
ATOM     11  C   UNL A   1      38.176  29.965  27.747  1.00  0.00     0.010 A 
ATOM     12  C   UNL A   1      37.645  29.293  30.011  1.00  0.00     0.010 A 
ATOM     13  C   UNL A   1      38.565  29.370  28.956  1.00  0.00    -0.014 A 
BRANCH  13  14
ATOM     14  C   UNL A   1      39.975  28.942  29.119  1.00  0.00     0.031 A 
ATOM     15  C   UNL A   1      40.993  29.837  29.760  1.00  0.00     0.074 A 
ATOM     16  C   UNL A   1      40.315  27.705  28.703  1.00  0.00     0.049 A 
ATOM     17  N   UNL A   1      42.256  29.596  30.005  1.00  0.00    -0.248 NA
ATOM     18  C   UNL A   1      40.544  31.174  30.177  1.00  0.00     0.031 C 
ATOM     19  C   UNL A   1      39.404  26.751  28.061  1.00  0.00     0.029 A 
ATOM     20  N   UNL A   1      41.502  27.026  28.782  1.00  0.00    -0.354 N 
ATOM     21  C   UNL A   1      42.759  30.754  30.583  1.00  0.00     0.074 A 
ATOM     22  C   UNL A   1      41.669  31.706  30.636  1.00  0.00     0.031 C 
ATOM     23  C   UNL A   1      40.046  25.591  27.866  1.00  0.00     0.029 A 
ATOM     24  C   UNL A   1      41.429  25.742  28.298  1.00  0.00     0.049 A 
ATOM     25  H   UNL A   1      42.325  27.418  29.151  1.00  0.00     0.167 HD
ATOM     26  C   UNL A   1      44.014  30.996  31.031  1.00  0.00     0.031 A 
ATOM     27  C   UNL A   1      42.375  24.792  28.196  1.00  0.00     0.031 A 
ATOM     28  C   UNL A   1      45.092  30.044  30.969  1.00  0.00     0.049 A 
ATOM     29  C   UNL A   1      43.763  25.103  28.667  1.00  0.00     0.074 A 
ATOM     30  C   UNL A   1      46.396  30.187  31.413  1.00  0.00     0.029 A 
ATOM     31  N   UNL A   1      44.993  28.772  30.425  1.00  0.00    -0.354 N 
ATOM     32  N   UNL A   1      44.214  26.197  29.233  1.00  0.00    -0.248 NA
ATOM     33  C   UNL A   1      44.773  24.054  28.482  1.00  0.00     0.031 C 
ATOM     34  C   UNL A   1      47.098  29.020  31.092  1.00  0.00     0.029 A 
ATOM     35  C   UNL A   1      46.217  28.128  30.500  1.00  0.00     0.049 A 
ATOM     36  H   UNL A   1      44.173  28.385  30.043  1.00  0.00     0.167 HD
ATOM     37  C   UNL A   1      45.558  25.964  29.482  1.00  0.00     0.074 A 
ATOM     38  C   UNL A   1      45.841  24.616  29.029  1.00  0.00     0.031 C 
ATOM     39  C   UNL A   1      46.478  26.791  30.034  1.00  0.00     0.031 A 
BRANCH  26  40
ATOM     40  C   UNL A   1      44.297  32.359  31.601  1.00  0.00    -0.014 A 
ATOM     41  C   UNL A   1      44.718  33.419  30.782  1.00  0.00     0.009 A 
ATOM     42  C   UNL A   1      44.101  32.596  32.971  1.00  0.00     0.009 A 
ATOM     43  C   UNL A   1      44.964  34.681  31.331  1.00  0.00     0.001 A 
ATOM     44  C   UNL A   1      44.324  33.863  33.511  1.00  0.00     0.001 A 
ATOM     45  C   UNL A   1      44.762  34.903  32.693  1.00  0.00     0.000 A 
ENDBRANCH  26  40
BRANCH  27  46
ATOM     46  C   UNL A   1      42.037  23.470  27.610  1.00  0.00    -0.014 A 
ATOM     47  C   UNL A   1      42.232  23.223  26.243  1.00  0.00     0.009 A 
ATOM     48  C   UNL A   1      41.536  22.439  28.421  1.00  0.00     0.009 A 
ATOM     49  C   UNL A   1      41.916  21.976  25.699  1.00  0.00     0.001 A 
ATOM     50  C   UNL A   1      41.249  21.185  27.881  1.00  0.00     0.001 A 
ATOM     51  C   UNL A   1      41.431  20.957  26.517  1.00  0.00     0.000 A 
ENDBRANCH  27  46
BRANCH  39  52
ATOM     52  C   UNL A   1      47.867  26.246  30.197  1.00  0.00    -0.014 A 
ATOM     53  C   UNL A   1      48.297  25.709  31.420  1.00  0.00     0.009 A 
ATOM     54  C   UNL A   1      48.748  26.253  29.104  1.00  0.00     0.009 A 
ATOM     55  C   UNL A   1      49.598  25.221  31.554  1.00  0.00     0.001 A 
ATOM     56  C   UNL A   1      50.038  25.738  29.235  1.00  0.00     0.001 A 
ATOM     57  C   UNL A   1      50.465  25.232  30.462  1.00  0.00     0.000 A 
ENDBRANCH  39  52
ENDBRANCH  13  14
ENDBRANCH   6   8
ENDBRANCH   3   4
ENDBRANCH   2   3
ENDBRANCH   1   2
BRANCH   1  58
ATOM     58  N   UNL A   1      32.706  26.798  25.927  1.00  0.00    -0.356 N 
ATOM     59  C   UNL A   1      32.471  25.486  26.102  1.00  0.00     0.224 C 
ATOM     60  H   UNL A   1      32.039  27.381  26.357  1.00  0.00     0.163 HD
ATOM     61  O   UNL A   1      31.481  25.256  26.810  1.00  0.00    -0.275 OA
BRANCH  59  62
ATOM     62  C   UNL A   1      33.333  24.308  25.609  1.00  0.00     0.094 C 
ATOM     63  C   UNL A   1      33.931  23.176  26.505  1.00  0.00     0.002 C 
ATOM     64  C   UNL A   1      32.714  23.712  24.329  1.00  0.00     0.094 C 
ATOM     65  C   UNL A   1      33.004  21.987  26.808  1.00  0.00     0.005 C 
ATOM     66  C   UNL A   1      35.063  22.504  25.672  1.00  0.00     0.005 C 
ATOM     67  C   UNL A   1      32.955  22.176  24.306  1.00  0.00     0.002 C 
ATOM     68  C   UNL A   1      32.266  21.559  25.541  1.00  0.00     0.005 C 
ATOM     69  C   UNL A   1      34.464  21.879  24.397  1.00  0.00     0.005 C 
BRANCH  64  70
ATOM     70  C   UNL A   1      32.933  24.325  22.917  1.00  0.00     0.228 C 
ATOM     71  O   UNL A   1      33.872  23.876  22.238  1.00  0.00    -0.274 OA
ATOM     72  N   UNL A   1      32.118  25.214  22.281  1.00  0.00    -0.326 N 
ATOM     73  H   UNL A   1      32.215  25.228  21.302  1.00  0.00     0.169 HD
BRANCH  72  74
ATOM     74  C   UNL A   1      31.170  26.105  22.781  1.00  0.00     0.041 A 
ATOM     75  C   UNL A   1      31.301  27.459  22.483  1.00  0.00     0.026 A 
ATOM     76  C   UNL A   1      30.074  25.662  23.516  1.00  0.00     0.026 A 
ATOM     77  C   UNL A   1      30.207  28.309  22.669  1.00  0.00     0.006 A 
ATOM     78  C   UNL A   1      28.991  26.516  23.730  1.00  0.00     0.006 A 
ATOM     79  C   UNL A   1      29.014  27.819  23.217  1.00  0.00    -0.043 A 
BRANCH  79  80
ATOM     80  C   UNL A   1      27.748  28.640  23.156  1.00  0.00     0.071 C 
BRANCH  80  81
ATOM     81  C   UNL A   1      27.932  30.054  22.682  1.00  0.00    -0.041 A 
ATOM     82  C   UNL A   1      27.911  30.353  21.319  1.00  0.00     0.024 A 
ATOM     83  C   UNL A   1      28.100  31.099  23.594  1.00  0.00     0.024 A 
ATOM     84  C   UNL A   1      28.062  31.672  20.929  1.00  0.00     0.111 A 
ATOM     85  C   UNL A   1      28.241  32.388  23.105  1.00  0.00     0.111 A 
ATOM     86  N   UNL A   1      28.226  32.698  21.792  1.00  0.00    -0.265 NA
ENDBRANCH  80  81
ENDBRANCH  79  80
ENDBRANCH  72  74
ENDBRANCH  64  70
ENDBRANCH  59  62
ENDBRANCH   1  58
TORSDOF 14
ENDMDL
