MODEL 1
REMARK VINA RESULT:     -10.8      0.000      0.000
REMARK SMILES Cc1c(Cl)ccc2c(OCC(=O)NCCCNC(=O)c3ccc(-c4c5nc(c(-c6ccccc6)c6ccc([nH]6)c(-c6ccccc6)c6nc(c(-c7ccccc7)c7ccc4[nH]7)C=C6)C=C5)cc3)ccnc12
REMARK SMILES IDX 15 1 14 2 13 3 11 4 12 5 10 7 9 8 8 9 1 10 2 11 3 12 71 13
REMARK SMILES IDX 4 14 5 15 7 16 70 17 6 18 69 19 68 20 16 21 17 22 18 23
REMARK SMILES IDX 19 25 20 26 21 27 67 28 22 29 66 30 23 31 24 32 25 33 60 34
REMARK SMILES IDX 26 35 65 36 59 37 61 38 27 39 64 40 58 41 57 42 28 44 50 45
REMARK SMILES IDX 35 46 49 47 36 48 39 49 48 50 62 51 37 52 38 53 47 55 63 56
REMARK SMILES IDX 40 57 29 58 30 59 34 60 31 61 33 62 32 63 51 64 52 65 56 66
REMARK SMILES IDX 53 67 55 68 54 69 41 70 42 71 46 72 43 73 45 74 44 75
REMARK H PARENT 13 6 17 24 61 43 39 54
REMARK Flexibility Score: inf
ROOT
ATOM      1  C   UNL A   1      32.371  28.009  26.848  1.00  0.00     0.042 C 
ENDROOT
BRANCH   1   2
ATOM      2  C   UNL A   1      32.406  26.678  26.102  1.00  0.00     0.117 C 
BRANCH   2   3
ATOM      3  N   UNL A   1      31.768  25.608  26.848  1.00  0.00    -0.353 N 
ATOM      4  C   UNL A   1      31.079  24.529  26.380  1.00  0.00     0.257 C 
ATOM      5  O   UNL A   1      30.591  23.744  27.195  1.00  0.00    -0.271 OA
ATOM      6  H   UNL A   1      31.845  25.670  27.827  1.00  0.00     0.163 HD
BRANCH   4   7
ATOM      7  C   UNL A   1      30.956  24.294  24.871  1.00  0.00     0.329 C 
BRANCH   7   8
ATOM      8  O   UNL A   1      32.162  24.052  24.164  1.00  0.00    -0.483 OA
BRANCH   8   9
ATOM      9  C   UNL A   1      32.766  22.822  24.276  1.00  0.00     0.131 A 
ATOM     10  C   UNL A   1      36.867  20.243  25.169  1.00  0.00     0.048 C 
ATOM     11  C   UNL A   1      36.163  21.578  25.141  1.00  0.00    -0.006 A 
ATOM     12  C   UNL A   1      36.808  22.776  25.492  1.00  0.00     0.046 A 
ATOM     13  C   UNL A   1      34.811  21.598  24.754  1.00  0.00     0.078 A 
ATOM     14  Cl  UNL A   1      38.460  22.832  26.000  1.00  0.00    -0.084 Cl
ATOM     15  C   UNL A   1      36.126  23.988  25.446  1.00  0.00     0.022 A 
ATOM     16  C   UNL A   1      34.120  22.831  24.690  1.00  0.00     0.043 A 
ATOM     17  N   UNL A   1      34.195  20.441  24.448  1.00  0.00    -0.256 NA
ATOM     18  C   UNL A   1      34.796  24.017  25.041  1.00  0.00     0.016 A 
ATOM     19  C   UNL A   1      32.896  20.463  24.089  1.00  0.00     0.115 A 
ATOM     20  C   UNL A   1      32.144  21.613  23.992  1.00  0.00     0.067 A 
ENDBRANCH   8   9
ENDBRANCH   7   8
ENDBRANCH   4   7
ENDBRANCH   2   3
ENDBRANCH   1   2
BRANCH   1  21
ATOM     21  C   UNL A   1      33.750  28.577  27.176  1.00  0.00     0.118 C 
BRANCH  21  22
ATOM     22  N   UNL A   1      33.697  29.963  27.624  1.00  0.00    -0.352 N 
ATOM     23  C   UNL A   1      34.635  30.705  28.296  1.00  0.00     0.251 C 
ATOM     24  H   UNL A   1      32.862  30.439  27.411  1.00  0.00     0.163 HD
ATOM     25  O   UNL A   1      34.344  31.811  28.743  1.00  0.00    -0.269 OA
BRANCH  23  26
ATOM     26  C   UNL A   1      35.992  30.165  28.507  1.00  0.00     0.039 A 
ATOM     27  C   UNL A   1      36.904  30.204  27.450  1.00  0.00     0.014 A 
ATOM     28  C   UNL A   1      36.358  29.608  29.737  1.00  0.00     0.014 A 
ATOM     29  C   UNL A   1      38.207  29.743  27.646  1.00  0.00     0.010 A 
ATOM     30  C   UNL A   1      37.673  29.199  29.947  1.00  0.00     0.010 A 
ATOM     31  C   UNL A   1      38.607  29.262  28.903  1.00  0.00    -0.014 A 
BRANCH  31  32
ATOM     32  C   UNL A   1      40.000  28.807  29.125  1.00  0.00     0.031 A 
ATOM     33  C   UNL A   1      40.414  27.423  28.714  1.00  0.00     0.074 A 
ATOM     34  C   UNL A   1      40.886  29.633  29.715  1.00  0.00     0.049 A 
ATOM     35  N   UNL A   1      41.591  26.859  28.810  1.00  0.00    -0.248 NA
ATOM     36  C   UNL A   1      39.377  26.555  28.131  1.00  0.00     0.031 C 
ATOM     37  C   UNL A   1      40.592  30.984  30.198  1.00  0.00     0.029 A 
ATOM     38  N   UNL A   1      42.215  29.456  30.010  1.00  0.00    -0.354 N 
ATOM     39  C   UNL A   1      41.434  25.576  28.303  1.00  0.00     0.074 A 
ATOM     40  C   UNL A   1      40.044  25.425  27.938  1.00  0.00     0.031 C 
ATOM     41  C   UNL A   1      41.714  31.521  30.705  1.00  0.00     0.029 A 
ATOM     42  C   UNL A   1      42.799  30.549  30.604  1.00  0.00     0.049 A 
ATOM     43  H   UNL A   1      42.704  28.624  29.814  1.00  0.00     0.167 HD
ATOM     44  C   UNL A   1      42.374  24.621  28.130  1.00  0.00     0.031 A 
ATOM     45  C   UNL A   1      44.066  30.748  31.016  1.00  0.00     0.031 A 
ATOM     46  C   UNL A   1      43.761  24.779  28.459  1.00  0.00     0.049 A 
ATOM     47  C   UNL A   1      45.088  29.664  30.819  1.00  0.00     0.074 A 
ATOM     48  C   UNL A   1      44.797  23.885  28.247  1.00  0.00     0.029 A 
ATOM     49  N   UNL A   1      44.307  25.898  29.061  1.00  0.00    -0.354 N 
ATOM     50  N   UNL A   1      44.938  28.487  30.262  1.00  0.00    -0.248 NA
ATOM     51  C   UNL A   1      46.453  29.933  31.299  1.00  0.00     0.031 C 
ATOM     52  C   UNL A   1      45.966  24.450  28.756  1.00  0.00     0.029 A 
ATOM     53  C   UNL A   1      45.663  25.707  29.253  1.00  0.00     0.049 A 
ATOM     54  H   UNL A   1      43.805  26.707  29.316  1.00  0.00     0.167 HD
ATOM     55  C   UNL A   1      46.187  27.884  30.311  1.00  0.00     0.074 A 
ATOM     56  C   UNL A   1      47.088  28.823  30.944  1.00  0.00     0.031 C 
ATOM     57  C   UNL A   1      46.548  26.655  29.873  1.00  0.00     0.031 A 
BRANCH  44  58
ATOM     58  C   UNL A   1      41.954  23.317  27.523  1.00  0.00    -0.014 A 
ATOM     59  C   UNL A   1      42.205  23.050  26.169  1.00  0.00     0.009 A 
ATOM     60  C   UNL A   1      41.420  22.305  28.335  1.00  0.00     0.009 A 
ATOM     61  C   UNL A   1      41.931  21.789  25.639  1.00  0.00     0.001 A 
ATOM     62  C   UNL A   1      41.161  21.040  27.805  1.00  0.00     0.001 A 
ATOM     63  C   UNL A   1      41.418  20.784  26.458  1.00  0.00     0.000 A 
ENDBRANCH  44  58
BRANCH  45  64
ATOM     64  C   UNL A   1      44.442  32.042  31.641  1.00  0.00    -0.014 A 
ATOM     65  C   UNL A   1      44.344  32.218  33.028  1.00  0.00     0.009 A 
ATOM     66  C   UNL A   1      44.918  33.101  30.852  1.00  0.00     0.009 A 
ATOM     67  C   UNL A   1      44.703  33.433  33.614  1.00  0.00     0.001 A 
ATOM     68  C   UNL A   1      45.296  34.309  31.443  1.00  0.00     0.001 A 
ATOM     69  C   UNL A   1      45.183  34.477  32.822  1.00  0.00     0.000 A 
ENDBRANCH  45  64
BRANCH  57  70
ATOM     70  C   UNL A   1      47.975  26.228  30.045  1.00  0.00    -0.014 A 
ATOM     71  C   UNL A   1      48.918  26.497  29.044  1.00  0.00     0.009 A 
ATOM     72  C   UNL A   1      48.405  25.714  31.277  1.00  0.00     0.009 A 
ATOM     73  C   UNL A   1      50.275  26.267  29.279  1.00  0.00     0.001 A 
ATOM     74  C   UNL A   1      49.763  25.499  31.514  1.00  0.00     0.001 A 
ATOM     75  C   UNL A   1      50.697  25.780  30.518  1.00  0.00     0.000 A 
ENDBRANCH  57  70
ENDBRANCH  31  32
ENDBRANCH  23  26
ENDBRANCH  21  22
ENDBRANCH   1  21
TORSDOF 12
ENDMDL
MODEL 2
REMARK VINA RESULT:     -10.8      2.062      7.338
REMARK SMILES Cc1c(Cl)ccc2c(OCC(=O)NCCCNC(=O)c3ccc(-c4c5nc(c(-c6ccccc6)c6ccc([nH]6)c(-c6ccccc6)c6nc(c(-c7ccccc7)c7ccc4[nH]7)C=C6)C=C5)cc3)ccnc12
REMARK SMILES IDX 15 1 14 2 13 3 11 4 12 5 10 7 9 8 8 9 1 10 2 11 3 12 71 13
REMARK SMILES IDX 4 14 5 15 7 16 70 17 6 18 69 19 68 20 16 21 17 22 18 23
REMARK SMILES IDX 19 25 20 26 21 27 67 28 22 29 66 30 23 31 24 32 25 33 60 34
REMARK SMILES IDX 26 35 65 36 59 37 61 38 27 39 64 40 58 41 57 42 28 44 50 45
REMARK SMILES IDX 35 46 49 47 36 48 39 49 48 50 62 51 37 52 38 53 47 55 63 56
REMARK SMILES IDX 40 57 29 58 30 59 34 60 31 61 33 62 32 63 51 64 52 65 56 66
REMARK SMILES IDX 53 67 55 68 54 69 41 70 42 71 46 72 43 73 45 74 44 75
REMARK H PARENT 13 6 17 24 61 43 39 54
REMARK Flexibility Score: inf
ROOT
ATOM      1  C   UNL A   1      37.653  19.709  24.999  1.00  0.00     0.042 C 
ENDROOT
BRANCH   1   2
ATOM      2  C   UNL A   1      36.519  20.715  24.825  1.00  0.00     0.117 C 
BRANCH   2   3
ATOM      3  N   UNL A   1      35.952  21.136  26.092  1.00  0.00    -0.353 N 
ATOM      4  C   UNL A   1      34.642  21.306  26.431  1.00  0.00     0.257 C 
ATOM      5  O   UNL A   1      34.375  21.698  27.569  1.00  0.00    -0.271 OA
ATOM      6  H   UNL A   1      36.602  21.323  26.807  1.00  0.00     0.163 HD
BRANCH   4   7
ATOM      7  C   UNL A   1      33.539  20.977  25.420  1.00  0.00     0.329 C 
BRANCH   7   8
ATOM      8  O   UNL A   1      32.983  22.069  24.707  1.00  0.00    -0.483 OA
BRANCH   8   9
ATOM      9  C   UNL A   1      32.155  22.946  25.367  1.00  0.00     0.131 A 
ATOM     10  C   UNL A   1      31.434  27.482  27.148  1.00  0.00     0.048 C 
ATOM     11  C   UNL A   1      32.285  26.533  26.338  1.00  0.00    -0.006 A 
ATOM     12  C   UNL A   1      33.483  26.937  25.724  1.00  0.00     0.046 A 
ATOM     13  C   UNL A   1      31.840  25.207  26.201  1.00  0.00     0.078 A 
ATOM     14  Cl  UNL A   1      34.087  28.554  25.828  1.00  0.00    -0.084 Cl
ATOM     15  C   UNL A   1      34.244  26.030  24.992  1.00  0.00     0.022 A 
ATOM     16  C   UNL A   1      32.619  24.280  25.470  1.00  0.00     0.043 A 
ATOM     17  N   UNL A   1      30.676  24.840  26.769  1.00  0.00    -0.256 NA
ATOM     18  C   UNL A   1      33.820  24.711  24.872  1.00  0.00     0.016 A 
ATOM     19  C   UNL A   1      30.246  23.571  26.624  1.00  0.00     0.115 A 
ATOM     20  C   UNL A   1      30.938  22.598  25.938  1.00  0.00     0.067 A 
ENDBRANCH   8   9
ENDBRANCH   7   8
ENDBRANCH   4   7
ENDBRANCH   2   3
ENDBRANCH   1   2
BRANCH   1  21
ATOM     21  C   UNL A   1      38.862  20.255  25.757  1.00  0.00     0.118 C 
BRANCH  21  22
ATOM     22  N   UNL A   1      39.968  19.309  25.812  1.00  0.00    -0.352 N 
ATOM     23  C   UNL A   1      41.290  19.520  26.111  1.00  0.00     0.251 C 
ATOM     24  H   UNL A   1      39.730  18.376  25.603  1.00  0.00     0.163 HD
ATOM     25  O   UNL A   1      42.113  18.625  25.939  1.00  0.00    -0.269 OA
BRANCH  23  26
ATOM     26  C   UNL A   1      41.732  20.832  26.621  1.00  0.00     0.039 A 
ATOM     27  C   UNL A   1      42.180  21.792  25.711  1.00  0.00     0.014 A 
ATOM     28  C   UNL A   1      41.719  21.109  27.992  1.00  0.00     0.014 A 
ATOM     29  C   UNL A   1      42.555  23.055  26.170  1.00  0.00     0.010 A 
ATOM     30  C   UNL A   1      42.042  22.388  28.443  1.00  0.00     0.010 A 
ATOM     31  C   UNL A   1      42.464  23.370  27.536  1.00  0.00    -0.014 A 
BRANCH  31  32
ATOM     32  C   UNL A   1      42.825  24.723  28.022  1.00  0.00     0.031 A 
ATOM     33  C   UNL A   1      41.758  25.760  28.219  1.00  0.00     0.074 A 
ATOM     34  C   UNL A   1      44.116  25.022  28.266  1.00  0.00     0.049 A 
ATOM     35  N   UNL A   1      41.882  26.988  28.655  1.00  0.00    -0.248 NA
ATOM     36  C   UNL A   1      40.377  25.381  27.875  1.00  0.00     0.031 C 
ATOM     37  C   UNL A   1      45.247  24.112  28.070  1.00  0.00     0.029 A 
ATOM     38  N   UNL A   1      44.694  26.176  28.731  1.00  0.00    -0.354 N 
ATOM     39  C   UNL A   1      40.601  27.523  28.636  1.00  0.00     0.074 A 
ATOM     40  C   UNL A   1      39.719  26.509  28.106  1.00  0.00     0.031 C 
ATOM     41  C   UNL A   1      46.379  24.736  28.437  1.00  0.00     0.029 A 
ATOM     42  C   UNL A   1      46.058  26.092  28.872  1.00  0.00     0.049 A 
ATOM     43  H   UNL A   1      44.179  26.988  28.943  1.00  0.00     0.167 HD
ATOM     44  C   UNL A   1      40.195  28.744  29.050  1.00  0.00     0.031 A 
ATOM     45  C   UNL A   1      46.951  27.004  29.307  1.00  0.00     0.031 A 
ATOM     46  C   UNL A   1      41.061  29.742  29.608  1.00  0.00     0.049 A 
ATOM     47  C   UNL A   1      46.470  28.356  29.753  1.00  0.00     0.074 A 
ATOM     48  C   UNL A   1      40.719  30.980  30.123  1.00  0.00     0.029 A 
ATOM     49  N   UNL A   1      42.434  29.616  29.728  1.00  0.00    -0.354 N 
ATOM     50  N   UNL A   1      45.244  28.815  29.804  1.00  0.00    -0.248 NA
ATOM     51  C   UNL A   1      47.491  29.314  30.208  1.00  0.00     0.031 C 
ATOM     52  C   UNL A   1      41.893  31.621  30.521  1.00  0.00     0.029 A 
ATOM     53  C   UNL A   1      42.958  30.768  30.285  1.00  0.00     0.049 A 
ATOM     54  H   UNL A   1      42.958  28.828  29.456  1.00  0.00     0.167 HD
ATOM     55  C   UNL A   1      45.344  30.105  30.307  1.00  0.00     0.074 A 
ATOM     56  C   UNL A   1      46.747  30.357  30.556  1.00  0.00     0.031 C 
ATOM     57  C   UNL A   1      44.355  31.000  30.537  1.00  0.00     0.031 A 
BRANCH  44  58
ATOM     58  C   UNL A   1      38.735  29.073  28.956  1.00  0.00    -0.014 A 
ATOM     59  C   UNL A   1      37.901  28.927  30.074  1.00  0.00     0.009 A 
ATOM     60  C   UNL A   1      38.221  29.650  27.786  1.00  0.00     0.009 A 
ATOM     61  C   UNL A   1      36.575  29.355  30.021  1.00  0.00     0.001 A 
ATOM     62  C   UNL A   1      36.898  30.092  27.742  1.00  0.00     0.001 A 
ATOM     63  C   UNL A   1      36.077  29.945  28.860  1.00  0.00     0.000 A 
ENDBRANCH  44  58
BRANCH  45  64
ATOM     64  C   UNL A   1      48.393  26.654  29.360  1.00  0.00    -0.014 A 
ATOM     65  C   UNL A   1      48.916  25.957  30.458  1.00  0.00     0.009 A 
ATOM     66  C   UNL A   1      49.248  26.998  28.301  1.00  0.00     0.009 A 
ATOM     67  C   UNL A   1      50.272  25.624  30.504  1.00  0.00     0.001 A 
ATOM     68  C   UNL A   1      50.599  26.645  28.340  1.00  0.00     0.001 A 
ATOM     69  C   UNL A   1      51.111  25.964  29.443  1.00  0.00     0.000 A 
ENDBRANCH  45  64
BRANCH  57  70
ATOM     70  C   UNL A   1      44.723  32.343  31.089  1.00  0.00    -0.014 A 
ATOM     71  C   UNL A   1      44.862  32.526  32.472  1.00  0.00     0.009 A 
ATOM     72  C   UNL A   1      45.098  33.376  30.217  1.00  0.00     0.009 A 
ATOM     73  C   UNL A   1      45.381  33.721  32.972  1.00  0.00     0.001 A 
ATOM     74  C   UNL A   1      45.631  34.563  30.720  1.00  0.00     0.001 A 
ATOM     75  C   UNL A   1      45.777  34.733  32.096  1.00  0.00     0.000 A 
ENDBRANCH  57  70
ENDBRANCH  31  32
ENDBRANCH  23  26
ENDBRANCH  21  22
ENDBRANCH   1  21
TORSDOF 12
ENDMDL
MODEL 3
REMARK VINA RESULT:     -10.7      2.117      7.387
REMARK SMILES Cc1c(Cl)ccc2c(OCC(=O)NCCCNC(=O)c3ccc(-c4c5nc(c(-c6ccccc6)c6ccc([nH]6)c(-c6ccccc6)c6nc(c(-c7ccccc7)c7ccc4[nH]7)C=C6)C=C5)cc3)ccnc12
REMARK SMILES IDX 15 1 14 2 13 3 11 4 12 5 10 7 9 8 8 9 1 10 2 11 3 12 71 13
REMARK SMILES IDX 4 14 5 15 7 16 70 17 6 18 69 19 68 20 16 21 17 22 18 23
REMARK SMILES IDX 19 25 20 26 21 27 67 28 22 29 66 30 23 31 24 32 25 33 60 34
REMARK SMILES IDX 26 35 65 36 59 37 61 38 27 39 64 40 58 41 57 42 28 44 50 45
REMARK SMILES IDX 35 46 49 47 36 48 39 49 48 50 62 51 37 52 38 53 47 55 63 56
REMARK SMILES IDX 40 57 29 58 30 59 34 60 31 61 33 62 32 63 51 64 52 65 56 66
REMARK SMILES IDX 53 67 55 68 54 69 41 70 42 71 46 72 43 73 45 74 44 75
REMARK H PARENT 13 6 17 24 61 43 39 54
REMARK Flexibility Score: inf
ROOT
ATOM      1  C   UNL A   1      37.687  19.583  24.994  1.00  0.00     0.042 C 
ENDROOT
BRANCH   1   2
ATOM      2  C   UNL A   1      36.568  20.592  24.755  1.00  0.00     0.117 C 
BRANCH   2   3
ATOM      3  N   UNL A   1      35.990  21.083  25.993  1.00  0.00    -0.353 N 
ATOM      4  C   UNL A   1      34.682  21.320  26.294  1.00  0.00     0.257 C 
ATOM      5  O   UNL A   1      34.406  21.764  27.410  1.00  0.00    -0.271 OA
ATOM      6  H   UNL A   1      36.632  21.269  26.715  1.00  0.00     0.163 HD
BRANCH   4   7
ATOM      7  C   UNL A   1      33.589  20.999  25.269  1.00  0.00     0.329 C 
BRANCH   7   8
ATOM      8  O   UNL A   1      33.022  22.100  24.578  1.00  0.00    -0.483 OA
BRANCH   8   9
ATOM      9  C   UNL A   1      32.185  22.954  25.255  1.00  0.00     0.131 A 
ATOM     10  C   UNL A   1      31.402  27.452  27.104  1.00  0.00     0.048 C 
ATOM     11  C   UNL A   1      32.264  26.529  26.276  1.00  0.00    -0.006 A 
ATOM     12  C   UNL A   1      33.452  26.960  25.662  1.00  0.00     0.046 A 
ATOM     13  C   UNL A   1      31.838  25.199  26.122  1.00  0.00     0.078 A 
ATOM     14  Cl  UNL A   1      34.031  28.585  25.786  1.00  0.00    -0.084 Cl
ATOM     15  C   UNL A   1      34.222  26.076  24.913  1.00  0.00     0.022 A 
ATOM     16  C   UNL A   1      32.628  24.294  25.375  1.00  0.00     0.043 A 
ATOM     17  N   UNL A   1      30.683  24.805  26.691  1.00  0.00    -0.256 NA
ATOM     18  C   UNL A   1      33.819  24.753  24.777  1.00  0.00     0.016 A 
ATOM     19  C   UNL A   1      30.272  23.532  26.530  1.00  0.00     0.115 A 
ATOM     20  C   UNL A   1      30.976  22.579  25.827  1.00  0.00     0.067 A 
ENDBRANCH   8   9
ENDBRANCH   7   8
ENDBRANCH   4   7
ENDBRANCH   2   3
ENDBRANCH   1   2
BRANCH   1  21
ATOM     21  C   UNL A   1      38.889  20.149  25.746  1.00  0.00     0.118 C 
BRANCH  21  22
ATOM     22  N   UNL A   1      40.028  19.240  25.757  1.00  0.00    -0.352 N 
ATOM     23  C   UNL A   1      41.350  19.491  26.024  1.00  0.00     0.251 C 
ATOM     24  H   UNL A   1      39.816  18.303  25.539  1.00  0.00     0.163 HD
ATOM     25  O   UNL A   1      42.197  18.627  25.815  1.00  0.00    -0.269 OA
BRANCH  23  26
ATOM     26  C   UNL A   1      41.761  20.810  26.541  1.00  0.00     0.039 A 
ATOM     27  C   UNL A   1      42.184  21.786  25.636  1.00  0.00     0.014 A 
ATOM     28  C   UNL A   1      41.745  21.077  27.914  1.00  0.00     0.014 A 
ATOM     29  C   UNL A   1      42.530  23.055  26.103  1.00  0.00     0.010 A 
ATOM     30  C   UNL A   1      42.039  22.360  28.373  1.00  0.00     0.010 A 
ATOM     31  C   UNL A   1      42.435  23.358  27.471  1.00  0.00    -0.014 A 
BRANCH  31  32
ATOM     32  C   UNL A   1      42.765  24.716  27.966  1.00  0.00     0.031 A 
ATOM     33  C   UNL A   1      44.194  25.094  28.228  1.00  0.00     0.074 A 
ATOM     34  C   UNL A   1      41.776  25.601  28.198  1.00  0.00     0.049 A 
ATOM     35  N   UNL A   1      44.676  26.238  28.642  1.00  0.00    -0.248 NA
ATOM     36  C   UNL A   1      45.217  24.056  28.010  1.00  0.00     0.031 C 
ATOM     37  C   UNL A   1      40.346  25.337  28.023  1.00  0.00     0.029 A 
ATOM     38  N   UNL A   1      41.824  26.902  28.632  1.00  0.00    -0.354 N 
ATOM     39  C   UNL A   1      46.049  26.056  28.734  1.00  0.00     0.074 A 
ATOM     40  C   UNL A   1      46.326  24.684  28.376  1.00  0.00     0.031 C 
ATOM     41  C   UNL A   1      39.656  26.450  28.323  1.00  0.00     0.029 A 
ATOM     42  C   UNL A   1      40.589  27.497  28.730  1.00  0.00     0.049 A 
ATOM     43  H   UNL A   1      42.664  27.365  28.852  1.00  0.00     0.167 HD
ATOM     44  C   UNL A   1      46.996  26.963  29.060  1.00  0.00     0.031 A 
ATOM     45  C   UNL A   1      40.246  28.746  29.102  1.00  0.00     0.031 A 
ATOM     46  C   UNL A   1      46.729  28.335  29.383  1.00  0.00     0.049 A 
ATOM     47  C   UNL A   1      41.321  29.730  29.468  1.00  0.00     0.074 A 
ATOM     48  C   UNL A   1      47.639  29.342  29.654  1.00  0.00     0.029 A 
ATOM     49  N   UNL A   1      45.466  28.892  29.475  1.00  0.00    -0.354 N 
ATOM     50  N   UNL A   1      42.620  29.563  29.470  1.00  0.00    -0.248 NA
ATOM     51  C   UNL A   1      40.887  31.076  29.877  1.00  0.00     0.031 C 
ATOM     52  C   UNL A   1      46.923  30.504  29.947  1.00  0.00     0.029 A 
ATOM     53  C   UNL A   1      45.571  30.225  29.825  1.00  0.00     0.049 A 
ATOM     54  H   UNL A   1      44.620  28.412  29.317  1.00  0.00     0.167 HD
ATOM     55  C   UNL A   1      43.158  30.780  29.864  1.00  0.00     0.074 A 
ATOM     56  C   UNL A   1      42.049  31.683  30.086  1.00  0.00     0.031 C 
ATOM     57  C   UNL A   1      44.459  31.114  30.031  1.00  0.00     0.031 A 
BRANCH  44  58
ATOM     58  C   UNL A   1      48.429  26.523  29.053  1.00  0.00    -0.014 A 
ATOM     59  C   UNL A   1      49.221  26.703  27.910  1.00  0.00     0.009 A 
ATOM     60  C   UNL A   1      49.020  26.045  30.232  1.00  0.00     0.009 A 
ATOM     61  C   UNL A   1      50.585  26.413  27.949  1.00  0.00     0.001 A 
ATOM     62  C   UNL A   1      50.388  25.770  30.271  1.00  0.00     0.001 A 
ATOM     63  C   UNL A   1      51.169  25.956  29.130  1.00  0.00     0.000 A 
ENDBRANCH  44  58
BRANCH  45  64
ATOM     64  C   UNL A   1      38.814  29.139  29.126  1.00  0.00    -0.014 A 
ATOM     65  C   UNL A   1      38.050  28.974  30.289  1.00  0.00     0.009 A 
ATOM     66  C   UNL A   1      38.212  29.701  27.989  1.00  0.00     0.009 A 
ATOM     67  C   UNL A   1      36.705  29.350  30.311  1.00  0.00     0.001 A 
ATOM     68  C   UNL A   1      36.872  30.096  28.020  1.00  0.00     0.001 A 
ATOM     69  C   UNL A   1      36.119  29.915  29.178  1.00  0.00     0.000 A 
ENDBRANCH  45  64
BRANCH  57  70
ATOM     70  C   UNL A   1      44.787  32.509  30.470  1.00  0.00    -0.014 A 
ATOM     71  C   UNL A   1      44.992  32.794  31.827  1.00  0.00     0.009 A 
ATOM     72  C   UNL A   1      45.059  33.496  29.510  1.00  0.00     0.009 A 
ATOM     73  C   UNL A   1      45.475  34.044  32.215  1.00  0.00     0.001 A 
ATOM     74  C   UNL A   1      45.556  34.739  29.901  1.00  0.00     0.001 A 
ATOM     75  C   UNL A   1      45.769  35.010  31.252  1.00  0.00     0.000 A 
ENDBRANCH  57  70
ENDBRANCH  31  32
ENDBRANCH  23  26
ENDBRANCH  21  22
ENDBRANCH   1  21
TORSDOF 12
ENDMDL
