MODEL 1
REMARK VINA RESULT:     -11.4      0.000      0.000
REMARK SMILES O=C(NCCCNC(=O)[C@H]1C[N@H+](Cc2ccc(Cl)c(Cl)c2)CC12CCCCC2)c1ccc(-c2c3nc(c(-c4ccccc4)c4ccc([nH]4)c(-c4ccccc4)c4nc(c(-c5ccccc5)c5ccc2[nH]5)C=C4)C=C3)cc1
REMARK SMILES IDX 5 1 4 2 3 3 1 4 2 5 29 7 30 8 76 9 31 10 75 11 32 12 33 13
REMARK SMILES IDX 34 14 69 15 35 16 74 17 68 18 70 19 36 20 73 21 67 22 66 23
REMARK SMILES IDX 37 25 59 26 44 27 58 28 45 29 48 30 57 31 71 32 46 33 47 34
REMARK SMILES IDX 56 36 72 37 49 38 38 39 39 40 43 41 40 42 42 43 41 44 60 45
REMARK SMILES IDX 61 46 65 47 62 48 64 49 63 50 50 51 51 52 55 53 52 54 54 55
REMARK SMILES IDX 53 56 6 57 7 58 8 59 9 61 10 62 11 63 23 64 12 65 22 66
REMARK SMILES IDX 24 67 28 68 25 70 27 71 26 72 13 73 14 74 15 75 21 76 16 77
REMARK SMILES IDX 19 78 17 79 20 80 18 81
REMARK H PARENT 3 6 70 24 48 35 7 60 12 69
REMARK Flexibility Score: inf
ROOT
ATOM      1  C   UNL A   1      32.587  28.269  25.819  1.00  0.00     0.042 C 
ENDROOT
BRANCH   1   2
ATOM      2  C   UNL A   1      33.905  29.019  25.965  1.00  0.00     0.118 C 
BRANCH   2   3
ATOM      3  N   UNL A   1      33.721  30.308  26.610  1.00  0.00    -0.352 N 
ATOM      4  O   UNL A   1      33.961  31.869  28.208  1.00  0.00    -0.269 OA
ATOM      5  C   UNL A   1      34.431  30.891  27.632  1.00  0.00     0.251 C 
ATOM      6  H   UNL A   1      32.974  30.845  26.261  1.00  0.00     0.163 HD
BRANCH   5   7
ATOM      7  C   UNL A   1      35.748  30.356  28.059  1.00  0.00     0.039 A 
ATOM      8  C   UNL A   1      36.895  30.527  27.281  1.00  0.00     0.014 A 
ATOM      9  C   UNL A   1      35.854  29.737  29.311  1.00  0.00     0.014 A 
ATOM     10  C   UNL A   1      38.106  29.972  27.687  1.00  0.00     0.010 A 
ATOM     11  C   UNL A   1      37.093  29.264  29.761  1.00  0.00     0.010 A 
ATOM     12  C   UNL A   1      38.228  29.355  28.943  1.00  0.00    -0.014 A 
BRANCH  12  13
ATOM     13  C   UNL A   1      39.563  28.880  29.399  1.00  0.00     0.031 A 
ATOM     14  C   UNL A   1      40.368  29.652  30.410  1.00  0.00     0.074 A 
ATOM     15  C   UNL A   1      40.046  27.720  28.909  1.00  0.00     0.049 A 
ATOM     16  N   UNL A   1      41.527  29.350  30.942  1.00  0.00    -0.248 NA
ATOM     17  C   UNL A   1      39.810  30.930  30.876  1.00  0.00     0.031 C 
ATOM     18  C   UNL A   1      39.377  26.881  27.910  1.00  0.00     0.029 A 
ATOM     19  N   UNL A   1      41.197  27.031  29.201  1.00  0.00    -0.354 N 
ATOM     20  C   UNL A   1      41.851  30.411  31.780  1.00  0.00     0.074 A 
ATOM     21  C   UNL A   1      40.775  31.374  31.671  1.00  0.00     0.031 C 
ATOM     22  C   UNL A   1      40.093  25.762  27.725  1.00  0.00     0.029 A 
ATOM     23  C   UNL A   1      41.299  25.830  28.542  1.00  0.00     0.049 A 
ATOM     24  H   UNL A   1      41.882  27.365  29.825  1.00  0.00     0.167 HD
ATOM     25  C   UNL A   1      42.940  30.569  32.570  1.00  0.00     0.031 A 
ATOM     26  C   UNL A   1      42.255  24.885  28.583  1.00  0.00     0.031 A 
ATOM     27  C   UNL A   1      44.006  29.608  32.693  1.00  0.00     0.049 A 
ATOM     28  C   UNL A   1      43.450  25.085  29.467  1.00  0.00     0.074 A 
ATOM     29  C   UNL A   1      45.131  29.665  33.501  1.00  0.00     0.029 A 
ATOM     30  N   UNL A   1      44.084  28.418  31.987  1.00  0.00    -0.354 N 
ATOM     31  N   UNL A   1      43.717  26.077  30.281  1.00  0.00    -0.248 NA
ATOM     32  C   UNL A   1      44.476  24.033  29.436  1.00  0.00     0.031 C 
ATOM     33  C   UNL A   1      45.909  28.529  33.251  1.00  0.00     0.029 A 
ATOM     34  C   UNL A   1      45.244  27.741  32.326  1.00  0.00     0.049 A 
ATOM     35  H   UNL A   1      43.413  28.101  31.339  1.00  0.00     0.167 HD
ATOM     36  C   UNL A   1      44.928  25.756  30.879  1.00  0.00     0.074 A 
ATOM     37  C   UNL A   1      45.335  24.473  30.346  1.00  0.00     0.031 C 
ATOM     38  C   UNL A   1      45.638  26.465  31.790  1.00  0.00     0.031 A 
BRANCH  25  39
ATOM     39  C   UNL A   1      43.050  31.850  33.351  1.00  0.00    -0.014 A 
ATOM     40  C   UNL A   1      42.530  31.964  34.649  1.00  0.00     0.009 A 
ATOM     41  C   UNL A   1      43.720  32.949  32.790  1.00  0.00     0.009 A 
ATOM     42  C   UNL A   1      42.648  33.163  35.355  1.00  0.00     0.001 A 
ATOM     43  C   UNL A   1      43.861  34.137  33.508  1.00  0.00     0.001 A 
ATOM     44  C   UNL A   1      43.316  34.247  34.787  1.00  0.00     0.000 A 
ENDBRANCH  25  39
BRANCH  26  45
ATOM     45  C   UNL A   1      42.113  23.651  27.767  1.00  0.00    -0.014 A 
ATOM     46  C   UNL A   1      42.600  23.610  26.452  1.00  0.00     0.009 A 
ATOM     47  C   UNL A   1      41.496  22.509  28.299  1.00  0.00     0.009 A 
ATOM     48  C   UNL A   1      42.455  22.455  25.680  1.00  0.00     0.001 A 
ATOM     49  C   UNL A   1      41.378  21.346  27.535  1.00  0.00     0.001 A 
ATOM     50  C   UNL A   1      41.850  21.323  26.224  1.00  0.00     0.000 A 
ENDBRANCH  26  45
BRANCH  38  51
ATOM     51  C   UNL A   1      46.908  25.843  32.296  1.00  0.00    -0.014 A 
ATOM     52  C   UNL A   1      48.133  26.046  31.642  1.00  0.00     0.009 A 
ATOM     53  C   UNL A   1      46.877  25.052  33.455  1.00  0.00     0.009 A 
ATOM     54  C   UNL A   1      49.296  25.438  32.118  1.00  0.00     0.001 A 
ATOM     55  C   UNL A   1      48.046  24.468  33.945  1.00  0.00     0.001 A 
ATOM     56  C   UNL A   1      49.252  24.652  33.270  1.00  0.00     0.000 A 
ENDBRANCH  38  51
ENDBRANCH  12  13
ENDBRANCH   5   7
ENDBRANCH   2   3
ENDBRANCH   1   2
BRANCH   1  57
ATOM     57  C   UNL A   1      32.332  27.258  26.934  1.00  0.00     0.117 C 
BRANCH  57  58
ATOM     58  N   UNL A   1      30.978  26.735  26.882  1.00  0.00    -0.356 N 
ATOM     59  C   UNL A   1      30.462  25.611  26.311  1.00  0.00     0.229 C 
ATOM     60  H   UNL A   1      30.312  27.294  27.344  1.00  0.00     0.163 HD
ATOM     61  O   UNL A   1      29.240  25.471  26.382  1.00  0.00    -0.275 OA
BRANCH  59  62
ATOM     62  C   UNL A   1      31.369  24.575  25.649  1.00  0.00     0.145 C 
ATOM     63  C   UNL A   1      30.662  23.215  25.656  1.00  0.00     0.276 C 
ATOM     64  C   UNL A   1      31.799  24.779  24.160  1.00  0.00     0.037 C 
ATOM     65  N   UNL A   1      31.298  22.423  24.613  1.00  0.00    -0.330 N 
ATOM     66  C   UNL A   1      31.641  23.353  23.540  1.00  0.00     0.270 C 
ATOM     67  C   UNL A   1      30.909  25.806  23.412  1.00  0.00     0.014 C 
ATOM     68  C   UNL A   1      33.285  25.206  24.082  1.00  0.00     0.014 C 
ATOM     69  H   UNL A   1      30.640  21.733  24.253  1.00  0.00     0.348 HD
ATOM     70  C   UNL A   1      31.448  26.256  22.049  1.00  0.00     0.001 C 
ATOM     71  C   UNL A   1      33.765  25.551  22.678  1.00  0.00     0.001 C 
ATOM     72  C   UNL A   1      32.916  26.664  22.093  1.00  0.00     0.000 C 
BRANCH  65  73
ATOM     73  C   UNL A   1      32.295  21.434  25.026  1.00  0.00     0.299 C 
BRANCH  73  74
ATOM     74  C   UNL A   1      33.715  21.913  25.242  1.00  0.00     0.008 A 
ATOM     75  C   UNL A   1      34.155  22.321  26.509  1.00  0.00     0.011 A 
ATOM     76  C   UNL A   1      34.609  21.995  24.163  1.00  0.00     0.031 A 
ATOM     77  C   UNL A   1      35.409  22.914  26.671  1.00  0.00     0.022 A 
ATOM     78  C   UNL A   1      35.874  22.578  24.325  1.00  0.00     0.060 A 
ATOM     79  C   UNL A   1      36.260  23.066  25.576  1.00  0.00     0.059 A 
ATOM     80  Cl  UNL A   1      36.873  22.728  22.924  1.00  0.00    -0.083 Cl
ATOM     81  Cl  UNL A   1      37.753  23.897  25.830  1.00  0.00    -0.083 Cl
ENDBRANCH  73  74
ENDBRANCH  65  73
ENDBRANCH  59  62
ENDBRANCH  57  58
ENDBRANCH   1  57
TORSDOF 12
ENDMDL
MODEL 2
REMARK VINA RESULT:     -11.3      0.391      5.920
REMARK SMILES O=C(NCCCNC(=O)[C@H]1C[N@H+](Cc2ccc(Cl)c(Cl)c2)CC12CCCCC2)c1ccc(-c2c3nc(c(-c4ccccc4)c4ccc([nH]4)c(-c4ccccc4)c4nc(c(-c5ccccc5)c5ccc2[nH]5)C=C4)C=C3)cc1
REMARK SMILES IDX 5 1 4 2 3 3 1 4 2 5 29 7 30 8 76 9 31 10 75 11 32 12 33 13
REMARK SMILES IDX 34 14 69 15 35 16 74 17 68 18 70 19 36 20 73 21 67 22 66 23
REMARK SMILES IDX 37 25 59 26 44 27 58 28 45 29 48 30 57 31 71 32 46 33 47 34
REMARK SMILES IDX 56 36 72 37 49 38 38 39 39 40 43 41 40 42 42 43 41 44 60 45
REMARK SMILES IDX 61 46 65 47 62 48 64 49 63 50 50 51 51 52 55 53 52 54 54 55
REMARK SMILES IDX 53 56 6 57 7 58 8 59 9 61 10 62 11 63 23 64 12 65 22 66
REMARK SMILES IDX 24 67 28 68 25 70 27 71 26 72 13 73 14 74 15 75 21 76 16 77
REMARK SMILES IDX 19 78 17 79 20 80 18 81
REMARK H PARENT 3 6 70 24 48 35 7 60 12 69
REMARK Flexibility Score: inf
ROOT
ATOM      1  C   UNL A   1      32.680  28.264  25.751  1.00  0.00     0.042 C 
ENDROOT
BRANCH   1   2
ATOM      2  C   UNL A   1      33.986  29.037  25.892  1.00  0.00     0.118 C 
BRANCH   2   3
ATOM      3  N   UNL A   1      33.792  30.297  26.588  1.00  0.00    -0.352 N 
ATOM      4  O   UNL A   1      34.003  31.786  28.257  1.00  0.00    -0.269 OA
ATOM      5  C   UNL A   1      34.482  30.832  27.649  1.00  0.00     0.251 C 
ATOM      6  H   UNL A   1      33.054  30.851  26.248  1.00  0.00     0.163 HD
BRANCH   5   7
ATOM      7  C   UNL A   1      35.789  30.275  28.079  1.00  0.00     0.039 A 
ATOM      8  C   UNL A   1      36.925  30.367  27.274  1.00  0.00     0.014 A 
ATOM      9  C   UNL A   1      35.899  29.716  29.359  1.00  0.00     0.014 A 
ATOM     10  C   UNL A   1      38.125  29.792  27.686  1.00  0.00     0.010 A 
ATOM     11  C   UNL A   1      37.129  29.223  29.810  1.00  0.00     0.010 A 
ATOM     12  C   UNL A   1      38.250  29.234  28.969  1.00  0.00    -0.014 A 
BRANCH  12  13
ATOM     13  C   UNL A   1      39.577  28.737  29.425  1.00  0.00     0.031 A 
ATOM     14  C   UNL A   1      40.141  27.433  28.928  1.00  0.00     0.074 A 
ATOM     15  C   UNL A   1      40.294  29.486  30.287  1.00  0.00     0.049 A 
ATOM     16  N   UNL A   1      41.300  26.882  29.196  1.00  0.00    -0.248 NA
ATOM     17  C   UNL A   1      39.296  26.639  28.024  1.00  0.00     0.031 C 
ATOM     18  C   UNL A   1      39.859  30.762  30.863  1.00  0.00     0.029 A 
ATOM     19  N   UNL A   1      41.550  29.301  30.809  1.00  0.00    -0.354 N 
ATOM     20  C   UNL A   1      41.310  25.667  28.520  1.00  0.00     0.074 A 
ATOM     21  C   UNL A   1      40.034  25.552  27.846  1.00  0.00     0.031 C 
ATOM     22  C   UNL A   1      40.855  31.275  31.601  1.00  0.00     0.029 A 
ATOM     23  C   UNL A   1      41.974  30.340  31.602  1.00  0.00     0.049 A 
ATOM     24  H   UNL A   1      42.096  28.500  30.631  1.00  0.00     0.167 HD
ATOM     25  C   UNL A   1      42.292  24.735  28.463  1.00  0.00     0.031 A 
ATOM     26  C   UNL A   1      43.131  30.526  32.262  1.00  0.00     0.031 A 
ATOM     27  C   UNL A   1      43.568  24.850  29.121  1.00  0.00     0.049 A 
ATOM     28  C   UNL A   1      44.201  29.477  32.181  1.00  0.00     0.074 A 
ATOM     29  C   UNL A   1      44.640  23.973  29.085  1.00  0.00     0.029 A 
ATOM     30  N   UNL A   1      43.945  25.906  29.935  1.00  0.00    -0.354 N 
ATOM     31  N   UNL A   1      44.206  28.355  31.504  1.00  0.00    -0.248 NA
ATOM     32  C   UNL A   1      45.425  29.724  32.956  1.00  0.00     0.031 C 
ATOM     33  C   UNL A   1      45.648  24.478  29.913  1.00  0.00     0.029 A 
ATOM     34  C   UNL A   1      45.224  25.695  30.423  1.00  0.00     0.049 A 
ATOM     35  H   UNL A   1      43.385  26.691  30.138  1.00  0.00     0.167 HD
ATOM     36  C   UNL A   1      45.442  27.773  31.751  1.00  0.00     0.074 A 
ATOM     37  C   UNL A   1      46.164  28.674  32.625  1.00  0.00     0.031 C 
ATOM     38  C   UNL A   1      45.933  26.598  31.292  1.00  0.00     0.031 A 
BRANCH  25  39
ATOM     39  C   UNL A   1      42.013  23.482  27.677  1.00  0.00    -0.014 A 
ATOM     40  C   UNL A   1      42.452  23.336  26.353  1.00  0.00     0.009 A 
ATOM     41  C   UNL A   1      41.332  22.417  28.288  1.00  0.00     0.009 A 
ATOM     42  C   UNL A   1      42.184  22.161  25.645  1.00  0.00     0.001 A 
ATOM     43  C   UNL A   1      41.089  21.235  27.588  1.00  0.00     0.001 A 
ATOM     44  C   UNL A   1      41.506  21.111  26.264  1.00  0.00     0.000 A 
ENDBRANCH  25  39
BRANCH  26  45
ATOM     45  C   UNL A   1      43.343  31.768  33.050  1.00  0.00    -0.014 A 
ATOM     46  C   UNL A   1      42.904  31.848  34.380  1.00  0.00     0.009 A 
ATOM     47  C   UNL A   1      43.991  32.875  32.480  1.00  0.00     0.009 A 
ATOM     48  C   UNL A   1      43.092  33.020  35.117  1.00  0.00     0.001 A 
ATOM     49  C   UNL A   1      44.203  34.034  33.228  1.00  0.00     0.001 A 
ATOM     50  C   UNL A   1      43.746  34.109  34.543  1.00  0.00     0.000 A 
ENDBRANCH  26  45
BRANCH  38  51
ATOM     51  C   UNL A   1      47.335  26.241  31.696  1.00  0.00    -0.014 A 
ATOM     52  C   UNL A   1      47.599  25.559  32.894  1.00  0.00     0.009 A 
ATOM     53  C   UNL A   1      48.406  26.581  30.855  1.00  0.00     0.009 A 
ATOM     54  C   UNL A   1      48.913  25.260  33.259  1.00  0.00     0.001 A 
ATOM     55  C   UNL A   1      49.716  26.256  31.209  1.00  0.00     0.001 A 
ATOM     56  C   UNL A   1      49.968  25.606  32.416  1.00  0.00     0.000 A 
ENDBRANCH  38  51
ENDBRANCH  12  13
ENDBRANCH   5   7
ENDBRANCH   2   3
ENDBRANCH   1   2
BRANCH   1  57
ATOM     57  C   UNL A   1      32.447  27.248  26.865  1.00  0.00     0.117 C 
BRANCH  57  58
ATOM     58  N   UNL A   1      31.083  26.748  26.857  1.00  0.00    -0.356 N 
ATOM     59  C   UNL A   1      30.528  25.639  26.295  1.00  0.00     0.229 C 
ATOM     60  H   UNL A   1      30.444  27.314  27.348  1.00  0.00     0.163 HD
ATOM     61  O   UNL A   1      29.307  25.519  26.408  1.00  0.00    -0.275 OA
BRANCH  59  62
ATOM     62  C   UNL A   1      31.393  24.594  25.592  1.00  0.00     0.145 C 
ATOM     63  C   UNL A   1      30.659  23.248  25.603  1.00  0.00     0.276 C 
ATOM     64  C   UNL A   1      31.780  24.809  24.093  1.00  0.00     0.037 C 
ATOM     65  N   UNL A   1      31.247  22.458  24.532  1.00  0.00    -0.330 N 
ATOM     66  C   UNL A   1      31.575  23.395  23.459  1.00  0.00     0.270 C 
ATOM     67  C   UNL A   1      30.889  25.863  23.386  1.00  0.00     0.014 C 
ATOM     68  C   UNL A   1      33.272  25.208  23.974  1.00  0.00     0.014 C 
ATOM     69  H   UNL A   1      30.564  21.786  24.183  1.00  0.00     0.348 HD
ATOM     70  C   UNL A   1      31.395  26.321  22.013  1.00  0.00     0.001 C 
ATOM     71  C   UNL A   1      33.715  25.562  22.560  1.00  0.00     0.001 C 
ATOM     72  C   UNL A   1      32.871  26.700  22.016  1.00  0.00     0.000 C 
BRANCH  65  73
ATOM     73  C   UNL A   1      32.236  21.444  24.900  1.00  0.00     0.299 C 
BRANCH  73  74
ATOM     74  C   UNL A   1      33.654  21.906  25.164  1.00  0.00     0.008 A 
ATOM     75  C   UNL A   1      34.058  22.299  26.447  1.00  0.00     0.011 A 
ATOM     76  C   UNL A   1      34.582  21.987  24.114  1.00  0.00     0.031 A 
ATOM     77  C   UNL A   1      35.313  22.877  26.653  1.00  0.00     0.022 A 
ATOM     78  C   UNL A   1      35.847  22.555  24.319  1.00  0.00     0.060 A 
ATOM     79  C   UNL A   1      36.200  23.029  25.585  1.00  0.00     0.059 A 
ATOM     80  Cl  UNL A   1      36.890  22.705  22.951  1.00  0.00    -0.083 Cl
ATOM     81  Cl  UNL A   1      37.692  23.841  25.893  1.00  0.00    -0.083 Cl
ENDBRANCH  73  74
ENDBRANCH  65  73
ENDBRANCH  59  62
ENDBRANCH  57  58
ENDBRANCH   1  57
TORSDOF 12
ENDMDL
MODEL 3
REMARK VINA RESULT:     -11.3      2.201      6.192
REMARK SMILES O=C(NCCCNC(=O)[C@H]1C[N@H+](Cc2ccc(Cl)c(Cl)c2)CC12CCCCC2)c1ccc(-c2c3nc(c(-c4ccccc4)c4ccc([nH]4)c(-c4ccccc4)c4nc(c(-c5ccccc5)c5ccc2[nH]5)C=C4)C=C3)cc1
REMARK SMILES IDX 5 1 4 2 3 3 1 4 2 5 29 7 30 8 76 9 31 10 75 11 32 12 33 13
REMARK SMILES IDX 34 14 69 15 35 16 74 17 68 18 70 19 36 20 73 21 67 22 66 23
REMARK SMILES IDX 37 25 59 26 44 27 58 28 45 29 48 30 57 31 71 32 46 33 47 34
REMARK SMILES IDX 56 36 72 37 49 38 38 39 39 40 43 41 40 42 42 43 41 44 60 45
REMARK SMILES IDX 61 46 65 47 62 48 64 49 63 50 50 51 51 52 55 53 52 54 54 55
REMARK SMILES IDX 53 56 6 57 7 58 8 59 9 61 10 62 11 63 23 64 12 65 22 66
REMARK SMILES IDX 24 67 28 68 25 70 27 71 26 72 13 73 14 74 15 75 21 76 16 77
REMARK SMILES IDX 19 78 17 79 20 80 18 81
REMARK H PARENT 3 6 70 24 48 35 7 60 12 69
REMARK Flexibility Score: inf
ROOT
ATOM      1  C   UNL A   1      32.546  28.686  27.128  1.00  0.00     0.042 C 
ENDROOT
BRANCH   1   2
ATOM      2  C   UNL A   1      33.973  29.209  27.247  1.00  0.00     0.118 C 
BRANCH   2   3
ATOM      3  N   UNL A   1      34.037  30.417  28.050  1.00  0.00    -0.352 N 
ATOM      4  O   UNL A   1      34.803  31.789  29.655  1.00  0.00    -0.269 OA
ATOM      5  C   UNL A   1      35.043  30.882  28.863  1.00  0.00     0.251 C 
ATOM      6  H   UNL A   1      33.238  30.990  28.004  1.00  0.00     0.163 HD
BRANCH   5   7
ATOM      7  C   UNL A   1      36.408  30.302  28.809  1.00  0.00     0.039 A 
ATOM      8  C   UNL A   1      37.170  30.330  27.639  1.00  0.00     0.014 A 
ATOM      9  C   UNL A   1      36.973  29.788  29.983  1.00  0.00     0.014 A 
ATOM     10  C   UNL A   1      38.429  29.736  27.609  1.00  0.00     0.010 A 
ATOM     11  C   UNL A   1      38.276  29.276  29.974  1.00  0.00     0.010 A 
ATOM     12  C   UNL A   1      39.009  29.223  28.780  1.00  0.00    -0.014 A 
BRANCH  12  13
ATOM     13  C   UNL A   1      40.404  28.704  28.740  1.00  0.00     0.031 A 
ATOM     14  C   UNL A   1      40.702  27.281  28.349  1.00  0.00     0.074 A 
ATOM     15  C   UNL A   1      41.420  29.537  29.042  1.00  0.00     0.049 A 
ATOM     16  N   UNL A   1      41.864  26.688  28.224  1.00  0.00    -0.248 NA
ATOM     17  C   UNL A   1      39.551  26.407  28.073  1.00  0.00     0.031 C 
ATOM     18  C   UNL A   1      41.272  30.936  29.456  1.00  0.00     0.029 A 
ATOM     19  N   UNL A   1      42.779  29.342  29.022  1.00  0.00    -0.354 N 
ATOM     20  C   UNL A   1      41.585  25.369  27.886  1.00  0.00     0.074 A 
ATOM     21  C   UNL A   1      40.143  25.243  27.845  1.00  0.00     0.031 C 
ATOM     22  C   UNL A   1      42.487  31.489  29.582  1.00  0.00     0.029 A 
ATOM     23  C   UNL A   1      43.500  30.473  29.321  1.00  0.00     0.049 A 
ATOM     24  H   UNL A   1      43.196  28.475  28.812  1.00  0.00     0.167 HD
ATOM     25  C   UNL A   1      42.449  24.356  27.629  1.00  0.00     0.031 A 
ATOM     26  C   UNL A   1      44.828  30.676  29.384  1.00  0.00     0.031 A 
ATOM     27  C   UNL A   1      43.883  24.480  27.656  1.00  0.00     0.049 A 
ATOM     28  C   UNL A   1      45.761  29.537  29.095  1.00  0.00     0.074 A 
ATOM     29  C   UNL A   1      44.838  23.517  27.370  1.00  0.00     0.029 A 
ATOM     30  N   UNL A   1      44.572  25.635  27.991  1.00  0.00    -0.354 N 
ATOM     31  N   UNL A   1      45.477  28.309  28.738  1.00  0.00    -0.248 NA
ATOM     32  C   UNL A   1      47.198  29.816  29.218  1.00  0.00     0.031 C 
ATOM     33  C   UNL A   1      46.103  24.079  27.573  1.00  0.00     0.029 A 
ATOM     34  C   UNL A   1      45.937  25.405  27.936  1.00  0.00     0.049 A 
ATOM     35  H   UNL A   1      44.152  26.493  28.232  1.00  0.00     0.167 HD
ATOM     36  C   UNL A   1      46.700  27.675  28.569  1.00  0.00     0.074 A 
ATOM     37  C   UNL A   1      47.727  28.658  28.847  1.00  0.00     0.031 C 
ATOM     38  C   UNL A   1      46.948  26.391  28.214  1.00  0.00     0.031 A 
BRANCH  25  39
ATOM     39  C   UNL A   1      41.861  23.006  27.323  1.00  0.00    -0.014 A 
ATOM     40  C   UNL A   1      41.533  22.631  26.011  1.00  0.00     0.009 A 
ATOM     41  C   UNL A   1      41.669  22.081  28.361  1.00  0.00     0.009 A 
ATOM     42  C   UNL A   1      40.993  21.369  25.751  1.00  0.00     0.001 A 
ATOM     43  C   UNL A   1      41.154  20.811  28.095  1.00  0.00     0.001 A 
ATOM     44  C   UNL A   1      40.806  20.460  26.791  1.00  0.00     0.000 A 
ENDBRANCH  25  39
BRANCH  26  45
ATOM     45  C   UNL A   1      45.356  32.023  29.723  1.00  0.00    -0.014 A 
ATOM     46  C   UNL A   1      45.615  32.960  28.711  1.00  0.00     0.009 A 
ATOM     47  C   UNL A   1      45.598  32.380  31.058  1.00  0.00     0.009 A 
ATOM     48  C   UNL A   1      46.124  34.221  29.029  1.00  0.00     0.001 A 
ATOM     49  C   UNL A   1      46.078  33.652  31.375  1.00  0.00     0.001 A 
ATOM     50  C   UNL A   1      46.349  34.568  30.361  1.00  0.00     0.000 A 
ENDBRANCH  26  45
BRANCH  38  51
ATOM     51  C   UNL A   1      48.389  25.992  28.067  1.00  0.00    -0.014 A 
ATOM     52  C   UNL A   1      49.143  25.554  29.167  1.00  0.00     0.009 A 
ATOM     53  C   UNL A   1      48.995  26.042  26.802  1.00  0.00     0.009 A 
ATOM     54  C   UNL A   1      50.487  25.211  29.008  1.00  0.00     0.001 A 
ATOM     55  C   UNL A   1      50.331  25.673  26.641  1.00  0.00     0.001 A 
ATOM     56  C   UNL A   1      51.078  25.268  27.747  1.00  0.00     0.000 A 
ENDBRANCH  38  51
ENDBRANCH  12  13
ENDBRANCH   5   7
ENDBRANCH   2   3
ENDBRANCH   1   2
BRANCH   1  57
ATOM     57  C   UNL A   1      32.460  27.252  26.614  1.00  0.00     0.117 C 
BRANCH  57  58
ATOM     58  N   UNL A   1      31.115  26.719  26.737  1.00  0.00    -0.356 N 
ATOM     59  C   UNL A   1      30.557  25.557  26.296  1.00  0.00     0.229 C 
ATOM     60  H   UNL A   1      30.493  27.303  27.228  1.00  0.00     0.163 HD
ATOM     61  O   UNL A   1      29.350  25.415  26.502  1.00  0.00    -0.275 OA
BRANCH  59  62
ATOM     62  C   UNL A   1      31.404  24.485  25.613  1.00  0.00     0.145 C 
ATOM     63  C   UNL A   1      30.656  23.148  25.667  1.00  0.00     0.276 C 
ATOM     64  C   UNL A   1      31.779  24.657  24.105  1.00  0.00     0.037 C 
ATOM     65  N   UNL A   1      31.225  22.324  24.611  1.00  0.00    -0.330 N 
ATOM     66  C   UNL A   1      31.552  23.228  23.511  1.00  0.00     0.270 C 
ATOM     67  C   UNL A   1      30.891  25.701  23.379  1.00  0.00     0.014 C 
ATOM     68  C   UNL A   1      33.273  25.036  23.962  1.00  0.00     0.014 C 
ATOM     69  H   UNL A   1      30.532  21.650  24.287  1.00  0.00     0.348 HD
ATOM     70  C   UNL A   1      31.389  26.117  21.989  1.00  0.00     0.001 C 
ATOM     71  C   UNL A   1      33.706  25.348  22.534  1.00  0.00     0.001 C 
ATOM     72  C   UNL A   1      32.869  26.480  21.969  1.00  0.00     0.000 C 
BRANCH  65  73
ATOM     73  C   UNL A   1      32.206  21.309  24.996  1.00  0.00     0.299 C 
BRANCH  73  74
ATOM     74  C   UNL A   1      33.620  21.770  25.285  1.00  0.00     0.008 A 
ATOM     75  C   UNL A   1      34.004  22.158  26.576  1.00  0.00     0.011 A 
ATOM     76  C   UNL A   1      34.565  21.855  24.250  1.00  0.00     0.031 A 
ATOM     77  C   UNL A   1      35.255  22.736  26.804  1.00  0.00     0.022 A 
ATOM     78  C   UNL A   1      35.826  22.423  24.478  1.00  0.00     0.060 A 
ATOM     79  C   UNL A   1      36.159  22.892  25.751  1.00  0.00     0.059 A 
ATOM     80  Cl  UNL A   1      36.892  22.578  23.127  1.00  0.00    -0.083 Cl
ATOM     81  Cl  UNL A   1      37.646  23.703  26.086  1.00  0.00    -0.083 Cl
ENDBRANCH  73  74
ENDBRANCH  65  73
ENDBRANCH  59  62
ENDBRANCH  57  58
ENDBRANCH   1  57
TORSDOF 12
ENDMDL
