MODEL 1
REMARK VINA RESULT:     -11.6      0.000      0.000
REMARK SMILES COc1cc(NC(=O)[C@@H]2CC=CC[C@H]2C(=O)NCCCNC(=O)c2ccc(-c3c4nc(c(-c5ccccc5)c5ccc([nH]5)c(-c5ccccc5)c5nc(c(-c6ccccc6)c6ccc3[nH]6)C=C5)C=C4)cc2)c(OC)cc1Cl
REMARK SMILES IDX 18 1 17 2 15 3 16 4 14 6 9 7 10 8 11 9 13 10 12 11 7 12 6 13
REMARK SMILES IDX 8 15 5 16 3 17 4 18 76 19 75 20 77 21 72 22 2 23 1 24 73 25
REMARK SMILES IDX 74 26 19 27 20 28 21 29 22 30 23 32 24 33 25 34 71 35 26 36
REMARK SMILES IDX 70 37 27 38 28 39 29 40 64 41 30 42 69 43 63 44 65 45 31 46
REMARK SMILES IDX 68 47 62 48 61 49 32 51 54 52 39 53 53 54 40 55 43 56 52 57
REMARK SMILES IDX 66 58 41 59 42 60 51 62 67 63 44 64 33 65 34 66 38 67 35 68
REMARK SMILES IDX 37 69 36 70 55 71 56 72 60 73 57 74 59 75 58 76 45 77 46 78
REMARK SMILES IDX 50 79 47 80 49 81 48 82
REMARK H PARENT 17 5 6 14 21 31 65 50 43 61
REMARK Flexibility Score: inf
ROOT
ATOM      1  C   UNL A   1      36.309  20.699  25.091  1.00  0.00     0.117 C 
ENDROOT
BRANCH   1   2
ATOM      2  N   UNL A   1      36.296  21.726  24.067  1.00  0.00    -0.356 N 
ATOM      3  C   UNL A   1      35.450  22.771  23.859  1.00  0.00     0.224 C 
ATOM      4  O   UNL A   1      35.754  23.575  22.975  1.00  0.00    -0.275 OA
ATOM      5  H   UNL A   1      37.024  21.655  23.408  1.00  0.00     0.163 HD
BRANCH   3   6
ATOM      6  C   UNL A   1      34.267  23.031  24.784  1.00  0.00     0.095 C 
ATOM      7  C   UNL A   1      33.012  22.102  24.592  1.00  0.00     0.095 C 
ATOM      8  C   UNL A   1      32.080  22.275  25.802  1.00  0.00     0.041 C 
ATOM      9  C   UNL A   1      32.678  22.536  27.145  1.00  0.00    -0.030 C 
ATOM     10  C   UNL A   1      34.882  23.122  26.203  1.00  0.00     0.041 C 
ATOM     11  C   UNL A   1      33.948  22.883  27.332  1.00  0.00    -0.030 C 
BRANCH   7  12
ATOM     12  C   UNL A   1      32.420  22.311  23.154  1.00  0.00     0.228 C 
ATOM     13  N   UNL A   1      32.063  23.451  22.497  1.00  0.00    -0.323 N 
ATOM     14  H   UNL A   1      31.617  23.238  21.647  1.00  0.00     0.170 HD
ATOM     15  O   UNL A   1      32.142  21.293  22.496  1.00  0.00    -0.274 OA
BRANCH  13  16
ATOM     16  C   UNL A   1      32.145  24.843  22.683  1.00  0.00     0.087 A 
ATOM     17  C   UNL A   1      32.110  26.726  24.179  1.00  0.00     0.139 A 
ATOM     18  C   UNL A   1      31.604  25.495  23.769  1.00  0.00     0.078 A 
ATOM     19  C   UNL A   1      32.956  27.439  23.338  1.00  0.00     0.086 A 
ATOM     20  C   UNL A   1      33.276  26.918  22.086  1.00  0.00     0.073 A 
ATOM     21  Cl  UNL A   1      33.607  28.964  23.806  1.00  0.00    -0.080 Cl
ATOM     22  C   UNL A   1      32.884  25.613  21.754  1.00  0.00     0.144 A 
BRANCH  17  23
ATOM     23  O   UNL A   1      31.990  27.065  25.501  1.00  0.00    -0.495 OA
ATOM     24  C   UNL A   1      31.609  25.981  26.333  1.00  0.00     0.278 C 
ENDBRANCH  17  23
BRANCH  22  25
ATOM     25  O   UNL A   1      33.226  24.999  20.571  1.00  0.00    -0.495 OA
ATOM     26  C   UNL A   1      32.496  25.428  19.419  1.00  0.00     0.278 C 
ENDBRANCH  22  25
ENDBRANCH  13  16
ENDBRANCH   7  12
ENDBRANCH   3   6
ENDBRANCH   1   2
BRANCH   1  27
ATOM     27  C   UNL A   1      37.520  19.792  24.948  1.00  0.00     0.042 C 
BRANCH  27  28
ATOM     28  C   UNL A   1      38.782  20.393  25.552  1.00  0.00     0.118 C 
BRANCH  28  29
ATOM     29  N   UNL A   1      39.839  19.402  25.724  1.00  0.00    -0.352 N 
ATOM     30  C   UNL A   1      41.149  19.575  26.088  1.00  0.00     0.251 C 
ATOM     31  H   UNL A   1      39.572  18.471  25.554  1.00  0.00     0.163 HD
ATOM     32  O   UNL A   1      41.950  18.649  25.971  1.00  0.00    -0.269 OA
BRANCH  30  33
ATOM     33  C   UNL A   1      41.601  20.882  26.602  1.00  0.00     0.039 A 
ATOM     34  C   UNL A   1      42.170  21.803  25.719  1.00  0.00     0.014 A 
ATOM     35  C   UNL A   1      41.458  21.198  27.956  1.00  0.00     0.014 A 
ATOM     36  C   UNL A   1      42.530  23.069  26.182  1.00  0.00     0.010 A 
ATOM     37  C   UNL A   1      41.727  22.489  28.393  1.00  0.00     0.010 A 
ATOM     38  C   UNL A   1      42.273  23.434  27.513  1.00  0.00    -0.014 A 
BRANCH  38  39
ATOM     39  C   UNL A   1      42.572  24.796  28.019  1.00  0.00     0.031 A 
ATOM     40  C   UNL A   1      43.965  25.140  28.464  1.00  0.00     0.074 A 
ATOM     41  C   UNL A   1      41.576  25.694  28.151  1.00  0.00     0.049 A 
ATOM     42  N   UNL A   1      44.406  26.238  29.024  1.00  0.00    -0.248 NA
ATOM     43  C   UNL A   1      44.994  24.102  28.283  1.00  0.00     0.031 C 
ATOM     44  C   UNL A   1      40.176  25.471  27.783  1.00  0.00     0.029 A 
ATOM     45  N   UNL A   1      41.589  26.974  28.644  1.00  0.00    -0.354 N 
ATOM     46  C   UNL A   1      45.753  26.014  29.278  1.00  0.00     0.074 A 
ATOM     47  C   UNL A   1      46.045  24.659  28.865  1.00  0.00     0.031 C 
ATOM     48  C   UNL A   1      39.472  26.586  28.036  1.00  0.00     0.029 A 
ATOM     49  C   UNL A   1      40.357  27.582  28.632  1.00  0.00     0.049 A 
ATOM     50  H   UNL A   1      42.404  27.415  28.975  1.00  0.00     0.167 HD
ATOM     51  C   UNL A   1      46.671  26.866  29.792  1.00  0.00     0.031 A 
ATOM     52  C   UNL A   1      39.980  28.799  29.065  1.00  0.00     0.031 A 
ATOM     53  C   UNL A   1      46.379  28.214  30.200  1.00  0.00     0.049 A 
ATOM     54  C   UNL A   1      41.010  29.714  29.669  1.00  0.00     0.074 A 
ATOM     55  C   UNL A   1      47.247  29.174  30.687  1.00  0.00     0.029 A 
ATOM     56  N   UNL A   1      45.118  28.790  30.174  1.00  0.00    -0.354 N 
ATOM     57  N   UNL A   1      42.293  29.511  29.846  1.00  0.00    -0.248 NA
ATOM     58  C   UNL A   1      40.538  31.029  30.126  1.00  0.00     0.031 C 
ATOM     59  C   UNL A   1      46.502  30.311  31.013  1.00  0.00     0.029 A 
ATOM     60  C   UNL A   1      45.180  30.082  30.663  1.00  0.00     0.049 A 
ATOM     61  H   UNL A   1      44.299  28.345  29.854  1.00  0.00     0.167 HD
ATOM     62  C   UNL A   1      42.789  30.683  30.401  1.00  0.00     0.074 A 
ATOM     63  C   UNL A   1      41.670  31.595  30.522  1.00  0.00     0.031 C 
ATOM     64  C   UNL A   1      44.058  30.979  30.773  1.00  0.00     0.031 A 
BRANCH  51  65
ATOM     65  C   UNL A   1      48.077  26.354  29.953  1.00  0.00    -0.014 A 
ATOM     66  C   UNL A   1      49.015  26.458  28.912  1.00  0.00     0.009 A 
ATOM     67  C   UNL A   1      48.477  25.781  31.170  1.00  0.00     0.009 A 
ATOM     68  C   UNL A   1      50.310  25.958  29.073  1.00  0.00     0.001 A 
ATOM     69  C   UNL A   1      49.781  25.314  31.339  1.00  0.00     0.001 A 
ATOM     70  C   UNL A   1      50.692  25.391  30.288  1.00  0.00     0.000 A 
ENDBRANCH  51  65
BRANCH  52  71
ATOM     71  C   UNL A   1      38.563  29.230  28.934  1.00  0.00    -0.014 A 
ATOM     72  C   UNL A   1      37.692  29.151  30.031  1.00  0.00     0.009 A 
ATOM     73  C   UNL A   1      38.071  29.720  27.713  1.00  0.00     0.009 A 
ATOM     74  C   UNL A   1      36.352  29.527  29.901  1.00  0.00     0.001 A 
ATOM     75  C   UNL A   1      36.740  30.124  27.594  1.00  0.00     0.001 A 
ATOM     76  C   UNL A   1      35.880  30.018  28.685  1.00  0.00     0.000 A 
ENDBRANCH  52  71
BRANCH  64  77
ATOM     77  C   UNL A   1      44.320  32.361  31.304  1.00  0.00    -0.014 A 
ATOM     78  C   UNL A   1      44.642  33.427  30.451  1.00  0.00     0.009 A 
ATOM     79  C   UNL A   1      44.182  32.609  32.680  1.00  0.00     0.009 A 
ATOM     80  C   UNL A   1      44.847  34.707  30.969  1.00  0.00     0.001 A 
ATOM     81  C   UNL A   1      44.356  33.895  33.190  1.00  0.00     0.001 A 
ATOM     82  C   UNL A   1      44.697  34.941  32.335  1.00  0.00     0.000 A 
ENDBRANCH  64  77
ENDBRANCH  38  39
ENDBRANCH  30  33
ENDBRANCH  28  29
ENDBRANCH  27  28
ENDBRANCH   1  27
TORSDOF 14
ENDMDL
MODEL 2
REMARK VINA RESULT:     -11.5      1.426      5.944
REMARK SMILES COc1cc(NC(=O)[C@@H]2CC=CC[C@H]2C(=O)NCCCNC(=O)c2ccc(-c3c4nc(c(-c5ccccc5)c5ccc([nH]5)c(-c5ccccc5)c5nc(c(-c6ccccc6)c6ccc3[nH]6)C=C5)C=C4)cc2)c(OC)cc1Cl
REMARK SMILES IDX 18 1 17 2 15 3 16 4 14 6 9 7 10 8 11 9 13 10 12 11 7 12 6 13
REMARK SMILES IDX 8 15 5 16 3 17 4 18 76 19 75 20 77 21 72 22 2 23 1 24 73 25
REMARK SMILES IDX 74 26 19 27 20 28 21 29 22 30 23 32 24 33 25 34 71 35 26 36
REMARK SMILES IDX 70 37 27 38 28 39 29 40 64 41 30 42 69 43 63 44 65 45 31 46
REMARK SMILES IDX 68 47 62 48 61 49 32 51 54 52 39 53 53 54 40 55 43 56 52 57
REMARK SMILES IDX 66 58 41 59 42 60 51 62 67 63 44 64 33 65 34 66 38 67 35 68
REMARK SMILES IDX 37 69 36 70 55 71 56 72 60 73 57 74 59 75 58 76 45 77 46 78
REMARK SMILES IDX 50 79 47 80 49 81 48 82
REMARK H PARENT 17 5 6 14 21 31 65 50 43 61
REMARK Flexibility Score: inf
ROOT
ATOM      1  C   UNL A   1      36.541  20.878  25.114  1.00  0.00     0.117 C 
ENDROOT
BRANCH   1   2
ATOM      2  N   UNL A   1      36.437  21.830  24.026  1.00  0.00    -0.356 N 
ATOM      3  C   UNL A   1      35.520  22.802  23.772  1.00  0.00     0.224 C 
ATOM      4  O   UNL A   1      35.751  23.563  22.829  1.00  0.00    -0.275 OA
ATOM      5  H   UNL A   1      37.153  21.761  23.353  1.00  0.00     0.163 HD
BRANCH   3   6
ATOM      6  C   UNL A   1      34.344  23.048  24.710  1.00  0.00     0.095 C 
ATOM      7  C   UNL A   1      33.100  22.102  24.534  1.00  0.00     0.095 C 
ATOM      8  C   UNL A   1      32.178  22.264  25.753  1.00  0.00     0.041 C 
ATOM      9  C   UNL A   1      32.788  22.535  27.089  1.00  0.00    -0.030 C 
ATOM     10  C   UNL A   1      34.973  23.150  26.122  1.00  0.00     0.041 C 
ATOM     11  C   UNL A   1      34.055  22.901  27.262  1.00  0.00    -0.030 C 
BRANCH   7  12
ATOM     12  C   UNL A   1      32.489  22.299  23.102  1.00  0.00     0.228 C 
ATOM     13  N   UNL A   1      32.113  23.433  22.445  1.00  0.00    -0.323 N 
ATOM     14  H   UNL A   1      31.660  23.213  21.600  1.00  0.00     0.170 HD
ATOM     15  O   UNL A   1      32.212  21.276  22.451  1.00  0.00    -0.274 OA
BRANCH  13  16
ATOM     16  C   UNL A   1      32.184  24.827  22.624  1.00  0.00     0.087 A 
ATOM     17  C   UNL A   1      32.152  26.715  24.114  1.00  0.00     0.139 A 
ATOM     18  C   UNL A   1      31.653  25.477  23.716  1.00  0.00     0.078 A 
ATOM     19  C   UNL A   1      32.980  27.433  23.259  1.00  0.00     0.086 A 
ATOM     20  C   UNL A   1      33.287  26.910  22.004  1.00  0.00     0.073 A 
ATOM     21  Cl  UNL A   1      33.623  28.966  23.712  1.00  0.00    -0.080 Cl
ATOM     22  C   UNL A   1      32.903  25.600  21.682  1.00  0.00     0.144 A 
BRANCH  17  23
ATOM     23  O   UNL A   1      32.048  27.057  25.436  1.00  0.00    -0.495 OA
ATOM     24  C   UNL A   1      33.123  26.585  26.232  1.00  0.00     0.278 C 
ENDBRANCH  17  23
BRANCH  22  25
ATOM     25  O   UNL A   1      33.235  24.985  20.497  1.00  0.00    -0.495 OA
ATOM     26  C   UNL A   1      32.528  25.447  19.343  1.00  0.00     0.278 C 
ENDBRANCH  22  25
ENDBRANCH  13  16
ENDBRANCH   7  12
ENDBRANCH   3   6
ENDBRANCH   1   2
BRANCH   1  27
ATOM     27  C   UNL A   1      37.720  19.939  24.917  1.00  0.00     0.042 C 
BRANCH  27  28
ATOM     28  C   UNL A   1      38.934  20.336  25.745  1.00  0.00     0.118 C 
BRANCH  28  29
ATOM     29  N   UNL A   1      39.911  19.257  25.848  1.00  0.00    -0.352 N 
ATOM     30  C   UNL A   1      41.268  19.319  26.029  1.00  0.00     0.251 C 
ATOM     31  H   UNL A   1      39.539  18.348  25.778  1.00  0.00     0.163 HD
ATOM     32  O   UNL A   1      41.958  18.313  25.874  1.00  0.00    -0.269 OA
BRANCH  30  33
ATOM     33  C   UNL A   1      41.902  20.601  26.390  1.00  0.00     0.039 A 
ATOM     34  C   UNL A   1      42.294  21.478  25.376  1.00  0.00     0.014 A 
ATOM     35  C   UNL A   1      42.104  20.938  27.731  1.00  0.00     0.014 A 
ATOM     36  C   UNL A   1      42.824  22.725  25.710  1.00  0.00     0.010 A 
ATOM     37  C   UNL A   1      42.541  22.214  28.061  1.00  0.00     0.010 A 
ATOM     38  C   UNL A   1      42.912  23.117  27.055  1.00  0.00    -0.014 A 
BRANCH  38  39
ATOM     39  C   UNL A   1      43.398  24.464  27.444  1.00  0.00     0.031 A 
ATOM     40  C   UNL A   1      42.417  25.520  27.869  1.00  0.00     0.074 A 
ATOM     41  C   UNL A   1      44.709  24.758  27.337  1.00  0.00     0.049 A 
ATOM     42  N   UNL A   1      42.631  26.780  28.151  1.00  0.00    -0.248 NA
ATOM     43  C   UNL A   1      41.005  25.114  27.960  1.00  0.00     0.031 C 
ATOM     44  C   UNL A   1      45.756  23.829  26.907  1.00  0.00     0.029 A 
ATOM     45  N   UNL A   1      45.381  25.930  27.573  1.00  0.00    -0.354 N 
ATOM     46  C   UNL A   1      41.382  27.318  28.434  1.00  0.00     0.074 A 
ATOM     47  C   UNL A   1      40.410  26.266  28.233  1.00  0.00     0.031 C 
ATOM     48  C   UNL A   1      46.942  24.459  26.938  1.00  0.00     0.029 A 
ATOM     49  C   UNL A   1      46.732  25.846  27.337  1.00  0.00     0.049 A 
ATOM     50  H   UNL A   1      44.938  26.753  27.881  1.00  0.00     0.167 HD
ATOM     51  C   UNL A   1      41.072  28.571  28.842  1.00  0.00     0.031 A 
ATOM     52  C   UNL A   1      47.693  26.786  27.420  1.00  0.00     0.031 A 
ATOM     53  C   UNL A   1      42.040  29.615  29.042  1.00  0.00     0.049 A 
ATOM     54  C   UNL A   1      47.318  28.182  27.837  1.00  0.00     0.074 A 
ATOM     55  C   UNL A   1      41.836  30.904  29.500  1.00  0.00     0.029 A 
ATOM     56  N   UNL A   1      43.398  29.490  28.789  1.00  0.00    -0.354 N 
ATOM     57  N   UNL A   1      46.141  28.660  28.160  1.00  0.00    -0.248 NA
ATOM     58  C   UNL A   1      48.408  29.165  27.907  1.00  0.00     0.031 C 
ATOM     59  C   UNL A   1      43.060  31.578  29.467  1.00  0.00     0.029 A 
ATOM     60  C   UNL A   1      44.039  30.687  29.055  1.00  0.00     0.049 A 
ATOM     61  H   UNL A   1      43.841  28.670  28.469  1.00  0.00     0.167 HD
ATOM     62  C   UNL A   1      46.354  29.988  28.506  1.00  0.00     0.074 A 
ATOM     63  C   UNL A   1      47.773  30.236  28.363  1.00  0.00     0.031 C 
ATOM     64  C   UNL A   1      45.454  30.917  28.911  1.00  0.00     0.031 A 
BRANCH  51  65
ATOM     65  C   UNL A   1      39.620  28.880  29.084  1.00  0.00    -0.014 A 
ATOM     66  C   UNL A   1      38.790  29.346  28.050  1.00  0.00     0.009 A 
ATOM     67  C   UNL A   1      39.066  28.681  30.358  1.00  0.00     0.009 A 
ATOM     68  C   UNL A   1      37.449  29.648  28.299  1.00  0.00     0.001 A 
ATOM     69  C   UNL A   1      37.717  28.951  30.596  1.00  0.00     0.001 A 
ATOM     70  C   UNL A   1      36.913  29.446  29.571  1.00  0.00     0.000 A 
ENDBRANCH  51  65
BRANCH  52  71
ATOM     71  C   UNL A   1      49.105  26.437  27.112  1.00  0.00    -0.014 A 
ATOM     72  C   UNL A   1      49.573  26.471  25.789  1.00  0.00     0.009 A 
ATOM     73  C   UNL A   1      49.992  26.065  28.135  1.00  0.00     0.009 A 
ATOM     74  C   UNL A   1      50.891  26.114  25.494  1.00  0.00     0.001 A 
ATOM     75  C   UNL A   1      51.317  25.739  27.841  1.00  0.00     0.001 A 
ATOM     76  C   UNL A   1      51.762  25.754  26.520  1.00  0.00     0.000 A 
ENDBRANCH  52  71
BRANCH  64  77
ATOM     77  C   UNL A   1      45.979  32.278  29.274  1.00  0.00    -0.014 A 
ATOM     78  C   UNL A   1      46.016  33.324  28.340  1.00  0.00     0.009 A 
ATOM     79  C   UNL A   1      46.389  32.530  30.593  1.00  0.00     0.009 A 
ATOM     80  C   UNL A   1      46.479  34.588  28.714  1.00  0.00     0.001 A 
ATOM     81  C   UNL A   1      46.821  33.801  30.972  1.00  0.00     0.001 A 
ATOM     82  C   UNL A   1      46.873  34.826  30.030  1.00  0.00     0.000 A 
ENDBRANCH  64  77
ENDBRANCH  38  39
ENDBRANCH  30  33
ENDBRANCH  28  29
ENDBRANCH  27  28
ENDBRANCH   1  27
TORSDOF 14
ENDMDL
MODEL 3
REMARK VINA RESULT:     -11.5      3.311      8.642
REMARK SMILES COc1cc(NC(=O)[C@@H]2CC=CC[C@H]2C(=O)NCCCNC(=O)c2ccc(-c3c4nc(c(-c5ccccc5)c5ccc([nH]5)c(-c5ccccc5)c5nc(c(-c6ccccc6)c6ccc3[nH]6)C=C5)C=C4)cc2)c(OC)cc1Cl
REMARK SMILES IDX 18 1 17 2 15 3 16 4 14 6 9 7 10 8 11 9 13 10 12 11 7 12 6 13
REMARK SMILES IDX 8 15 5 16 3 17 4 18 76 19 75 20 77 21 72 22 2 23 1 24 73 25
REMARK SMILES IDX 74 26 19 27 20 28 21 29 22 30 23 32 24 33 25 34 71 35 26 36
REMARK SMILES IDX 70 37 27 38 28 39 29 40 64 41 30 42 69 43 63 44 65 45 31 46
REMARK SMILES IDX 68 47 62 48 61 49 32 51 54 52 39 53 53 54 40 55 43 56 52 57
REMARK SMILES IDX 66 58 41 59 42 60 51 62 67 63 44 64 33 65 34 66 38 67 35 68
REMARK SMILES IDX 37 69 36 70 55 71 56 72 60 73 57 74 59 75 58 76 45 77 46 78
REMARK SMILES IDX 50 79 47 80 49 81 48 82
REMARK H PARENT 17 5 6 14 21 31 65 50 43 61
REMARK Flexibility Score: inf
ROOT
ATOM      1  C   UNL A   1      31.625  30.391  25.758  1.00  0.00     0.117 C 
ENDROOT
BRANCH   1   2
ATOM      2  N   UNL A   1      31.486  29.264  26.660  1.00  0.00    -0.356 N 
ATOM      3  C   UNL A   1      31.729  27.938  26.478  1.00  0.00     0.224 C 
ATOM      4  O   UNL A   1      31.647  27.209  27.469  1.00  0.00    -0.275 OA
ATOM      5  H   UNL A   1      31.159  29.498  27.559  1.00  0.00     0.163 HD
BRANCH   3   6
ATOM      6  C   UNL A   1      32.241  27.400  25.146  1.00  0.00     0.095 C 
ATOM      7  C   UNL A   1      31.190  27.309  23.979  1.00  0.00     0.095 C 
ATOM      8  C   UNL A   1      31.939  27.080  22.656  1.00  0.00     0.041 C 
ATOM      9  C   UNL A   1      33.284  27.701  22.469  1.00  0.00    -0.030 C 
ATOM     10  C   UNL A   1      33.549  28.184  24.874  1.00  0.00     0.041 C 
ATOM     11  C   UNL A   1      33.996  28.231  23.460  1.00  0.00    -0.030 C 
BRANCH   7  12
ATOM     12  C   UNL A   1      30.049  26.309  24.377  1.00  0.00     0.228 C 
ATOM     13  N   UNL A   1      30.111  25.027  24.837  1.00  0.00    -0.323 N 
ATOM     14  H   UNL A   1      29.213  24.630  24.888  1.00  0.00     0.170 HD
ATOM     15  O   UNL A   1      28.875  26.673  24.185  1.00  0.00    -0.274 OA
BRANCH  13  16
ATOM     16  C   UNL A   1      31.088  24.106  25.260  1.00  0.00     0.087 A 
ATOM     17  C   UNL A   1      33.331  23.257  25.081  1.00  0.00     0.139 A 
ATOM     18  C   UNL A   1      32.168  23.741  24.487  1.00  0.00     0.078 A 
ATOM     19  C   UNL A   1      33.314  22.868  26.415  1.00  0.00     0.086 A 
ATOM     20  C   UNL A   1      32.127  22.952  27.139  1.00  0.00     0.073 A 
ATOM     21  Cl  UNL A   1      34.731  22.267  27.191  1.00  0.00    -0.080 Cl
ATOM     22  C   UNL A   1      31.009  23.583  26.572  1.00  0.00     0.144 A 
BRANCH  17  23
ATOM     23  O   UNL A   1      34.517  23.445  24.422  1.00  0.00    -0.495 OA
ATOM     24  C   UNL A   1      34.400  24.247  23.258  1.00  0.00     0.278 C 
ENDBRANCH  17  23
BRANCH  22  25
ATOM     25  O   UNL A   1      29.826  23.775  27.248  1.00  0.00    -0.495 OA
ATOM     26  C   UNL A   1      29.018  22.608  27.422  1.00  0.00     0.278 C 
ENDBRANCH  22  25
ENDBRANCH  13  16
ENDBRANCH   7  12
ENDBRANCH   3   6
ENDBRANCH   1   2
BRANCH   1  27
ATOM     27  C   UNL A   1      31.370  31.707  26.475  1.00  0.00     0.042 C 
BRANCH  27  28
ATOM     28  C   UNL A   1      32.610  32.246  27.176  1.00  0.00     0.118 C 
BRANCH  28  29
ATOM     29  N   UNL A   1      32.453  33.638  27.585  1.00  0.00    -0.352 N 
ATOM     30  C   UNL A   1      33.187  34.376  28.477  1.00  0.00     0.251 C 
ATOM     31  H   UNL A   1      31.710  34.119  27.156  1.00  0.00     0.163 HD
ATOM     32  O   UNL A   1      32.776  35.470  28.859  1.00  0.00    -0.269 OA
BRANCH  30  33
ATOM     33  C   UNL A   1      34.463  33.845  28.994  1.00  0.00     0.039 A 
ATOM     34  C   UNL A   1      34.463  33.102  30.177  1.00  0.00     0.014 A 
ATOM     35  C   UNL A   1      35.657  34.077  28.307  1.00  0.00     0.014 A 
ATOM     36  C   UNL A   1      35.652  32.531  30.632  1.00  0.00     0.010 A 
ATOM     37  C   UNL A   1      36.818  33.430  28.708  1.00  0.00     0.010 A 
ATOM     38  C   UNL A   1      36.830  32.658  29.878  1.00  0.00    -0.014 A 
BRANCH  38  39
ATOM     39  C   UNL A   1      38.094  32.001  30.291  1.00  0.00     0.031 A 
ATOM     40  C   UNL A   1      39.025  32.701  31.241  1.00  0.00     0.074 A 
ATOM     41  C   UNL A   1      38.439  30.815  29.752  1.00  0.00     0.049 A 
ATOM     42  N   UNL A   1      40.216  32.339  31.646  1.00  0.00    -0.248 NA
ATOM     43  C   UNL A   1      38.570  33.991  31.785  1.00  0.00     0.031 C 
ATOM     44  C   UNL A   1      37.635  30.050  28.796  1.00  0.00     0.029 A 
ATOM     45  N   UNL A   1      39.565  30.052  29.925  1.00  0.00    -0.354 N 
ATOM     46  C   UNL A   1      40.657  33.364  32.473  1.00  0.00     0.074 A 
ATOM     47  C   UNL A   1      39.634  34.386  32.468  1.00  0.00     0.031 C 
ATOM     48  C   UNL A   1      38.282  28.914  28.490  1.00  0.00     0.029 A 
ATOM     49  C   UNL A   1      39.565  28.895  29.184  1.00  0.00     0.049 A 
ATOM     50  H   UNL A   1      40.304  30.309  30.522  1.00  0.00     0.167 HD
ATOM     51  C   UNL A   1      41.804  33.441  33.189  1.00  0.00     0.031 A 
ATOM     52  C   UNL A   1      40.499  27.932  29.067  1.00  0.00     0.031 A 
ATOM     53  C   UNL A   1      42.819  32.423  33.195  1.00  0.00     0.049 A 
ATOM     54  C   UNL A   1      41.782  28.059  29.842  1.00  0.00     0.074 A 
ATOM     55  C   UNL A   1      43.994  32.381  33.923  1.00  0.00     0.029 A 
ATOM     56  N   UNL A   1      42.781  31.268  32.429  1.00  0.00    -0.354 N 
ATOM     57  N   UNL A   1      42.159  29.005  30.668  1.00  0.00    -0.248 NA
ATOM     58  C   UNL A   1      42.766  26.980  29.671  1.00  0.00     0.031 C 
ATOM     59  C   UNL A   1      44.697  31.231  33.552  1.00  0.00     0.029 A 
ATOM     60  C   UNL A   1      43.926  30.521  32.645  1.00  0.00     0.049 A 
ATOM     61  H   UNL A   1      42.048  31.016  31.821  1.00  0.00     0.167 HD
ATOM     62  C   UNL A   1      43.405  28.618  31.143  1.00  0.00     0.074 A 
ATOM     63  C   UNL A   1      43.715  27.348  30.521  1.00  0.00     0.031 C 
ATOM     64  C   UNL A   1      44.218  29.256  32.021  1.00  0.00     0.031 A 
BRANCH  51  65
ATOM     65  C   UNL A   1      42.022  34.680  34.016  1.00  0.00    -0.014 A 
ATOM     66  C   UNL A   1      41.680  34.718  35.378  1.00  0.00     0.009 A 
ATOM     67  C   UNL A   1      42.600  35.817  33.430  1.00  0.00     0.009 A 
ATOM     68  C   UNL A   1      41.871  35.884  36.124  1.00  0.00     0.001 A 
ATOM     69  C   UNL A   1      42.821  36.969  34.187  1.00  0.00     0.001 A 
ATOM     70  C   UNL A   1      42.446  37.006  35.528  1.00  0.00     0.000 A 
ENDBRANCH  51  65
BRANCH  52  71
ATOM     71  C   UNL A   1      40.253  26.758  28.189  1.00  0.00    -0.014 A 
ATOM     72  C   UNL A   1      40.734  26.743  26.871  1.00  0.00     0.009 A 
ATOM     73  C   UNL A   1      39.535  25.647  28.660  1.00  0.00     0.009 A 
ATOM     74  C   UNL A   1      40.477  25.654  26.035  1.00  0.00     0.001 A 
ATOM     75  C   UNL A   1      39.307  24.546  27.833  1.00  0.00     0.001 A 
ATOM     76  C   UNL A   1      39.769  24.555  26.518  1.00  0.00     0.000 A 
ENDBRANCH  52  71
BRANCH  64  77
ATOM     77  C   UNL A   1      45.502  28.572  32.399  1.00  0.00    -0.014 A 
ATOM     78  C   UNL A   1      46.698  28.824  31.712  1.00  0.00     0.009 A 
ATOM     79  C   UNL A   1      45.522  27.705  33.503  1.00  0.00     0.009 A 
ATOM     80  C   UNL A   1      47.883  28.199  32.106  1.00  0.00     0.001 A 
ATOM     81  C   UNL A   1      46.713  27.107  33.915  1.00  0.00     0.001 A 
ATOM     82  C   UNL A   1      47.890  27.348  33.210  1.00  0.00     0.000 A 
ENDBRANCH  64  77
ENDBRANCH  38  39
ENDBRANCH  30  33
ENDBRANCH  28  29
ENDBRANCH  27  28
ENDBRANCH   1  27
TORSDOF 14
ENDMDL
