MODEL 1
REMARK VINA RESULT:     -11.7      0.000      0.000
REMARK SMILES C#Cc1cc(Cl)c2c(c1)C=C(C(=O)NCCCNC(=O)c1ccc(-c3c4nc(c(-c5ccccc5)c5ccc([nH]5)c(-c5ccccc5)c5nc(c(-c6ccccc6)c6ccc3[nH]6)C=C5)C=C4)cc1)[C@@H](C(F)(F)F)O2
REMARK SMILES IDX 16 1 15 2 14 3 12 4 13 5 11 7 3 8 4 9 9 10 5 11 8 12 6 13
REMARK SMILES IDX 7 14 10 15 74 16 69 17 2 18 1 19 70 20 71 21 72 22 73 23
REMARK SMILES IDX 17 24 18 25 19 26 20 28 21 29 22 30 68 31 23 32 67 33 24 34
REMARK SMILES IDX 25 35 26 36 61 37 27 38 66 39 60 40 62 41 28 42 65 43 59 44
REMARK SMILES IDX 58 45 29 47 51 48 36 49 50 50 37 51 40 52 49 53 63 54 38 55
REMARK SMILES IDX 39 56 48 58 64 59 41 60 30 61 31 62 35 63 32 64 34 65 33 66
REMARK SMILES IDX 52 67 53 68 57 69 54 70 56 71 55 72 42 73 43 74 47 75 44 76
REMARK SMILES IDX 46 77 45 78
REMARK H PARENT 14 6 18 27 62 46 40 57
REMARK Flexibility Score: inf
ROOT
ATOM      1  C   UNL A   1      37.781  19.626  24.985  1.00  0.00     0.042 C 
ENDROOT
BRANCH   1   2
ATOM      2  C   UNL A   1      36.706  20.653  24.679  1.00  0.00     0.118 C 
BRANCH   2   3
ATOM      3  N   UNL A   1      35.716  20.735  25.743  1.00  0.00    -0.352 N 
ATOM      4  C   UNL A   1      34.674  21.537  26.068  1.00  0.00     0.251 C 
ATOM      5  O   UNL A   1      34.063  21.225  27.093  1.00  0.00    -0.270 OA
ATOM      6  H   UNL A   1      35.837  20.015  26.405  1.00  0.00     0.163 HD
BRANCH   4   7
ATOM      7  C   UNL A   1      34.249  22.731  25.282  1.00  0.00     0.067 C 
ATOM      8  C   UNL A   1      33.540  27.511  25.063  1.00  0.00     0.027 A 
ATOM      9  C   UNL A   1      33.265  27.415  23.698  1.00  0.00     0.041 A 
ATOM     10  C   UNL A   1      33.885  26.369  25.796  1.00  0.00     0.029 A 
ATOM     11  C   UNL A   1      33.340  26.180  23.064  1.00  0.00     0.084 A 
ATOM     12  C   UNL A   1      33.956  25.124  25.162  1.00  0.00     0.020 A 
ATOM     13  Cl  UNL A   1      33.004  26.094  21.372  1.00  0.00    -0.080 Cl
ATOM     14  C   UNL A   1      33.680  25.036  23.793  1.00  0.00     0.146 A 
ATOM     15  C   UNL A   1      34.359  23.926  25.892  1.00  0.00     0.025 C 
ATOM     16  O   UNL A   1      33.784  23.858  23.111  1.00  0.00    -0.474 OA
ATOM     17  C   UNL A   1      33.699  22.643  23.890  1.00  0.00     0.314 C 
BRANCH   8  18
ATOM     18  C   UNL A   1      33.484  28.788  25.698  1.00  0.00    -0.070 C 
ATOM     19  C   UNL A   1      33.401  29.864  26.228  1.00  0.00     0.010 C 
ENDBRANCH   8  18
BRANCH  17  20
ATOM     20  C   UNL A   1      32.251  22.112  23.860  1.00  0.00     0.429 C 
ATOM     21  F   UNL A   1      31.599  22.456  24.999  1.00  0.00    -0.167 F 
ATOM     22  F   UNL A   1      31.527  22.623  22.835  1.00  0.00    -0.167 F 
ATOM     23  F   UNL A   1      32.193  20.767  23.743  1.00  0.00    -0.167 F 
ENDBRANCH  17  20
ENDBRANCH   4   7
ENDBRANCH   2   3
ENDBRANCH   1   2
BRANCH   1  24
ATOM     24  C   UNL A   1      38.950  20.249  25.730  1.00  0.00     0.118 C 
BRANCH  24  25
ATOM     25  N   UNL A   1      40.080  19.327  25.831  1.00  0.00    -0.352 N 
ATOM     26  C   UNL A   1      41.409  19.576  26.059  1.00  0.00     0.251 C 
ATOM     27  H   UNL A   1      39.850  18.377  25.717  1.00  0.00     0.163 HD
ATOM     28  O   UNL A   1      42.247  18.710  25.835  1.00  0.00    -0.269 OA
BRANCH  26  29
ATOM     29  C   UNL A   1      41.819  20.893  26.571  1.00  0.00     0.039 A 
ATOM     30  C   UNL A   1      42.231  21.882  25.675  1.00  0.00     0.014 A 
ATOM     31  C   UNL A   1      41.790  21.147  27.943  1.00  0.00     0.014 A 
ATOM     32  C   UNL A   1      42.551  23.148  26.160  1.00  0.00     0.010 A 
ATOM     33  C   UNL A   1      41.987  22.436  28.409  1.00  0.00     0.010 A 
ATOM     34  C   UNL A   1      42.394  23.443  27.524  1.00  0.00    -0.014 A 
BRANCH  34  35
ATOM     35  C   UNL A   1      42.690  24.788  28.060  1.00  0.00     0.031 A 
ATOM     36  C   UNL A   1      44.102  25.147  28.428  1.00  0.00     0.074 A 
ATOM     37  C   UNL A   1      41.686  25.666  28.250  1.00  0.00     0.049 A 
ATOM     38  N   UNL A   1      44.561  26.262  28.936  1.00  0.00    -0.248 NA
ATOM     39  C   UNL A   1      45.133  24.114  28.222  1.00  0.00     0.031 C 
ATOM     40  C   UNL A   1      40.273  25.414  27.955  1.00  0.00     0.029 A 
ATOM     41  N   UNL A   1      41.702  26.951  28.726  1.00  0.00    -0.354 N 
ATOM     42  C   UNL A   1      45.923  26.060  29.108  1.00  0.00     0.074 A 
ATOM     43  C   UNL A   1      46.209  24.697  28.727  1.00  0.00     0.031 C 
ATOM     44  C   UNL A   1      39.567  26.526  28.209  1.00  0.00     0.029 A 
ATOM     45  C   UNL A   1      40.466  27.550  28.733  1.00  0.00     0.049 A 
ATOM     46  H   UNL A   1      42.521  27.401  29.035  1.00  0.00     0.167 HD
ATOM     47  C   UNL A   1      46.861  26.944  29.517  1.00  0.00     0.031 A 
ATOM     48  C   UNL A   1      40.101  28.788  29.116  1.00  0.00     0.031 A 
ATOM     49  C   UNL A   1      46.572  28.302  29.888  1.00  0.00     0.049 A 
ATOM     50  C   UNL A   1      41.155  29.734  29.618  1.00  0.00     0.074 A 
ATOM     51  C   UNL A   1      47.455  29.290  30.282  1.00  0.00     0.029 A 
ATOM     52  N   UNL A   1      45.303  28.860  29.911  1.00  0.00    -0.354 N 
ATOM     53  N   UNL A   1      42.450  29.551  29.717  1.00  0.00    -0.248 NA
ATOM     54  C   UNL A   1      40.700  31.062  30.053  1.00  0.00     0.031 C 
ATOM     55  C   UNL A   1      46.714  30.426  30.612  1.00  0.00     0.029 A 
ATOM     56  C   UNL A   1      45.377  30.171  30.348  1.00  0.00     0.049 A 
ATOM     57  H   UNL A   1      44.475  28.394  29.655  1.00  0.00     0.167 HD
ATOM     58  C   UNL A   1      42.967  30.744  30.201  1.00  0.00     0.074 A 
ATOM     59  C   UNL A   1      41.849  31.653  30.354  1.00  0.00     0.031 C 
ATOM     60  C   UNL A   1      44.252  31.059  30.495  1.00  0.00     0.031 A 
BRANCH  47  61
ATOM     61  C   UNL A   1      48.288  26.475  29.575  1.00  0.00    -0.014 A 
ATOM     62  C   UNL A   1      49.163  26.676  28.495  1.00  0.00     0.009 A 
ATOM     63  C   UNL A   1      48.783  25.884  30.748  1.00  0.00     0.009 A 
ATOM     64  C   UNL A   1      50.497  26.272  28.581  1.00  0.00     0.001 A 
ATOM     65  C   UNL A   1      50.125  25.515  30.843  1.00  0.00     0.001 A 
ATOM     66  C   UNL A   1      50.979  25.703  29.757  1.00  0.00     0.000 A 
ENDBRANCH  47  61
BRANCH  48  67
ATOM     67  C   UNL A   1      38.676  29.205  29.011  1.00  0.00    -0.014 A 
ATOM     68  C   UNL A   1      38.166  29.700  27.802  1.00  0.00     0.009 A 
ATOM     69  C   UNL A   1      37.812  29.090  30.113  1.00  0.00     0.009 A 
ATOM     70  C   UNL A   1      36.828  30.087  27.702  1.00  0.00     0.001 A 
ATOM     71  C   UNL A   1      36.467  29.446  30.000  1.00  0.00     0.001 A 
ATOM     72  C   UNL A   1      35.978  29.952  28.798  1.00  0.00     0.000 A 
ENDBRANCH  48  67
BRANCH  60  73
ATOM     73  C   UNL A   1      44.534  32.448  30.999  1.00  0.00    -0.014 A 
ATOM     74  C   UNL A   1      44.571  32.728  32.374  1.00  0.00     0.009 A 
ATOM     75  C   UNL A   1      44.859  33.465  30.088  1.00  0.00     0.009 A 
ATOM     76  C   UNL A   1      44.908  34.007  32.823  1.00  0.00     0.001 A 
ATOM     77  C   UNL A   1      45.230  34.731  30.541  1.00  0.00     0.001 A 
ATOM     78  C   UNL A   1      45.247  35.002  31.908  1.00  0.00     0.000 A 
ENDBRANCH  60  73
ENDBRANCH  34  35
ENDBRANCH  26  29
ENDBRANCH  24  25
ENDBRANCH   1  24
TORSDOF 12
ENDMDL
MODEL 2
REMARK VINA RESULT:     -11.6      4.380      9.224
REMARK SMILES C#Cc1cc(Cl)c2c(c1)C=C(C(=O)NCCCNC(=O)c1ccc(-c3c4nc(c(-c5ccccc5)c5ccc([nH]5)c(-c5ccccc5)c5nc(c(-c6ccccc6)c6ccc3[nH]6)C=C5)C=C4)cc1)[C@@H](C(F)(F)F)O2
REMARK SMILES IDX 16 1 15 2 14 3 12 4 13 5 11 7 3 8 4 9 9 10 5 11 8 12 6 13
REMARK SMILES IDX 7 14 10 15 74 16 69 17 2 18 1 19 70 20 71 21 72 22 73 23
REMARK SMILES IDX 17 24 18 25 19 26 20 28 21 29 22 30 68 31 23 32 67 33 24 34
REMARK SMILES IDX 25 35 26 36 61 37 27 38 66 39 60 40 62 41 28 42 65 43 59 44
REMARK SMILES IDX 58 45 29 47 51 48 36 49 50 50 37 51 40 52 49 53 63 54 38 55
REMARK SMILES IDX 39 56 48 58 64 59 41 60 30 61 31 62 35 63 32 64 34 65 33 66
REMARK SMILES IDX 52 67 53 68 57 69 54 70 56 71 55 72 42 73 43 74 47 75 44 76
REMARK SMILES IDX 46 77 45 78
REMARK H PARENT 14 6 18 27 62 46 40 57
REMARK Flexibility Score: inf
ROOT
ATOM      1  C   UNL A   1      31.357  32.182  26.719  1.00  0.00     0.042 C 
ENDROOT
BRANCH   1   2
ATOM      2  C   UNL A   1      31.531  30.709  26.398  1.00  0.00     0.118 C 
BRANCH   2   3
ATOM      3  N   UNL A   1      31.212  30.414  25.009  1.00  0.00    -0.352 N 
ATOM      4  C   UNL A   1      31.130  29.315  24.223  1.00  0.00     0.251 C 
ATOM      5  O   UNL A   1      30.793  29.521  23.054  1.00  0.00    -0.270 OA
ATOM      6  H   UNL A   1      30.998  31.234  24.507  1.00  0.00     0.163 HD
BRANCH   4   7
ATOM      7  C   UNL A   1      31.418  27.925  24.680  1.00  0.00     0.067 C 
ATOM      8  C   UNL A   1      34.663  24.471  25.652  1.00  0.00     0.027 A 
ATOM      9  C   UNL A   1      33.654  23.658  26.170  1.00  0.00     0.041 A 
ATOM     10  C   UNL A   1      34.363  25.754  25.177  1.00  0.00     0.029 A 
ATOM     11  C   UNL A   1      32.346  24.128  26.219  1.00  0.00     0.084 A 
ATOM     12  C   UNL A   1      33.048  26.227  25.220  1.00  0.00     0.020 A 
ATOM     13  Cl  UNL A   1      31.120  23.103  26.874  1.00  0.00    -0.080 Cl
ATOM     14  C   UNL A   1      32.041  25.407  25.742  1.00  0.00     0.146 A 
ATOM     15  C   UNL A   1      32.716  27.578  24.776  1.00  0.00     0.025 C 
ATOM     16  O   UNL A   1      30.750  25.835  25.857  1.00  0.00    -0.474 OA
ATOM     17  C   UNL A   1      30.346  26.928  25.002  1.00  0.00     0.314 C 
BRANCH   8  18
ATOM     18  C   UNL A   1      36.006  23.987  25.629  1.00  0.00    -0.070 C 
ATOM     19  C   UNL A   1      37.143  23.600  25.580  1.00  0.00     0.010 C 
ENDBRANCH   8  18
BRANCH  17  20
ATOM     20  C   UNL A   1      29.664  26.367  23.737  1.00  0.00     0.429 C 
ATOM     21  F   UNL A   1      28.461  26.962  23.546  1.00  0.00    -0.167 F 
ATOM     22  F   UNL A   1      30.385  26.589  22.611  1.00  0.00    -0.167 F 
ATOM     23  F   UNL A   1      29.456  25.033  23.807  1.00  0.00    -0.167 F 
ENDBRANCH  17  20
ENDBRANCH   4   7
ENDBRANCH   2   3
ENDBRANCH   1   2
BRANCH   1  24
ATOM     24  C   UNL A   1      32.682  32.834  27.077  1.00  0.00     0.118 C 
BRANCH  24  25
ATOM     25  N   UNL A   1      32.495  34.189  27.596  1.00  0.00    -0.352 N 
ATOM     26  C   UNL A   1      33.082  34.817  28.663  1.00  0.00     0.251 C 
ATOM     27  H   UNL A   1      31.846  34.736  27.098  1.00  0.00     0.163 HD
ATOM     28  O   UNL A   1      32.601  35.851  29.113  1.00  0.00    -0.269 OA
BRANCH  26  29
ATOM     29  C   UNL A   1      34.291  34.235  29.268  1.00  0.00     0.039 A 
ATOM     30  C   UNL A   1      34.173  33.413  30.389  1.00  0.00     0.014 A 
ATOM     31  C   UNL A   1      35.544  34.507  28.716  1.00  0.00     0.014 A 
ATOM     32  C   UNL A   1      35.314  32.810  30.915  1.00  0.00     0.010 A 
ATOM     33  C   UNL A   1      36.656  33.810  29.160  1.00  0.00     0.010 A 
ATOM     34  C   UNL A   1      36.556  32.975  30.280  1.00  0.00    -0.014 A 
BRANCH  34  35
ATOM     35  C   UNL A   1      37.776  32.317  30.793  1.00  0.00     0.031 A 
ATOM     36  C   UNL A   1      38.465  32.873  32.007  1.00  0.00     0.074 A 
ATOM     37  C   UNL A   1      38.280  31.249  30.145  1.00  0.00     0.049 A 
ATOM     38  N   UNL A   1      39.557  32.457  32.595  1.00  0.00    -0.248 NA
ATOM     39  C   UNL A   1      37.866  34.065  32.633  1.00  0.00     0.031 C 
ATOM     40  C   UNL A   1      37.710  30.643  28.939  1.00  0.00     0.029 A 
ATOM     41  N   UNL A   1      39.381  30.479  30.416  1.00  0.00    -0.354 N 
ATOM     42  C   UNL A   1      39.771  33.334  33.649  1.00  0.00     0.074 A 
ATOM     43  C   UNL A   1      38.746  34.349  33.580  1.00  0.00     0.031 C 
ATOM     44  C   UNL A   1      38.436  29.565  28.606  1.00  0.00     0.029 A 
ATOM     45  C   UNL A   1      39.550  29.435  29.540  1.00  0.00     0.049 A 
ATOM     46  H   UNL A   1      39.992  30.657  31.167  1.00  0.00     0.167 HD
ATOM     47  C   UNL A   1      40.718  33.280  34.611  1.00  0.00     0.031 A 
ATOM     48  C   UNL A   1      40.497  28.479  29.497  1.00  0.00     0.031 A 
ATOM     49  C   UNL A   1      41.731  32.263  34.680  1.00  0.00     0.049 A 
ATOM     50  C   UNL A   1      41.571  28.473  30.548  1.00  0.00     0.074 A 
ATOM     51  C   UNL A   1      42.716  32.097  35.636  1.00  0.00     0.029 A 
ATOM     52  N   UNL A   1      41.887  31.242  33.755  1.00  0.00    -0.354 N 
ATOM     53  N   UNL A   1      41.725  29.272  31.576  1.00  0.00    -0.248 NA
ATOM     54  C   UNL A   1      42.599  27.428  30.439  1.00  0.00     0.031 C 
ATOM     55  C   UNL A   1      43.513  31.017  35.251  1.00  0.00     0.029 A 
ATOM     56  C   UNL A   1      42.977  30.463  34.100  1.00  0.00     0.049 A 
ATOM     57  H   UNL A   1      41.309  31.094  32.972  1.00  0.00     0.167 HD
ATOM     58  C   UNL A   1      42.849  28.813  32.250  1.00  0.00     0.074 A 
ATOM     59  C   UNL A   1      43.325  27.651  31.526  1.00  0.00     0.031 C 
ATOM     60  C   UNL A   1      43.436  29.310  33.366  1.00  0.00     0.031 A 
BRANCH  47  61
ATOM     61  C   UNL A   1      40.700  34.344  35.674  1.00  0.00    -0.014 A 
ATOM     62  C   UNL A   1      41.419  35.539  35.517  1.00  0.00     0.009 A 
ATOM     63  C   UNL A   1      39.902  34.177  36.816  1.00  0.00     0.009 A 
ATOM     64  C   UNL A   1      41.359  36.535  36.494  1.00  0.00     0.001 A 
ATOM     65  C   UNL A   1      39.815  35.189  37.774  1.00  0.00     0.001 A 
ATOM     66  C   UNL A   1      40.549  36.364  37.615  1.00  0.00     0.000 A 
ENDBRANCH  47  61
BRANCH  48  67
ATOM     67  C   UNL A   1      40.449  27.436  28.436  1.00  0.00    -0.014 A 
ATOM     68  C   UNL A   1      39.759  26.234  28.650  1.00  0.00     0.009 A 
ATOM     69  C   UNL A   1      41.075  27.646  27.196  1.00  0.00     0.009 A 
ATOM     70  C   UNL A   1      39.710  25.258  27.652  1.00  0.00     0.001 A 
ATOM     71  C   UNL A   1      40.995  26.682  26.189  1.00  0.00     0.001 A 
ATOM     72  C   UNL A   1      40.320  25.486  26.421  1.00  0.00     0.000 A 
ENDBRANCH  48  67
BRANCH  60  73
ATOM     73  C   UNL A   1      44.652  28.599  33.893  1.00  0.00    -0.014 A 
ATOM     74  C   UNL A   1      44.533  27.516  34.777  1.00  0.00     0.009 A 
ATOM     75  C   UNL A   1      45.925  28.958  33.423  1.00  0.00     0.009 A 
ATOM     76  C   UNL A   1      45.669  26.822  35.197  1.00  0.00     0.001 A 
ATOM     77  C   UNL A   1      47.054  28.240  33.816  1.00  0.00     0.001 A 
ATOM     78  C   UNL A   1      46.926  27.177  34.707  1.00  0.00     0.000 A 
ENDBRANCH  60  73
ENDBRANCH  34  35
ENDBRANCH  26  29
ENDBRANCH  24  25
ENDBRANCH   1  24
TORSDOF 12
ENDMDL
MODEL 3
REMARK VINA RESULT:     -11.6      0.259      6.003
REMARK SMILES C#Cc1cc(Cl)c2c(c1)C=C(C(=O)NCCCNC(=O)c1ccc(-c3c4nc(c(-c5ccccc5)c5ccc([nH]5)c(-c5ccccc5)c5nc(c(-c6ccccc6)c6ccc3[nH]6)C=C5)C=C4)cc1)[C@@H](C(F)(F)F)O2
REMARK SMILES IDX 16 1 15 2 14 3 12 4 13 5 11 7 3 8 4 9 9 10 5 11 8 12 6 13
REMARK SMILES IDX 7 14 10 15 74 16 69 17 2 18 1 19 70 20 71 21 72 22 73 23
REMARK SMILES IDX 17 24 18 25 19 26 20 28 21 29 22 30 68 31 23 32 67 33 24 34
REMARK SMILES IDX 25 35 26 36 61 37 27 38 66 39 60 40 62 41 28 42 65 43 59 44
REMARK SMILES IDX 58 45 29 47 51 48 36 49 50 50 37 51 40 52 49 53 63 54 38 55
REMARK SMILES IDX 39 56 48 58 64 59 41 60 30 61 31 62 35 63 32 64 34 65 33 66
REMARK SMILES IDX 52 67 53 68 57 69 54 70 56 71 55 72 42 73 43 74 47 75 44 76
REMARK SMILES IDX 46 77 45 78
REMARK H PARENT 14 6 18 27 62 46 40 57
REMARK Flexibility Score: inf
ROOT
ATOM      1  C   UNL A   1      37.773  19.841  25.005  1.00  0.00     0.042 C 
ENDROOT
BRANCH   1   2
ATOM      2  C   UNL A   1      36.719  20.900  24.742  1.00  0.00     0.118 C 
BRANCH   2   3
ATOM      3  N   UNL A   1      35.726  20.954  25.806  1.00  0.00    -0.352 N 
ATOM      4  C   UNL A   1      34.671  21.735  26.138  1.00  0.00     0.251 C 
ATOM      5  O   UNL A   1      34.064  21.401  27.159  1.00  0.00    -0.270 OA
ATOM      6  H   UNL A   1      35.858  20.228  26.459  1.00  0.00     0.163 HD
BRANCH   4   7
ATOM      7  C   UNL A   1      34.227  22.931  25.366  1.00  0.00     0.067 C 
ATOM      8  C   UNL A   1      33.470  27.705  25.192  1.00  0.00     0.027 A 
ATOM      9  C   UNL A   1      33.184  27.618  23.829  1.00  0.00     0.041 A 
ATOM     10  C   UNL A   1      33.832  26.561  25.913  1.00  0.00     0.029 A 
ATOM     11  C   UNL A   1      33.265  26.389  23.184  1.00  0.00     0.084 A 
ATOM     12  C   UNL A   1      33.910  25.322  25.268  1.00  0.00     0.020 A 
ATOM     13  Cl  UNL A   1      32.915  26.314  21.495  1.00  0.00    -0.080 Cl
ATOM     14  C   UNL A   1      33.622  25.243  23.901  1.00  0.00     0.146 A 
ATOM     15  C   UNL A   1      34.331  24.122  25.985  1.00  0.00     0.025 C 
ATOM     16  O   UNL A   1      33.732  24.072  23.209  1.00  0.00    -0.474 OA
ATOM     17  C   UNL A   1      33.666  22.850  23.978  1.00  0.00     0.314 C 
BRANCH   8  18
ATOM     18  C   UNL A   1      33.407  28.977  25.839  1.00  0.00    -0.070 C 
ATOM     19  C   UNL A   1      33.345  30.031  26.414  1.00  0.00     0.010 C 
ENDBRANCH   8  18
BRANCH  17  20
ATOM     20  C   UNL A   1      32.223  22.305  23.957  1.00  0.00     0.429 C 
ATOM     21  F   UNL A   1      31.651  22.529  22.748  1.00  0.00    -0.167 F 
ATOM     22  F   UNL A   1      32.166  20.967  24.165  1.00  0.00    -0.167 F 
ATOM     23  F   UNL A   1      31.438  22.877  24.895  1.00  0.00    -0.167 F 
ENDBRANCH  17  20
ENDBRANCH   4   7
ENDBRANCH   2   3
ENDBRANCH   1   2
BRANCH   1  24
ATOM     24  C   UNL A   1      38.966  20.417  25.749  1.00  0.00     0.118 C 
BRANCH  24  25
ATOM     25  N   UNL A   1      40.044  19.437  25.883  1.00  0.00    -0.352 N 
ATOM     26  C   UNL A   1      41.382  19.620  26.118  1.00  0.00     0.251 C 
ATOM     27  H   UNL A   1      39.763  18.499  25.789  1.00  0.00     0.163 HD
ATOM     28  O   UNL A   1      42.174  18.705  25.922  1.00  0.00    -0.269 OA
BRANCH  26  29
ATOM     29  C   UNL A   1      41.858  20.925  26.604  1.00  0.00     0.039 A 
ATOM     30  C   UNL A   1      42.295  21.883  25.687  1.00  0.00     0.014 A 
ATOM     31  C   UNL A   1      41.868  21.197  27.973  1.00  0.00     0.014 A 
ATOM     32  C   UNL A   1      42.678  23.140  26.147  1.00  0.00     0.010 A 
ATOM     33  C   UNL A   1      42.129  22.483  28.416  1.00  0.00     0.010 A 
ATOM     34  C   UNL A   1      42.561  23.459  27.511  1.00  0.00    -0.014 A 
BRANCH  34  35
ATOM     35  C   UNL A   1      42.925  24.798  28.022  1.00  0.00     0.031 A 
ATOM     36  C   UNL A   1      41.854  25.832  28.225  1.00  0.00     0.074 A 
ATOM     37  C   UNL A   1      44.218  25.090  28.262  1.00  0.00     0.049 A 
ATOM     38  N   UNL A   1      41.972  27.068  28.638  1.00  0.00    -0.248 NA
ATOM     39  C   UNL A   1      40.471  25.439  27.902  1.00  0.00     0.031 C 
ATOM     40  C   UNL A   1      45.344  24.172  28.072  1.00  0.00     0.029 A 
ATOM     41  N   UNL A   1      44.800  26.239  28.729  1.00  0.00    -0.354 N 
ATOM     42  C   UNL A   1      40.687  27.592  28.621  1.00  0.00     0.074 A 
ATOM     43  C   UNL A   1      39.814  26.574  28.087  1.00  0.00     0.031 C 
ATOM     44  C   UNL A   1      46.474  24.778  28.467  1.00  0.00     0.029 A 
ATOM     45  C   UNL A   1      46.161  26.140  28.888  1.00  0.00     0.049 A 
ATOM     46  H   UNL A   1      44.293  27.058  28.930  1.00  0.00     0.167 HD
ATOM     47  C   UNL A   1      40.266  28.803  29.046  1.00  0.00     0.031 A 
ATOM     48  C   UNL A   1      47.055  27.046  29.327  1.00  0.00     0.031 A 
ATOM     49  C   UNL A   1      41.139  29.810  29.584  1.00  0.00     0.049 A 
ATOM     50  C   UNL A   1      46.567  28.405  29.743  1.00  0.00     0.074 A 
ATOM     51  C   UNL A   1      40.807  31.058  30.077  1.00  0.00     0.029 A 
ATOM     52  N   UNL A   1      42.515  29.682  29.699  1.00  0.00    -0.354 N 
ATOM     53  N   UNL A   1      45.340  28.866  29.780  1.00  0.00    -0.248 NA
ATOM     54  C   UNL A   1      47.586  29.368  30.184  1.00  0.00     0.031 C 
ATOM     55  C   UNL A   1      41.990  31.714  30.423  1.00  0.00     0.029 A 
ATOM     56  C   UNL A   1      43.050  30.845  30.222  1.00  0.00     0.049 A 
ATOM     57  H   UNL A   1      43.032  28.883  29.446  1.00  0.00     0.167 HD
ATOM     58  C   UNL A   1      45.436  30.161  30.272  1.00  0.00     0.074 A 
ATOM     59  C   UNL A   1      46.839  30.405  30.540  1.00  0.00     0.031 C 
ATOM     60  C   UNL A   1      44.450  31.069  30.480  1.00  0.00     0.031 A 
BRANCH  47  61
ATOM     61  C   UNL A   1      38.796  29.106  28.955  1.00  0.00    -0.014 A 
ATOM     62  C   UNL A   1      37.955  28.959  30.070  1.00  0.00     0.009 A 
ATOM     63  C   UNL A   1      38.257  29.606  27.760  1.00  0.00     0.009 A 
ATOM     64  C   UNL A   1      36.600  29.284  29.981  1.00  0.00     0.001 A 
ATOM     65  C   UNL A   1      36.910  29.963  27.685  1.00  0.00     0.001 A 
ATOM     66  C   UNL A   1      36.082  29.795  28.793  1.00  0.00     0.000 A 
ENDBRANCH  47  61
BRANCH  48  67
ATOM     67  C   UNL A   1      48.495  26.681  29.420  1.00  0.00    -0.014 A 
ATOM     68  C   UNL A   1      48.999  26.058  30.571  1.00  0.00     0.009 A 
ATOM     69  C   UNL A   1      49.369  26.933  28.349  1.00  0.00     0.009 A 
ATOM     70  C   UNL A   1      50.349  25.711  30.657  1.00  0.00     0.001 A 
ATOM     71  C   UNL A   1      50.711  26.553  28.425  1.00  0.00     0.001 A 
ATOM     72  C   UNL A   1      51.201  25.951  29.581  1.00  0.00     0.000 A 
ENDBRANCH  48  67
BRANCH  60  73
ATOM     73  C   UNL A   1      44.841  32.409  31.040  1.00  0.00    -0.014 A 
ATOM     74  C   UNL A   1      44.930  32.620  32.424  1.00  0.00     0.009 A 
ATOM     75  C   UNL A   1      45.215  33.444  30.167  1.00  0.00     0.009 A 
ATOM     76  C   UNL A   1      45.366  33.849  32.922  1.00  0.00     0.001 A 
ATOM     77  C   UNL A   1      45.684  34.658  30.668  1.00  0.00     0.001 A 
ATOM     78  C   UNL A   1      45.752  34.862  32.045  1.00  0.00     0.000 A 
ENDBRANCH  60  73
ENDBRANCH  34  35
ENDBRANCH  26  29
ENDBRANCH  24  25
ENDBRANCH   1  24
TORSDOF 12
ENDMDL
