MODEL 1
REMARK VINA RESULT:     -12.5      0.000      0.000
REMARK SMILES Cc1cc(C(=O)NCCCNC(=O)c2ccc(-c3c4nc(c(-c5ccccc5)c5ccc([nH]5)c(-c5ccccc5)c5nc(c(-c6ccccc6)c6ccc3[nH]6)C=C5)C=C4)cc2)cc(S(=O)(=O)NNC(=O)c2c[nH]c3ccccc23)c1C
REMARK SMILES IDX 8 1 7 2 5 3 6 4 4 6 1 7 2 8 3 9 80 10 63 11 81 12 62 13
REMARK SMILES IDX 64 14 65 15 66 16 67 17 68 19 69 20 70 22 71 23 72 24 79 25
REMARK SMILES IDX 73 26 74 27 78 28 75 30 77 31 76 32 9 33 10 34 11 35 12 36
REMARK SMILES IDX 13 38 14 39 15 40 61 41 16 42 60 43 17 44 18 45 19 46 54 47
REMARK SMILES IDX 20 48 59 49 53 50 55 51 21 52 58 53 52 54 51 55 22 57 44 58
REMARK SMILES IDX 29 59 43 60 30 61 33 62 42 63 56 64 31 65 32 66 41 68 57 69
REMARK SMILES IDX 34 70 23 71 24 72 28 73 25 74 27 75 26 76 45 77 46 78 50 79
REMARK SMILES IDX 47 80 49 81 48 82 35 83 36 84 40 85 37 86 39 87 38 88
REMARK H PARENT 7 5 67 18 68 21 73 29 11 37 55 56 33 67
REMARK Flexibility Score: inf
ROOT
ATOM      1  C   UNL A   1      35.301  23.075  23.567  1.00  0.00     0.118 C 
ENDROOT
BRANCH   1   2
ATOM      2  N   UNL A   1      34.764  23.915  22.506  1.00  0.00    -0.352 N 
ATOM      3  C   UNL A   1      33.952  25.021  22.486  1.00  0.00     0.251 C 
ATOM      4  O   UNL A   1      33.724  25.527  21.386  1.00  0.00    -0.269 OA
ATOM      5  H   UNL A   1      35.044  23.626  21.607  1.00  0.00     0.163 HD
BRANCH   3   6
ATOM      6  C   UNL A   1      33.349  25.661  23.693  1.00  0.00     0.041 A 
ATOM      7  C   UNL A   1      33.647  28.787  25.835  1.00  0.00     0.044 C 
ATOM      8  C   UNL A   1      33.155  27.443  25.362  1.00  0.00    -0.046 A 
ATOM      9  C   UNL A   1      33.794  26.858  24.253  1.00  0.00     0.017 A 
ATOM     10  C   UNL A   1      32.097  26.761  25.995  1.00  0.00    -0.028 A 
ATOM     11  C   UNL A   1      31.726  25.483  25.503  1.00  0.00     0.088 A 
ATOM     12  C   UNL A   1      31.384  27.371  27.180  1.00  0.00     0.046 C 
ATOM     13  C   UNL A   1      32.312  24.966  24.341  1.00  0.00     0.036 A 
BRANCH  11  14
ATOM     14  S   UNL A   1      30.629  24.475  26.488  1.00  0.00     0.257 S 
ATOM     15  O   UNL A   1      31.385  24.120  27.682  1.00  0.00    -0.205 OA
ATOM     16  O   UNL A   1      29.372  25.152  26.570  1.00  0.00    -0.205 OA
BRANCH  14  17
ATOM     17  N   UNL A   1      30.299  23.034  25.639  1.00  0.00    -0.123 NA
ATOM     18  H   UNL A   1      30.527  23.212  24.661  1.00  0.00     0.167 HD
BRANCH  17  19
ATOM     19  N   UNL A   1      30.970  21.779  26.006  1.00  0.00    -0.273 N 
ATOM     20  C   UNL A   1      32.308  21.580  25.691  1.00  0.00     0.268 C 
ATOM     21  H   UNL A   1      30.468  21.076  26.478  1.00  0.00     0.186 HD
ATOM     22  O   UNL A   1      33.177  21.586  26.558  1.00  0.00    -0.268 OA
BRANCH  20  23
ATOM     23  C   UNL A   1      32.522  21.036  24.349  1.00  0.00     0.066 A 
ATOM     24  C   UNL A   1      32.010  21.552  23.171  1.00  0.00     0.097 A 
ATOM     25  C   UNL A   1      33.101  19.776  23.983  1.00  0.00     0.012 A 
ATOM     26  N   UNL A   1      31.771  20.486  22.349  1.00  0.00    -0.360 N 
ATOM     27  C   UNL A   1      32.428  19.380  22.825  1.00  0.00     0.046 A 
ATOM     28  C   UNL A   1      34.002  18.863  24.570  1.00  0.00     0.011 A 
ATOM     29  H   UNL A   1      31.213  20.509  21.538  1.00  0.00     0.166 HD
ATOM     30  C   UNL A   1      32.457  18.072  22.336  1.00  0.00     0.027 A 
ATOM     31  C   UNL A   1      34.152  17.589  24.004  1.00  0.00     0.001 A 
ATOM     32  C   UNL A   1      33.345  17.183  22.943  1.00  0.00     0.002 A 
ENDBRANCH  20  23
ENDBRANCH  17  19
ENDBRANCH  14  17
ENDBRANCH  11  14
ENDBRANCH   3   6
ENDBRANCH   1   2
BRANCH   1  33
ATOM     33  C   UNL A   1      36.478  23.747  24.278  1.00  0.00     0.042 C 
BRANCH  33  34
ATOM     34  C   UNL A   1      36.650  23.304  25.734  1.00  0.00     0.118 C 
BRANCH  34  35
ATOM     35  N   UNL A   1      37.790  22.414  25.905  1.00  0.00    -0.352 N 
ATOM     36  C   UNL A   1      39.078  22.681  26.298  1.00  0.00     0.251 C 
ATOM     37  H   UNL A   1      37.608  21.467  25.707  1.00  0.00     0.163 HD
ATOM     38  O   UNL A   1      39.930  21.802  26.192  1.00  0.00    -0.269 OA
BRANCH  36  39
ATOM     39  C   UNL A   1      39.463  24.007  26.834  1.00  0.00     0.039 A 
ATOM     40  C   UNL A   1      39.110  24.322  28.151  1.00  0.00     0.014 A 
ATOM     41  C   UNL A   1      40.102  24.963  26.041  1.00  0.00     0.014 A 
ATOM     42  C   UNL A   1      39.444  25.569  28.688  1.00  0.00     0.010 A 
ATOM     43  C   UNL A   1      40.486  26.185  26.594  1.00  0.00     0.010 A 
ATOM     44  C   UNL A   1      40.160  26.502  27.923  1.00  0.00    -0.014 A 
BRANCH  44  45
ATOM     45  C   UNL A   1      40.579  27.808  28.493  1.00  0.00     0.031 A 
ATOM     46  C   UNL A   1      41.994  28.019  28.958  1.00  0.00     0.074 A 
ATOM     47  C   UNL A   1      39.668  28.787  28.653  1.00  0.00     0.049 A 
ATOM     48  N   UNL A   1      42.522  29.060  29.550  1.00  0.00    -0.248 NA
ATOM     49  C   UNL A   1      42.934  26.906  28.747  1.00  0.00     0.031 C 
ATOM     50  C   UNL A   1      38.257  28.703  28.270  1.00  0.00     0.029 A 
ATOM     51  N   UNL A   1      39.791  30.044  29.191  1.00  0.00    -0.354 N 
ATOM     52  C   UNL A   1      43.845  28.721  29.804  1.00  0.00     0.074 A 
ATOM     53  C   UNL A   1      44.030  27.365  29.334  1.00  0.00     0.031 C 
ATOM     54  C   UNL A   1      37.651  29.863  28.568  1.00  0.00     0.029 A 
ATOM     55  C   UNL A   1      38.617  30.757  29.198  1.00  0.00     0.049 A 
ATOM     56  H   UNL A   1      40.641  30.400  29.538  1.00  0.00     0.167 HD
ATOM     57  C   UNL A   1      44.823  29.474  30.365  1.00  0.00     0.031 A 
ATOM     58  C   UNL A   1      38.345  31.989  29.668  1.00  0.00     0.031 A 
ATOM     59  C   UNL A   1      44.646  30.826  30.821  1.00  0.00     0.049 A 
ATOM     60  C   UNL A   1      39.443  32.799  30.296  1.00  0.00     0.074 A 
ATOM     61  C   UNL A   1      45.590  31.689  31.353  1.00  0.00     0.029 A 
ATOM     62  N   UNL A   1      43.443  31.515  30.801  1.00  0.00    -0.354 N 
ATOM     63  N   UNL A   1      40.701  32.483  30.475  1.00  0.00    -0.248 NA
ATOM     64  C   UNL A   1      39.082  34.140  30.776  1.00  0.00     0.031 C 
ATOM     65  C   UNL A   1      44.948  32.883  31.697  1.00  0.00     0.029 A 
ATOM     66  C   UNL A   1      43.615  32.783  31.330  1.00  0.00     0.049 A 
ATOM     67  H   UNL A   1      42.592  31.155  30.461  1.00  0.00     0.167 HD
ATOM     68  C   UNL A   1      41.290  33.595  31.064  1.00  0.00     0.074 A 
ATOM     69  C   UNL A   1      40.253  34.597  31.198  1.00  0.00     0.031 C 
ATOM     70  C   UNL A   1      42.575  33.770  31.457  1.00  0.00     0.031 A 
BRANCH  57  71
ATOM     71  C   UNL A   1      46.178  28.841  30.524  1.00  0.00    -0.014 A 
ATOM     72  C   UNL A   1      46.500  28.086  31.663  1.00  0.00     0.009 A 
ATOM     73  C   UNL A   1      47.133  28.970  29.504  1.00  0.00     0.009 A 
ATOM     74  C   UNL A   1      47.764  27.508  31.796  1.00  0.00     0.001 A 
ATOM     75  C   UNL A   1      48.386  28.367  29.625  1.00  0.00     0.001 A 
ATOM     76  C   UNL A   1      48.704  27.645  30.774  1.00  0.00     0.000 A 
ENDBRANCH  57  71
BRANCH  58  77
ATOM     77  C   UNL A   1      36.970  32.540  29.550  1.00  0.00    -0.014 A 
ATOM     78  C   UNL A   1      36.053  32.391  30.602  1.00  0.00     0.009 A 
ATOM     79  C   UNL A   1      36.566  33.214  28.388  1.00  0.00     0.009 A 
ATOM     80  C   UNL A   1      34.752  32.886  30.482  1.00  0.00     0.001 A 
ATOM     81  C   UNL A   1      35.274  33.732  28.282  1.00  0.00     0.001 A 
ATOM     82  C   UNL A   1      34.365  33.559  29.325  1.00  0.00     0.000 A 
ENDBRANCH  58  77
BRANCH  70  83
ATOM     83  C   UNL A   1      42.939  35.107  32.035  1.00  0.00    -0.014 A 
ATOM     84  C   UNL A   1      43.544  36.101  31.250  1.00  0.00     0.009 A 
ATOM     85  C   UNL A   1      42.636  35.390  33.377  1.00  0.00     0.009 A 
ATOM     86  C   UNL A   1      43.868  37.340  31.807  1.00  0.00     0.001 A 
ATOM     87  C   UNL A   1      42.936  36.638  33.923  1.00  0.00     0.001 A 
ATOM     88  C   UNL A   1      43.560  37.608  33.140  1.00  0.00     0.000 A 
ENDBRANCH  70  83
ENDBRANCH  44  45
ENDBRANCH  36  39
ENDBRANCH  34  35
ENDBRANCH  33  34
ENDBRANCH   1  33
TORSDOF 14
ENDMDL
MODEL 2
REMARK VINA RESULT:     -12.5      2.797      7.548
REMARK SMILES Cc1cc(C(=O)NCCCNC(=O)c2ccc(-c3c4nc(c(-c5ccccc5)c5ccc([nH]5)c(-c5ccccc5)c5nc(c(-c6ccccc6)c6ccc3[nH]6)C=C5)C=C4)cc2)cc(S(=O)(=O)NNC(=O)c2c[nH]c3ccccc23)c1C
REMARK SMILES IDX 8 1 7 2 5 3 6 4 4 6 1 7 2 8 3 9 80 10 63 11 81 12 62 13
REMARK SMILES IDX 64 14 65 15 66 16 67 17 68 19 69 20 70 22 71 23 72 24 79 25
REMARK SMILES IDX 73 26 74 27 78 28 75 30 77 31 76 32 9 33 10 34 11 35 12 36
REMARK SMILES IDX 13 38 14 39 15 40 61 41 16 42 60 43 17 44 18 45 19 46 54 47
REMARK SMILES IDX 20 48 59 49 53 50 55 51 21 52 58 53 52 54 51 55 22 57 44 58
REMARK SMILES IDX 29 59 43 60 30 61 33 62 42 63 56 64 31 65 32 66 41 68 57 69
REMARK SMILES IDX 34 70 23 71 24 72 28 73 25 74 27 75 26 76 45 77 46 78 50 79
REMARK SMILES IDX 47 80 49 81 48 82 35 83 36 84 40 85 37 86 39 87 38 88
REMARK H PARENT 7 5 67 18 68 21 73 29 11 37 55 56 33 67
REMARK Flexibility Score: inf
ROOT
ATOM      1  C   UNL A   1      37.422  20.720  24.330  1.00  0.00     0.118 C 
ENDROOT
BRANCH   1   2
ATOM      2  N   UNL A   1      37.738  21.969  25.007  1.00  0.00    -0.352 N 
ATOM      3  C   UNL A   1      36.981  22.993  25.519  1.00  0.00     0.251 C 
ATOM      4  O   UNL A   1      37.585  23.907  26.083  1.00  0.00    -0.269 OA
ATOM      5  H   UNL A   1      38.706  22.111  25.120  1.00  0.00     0.163 HD
BRANCH   3   6
ATOM      6  C   UNL A   1      35.490  23.066  25.460  1.00  0.00     0.041 A 
ATOM      7  C   UNL A   1      32.444  23.059  27.735  1.00  0.00     0.044 C 
ATOM      8  C   UNL A   1      33.257  23.089  26.465  1.00  0.00    -0.046 A 
ATOM      9  C   UNL A   1      34.654  22.961  26.572  1.00  0.00     0.017 A 
ATOM     10  C   UNL A   1      32.666  23.228  25.194  1.00  0.00    -0.028 A 
ATOM     11  C   UNL A   1      33.507  23.209  24.051  1.00  0.00     0.088 A 
ATOM     12  C   UNL A   1      31.169  23.380  25.051  1.00  0.00     0.046 C 
ATOM     13  C   UNL A   1      34.900  23.176  24.189  1.00  0.00     0.036 A 
BRANCH  11  14
ATOM     14  S   UNL A   1      32.753  23.049  22.440  1.00  0.00     0.257 S 
ATOM     15  O   UNL A   1      33.810  23.340  21.480  1.00  0.00    -0.205 OA
ATOM     16  O   UNL A   1      32.037  21.811  22.415  1.00  0.00    -0.205 OA
BRANCH  14  17
ATOM     17  N   UNL A   1      31.558  24.253  22.272  1.00  0.00    -0.123 NA
ATOM     18  H   UNL A   1      31.274  24.517  23.215  1.00  0.00     0.167 HD
BRANCH  17  19
ATOM     19  N   UNL A   1      31.851  25.503  21.556  1.00  0.00    -0.273 N 
ATOM     20  C   UNL A   1      32.784  26.399  22.060  1.00  0.00     0.268 C 
ATOM     21  H   UNL A   1      31.382  25.706  20.714  1.00  0.00     0.186 HD
ATOM     22  O   UNL A   1      33.879  26.552  21.525  1.00  0.00    -0.268 OA
BRANCH  20  23
ATOM     23  C   UNL A   1      32.228  27.349  23.024  1.00  0.00     0.066 A 
ATOM     24  C   UNL A   1      31.289  28.329  22.750  1.00  0.00     0.097 A 
ATOM     25  C   UNL A   1      32.667  27.618  24.362  1.00  0.00     0.012 A 
ATOM     26  N   UNL A   1      31.578  29.386  23.568  1.00  0.00    -0.360 N 
ATOM     27  C   UNL A   1      32.425  28.979  24.567  1.00  0.00     0.046 A 
ATOM     28  C   UNL A   1      33.370  26.914  25.362  1.00  0.00     0.011 A 
ATOM     29  H   UNL A   1      31.230  30.301  23.457  1.00  0.00     0.166 HD
ATOM     30  C   UNL A   1      33.004  29.708  25.607  1.00  0.00     0.027 A 
ATOM     31  C   UNL A   1      33.835  27.606  26.489  1.00  0.00     0.001 A 
ATOM     32  C   UNL A   1      33.707  28.990  26.576  1.00  0.00     0.002 A 
ENDBRANCH  20  23
ENDBRANCH  17  19
ENDBRANCH  14  17
ENDBRANCH  11  14
ENDBRANCH   3   6
ENDBRANCH   1   2
BRANCH   1  33
ATOM     33  C   UNL A   1      38.193  19.541  24.932  1.00  0.00     0.042 C 
BRANCH  33  34
ATOM     34  C   UNL A   1      39.214  19.954  25.995  1.00  0.00     0.118 C 
BRANCH  34  35
ATOM     35  N   UNL A   1      40.469  19.227  25.862  1.00  0.00    -0.352 N 
ATOM     36  C   UNL A   1      41.767  19.658  25.985  1.00  0.00     0.251 C 
ATOM     37  H   UNL A   1      40.370  18.271  25.649  1.00  0.00     0.163 HD
ATOM     38  O   UNL A   1      42.680  18.910  25.643  1.00  0.00    -0.269 OA
BRANCH  36  39
ATOM     39  C   UNL A   1      42.087  21.006  26.507  1.00  0.00     0.039 A 
ATOM     40  C   UNL A   1      42.051  21.211  27.891  1.00  0.00     0.014 A 
ATOM     41  C   UNL A   1      42.354  22.079  25.654  1.00  0.00     0.014 A 
ATOM     42  C   UNL A   1      42.334  22.474  28.421  1.00  0.00     0.010 A 
ATOM     43  C   UNL A   1      42.693  23.325  26.185  1.00  0.00     0.010 A 
ATOM     44  C   UNL A   1      42.684  23.535  27.574  1.00  0.00    -0.014 A 
BRANCH  44  45
ATOM     45  C   UNL A   1      43.050  24.868  28.119  1.00  0.00     0.031 A 
ATOM     46  C   UNL A   1      41.990  25.904  28.377  1.00  0.00     0.074 A 
ATOM     47  C   UNL A   1      44.347  25.171  28.322  1.00  0.00     0.049 A 
ATOM     48  N   UNL A   1      42.126  27.144  28.777  1.00  0.00    -0.248 NA
ATOM     49  C   UNL A   1      40.596  25.500  28.136  1.00  0.00     0.031 C 
ATOM     50  C   UNL A   1      45.475  24.269  28.085  1.00  0.00     0.029 A 
ATOM     51  N   UNL A   1      44.936  26.330  28.764  1.00  0.00    -0.354 N 
ATOM     52  C   UNL A   1      40.842  27.673  28.813  1.00  0.00     0.074 A 
ATOM     53  C   UNL A   1      39.944  26.633  28.360  1.00  0.00     0.031 C 
ATOM     54  C   UNL A   1      46.616  24.901  28.401  1.00  0.00     0.029 A 
ATOM     55  C   UNL A   1      46.306  26.262  28.824  1.00  0.00     0.049 A 
ATOM     56  H   UNL A   1      44.424  27.133  29.014  1.00  0.00     0.167 HD
ATOM     57  C   UNL A   1      40.443  28.909  29.200  1.00  0.00     0.031 A 
ATOM     58  C   UNL A   1      47.214  27.194  29.170  1.00  0.00     0.031 A 
ATOM     59  C   UNL A   1      41.332  29.941  29.662  1.00  0.00     0.049 A 
ATOM     60  C   UNL A   1      46.747  28.561  29.584  1.00  0.00     0.074 A 
ATOM     61  C   UNL A   1      41.017  31.207  30.127  1.00  0.00     0.029 A 
ATOM     62  N   UNL A   1      42.712  29.828  29.717  1.00  0.00    -0.354 N 
ATOM     63  N   UNL A   1      45.525  29.025  29.666  1.00  0.00    -0.248 NA
ATOM     64  C   UNL A   1      47.787  29.527  29.963  1.00  0.00     0.031 C 
ATOM     65  C   UNL A   1      42.210  31.876  30.420  1.00  0.00     0.029 A 
ATOM     66  C   UNL A   1      43.265  31.008  30.188  1.00  0.00     0.049 A 
ATOM     67  H   UNL A   1      43.225  29.028  29.459  1.00  0.00     0.167 HD
ATOM     68  C   UNL A   1      45.647  30.328  30.132  1.00  0.00     0.074 A 
ATOM     69  C   UNL A   1      47.060  30.574  30.327  1.00  0.00     0.031 C 
ATOM     70  C   UNL A   1      44.673  31.239  30.376  1.00  0.00     0.031 A 
BRANCH  57  71
ATOM     71  C   UNL A   1      38.972  29.215  29.129  1.00  0.00    -0.014 A 
ATOM     72  C   UNL A   1      38.136  29.026  30.240  1.00  0.00     0.009 A 
ATOM     73  C   UNL A   1      38.423  29.733  27.946  1.00  0.00     0.009 A 
ATOM     74  C   UNL A   1      36.771  29.312  30.157  1.00  0.00     0.001 A 
ATOM     75  C   UNL A   1      37.065  30.046  27.874  1.00  0.00     0.001 A 
ATOM     76  C   UNL A   1      36.238  29.827  28.975  1.00  0.00     0.000 A 
ENDBRANCH  57  71
BRANCH  58  77
ATOM     77  C   UNL A   1      48.662  26.862  29.153  1.00  0.00    -0.014 A 
ATOM     78  C   UNL A   1      49.428  27.087  27.999  1.00  0.00     0.009 A 
ATOM     79  C   UNL A   1      49.284  26.316  30.286  1.00  0.00     0.009 A 
ATOM     80  C   UNL A   1      50.784  26.749  27.973  1.00  0.00     0.001 A 
ATOM     81  C   UNL A   1      50.646  26.006  30.267  1.00  0.00     0.001 A 
ATOM     82  C   UNL A   1      51.392  26.214  29.108  1.00  0.00     0.000 A 
ENDBRANCH  58  77
BRANCH  70  83
ATOM     83  C   UNL A   1      45.102  32.573  30.918  1.00  0.00    -0.014 A 
ATOM     84  C   UNL A   1      45.234  32.791  32.298  1.00  0.00     0.009 A 
ATOM     85  C   UNL A   1      45.416  33.614  30.030  1.00  0.00     0.009 A 
ATOM     86  C   UNL A   1      45.641  34.037  32.779  1.00  0.00     0.001 A 
ATOM     87  C   UNL A   1      45.849  34.850  30.513  1.00  0.00     0.001 A 
ATOM     88  C   UNL A   1      45.952  35.062  31.886  1.00  0.00     0.000 A 
ENDBRANCH  70  83
ENDBRANCH  44  45
ENDBRANCH  36  39
ENDBRANCH  34  35
ENDBRANCH  33  34
ENDBRANCH   1  33
TORSDOF 14
ENDMDL
MODEL 3
REMARK VINA RESULT:     -12.5      2.334      3.858
REMARK SMILES Cc1cc(C(=O)NCCCNC(=O)c2ccc(-c3c4nc(c(-c5ccccc5)c5ccc([nH]5)c(-c5ccccc5)c5nc(c(-c6ccccc6)c6ccc3[nH]6)C=C5)C=C4)cc2)cc(S(=O)(=O)NNC(=O)c2c[nH]c3ccccc23)c1C
REMARK SMILES IDX 8 1 7 2 5 3 6 4 4 6 1 7 2 8 3 9 80 10 63 11 81 12 62 13
REMARK SMILES IDX 64 14 65 15 66 16 67 17 68 19 69 20 70 22 71 23 72 24 79 25
REMARK SMILES IDX 73 26 74 27 78 28 75 30 77 31 76 32 9 33 10 34 11 35 12 36
REMARK SMILES IDX 13 38 14 39 15 40 61 41 16 42 60 43 17 44 18 45 19 46 54 47
REMARK SMILES IDX 20 48 59 49 53 50 55 51 21 52 58 53 52 54 51 55 22 57 44 58
REMARK SMILES IDX 29 59 43 60 30 61 33 62 42 63 56 64 31 65 32 66 41 68 57 69
REMARK SMILES IDX 34 70 23 71 24 72 28 73 25 74 27 75 26 76 45 77 46 78 50 79
REMARK SMILES IDX 47 80 49 81 48 82 35 83 36 84 40 85 37 86 39 87 38 88
REMARK H PARENT 7 5 67 18 68 21 73 29 11 37 55 56 33 67
REMARK Flexibility Score: inf
ROOT
ATOM      1  C   UNL A   1      37.386  20.724  24.558  1.00  0.00     0.118 C 
ENDROOT
BRANCH   1   2
ATOM      2  N   UNL A   1      37.915  21.996  25.025  1.00  0.00    -0.352 N 
ATOM      3  C   UNL A   1      37.344  23.140  25.524  1.00  0.00     0.251 C 
ATOM      4  O   UNL A   1      38.110  24.039  25.876  1.00  0.00    -0.269 OA
ATOM      5  H   UNL A   1      38.897  22.048  24.969  1.00  0.00     0.163 HD
BRANCH   3   6
ATOM      6  C   UNL A   1      35.876  23.360  25.691  1.00  0.00     0.041 A 
ATOM      7  C   UNL A   1      33.050  22.686  28.142  1.00  0.00     0.044 C 
ATOM      8  C   UNL A   1      33.754  23.163  26.897  1.00  0.00    -0.046 A 
ATOM      9  C   UNL A   1      35.126  22.881  26.765  1.00  0.00     0.017 A 
ATOM     10  C   UNL A   1      33.086  23.863  25.873  1.00  0.00    -0.028 A 
ATOM     11  C   UNL A   1      33.821  24.241  24.721  1.00  0.00     0.088 A 
ATOM     12  C   UNL A   1      31.615  24.191  25.995  1.00  0.00     0.046 C 
ATOM     13  C   UNL A   1      35.204  24.034  24.655  1.00  0.00     0.036 A 
BRANCH  11  14
ATOM     14  S   UNL A   1      32.925  24.823  23.290  1.00  0.00     0.257 S 
ATOM     15  O   UNL A   1      32.022  25.855  23.782  1.00  0.00    -0.205 OA
ATOM     16  O   UNL A   1      33.879  25.091  22.258  1.00  0.00    -0.205 OA
BRANCH  14  17
ATOM     17  N   UNL A   1      31.969  23.547  22.685  1.00  0.00    -0.123 NA
ATOM     18  H   UNL A   1      31.348  23.953  21.987  1.00  0.00     0.167 HD
BRANCH  17  19
ATOM     19  N   UNL A   1      32.597  22.374  22.059  1.00  0.00    -0.273 N 
ATOM     20  C   UNL A   1      31.964  21.139  22.089  1.00  0.00     0.268 C 
ATOM     21  H   UNL A   1      33.473  22.466  21.617  1.00  0.00     0.186 HD
ATOM     22  O   UNL A   1      31.468  20.650  21.077  1.00  0.00    -0.268 OA
BRANCH  20  23
ATOM     23  C   UNL A   1      32.247  20.361  23.296  1.00  0.00     0.066 A 
ATOM     24  C   UNL A   1      32.228  20.840  24.594  1.00  0.00     0.097 A 
ATOM     25  C   UNL A   1      32.799  19.041  23.393  1.00  0.00     0.012 A 
ATOM     26  N   UNL A   1      33.193  20.153  25.278  1.00  0.00    -0.360 N 
ATOM     27  C   UNL A   1      33.564  19.043  24.562  1.00  0.00     0.046 A 
ATOM     28  C   UNL A   1      32.861  17.902  22.564  1.00  0.00     0.011 A 
ATOM     29  H   UNL A   1      33.564  20.415  26.152  1.00  0.00     0.166 HD
ATOM     30  C   UNL A   1      34.522  18.069  24.847  1.00  0.00     0.027 A 
ATOM     31  C   UNL A   1      33.714  16.846  22.914  1.00  0.00     0.001 A 
ATOM     32  C   UNL A   1      34.574  16.958  24.003  1.00  0.00     0.002 A 
ENDBRANCH  20  23
ENDBRANCH  17  19
ENDBRANCH  14  17
ENDBRANCH  11  14
ENDBRANCH   3   6
ENDBRANCH   1   2
BRANCH   1  33
ATOM     33  C   UNL A   1      38.308  19.558  24.928  1.00  0.00     0.042 C 
BRANCH  33  34
ATOM     34  C   UNL A   1      39.301  19.892  26.045  1.00  0.00     0.118 C 
BRANCH  34  35
ATOM     35  N   UNL A   1      40.562  19.180  25.888  1.00  0.00    -0.352 N 
ATOM     36  C   UNL A   1      41.856  19.624  25.997  1.00  0.00     0.251 C 
ATOM     37  H   UNL A   1      40.471  18.225  25.668  1.00  0.00     0.163 HD
ATOM     38  O   UNL A   1      42.773  18.890  25.637  1.00  0.00    -0.269 OA
BRANCH  36  39
ATOM     39  C   UNL A   1      42.168  20.971  26.527  1.00  0.00     0.039 A 
ATOM     40  C   UNL A   1      42.498  21.984  25.620  1.00  0.00     0.014 A 
ATOM     41  C   UNL A   1      42.203  21.231  27.899  1.00  0.00     0.014 A 
ATOM     42  C   UNL A   1      42.812  23.266  26.084  1.00  0.00     0.010 A 
ATOM     43  C   UNL A   1      42.460  22.524  28.359  1.00  0.00     0.010 A 
ATOM     44  C   UNL A   1      42.768  23.554  27.456  1.00  0.00    -0.014 A 
BRANCH  44  45
ATOM     45  C   UNL A   1      43.037  24.923  27.965  1.00  0.00     0.031 A 
ATOM     46  C   UNL A   1      44.431  25.334  28.353  1.00  0.00     0.074 A 
ATOM     47  C   UNL A   1      42.012  25.780  28.141  1.00  0.00     0.049 A 
ATOM     48  N   UNL A   1      44.843  26.457  28.887  1.00  0.00    -0.248 NA
ATOM     49  C   UNL A   1      45.499  24.348  28.129  1.00  0.00     0.031 C 
ATOM     50  C   UNL A   1      40.609  25.498  27.833  1.00  0.00     0.029 A 
ATOM     51  N   UNL A   1      41.992  27.061  28.634  1.00  0.00    -0.354 N 
ATOM     52  C   UNL A   1      46.209  26.304  29.084  1.00  0.00     0.074 A 
ATOM     53  C   UNL A   1      46.551  24.967  28.646  1.00  0.00     0.031 C 
ATOM     54  C   UNL A   1      39.869  26.579  28.126  1.00  0.00     0.029 A 
ATOM     55  C   UNL A   1      40.735  27.614  28.679  1.00  0.00     0.049 A 
ATOM     56  H   UNL A   1      42.802  27.538  28.928  1.00  0.00     0.167 HD
ATOM     57  C   UNL A   1      47.103  27.197  29.572  1.00  0.00     0.031 A 
ATOM     58  C   UNL A   1      40.324  28.816  29.125  1.00  0.00     0.031 A 
ATOM     59  C   UNL A   1      46.769  28.531  29.996  1.00  0.00     0.049 A 
ATOM     60  C   UNL A   1      41.333  29.785  29.673  1.00  0.00     0.074 A 
ATOM     61  C   UNL A   1      47.614  29.528  30.454  1.00  0.00     0.029 A 
ATOM     62  N   UNL A   1      45.487  29.055  30.015  1.00  0.00    -0.354 N 
ATOM     63  N   UNL A   1      42.629  29.643  29.799  1.00  0.00    -0.248 NA
ATOM     64  C   UNL A   1      40.820  31.084  30.130  1.00  0.00     0.031 C 
ATOM     65  C   UNL A   1      46.836  30.640  30.794  1.00  0.00     0.029 A 
ATOM     66  C   UNL A   1      45.513  30.353  30.497  1.00  0.00     0.049 A 
ATOM     67  H   UNL A   1      44.675  28.575  29.729  1.00  0.00     0.167 HD
ATOM     68  C   UNL A   1      43.091  30.843  30.323  1.00  0.00     0.074 A 
ATOM     69  C   UNL A   1      41.938  31.705  30.479  1.00  0.00     0.031 C 
ATOM     70  C   UNL A   1      44.358  31.199  30.647  1.00  0.00     0.031 A 
BRANCH  57  71
ATOM     71  C   UNL A   1      48.536  26.753  29.682  1.00  0.00    -0.014 A 
ATOM     72  C   UNL A   1      49.451  26.981  28.642  1.00  0.00     0.009 A 
ATOM     73  C   UNL A   1      48.985  26.130  30.857  1.00  0.00     0.009 A 
ATOM     74  C   UNL A   1      50.777  26.560  28.760  1.00  0.00     0.001 A 
ATOM     75  C   UNL A   1      50.318  25.735  30.984  1.00  0.00     0.001 A 
ATOM     76  C   UNL A   1      51.210  25.941  29.933  1.00  0.00     0.000 A 
ENDBRANCH  57  71
BRANCH  58  77
ATOM     77  C   UNL A   1      38.884  29.178  29.060  1.00  0.00    -0.014 A 
ATOM     78  C   UNL A   1      38.054  28.990  30.176  1.00  0.00     0.009 A 
ATOM     79  C   UNL A   1      38.332  29.709  27.884  1.00  0.00     0.009 A 
ATOM     80  C   UNL A   1      36.695  29.305  30.107  1.00  0.00     0.001 A 
ATOM     81  C   UNL A   1      36.979  30.049  27.828  1.00  0.00     0.001 A 
ATOM     82  C   UNL A   1      36.160  29.838  28.935  1.00  0.00     0.000 A 
ENDBRANCH  58  77
BRANCH  70  83
ATOM     83  C   UNL A   1      44.568  32.593  31.166  1.00  0.00    -0.014 A 
ATOM     84  C   UNL A   1      44.537  32.871  32.541  1.00  0.00     0.009 A 
ATOM     85  C   UNL A   1      44.840  33.635  30.265  1.00  0.00     0.009 A 
ATOM     86  C   UNL A   1      44.743  34.174  33.001  1.00  0.00     0.001 A 
ATOM     87  C   UNL A   1      45.071  34.930  30.730  1.00  0.00     0.001 A 
ATOM     88  C   UNL A   1      45.013  35.200  32.096  1.00  0.00     0.000 A 
ENDBRANCH  70  83
ENDBRANCH  44  45
ENDBRANCH  36  39
ENDBRANCH  34  35
ENDBRANCH  33  34
ENDBRANCH   1  33
TORSDOF 14
ENDMDL
