MODEL 1
REMARK VINA RESULT:     -12.6      0.000      0.000
REMARK SMILES Cc1nc2sc3c(c2c2nc(CCC(=O)NCCCNC(=O)c4ccc(-c5c6nc(c(-c7ccccc7)c7ccc([nH]7)c(-c7ccccc7)c7nc(c(-c8ccccc8)c8ccc5[nH]8)C=C7)C=C6)cc4)nn12)[C@@H](C)CCC3
REMARK SMILES IDX 18 1 17 2 16 3 14 4 15 5 13 7 12 8 11 9 1 10 2 11 3 12 72 13
REMARK SMILES IDX 4 14 9 15 71 16 5 17 8 18 10 19 6 20 7 21 77 22 73 23 76 24
REMARK SMILES IDX 74 25 75 26 19 27 20 28 21 29 22 31 23 32 24 33 70 34 25 35
REMARK SMILES IDX 69 36 26 37 27 38 28 39 63 40 29 41 68 42 62 43 64 44 30 45
REMARK SMILES IDX 67 46 61 47 60 48 31 50 53 51 38 52 52 53 39 54 42 55 51 56
REMARK SMILES IDX 65 57 40 58 41 59 50 61 66 62 43 63 32 64 33 65 37 66 34 67
REMARK SMILES IDX 36 68 35 69 54 70 55 71 59 72 56 73 58 74 57 75 44 76 45 77
REMARK SMILES IDX 49 78 46 79 48 80 47 81
REMARK H PARENT 16 6 20 30 64 49 42 60
REMARK Flexibility Score: inf
ROOT
ATOM      1  C   UNL A   1      33.553  34.926  28.522  1.00  0.00     0.042 C 
ENDROOT
BRANCH   1   2
ATOM      2  C   UNL A   1      33.837  33.596  29.372  1.00  0.00     0.117 C 
BRANCH   2   3
ATOM      3  N   UNL A   1      34.335  32.362  28.740  1.00  0.00    -0.356 N 
ATOM      4  C   UNL A   1      33.873  31.505  27.755  1.00  0.00     0.220 C 
ATOM      5  O   UNL A   1      34.707  30.801  27.187  1.00  0.00    -0.275 OA
ATOM      6  H   UNL A   1      35.204  32.078  29.107  1.00  0.00     0.163 HD
BRANCH   4   7
ATOM      7  C   UNL A   1      32.419  31.391  27.303  1.00  0.00     0.108 C 
BRANCH   7   8
ATOM      8  C   UNL A   1      31.976  29.946  26.984  1.00  0.00     0.089 C 
BRANCH   8   9
ATOM      9  C   UNL A   1      32.031  29.715  25.530  1.00  0.00     0.152 A 
ATOM     10  C   UNL A   1      29.120  29.697  22.542  1.00  0.00     0.090 C 
ATOM     11  C   UNL A   1      30.362  28.864  22.656  1.00  0.00     0.131 A 
ATOM     12  N   UNL A   1      30.569  27.844  21.871  1.00  0.00    -0.222 NA
ATOM     13  N   UNL A   1      31.247  29.169  23.697  1.00  0.00    -0.199 N 
ATOM     14  C   UNL A   1      31.590  27.012  22.256  1.00  0.00     0.129 A 
ATOM     15  C   UNL A   1      32.358  28.405  23.978  1.00  0.00     0.168 A 
ATOM     16  N   UNL A   1      31.016  30.028  24.709  1.00  0.00    -0.150 NA
ATOM     17  S   UNL A   1      31.724  25.493  21.592  1.00  0.00    -0.120 S 
ATOM     18  C   UNL A   1      32.519  27.130  23.281  1.00  0.00     0.060 A 
ATOM     19  N   UNL A   1      32.948  28.833  25.051  1.00  0.00    -0.211 NA
ATOM     20  C   UNL A   1      32.678  24.918  22.873  1.00  0.00     0.011 A 
ATOM     21  C   UNL A   1      33.255  25.931  23.606  1.00  0.00    -0.018 A 
ATOM     22  C   UNL A   1      32.799  23.491  23.258  1.00  0.00     0.047 C 
ATOM     23  C   UNL A   1      34.332  25.557  24.630  1.00  0.00     0.018 C 
ATOM     24  C   UNL A   1      34.160  23.170  23.746  1.00  0.00     0.006 C 
ATOM     25  C   UNL A   1      34.146  26.130  26.005  1.00  0.00     0.013 C 
ATOM     26  C   UNL A   1      34.438  24.028  24.933  1.00  0.00     0.008 C 
ENDBRANCH   8   9
ENDBRANCH   7   8
ENDBRANCH   4   7
ENDBRANCH   2   3
ENDBRANCH   1   2
BRANCH   1  27
ATOM     27  C   UNL A   1      32.901  36.222  29.174  1.00  0.00     0.118 C 
BRANCH  27  28
ATOM     28  N   UNL A   1      32.657  36.282  30.732  1.00  0.00    -0.352 N 
ATOM     29  C   UNL A   1      33.185  36.027  32.050  1.00  0.00     0.251 C 
ATOM     30  H   UNL A   1      31.755  36.654  30.860  1.00  0.00     0.163 HD
ATOM     31  O   UNL A   1      32.635  36.685  32.947  1.00  0.00    -0.269 OA
BRANCH  29  32
ATOM     32  C   UNL A   1      34.298  35.101  32.582  1.00  0.00     0.039 A 
ATOM     33  C   UNL A   1      35.596  35.530  32.916  1.00  0.00     0.014 A 
ATOM     34  C   UNL A   1      34.096  33.761  32.917  1.00  0.00     0.014 A 
ATOM     35  C   UNL A   1      36.710  34.609  32.969  1.00  0.00     0.010 A 
ATOM     36  C   UNL A   1      35.189  32.835  32.874  1.00  0.00     0.010 A 
ATOM     37  C   UNL A   1      36.535  33.252  32.693  1.00  0.00    -0.014 A 
BRANCH  37  38
ATOM     38  C   UNL A   1      37.618  32.268  32.238  1.00  0.00     0.031 A 
ATOM     39  C   UNL A   1      38.347  31.660  33.382  1.00  0.00     0.074 A 
ATOM     40  C   UNL A   1      37.981  31.657  31.057  1.00  0.00     0.049 A 
ATOM     41  N   UNL A   1      39.299  32.255  34.018  1.00  0.00    -0.248 NA
ATOM     42  C   UNL A   1      37.921  30.385  33.988  1.00  0.00     0.031 C 
ATOM     43  C   UNL A   1      37.336  31.649  29.736  1.00  0.00     0.029 A 
ATOM     44  N   UNL A   1      39.035  30.773  30.824  1.00  0.00    -0.354 N 
ATOM     45  C   UNL A   1      39.763  31.332  34.934  1.00  0.00     0.074 A 
ATOM     46  C   UNL A   1      38.724  30.339  35.059  1.00  0.00     0.031 C 
ATOM     47  C   UNL A   1      37.828  30.644  28.957  1.00  0.00     0.029 A 
ATOM     48  C   UNL A   1      39.019  30.105  29.590  1.00  0.00     0.049 A 
ATOM     49  H   UNL A   1      39.748  30.626  31.487  1.00  0.00     0.167 HD
ATOM     50  C   UNL A   1      41.087  31.287  35.250  1.00  0.00     0.031 A 
ATOM     51  C   UNL A   1      39.980  29.297  29.051  1.00  0.00     0.031 A 
ATOM     52  C   UNL A   1      41.825  32.278  34.491  1.00  0.00     0.049 A 
ATOM     53  C   UNL A   1      41.267  29.797  29.578  1.00  0.00     0.074 A 
ATOM     54  C   UNL A   1      41.966  33.649  34.468  1.00  0.00     0.029 A 
ATOM     55  N   UNL A   1      42.238  31.814  33.269  1.00  0.00    -0.354 N 
ATOM     56  N   UNL A   1      41.732  30.982  29.303  1.00  0.00    -0.248 NA
ATOM     57  C   UNL A   1      41.994  29.051  30.595  1.00  0.00     0.031 C 
ATOM     58  C   UNL A   1      42.306  33.998  33.121  1.00  0.00     0.029 A 
ATOM     59  C   UNL A   1      42.404  32.834  32.366  1.00  0.00     0.049 A 
ATOM     60  H   UNL A   1      42.396  30.864  33.063  1.00  0.00     0.167 HD
ATOM     61  C   UNL A   1      42.449  31.308  30.429  1.00  0.00     0.074 A 
ATOM     62  C   UNL A   1      42.766  30.042  31.069  1.00  0.00     0.031 C 
ATOM     63  C   UNL A   1      42.382  32.572  30.942  1.00  0.00     0.031 A 
BRANCH  50  64
ATOM     64  C   UNL A   1      41.810  30.099  35.828  1.00  0.00    -0.014 A 
ATOM     65  C   UNL A   1      42.954  30.336  36.611  1.00  0.00     0.009 A 
ATOM     66  C   UNL A   1      41.556  28.763  35.469  1.00  0.00     0.009 A 
ATOM     67  C   UNL A   1      43.808  29.296  36.995  1.00  0.00     0.001 A 
ATOM     68  C   UNL A   1      42.386  27.717  35.882  1.00  0.00     0.001 A 
ATOM     69  C   UNL A   1      43.522  27.985  36.632  1.00  0.00     0.000 A 
ENDBRANCH  50  64
BRANCH  51  70
ATOM     70  C   UNL A   1      40.035  28.183  28.059  1.00  0.00    -0.014 A 
ATOM     71  C   UNL A   1      40.806  28.302  26.878  1.00  0.00     0.009 A 
ATOM     72  C   UNL A   1      39.665  26.886  28.448  1.00  0.00     0.009 A 
ATOM     73  C   UNL A   1      41.257  27.175  26.172  1.00  0.00     0.001 A 
ATOM     74  C   UNL A   1      40.116  25.758  27.739  1.00  0.00     0.001 A 
ATOM     75  C   UNL A   1      40.933  25.900  26.618  1.00  0.00     0.000 A 
ENDBRANCH  51  70
BRANCH  63  76
ATOM     76  C   UNL A   1      42.066  33.693  29.987  1.00  0.00    -0.014 A 
ATOM     77  C   UNL A   1      43.009  34.302  29.141  1.00  0.00     0.009 A 
ATOM     78  C   UNL A   1      40.739  34.139  29.923  1.00  0.00     0.009 A 
ATOM     79  C   UNL A   1      42.638  35.339  28.275  1.00  0.00     0.001 A 
ATOM     80  C   UNL A   1      40.363  35.160  29.046  1.00  0.00     0.001 A 
ATOM     81  C   UNL A   1      41.313  35.763  28.226  1.00  0.00     0.000 A 
ENDBRANCH  63  76
ENDBRANCH  37  38
ENDBRANCH  29  32
ENDBRANCH  27  28
ENDBRANCH   1  27
TORSDOF 12
ENDMDL
MODEL 2
REMARK VINA RESULT:     -12.4      3.747      6.041
REMARK SMILES Cc1nc2sc3c(c2c2nc(CCC(=O)NCCCNC(=O)c4ccc(-c5c6nc(c(-c7ccccc7)c7ccc([nH]7)c(-c7ccccc7)c7nc(c(-c8ccccc8)c8ccc5[nH]8)C=C7)C=C6)cc4)nn12)[C@@H](C)CCC3
REMARK SMILES IDX 18 1 17 2 16 3 14 4 15 5 13 7 12 8 11 9 1 10 2 11 3 12 72 13
REMARK SMILES IDX 4 14 9 15 71 16 5 17 8 18 10 19 6 20 7 21 77 22 73 23 76 24
REMARK SMILES IDX 74 25 75 26 19 27 20 28 21 29 22 31 23 32 24 33 70 34 25 35
REMARK SMILES IDX 69 36 26 37 27 38 28 39 63 40 29 41 68 42 62 43 64 44 30 45
REMARK SMILES IDX 67 46 61 47 60 48 31 50 53 51 38 52 52 53 39 54 42 55 51 56
REMARK SMILES IDX 65 57 40 58 41 59 50 61 66 62 43 63 32 64 33 65 37 66 34 67
REMARK SMILES IDX 36 68 35 69 54 70 55 71 59 72 56 73 58 74 57 75 44 76 45 77
REMARK SMILES IDX 49 78 46 79 48 80 47 81
REMARK H PARENT 16 6 20 30 64 49 42 60
REMARK Flexibility Score: inf
ROOT
ATOM      1  C   UNL A   1      31.569  28.290  26.602  1.00  0.00     0.042 C 
ENDROOT
BRANCH   1   2
ATOM      2  C   UNL A   1      31.216  27.011  25.701  1.00  0.00     0.117 C 
BRANCH   2   3
ATOM      3  N   UNL A   1      30.333  25.937  26.189  1.00  0.00    -0.356 N 
ATOM      4  C   UNL A   1      30.476  24.582  26.436  1.00  0.00     0.220 C 
ATOM      5  O   UNL A   1      29.672  24.065  27.210  1.00  0.00    -0.275 OA
ATOM      6  H   UNL A   1      29.424  26.261  26.385  1.00  0.00     0.163 HD
BRANCH   4   7
ATOM      7  C   UNL A   1      31.569  23.693  25.847  1.00  0.00     0.108 C 
BRANCH   7   8
ATOM      8  C   UNL A   1      31.229  22.187  25.870  1.00  0.00     0.089 C 
BRANCH   8   9
ATOM      9  C   UNL A   1      32.203  21.441  25.055  1.00  0.00     0.152 A 
ATOM     10  C   UNL A   1      33.334  17.427  24.946  1.00  0.00     0.090 C 
ATOM     11  C   UNL A   1      34.168  18.651  24.705  1.00  0.00     0.131 A 
ATOM     12  N   UNL A   1      35.467  18.580  24.619  1.00  0.00    -0.222 NA
ATOM     13  N   UNL A   1      33.505  19.883  24.667  1.00  0.00    -0.199 N 
ATOM     14  C   UNL A   1      36.120  19.786  24.677  1.00  0.00     0.129 A 
ATOM     15  C   UNL A   1      34.171  21.085  24.572  1.00  0.00     0.168 A 
ATOM     16  N   UNL A   1      32.214  20.099  24.990  1.00  0.00    -0.150 NA
ATOM     17  S   UNL A   1      37.756  19.836  24.966  1.00  0.00    -0.120 S 
ATOM     18  C   UNL A   1      35.627  21.083  24.699  1.00  0.00     0.060 A 
ATOM     19  N   UNL A   1      33.340  22.076  24.666  1.00  0.00    -0.211 NA
ATOM     20  C   UNL A   1      37.707  21.450  25.487  1.00  0.00     0.011 A 
ATOM     21  C   UNL A   1      36.570  22.109  25.078  1.00  0.00    -0.018 A 
ATOM     22  C   UNL A   1      38.708  22.075  26.385  1.00  0.00     0.047 C 
ATOM     23  C   UNL A   1      36.511  23.630  25.264  1.00  0.00     0.018 C 
ATOM     24  C   UNL A   1      38.937  23.498  26.043  1.00  0.00     0.006 C 
ATOM     25  C   UNL A   1      35.273  24.153  25.932  1.00  0.00     0.013 C 
ATOM     26  C   UNL A   1      37.637  24.218  26.173  1.00  0.00     0.008 C 
ENDBRANCH   8   9
ENDBRANCH   7   8
ENDBRANCH   4   7
ENDBRANCH   2   3
ENDBRANCH   1   2
BRANCH   1  27
ATOM     27  C   UNL A   1      33.067  28.773  26.833  1.00  0.00     0.118 C 
BRANCH  27  28
ATOM     28  N   UNL A   1      33.349  30.201  27.444  1.00  0.00    -0.352 N 
ATOM     29  C   UNL A   1      34.323  31.109  27.998  1.00  0.00     0.251 C 
ATOM     30  H   UNL A   1      32.488  30.678  27.448  1.00  0.00     0.163 HD
ATOM     31  O   UNL A   1      33.990  32.303  27.934  1.00  0.00    -0.269 OA
BRANCH  29  32
ATOM     32  C   UNL A   1      35.701  30.906  28.660  1.00  0.00     0.039 A 
ATOM     33  C   UNL A   1      36.921  31.329  28.100  1.00  0.00     0.014 A 
ATOM     34  C   UNL A   1      35.874  30.401  29.950  1.00  0.00     0.014 A 
ATOM     35  C   UNL A   1      38.182  30.744  28.497  1.00  0.00     0.010 A 
ATOM     36  C   UNL A   1      37.094  29.737  30.306  1.00  0.00     0.010 A 
ATOM     37  C   UNL A   1      38.235  29.735  29.461  1.00  0.00    -0.014 A 
BRANCH  37  38
ATOM     38  C   UNL A   1      39.356  28.707  29.641  1.00  0.00     0.031 A 
ATOM     39  C   UNL A   1      39.602  28.383  31.072  1.00  0.00     0.074 A 
ATOM     40  C   UNL A   1      40.081  27.864  28.826  1.00  0.00     0.049 A 
ATOM     41  N   UNL A   1      40.298  29.128  31.862  1.00  0.00    -0.248 NA
ATOM     42  C   UNL A   1      38.924  27.258  31.743  1.00  0.00     0.031 C 
ATOM     43  C   UNL A   1      39.944  27.550  27.396  1.00  0.00     0.029 A 
ATOM     44  N   UNL A   1      41.101  26.980  29.178  1.00  0.00    -0.354 N 
ATOM     45  C   UNL A   1      40.360  28.440  33.057  1.00  0.00     0.074 A 
ATOM     46  C   UNL A   1      39.294  27.469  33.013  1.00  0.00     0.031 C 
ATOM     47  C   UNL A   1      40.626  26.414  27.077  1.00  0.00     0.029 A 
ATOM     48  C   UNL A   1      41.488  26.060  28.191  1.00  0.00     0.049 A 
ATOM     49  H   UNL A   1      41.526  27.001  30.066  1.00  0.00     0.167 HD
ATOM     50  C   UNL A   1      41.483  28.502  33.825  1.00  0.00     0.031 A 
ATOM     51  C   UNL A   1      42.534  25.181  28.215  1.00  0.00     0.031 A 
ATOM     52  C   UNL A   1      42.492  29.324  33.186  1.00  0.00     0.049 A 
ATOM     53  C   UNL A   1      43.576  25.819  29.045  1.00  0.00     0.074 A 
ATOM     54  C   UNL A   1      42.704  30.661  32.923  1.00  0.00     0.029 A 
ATOM     55  N   UNL A   1      43.285  28.617  32.320  1.00  0.00    -0.354 N 
ATOM     56  N   UNL A   1      44.169  26.928  28.708  1.00  0.00    -0.248 NA
ATOM     57  C   UNL A   1      43.858  25.333  30.389  1.00  0.00     0.031 C 
ATOM     58  C   UNL A   1      43.514  30.718  31.744  1.00  0.00     0.029 A 
ATOM     59  C   UNL A   1      43.812  29.420  31.340  1.00  0.00     0.049 A 
ATOM     60  H   UNL A   1      43.456  27.650  32.391  1.00  0.00     0.167 HD
ATOM     61  C   UNL A   1      44.458  27.512  29.918  1.00  0.00     0.074 A 
ATOM     62  C   UNL A   1      44.462  26.424  30.883  1.00  0.00     0.031 C 
ATOM     63  C   UNL A   1      44.281  28.855  30.091  1.00  0.00     0.031 A 
BRANCH  50  64
ATOM     64  C   UNL A   1      41.893  27.489  34.862  1.00  0.00    -0.014 A 
ATOM     65  C   UNL A   1      42.477  26.288  34.420  1.00  0.00     0.009 A 
ATOM     66  C   UNL A   1      41.541  27.558  36.222  1.00  0.00     0.009 A 
ATOM     67  C   UNL A   1      42.677  25.208  35.288  1.00  0.00     0.001 A 
ATOM     68  C   UNL A   1      41.773  26.496  37.100  1.00  0.00     0.001 A 
ATOM     69  C   UNL A   1      42.327  25.314  36.630  1.00  0.00     0.000 A 
ENDBRANCH  50  64
BRANCH  51  70
ATOM     70  C   UNL A   1      42.877  23.880  27.570  1.00  0.00    -0.014 A 
ATOM     71  C   UNL A   1      42.370  22.662  28.081  1.00  0.00     0.009 A 
ATOM     72  C   UNL A   1      43.363  23.863  26.253  1.00  0.00     0.009 A 
ATOM     73  C   UNL A   1      42.272  21.508  27.285  1.00  0.00     0.001 A 
ATOM     74  C   UNL A   1      43.267  22.706  25.457  1.00  0.00     0.001 A 
ATOM     75  C   UNL A   1      42.698  21.538  25.964  1.00  0.00     0.000 A 
ENDBRANCH  51  70
BRANCH  63  76
ATOM     76  C   UNL A   1      44.380  29.731  28.872  1.00  0.00    -0.014 A 
ATOM     77  C   UNL A   1      45.552  30.394  28.466  1.00  0.00     0.009 A 
ATOM     78  C   UNL A   1      43.234  29.875  28.077  1.00  0.00     0.009 A 
ATOM     79  C   UNL A   1      45.568  31.191  27.315  1.00  0.00     0.001 A 
ATOM     80  C   UNL A   1      43.254  30.653  26.917  1.00  0.00     0.001 A 
ATOM     81  C   UNL A   1      44.420  31.316  26.539  1.00  0.00     0.000 A 
ENDBRANCH  63  76
ENDBRANCH  37  38
ENDBRANCH  29  32
ENDBRANCH  27  28
ENDBRANCH   1  27
TORSDOF 12
ENDMDL
MODEL 3
REMARK VINA RESULT:     -12.4      3.875      9.823
REMARK SMILES Cc1nc2sc3c(c2c2nc(CCC(=O)NCCCNC(=O)c4ccc(-c5c6nc(c(-c7ccccc7)c7ccc([nH]7)c(-c7ccccc7)c7nc(c(-c8ccccc8)c8ccc5[nH]8)C=C7)C=C6)cc4)nn12)[C@@H](C)CCC3
REMARK SMILES IDX 18 1 17 2 16 3 14 4 15 5 13 7 12 8 11 9 1 10 2 11 3 12 72 13
REMARK SMILES IDX 4 14 9 15 71 16 5 17 8 18 10 19 6 20 7 21 77 22 73 23 76 24
REMARK SMILES IDX 74 25 75 26 19 27 20 28 21 29 22 31 23 32 24 33 70 34 25 35
REMARK SMILES IDX 69 36 26 37 27 38 28 39 63 40 29 41 68 42 62 43 64 44 30 45
REMARK SMILES IDX 67 46 61 47 60 48 31 50 53 51 38 52 52 53 39 54 42 55 51 56
REMARK SMILES IDX 65 57 40 58 41 59 50 61 66 62 43 63 32 64 33 65 37 66 34 67
REMARK SMILES IDX 36 68 35 69 54 70 55 71 59 72 56 73 58 74 57 75 44 76 45 77
REMARK SMILES IDX 49 78 46 79 48 80 47 81
REMARK H PARENT 16 6 20 30 64 49 42 60
REMARK Flexibility Score: inf
ROOT
ATOM      1  C   UNL A   1      33.626  24.538  24.624  1.00  0.00     0.042 C 
ENDROOT
BRANCH   1   2
ATOM      2  C   UNL A   1      34.058  25.987  25.159  1.00  0.00     0.117 C 
BRANCH   2   3
ATOM      3  N   UNL A   1      33.330  26.662  26.247  1.00  0.00    -0.356 N 
ATOM      4  C   UNL A   1      33.338  27.934  26.795  1.00  0.00     0.220 C 
ATOM      5  O   UNL A   1      32.336  28.283  27.418  1.00  0.00    -0.275 OA
ATOM      6  H   UNL A   1      32.684  26.066  26.692  1.00  0.00     0.163 HD
BRANCH   4   7
ATOM      7  C   UNL A   1      34.478  28.941  26.660  1.00  0.00     0.108 C 
BRANCH   7   8
ATOM      8  C   UNL A   1      34.107  30.369  27.114  1.00  0.00     0.089 C 
BRANCH   8   9
ATOM      9  C   UNL A   1      35.116  30.872  28.062  1.00  0.00     0.152 A 
ATOM     10  C   UNL A   1      36.834  29.261  31.504  1.00  0.00     0.090 C 
ATOM     11  C   UNL A   1      36.510  30.692  31.191  1.00  0.00     0.131 A 
ATOM     12  N   UNL A   1      36.564  31.616  32.108  1.00  0.00    -0.222 NA
ATOM     13  N   UNL A   1      36.061  30.980  29.897  1.00  0.00    -0.199 N 
ATOM     14  C   UNL A   1      35.983  32.811  31.764  1.00  0.00     0.129 A 
ATOM     15  C   UNL A   1      35.621  32.230  29.522  1.00  0.00     0.168 A 
ATOM     16  N   UNL A   1      35.732  30.077  28.952  1.00  0.00    -0.150 NA
ATOM     17  S   UNL A   1      35.633  33.937  32.936  1.00  0.00    -0.120 S 
ATOM     18  C   UNL A   1      35.446  33.244  30.560  1.00  0.00     0.060 A 
ATOM     19  N   UNL A   1      35.159  32.208  28.311  1.00  0.00    -0.211 NA
ATOM     20  C   UNL A   1      34.491  34.729  31.962  1.00  0.00     0.011 A 
ATOM     21  C   UNL A   1      34.637  34.439  30.624  1.00  0.00    -0.018 A 
ATOM     22  C   UNL A   1      33.373  35.556  32.478  1.00  0.00     0.047 C 
ATOM     23  C   UNL A   1      33.839  35.271  29.614  1.00  0.00     0.018 C 
ATOM     24  C   UNL A   1      33.085  36.703  31.586  1.00  0.00     0.006 C 
ATOM     25  C   UNL A   1      33.066  34.487  28.595  1.00  0.00     0.013 C 
ATOM     26  C   UNL A   1      32.722  36.163  30.244  1.00  0.00     0.008 C 
ENDBRANCH   8   9
ENDBRANCH   7   8
ENDBRANCH   4   7
ENDBRANCH   2   3
ENDBRANCH   1   2
BRANCH   1  27
ATOM     27  C   UNL A   1      33.612  23.258  25.568  1.00  0.00     0.118 C 
BRANCH  27  28
ATOM     28  N   UNL A   1      34.632  22.080  25.312  1.00  0.00    -0.352 N 
ATOM     29  C   UNL A   1      35.992  21.613  25.420  1.00  0.00     0.251 C 
ATOM     30  H   UNL A   1      34.117  21.349  24.902  1.00  0.00     0.163 HD
ATOM     31  O   UNL A   1      36.101  20.377  25.401  1.00  0.00    -0.269 OA
BRANCH  29  32
ATOM     32  C   UNL A   1      37.350  22.333  25.555  1.00  0.00     0.039 A 
ATOM     33  C   UNL A   1      38.585  21.676  25.704  1.00  0.00     0.014 A 
ATOM     34  C   UNL A   1      37.513  23.711  25.408  1.00  0.00     0.014 A 
ATOM     35  C   UNL A   1      39.737  22.344  26.268  1.00  0.00     0.010 A 
ATOM     36  C   UNL A   1      38.606  24.380  26.051  1.00  0.00     0.010 A 
ATOM     37  C   UNL A   1      39.664  23.676  26.684  1.00  0.00    -0.014 A 
BRANCH  37  38
ATOM     38  C   UNL A   1      40.579  24.362  27.702  1.00  0.00     0.031 A 
ATOM     39  C   UNL A   1      40.038  25.670  28.158  1.00  0.00     0.074 A 
ATOM     40  C   UNL A   1      41.685  24.014  28.448  1.00  0.00     0.049 A 
ATOM     41  N   UNL A   1      40.145  26.761  27.480  1.00  0.00    -0.248 NA
ATOM     42  C   UNL A   1      39.184  25.784  29.356  1.00  0.00     0.031 C 
ATOM     43  C   UNL A   1      42.362  22.720  28.624  1.00  0.00     0.029 A 
ATOM     44  N   UNL A   1      42.414  24.799  29.342  1.00  0.00    -0.354 N 
ATOM     45  C   UNL A   1      39.601  27.747  28.279  1.00  0.00     0.074 A 
ATOM     46  C   UNL A   1      38.797  27.063  29.262  1.00  0.00     0.031 C 
ATOM     47  C   UNL A   1      43.185  22.742  29.710  1.00  0.00     0.029 A 
ATOM     48  C   UNL A   1      43.333  24.118  30.154  1.00  0.00     0.049 A 
ATOM     49  H   UNL A   1      42.290  25.774  29.399  1.00  0.00     0.167 HD
ATOM     50  C   UNL A   1      40.126  29.003  28.270  1.00  0.00     0.031 A 
ATOM     51  C   UNL A   1      44.259  24.643  31.011  1.00  0.00     0.031 A 
ATOM     52  C   UNL A   1      41.260  29.074  27.370  1.00  0.00     0.049 A 
ATOM     53  C   UNL A   1      44.643  25.949  30.436  1.00  0.00     0.074 A 
ATOM     54  C   UNL A   1      41.488  29.064  26.011  1.00  0.00     0.029 A 
ATOM     55  N   UNL A   1      42.442  28.730  27.974  1.00  0.00    -0.354 N 
ATOM     56  N   UNL A   1      45.246  26.067  29.288  1.00  0.00    -0.248 NA
ATOM     57  C   UNL A   1      44.190  27.192  31.044  1.00  0.00     0.031 C 
ATOM     58  C   UNL A   1      42.800  28.521  25.823  1.00  0.00     0.029 A 
ATOM     59  C   UNL A   1      43.357  28.252  27.070  1.00  0.00     0.049 A 
ATOM     60  H   UNL A   1      42.614  28.813  28.940  1.00  0.00     0.167 HD
ATOM     61  C   UNL A   1      44.797  27.278  28.819  1.00  0.00     0.074 A 
ATOM     62  C   UNL A   1      44.356  28.011  29.994  1.00  0.00     0.031 C 
ATOM     63  C   UNL A   1      44.462  27.422  27.503  1.00  0.00     0.031 A 
BRANCH  50  64
ATOM     64  C   UNL A   1      39.981  30.022  29.371  1.00  0.00    -0.014 A 
ATOM     65  C   UNL A   1      39.370  31.250  29.061  1.00  0.00     0.009 A 
ATOM     66  C   UNL A   1      40.603  29.925  30.629  1.00  0.00     0.009 A 
ATOM     67  C   UNL A   1      39.398  32.328  29.953  1.00  0.00     0.001 A 
ATOM     68  C   UNL A   1      40.601  30.987  31.537  1.00  0.00     0.001 A 
ATOM     69  C   UNL A   1      40.012  32.195  31.193  1.00  0.00     0.000 A 
ENDBRANCH  50  64
BRANCH  51  70
ATOM     70  C   UNL A   1      44.985  24.197  32.236  1.00  0.00    -0.014 A 
ATOM     71  C   UNL A   1      46.080  24.939  32.740  1.00  0.00     0.009 A 
ATOM     72  C   UNL A   1      44.373  23.291  33.116  1.00  0.00     0.009 A 
ATOM     73  C   UNL A   1      46.485  24.843  34.082  1.00  0.00     0.001 A 
ATOM     74  C   UNL A   1      44.781  23.194  34.459  1.00  0.00     0.001 A 
ATOM     75  C   UNL A   1      45.817  23.988  34.949  1.00  0.00     0.000 A 
ENDBRANCH  51  70
BRANCH  63  76
ATOM     76  C   UNL A   1      45.142  26.517  26.510  1.00  0.00    -0.014 A 
ATOM     77  C   UNL A   1      44.581  25.331  26.006  1.00  0.00     0.009 A 
ATOM     78  C   UNL A   1      46.408  26.897  26.043  1.00  0.00     0.009 A 
ATOM     79  C   UNL A   1      45.275  24.542  25.080  1.00  0.00     0.001 A 
ATOM     80  C   UNL A   1      47.093  26.121  25.104  1.00  0.00     0.001 A 
ATOM     81  C   UNL A   1      46.529  24.941  24.626  1.00  0.00     0.000 A 
ENDBRANCH  63  76
ENDBRANCH  37  38
ENDBRANCH  29  32
ENDBRANCH  27  28
ENDBRANCH   1  27
TORSDOF 12
ENDMDL
