MODEL 1
REMARK VINA RESULT:      -9.4      0.000      0.000
REMARK SMILES O=C(CC[C@@H]1COc2ccc(Br)cc2C1=O)NCCCNC(=O)c1ccc(-c2c3nc(c(-c4ccccc4)c4ccc([nH]4)c(-c4ccccc4)c4nc(c(-c5ccccc5)c5ccc2[nH]5)C=C4)C=C3)cc1
REMARK SMILES IDX 19 1 18 2 17 3 1 4 2 5 3 7 4 8 5 9 6 10 15 11 7 12 14 13
REMARK SMILES IDX 16 14 8 15 13 16 9 17 11 18 10 19 12 20 20 21 21 22 22 23
REMARK SMILES IDX 23 25 24 26 25 27 71 28 26 29 70 30 27 31 28 32 29 33 64 34
REMARK SMILES IDX 30 35 69 36 63 37 65 38 31 39 68 40 62 41 61 42 32 44 54 45
REMARK SMILES IDX 39 46 53 47 40 48 43 49 52 50 66 51 41 52 42 53 51 55 67 56
REMARK SMILES IDX 44 57 33 58 34 59 38 60 35 61 37 62 36 63 55 64 56 65 60 66
REMARK SMILES IDX 57 67 59 68 58 69 45 70 46 71 50 72 47 73 49 74 48 75
REMARK H PARENT 17 6 21 24 65 43 43 54
REMARK Flexibility Score: inf
ROOT
ATOM      1  C   UNL A   1      32.895  36.156  32.215  1.00  0.00     0.042 C 
ENDROOT
BRANCH   1   2
ATOM      2  C   UNL A   1      33.813  36.091  33.434  1.00  0.00     0.117 C 
BRANCH   2   3
ATOM      3  N   UNL A   1      34.302  34.748  33.674  1.00  0.00    -0.356 N 
ATOM      4  O   UNL A   1      36.522  35.263  33.630  1.00  0.00    -0.275 OA
ATOM      5  C   UNL A   1      35.632  34.422  33.733  1.00  0.00     0.220 C 
ATOM      6  H   UNL A   1      33.642  34.029  33.804  1.00  0.00     0.163 HD
BRANCH   5   7
ATOM      7  C   UNL A   1      35.960  32.931  33.749  1.00  0.00     0.101 C 
BRANCH   7   8
ATOM      8  C   UNL A   1      37.130  32.411  34.595  1.00  0.00     0.025 C 
BRANCH   8   9
ATOM      9  C   UNL A   1      38.286  31.643  33.910  1.00  0.00     0.099 C 
ATOM     10  C   UNL A   1      37.887  30.305  33.296  1.00  0.00     0.241 C 
ATOM     11  C   UNL A   1      39.473  31.475  34.837  1.00  0.00     0.173 C 
ATOM     12  O   UNL A   1      38.983  29.582  32.732  1.00  0.00    -0.492 OA
ATOM     13  C   UNL A   1      40.354  30.321  34.599  1.00  0.00     0.061 A 
ATOM     14  O   UNL A   1      39.722  32.246  35.758  1.00  0.00    -0.294 OA
ATOM     15  C   UNL A   1      40.039  29.422  33.584  1.00  0.00     0.130 A 
ATOM     16  C   UNL A   1      41.489  30.136  35.397  1.00  0.00     0.031 A 
ATOM     17  C   UNL A   1      40.860  28.315  33.371  1.00  0.00     0.048 A 
ATOM     18  C   UNL A   1      42.305  29.032  35.171  1.00  0.00     0.018 A 
ATOM     19  C   UNL A   1      41.989  28.115  34.171  1.00  0.00     0.019 A 
ATOM     20  Br  UNL A   1      43.852  28.782  36.228  1.00  0.00    -0.051 Br
ENDBRANCH   8   9
ENDBRANCH   7   8
ENDBRANCH   5   7
ENDBRANCH   2   3
ENDBRANCH   1   2
BRANCH   1  21
ATOM     21  C   UNL A   1      33.597  36.233  30.860  1.00  0.00     0.118 C 
BRANCH  21  22
ATOM     22  N   UNL A   1      32.844  35.654  29.757  1.00  0.00    -0.352 N 
ATOM     23  C   UNL A   1      33.129  34.590  28.935  1.00  0.00     0.251 C 
ATOM     24  H   UNL A   1      31.986  36.099  29.569  1.00  0.00     0.163 HD
ATOM     25  O   UNL A   1      32.363  34.327  28.009  1.00  0.00    -0.269 OA
BRANCH  23  26
ATOM     26  C   UNL A   1      34.362  33.786  29.097  1.00  0.00     0.039 A 
ATOM     27  C   UNL A   1      34.480  32.777  30.053  1.00  0.00     0.014 A 
ATOM     28  C   UNL A   1      35.441  34.059  28.246  1.00  0.00     0.014 A 
ATOM     29  C   UNL A   1      35.722  32.182  30.285  1.00  0.00     0.010 A 
ATOM     30  C   UNL A   1      36.663  33.408  28.427  1.00  0.00     0.010 A 
ATOM     31  C   UNL A   1      36.834  32.513  29.494  1.00  0.00    -0.014 A 
BRANCH  31  32
ATOM     32  C   UNL A   1      38.178  31.967  29.824  1.00  0.00     0.031 A 
ATOM     33  C   UNL A   1      39.099  32.724  30.748  1.00  0.00     0.074 A 
ATOM     34  C   UNL A   1      38.558  30.771  29.338  1.00  0.00     0.049 A 
ATOM     35  N   UNL A   1      40.292  32.392  31.177  1.00  0.00    -0.248 NA
ATOM     36  C   UNL A   1      38.624  34.022  31.255  1.00  0.00     0.031 C 
ATOM     37  C   UNL A   1      37.757  29.930  28.447  1.00  0.00     0.029 A 
ATOM     38  N   UNL A   1      39.707  30.046  29.538  1.00  0.00    -0.354 N 
ATOM     39  C   UNL A   1      40.709  33.439  31.990  1.00  0.00     0.074 A 
ATOM     40  C   UNL A   1      39.663  34.437  31.966  1.00  0.00     0.031 C 
ATOM     41  C   UNL A   1      38.418  28.785  28.218  1.00  0.00     0.029 A 
ATOM     42  C   UNL A   1      39.709  28.831  28.897  1.00  0.00     0.049 A 
ATOM     43  H   UNL A   1      40.457  30.366  30.089  1.00  0.00     0.167 HD
ATOM     44  C   UNL A   1      41.852  33.554  32.705  1.00  0.00     0.031 A 
ATOM     45  C   UNL A   1      40.643  27.861  28.855  1.00  0.00     0.031 A 
ATOM     46  C   UNL A   1      42.891  32.560  32.742  1.00  0.00     0.049 A 
ATOM     47  C   UNL A   1      41.929  28.035  29.616  1.00  0.00     0.074 A 
ATOM     48  C   UNL A   1      44.072  32.580  33.465  1.00  0.00     0.029 A 
ATOM     49  N   UNL A   1      42.877  31.372  32.030  1.00  0.00    -0.354 N 
ATOM     50  N   UNL A   1      42.294  29.020  30.398  1.00  0.00    -0.248 NA
ATOM     51  C   UNL A   1      42.927  26.964  29.491  1.00  0.00     0.031 C 
ATOM     52  C   UNL A   1      44.799  31.433  33.143  1.00  0.00     0.029 A 
ATOM     53  C   UNL A   1      44.042  30.665  32.273  1.00  0.00     0.049 A 
ATOM     54  H   UNL A   1      42.147  31.075  31.439  1.00  0.00     0.167 HD
ATOM     55  C   UNL A   1      43.556  28.683  30.871  1.00  0.00     0.074 A 
ATOM     56  C   UNL A   1      43.885  27.393  30.302  1.00  0.00     0.031 C 
ATOM     57  C   UNL A   1      44.365  29.384  31.700  1.00  0.00     0.031 A 
BRANCH  44  58
ATOM     58  C   UNL A   1      42.057  34.805  33.518  1.00  0.00    -0.014 A 
ATOM     59  C   UNL A   1      42.777  35.880  32.974  1.00  0.00     0.009 A 
ATOM     60  C   UNL A   1      41.622  34.883  34.850  1.00  0.00     0.009 A 
ATOM     61  C   UNL A   1      43.070  37.003  33.750  1.00  0.00     0.001 A 
ATOM     62  C   UNL A   1      41.892  36.021  35.615  1.00  0.00     0.001 A 
ATOM     63  C   UNL A   1      42.624  37.074  35.068  1.00  0.00     0.000 A 
ENDBRANCH  44  58
BRANCH  45  64
ATOM     64  C   UNL A   1      40.378  26.629  28.067  1.00  0.00    -0.014 A 
ATOM     65  C   UNL A   1      40.855  26.504  26.752  1.00  0.00     0.009 A 
ATOM     66  C   UNL A   1      39.602  25.592  28.606  1.00  0.00     0.009 A 
ATOM     67  C   UNL A   1      40.538  25.383  25.984  1.00  0.00     0.001 A 
ATOM     68  C   UNL A   1      39.311  24.457  27.846  1.00  0.00     0.001 A 
ATOM     69  C   UNL A   1      39.769  24.359  26.532  1.00  0.00     0.000 A 
ENDBRANCH  45  64
BRANCH  57  70
ATOM     70  C   UNL A   1      45.695  28.784  32.064  1.00  0.00    -0.014 A 
ATOM     71  C   UNL A   1      46.804  28.985  31.224  1.00  0.00     0.009 A 
ATOM     72  C   UNL A   1      45.826  27.932  33.170  1.00  0.00     0.009 A 
ATOM     73  C   UNL A   1      48.010  28.329  31.475  1.00  0.00     0.001 A 
ATOM     74  C   UNL A   1      47.042  27.300  33.435  1.00  0.00     0.001 A 
ATOM     75  C   UNL A   1      48.130  27.490  32.581  1.00  0.00     0.000 A 
ENDBRANCH  57  70
ENDBRANCH  31  32
ENDBRANCH  23  26
ENDBRANCH  21  22
ENDBRANCH   1  21
TORSDOF 12
ENDMDL
MODEL 2
REMARK VINA RESULT:      -9.3      0.669      6.204
REMARK SMILES O=C(CC[C@@H]1COc2ccc(Br)cc2C1=O)NCCCNC(=O)c1ccc(-c2c3nc(c(-c4ccccc4)c4ccc([nH]4)c(-c4ccccc4)c4nc(c(-c5ccccc5)c5ccc2[nH]5)C=C4)C=C3)cc1
REMARK SMILES IDX 19 1 18 2 17 3 1 4 2 5 3 7 4 8 5 9 6 10 15 11 7 12 14 13
REMARK SMILES IDX 16 14 8 15 13 16 9 17 11 18 10 19 12 20 20 21 21 22 22 23
REMARK SMILES IDX 23 25 24 26 25 27 71 28 26 29 70 30 27 31 28 32 29 33 64 34
REMARK SMILES IDX 30 35 69 36 63 37 65 38 31 39 68 40 62 41 61 42 32 44 54 45
REMARK SMILES IDX 39 46 53 47 40 48 43 49 52 50 66 51 41 52 42 53 51 55 67 56
REMARK SMILES IDX 44 57 33 58 34 59 38 60 35 61 37 62 36 63 55 64 56 65 60 66
REMARK SMILES IDX 57 67 59 68 58 69 45 70 46 71 50 72 47 73 49 74 48 75
REMARK H PARENT 17 6 21 24 65 43 43 54
REMARK Flexibility Score: inf
ROOT
ATOM      1  C   UNL A   1      32.854  36.283  32.080  1.00  0.00     0.042 C 
ENDROOT
BRANCH   1   2
ATOM      2  C   UNL A   1      33.659  36.773  33.282  1.00  0.00     0.117 C 
BRANCH   2   3
ATOM      3  N   UNL A   1      34.178  35.675  34.073  1.00  0.00    -0.356 N 
ATOM      4  O   UNL A   1      36.071  35.338  32.849  1.00  0.00    -0.275 OA
ATOM      5  C   UNL A   1      35.344  35.015  33.786  1.00  0.00     0.220 C 
ATOM      6  H   UNL A   1      33.664  35.387  34.862  1.00  0.00     0.163 HD
BRANCH   5   7
ATOM      7  C   UNL A   1      35.607  33.736  34.577  1.00  0.00     0.101 C 
BRANCH   7   8
ATOM      8  C   UNL A   1      36.560  32.670  34.020  1.00  0.00     0.025 C 
BRANCH   8   9
ATOM      9  C   UNL A   1      37.647  32.063  34.940  1.00  0.00     0.099 C 
ATOM     10  C   UNL A   1      38.704  33.054  35.418  1.00  0.00     0.241 C 
ATOM     11  C   UNL A   1      38.298  30.847  34.310  1.00  0.00     0.173 C 
ATOM     12  O   UNL A   1      39.737  32.457  36.206  1.00  0.00    -0.492 OA
ATOM     13  C   UNL A   1      39.673  30.531  34.722  1.00  0.00     0.061 A 
ATOM     14  O   UNL A   1      37.733  30.133  33.488  1.00  0.00    -0.294 OA
ATOM     15  C   UNL A   1      40.326  31.373  35.618  1.00  0.00     0.130 A 
ATOM     16  C   UNL A   1      40.311  29.397  34.206  1.00  0.00     0.031 A 
ATOM     17  C   UNL A   1      41.638  31.088  35.994  1.00  0.00     0.048 A 
ATOM     18  C   UNL A   1      41.619  29.118  34.592  1.00  0.00     0.018 A 
ATOM     19  C   UNL A   1      42.288  29.965  35.474  1.00  0.00     0.019 A 
ATOM     20  Br  UNL A   1      42.485  27.579  33.918  1.00  0.00    -0.051 Br
ENDBRANCH   8   9
ENDBRANCH   7   8
ENDBRANCH   5   7
ENDBRANCH   2   3
ENDBRANCH   1   2
BRANCH   1  21
ATOM     21  C   UNL A   1      33.578  36.330  30.734  1.00  0.00     0.118 C 
BRANCH  21  22
ATOM     22  N   UNL A   1      32.869  35.672  29.646  1.00  0.00    -0.352 N 
ATOM     23  C   UNL A   1      33.182  34.547  28.920  1.00  0.00     0.251 C 
ATOM     24  H   UNL A   1      32.023  36.105  29.387  1.00  0.00     0.163 HD
ATOM     25  O   UNL A   1      32.455  34.217  27.984  1.00  0.00    -0.269 OA
BRANCH  23  26
ATOM     26  C   UNL A   1      34.401  33.753  29.198  1.00  0.00     0.039 A 
ATOM     27  C   UNL A   1      34.502  32.889  30.289  1.00  0.00     0.014 A 
ATOM     28  C   UNL A   1      35.483  33.881  28.318  1.00  0.00     0.014 A 
ATOM     29  C   UNL A   1      35.733  32.312  30.605  1.00  0.00     0.010 A 
ATOM     30  C   UNL A   1      36.694  33.241  28.592  1.00  0.00     0.010 A 
ATOM     31  C   UNL A   1      36.851  32.506  29.776  1.00  0.00    -0.014 A 
BRANCH  31  32
ATOM     32  C   UNL A   1      38.185  31.989  30.183  1.00  0.00     0.031 A 
ATOM     33  C   UNL A   1      38.686  30.673  29.643  1.00  0.00     0.074 A 
ATOM     34  C   UNL A   1      38.970  32.717  30.999  1.00  0.00     0.049 A 
ATOM     35  N   UNL A   1      39.833  30.077  29.857  1.00  0.00    -0.248 NA
ATOM     36  C   UNL A   1      37.785  29.927  28.748  1.00  0.00     0.031 C 
ATOM     37  C   UNL A   1      38.611  34.012  31.579  1.00  0.00     0.029 A 
ATOM     38  N   UNL A   1      40.239  32.480  31.466  1.00  0.00    -0.354 N 
ATOM     39  C   UNL A   1      39.786  28.889  29.136  1.00  0.00     0.074 A 
ATOM     40  C   UNL A   1      38.485  28.827  28.509  1.00  0.00     0.031 C 
ATOM     41  C   UNL A   1      39.654  34.476  32.285  1.00  0.00     0.029 A 
ATOM     42  C   UNL A   1      40.732  33.493  32.253  1.00  0.00     0.049 A 
ATOM     43  H   UNL A   1      40.747  31.664  31.257  1.00  0.00     0.167 HD
ATOM     44  C   UNL A   1      40.744  27.945  28.995  1.00  0.00     0.031 A 
ATOM     45  C   UNL A   1      41.916  33.619  32.884  1.00  0.00     0.031 A 
ATOM     46  C   UNL A   1      42.044  28.008  29.607  1.00  0.00     0.049 A 
ATOM     47  C   UNL A   1      42.945  32.530  32.755  1.00  0.00     0.074 A 
ATOM     48  C   UNL A   1      43.090  27.107  29.494  1.00  0.00     0.029 A 
ATOM     49  N   UNL A   1      42.478  29.023  30.444  1.00  0.00    -0.354 N 
ATOM     50  N   UNL A   1      42.892  31.428  32.049  1.00  0.00    -0.248 NA
ATOM     51  C   UNL A   1      44.197  32.704  33.505  1.00  0.00     0.031 C 
ATOM     52  C   UNL A   1      44.133  27.546  30.309  1.00  0.00     0.029 A 
ATOM     53  C   UNL A   1      43.764  28.755  30.878  1.00  0.00     0.049 A 
ATOM     54  H   UNL A   1      41.949  29.815  30.693  1.00  0.00     0.167 HD
ATOM     55  C   UNL A   1      44.105  30.783  32.258  1.00  0.00     0.074 A 
ATOM     56  C   UNL A   1      44.882  31.628  33.140  1.00  0.00     0.031 C 
ATOM     57  C   UNL A   1      44.530  29.597  31.760  1.00  0.00     0.031 A 
BRANCH  44  58
ATOM     58  C   UNL A   1      40.433  26.743  28.143  1.00  0.00    -0.014 A 
ATOM     59  C   UNL A   1      40.880  26.695  26.813  1.00  0.00     0.009 A 
ATOM     60  C   UNL A   1      39.619  25.705  28.623  1.00  0.00     0.009 A 
ATOM     61  C   UNL A   1      40.509  25.640  25.977  1.00  0.00     0.001 A 
ATOM     62  C   UNL A   1      39.274  24.635  27.793  1.00  0.00     0.001 A 
ATOM     63  C   UNL A   1      39.710  24.610  26.468  1.00  0.00     0.000 A 
ENDBRANCH  44  58
BRANCH  45  64
ATOM     64  C   UNL A   1      42.188  34.842  33.684  1.00  0.00    -0.014 A 
ATOM     65  C   UNL A   1      41.808  34.912  35.034  1.00  0.00     0.009 A 
ATOM     66  C   UNL A   1      42.781  35.965  33.089  1.00  0.00     0.009 A 
ATOM     67  C   UNL A   1      41.989  36.088  35.763  1.00  0.00     0.001 A 
ATOM     68  C   UNL A   1      42.990  37.131  33.829  1.00  0.00     0.001 A 
ATOM     69  C   UNL A   1      42.583  37.196  35.162  1.00  0.00     0.000 A 
ENDBRANCH  45  64
BRANCH  57  70
ATOM     70  C   UNL A   1      45.905  29.123  32.142  1.00  0.00    -0.014 A 
ATOM     71  C   UNL A   1      46.084  28.381  33.321  1.00  0.00     0.009 A 
ATOM     72  C   UNL A   1      47.033  29.504  31.400  1.00  0.00     0.009 A 
ATOM     73  C   UNL A   1      47.366  28.046  33.760  1.00  0.00     0.001 A 
ATOM     74  C   UNL A   1      48.313  29.143  31.826  1.00  0.00     0.001 A 
ATOM     75  C   UNL A   1      48.479  28.424  33.011  1.00  0.00     0.000 A 
ENDBRANCH  57  70
ENDBRANCH  31  32
ENDBRANCH  23  26
ENDBRANCH  21  22
ENDBRANCH   1  21
TORSDOF 12
ENDMDL
MODEL 3
REMARK VINA RESULT:      -9.1      4.655     10.814
REMARK SMILES O=C(CC[C@@H]1COc2ccc(Br)cc2C1=O)NCCCNC(=O)c1ccc(-c2c3nc(c(-c4ccccc4)c4ccc([nH]4)c(-c4ccccc4)c4nc(c(-c5ccccc5)c5ccc2[nH]5)C=C4)C=C3)cc1
REMARK SMILES IDX 19 1 18 2 17 3 1 4 2 5 3 7 4 8 5 9 6 10 15 11 7 12 14 13
REMARK SMILES IDX 16 14 8 15 13 16 9 17 11 18 10 19 12 20 20 21 21 22 22 23
REMARK SMILES IDX 23 25 24 26 25 27 71 28 26 29 70 30 27 31 28 32 29 33 64 34
REMARK SMILES IDX 30 35 69 36 63 37 65 38 31 39 68 40 62 41 61 42 32 44 54 45
REMARK SMILES IDX 39 46 53 47 40 48 43 49 52 50 66 51 41 52 42 53 51 55 67 56
REMARK SMILES IDX 44 57 33 58 34 59 38 60 35 61 37 62 36 63 55 64 56 65 60 66
REMARK SMILES IDX 57 67 59 68 58 69 45 70 46 71 50 72 47 73 49 74 48 75
REMARK H PARENT 17 6 21 24 65 43 43 54
REMARK Flexibility Score: inf
ROOT
ATOM      1  C   UNL A   1      44.781  19.385  24.492  1.00  0.00     0.042 C 
ENDROOT
BRANCH   1   2
ATOM      2  C   UNL A   1      46.056  20.225  24.534  1.00  0.00     0.117 C 
BRANCH   2   3
ATOM      3  N   UNL A   1      45.813  21.600  24.148  1.00  0.00    -0.356 N 
ATOM      4  O   UNL A   1      46.396  22.541  26.140  1.00  0.00    -0.275 OA
ATOM      5  C   UNL A   1      45.979  22.668  24.991  1.00  0.00     0.220 C 
ATOM      6  H   UNL A   1      45.512  21.779  23.228  1.00  0.00     0.163 HD
BRANCH   5   7
ATOM      7  C   UNL A   1      45.446  24.008  24.495  1.00  0.00     0.101 C 
BRANCH   7   8
ATOM      8  C   UNL A   1      46.151  25.312  24.894  1.00  0.00     0.025 C 
BRANCH   8   9
ATOM      9  C   UNL A   1      45.495  26.245  25.941  1.00  0.00     0.099 C 
ATOM     10  C   UNL A   1      44.164  26.852  25.509  1.00  0.00     0.241 C 
ATOM     11  C   UNL A   1      46.451  27.325  26.405  1.00  0.00     0.173 C 
ATOM     12  O   UNL A   1      43.612  27.765  26.461  1.00  0.00    -0.492 OA
ATOM     13  C   UNL A   1      45.862  28.582  26.890  1.00  0.00     0.061 A 
ATOM     14  O   UNL A   1      47.671  27.194  26.393  1.00  0.00    -0.294 OA
ATOM     15  C   UNL A   1      44.479  28.744  26.857  1.00  0.00     0.130 A 
ATOM     16  C   UNL A   1      46.693  29.601  27.371  1.00  0.00     0.031 A 
ATOM     17  C   UNL A   1      43.919  29.943  27.295  1.00  0.00     0.048 A 
ATOM     18  C   UNL A   1      46.123  30.791  27.812  1.00  0.00     0.018 A 
ATOM     19  C   UNL A   1      44.742  30.971  27.765  1.00  0.00     0.019 A 
ATOM     20  Br  UNL A   1      47.233  32.167  28.482  1.00  0.00    -0.051 Br
ENDBRANCH   8   9
ENDBRANCH   7   8
ENDBRANCH   5   7
ENDBRANCH   2   3
ENDBRANCH   1   2
BRANCH   1  21
ATOM     21  C   UNL A   1      44.071  19.190  25.832  1.00  0.00     0.118 C 
BRANCH  21  22
ATOM     22  N   UNL A   1      42.656  18.865  25.722  1.00  0.00    -0.352 N 
ATOM     23  C   UNL A   1      41.538  19.609  26.014  1.00  0.00     0.251 C 
ATOM     24  H   UNL A   1      42.469  17.960  25.381  1.00  0.00     0.163 HD
ATOM     25  O   UNL A   1      40.428  19.089  25.909  1.00  0.00    -0.269 OA
BRANCH  23  26
ATOM     26  C   UNL A   1      41.633  21.003  26.507  1.00  0.00     0.039 A 
ATOM     27  C   UNL A   1      42.030  22.062  25.690  1.00  0.00     0.014 A 
ATOM     28  C   UNL A   1      41.304  21.251  27.845  1.00  0.00     0.014 A 
ATOM     29  C   UNL A   1      42.282  23.315  26.252  1.00  0.00     0.010 A 
ATOM     30  C   UNL A   1      41.482  22.524  28.390  1.00  0.00     0.010 A 
ATOM     31  C   UNL A   1      42.039  23.552  27.615  1.00  0.00    -0.014 A 
BRANCH  31  32
ATOM     32  C   UNL A   1      42.422  24.851  28.230  1.00  0.00     0.031 A 
ATOM     33  C   UNL A   1      41.392  25.936  28.416  1.00  0.00     0.074 A 
ATOM     34  C   UNL A   1      43.681  25.045  28.667  1.00  0.00     0.049 A 
ATOM     35  N   UNL A   1      41.530  27.120  28.961  1.00  0.00    -0.248 NA
ATOM     36  C   UNL A   1      40.031  25.662  27.927  1.00  0.00     0.031 C 
ATOM     37  C   UNL A   1      44.768  24.071  28.562  1.00  0.00     0.029 A 
ATOM     38  N   UNL A   1      44.253  26.118  29.304  1.00  0.00    -0.354 N 
ATOM     39  C   UNL A   1      40.284  27.729  28.870  1.00  0.00     0.074 A 
ATOM     40  C   UNL A   1      39.411  26.805  28.183  1.00  0.00     0.031 C 
ATOM     41  C   UNL A   1      45.862  24.573  29.156  1.00  0.00     0.029 A 
ATOM     42  C   UNL A   1      45.571  25.921  29.637  1.00  0.00     0.049 A 
ATOM     43  H   UNL A   1      43.765  26.950  29.503  1.00  0.00     0.167 HD
ATOM     44  C   UNL A   1      39.898  28.941  29.331  1.00  0.00     0.031 A 
ATOM     45  C   UNL A   1      46.452  26.731  30.255  1.00  0.00     0.031 A 
ATOM     46  C   UNL A   1      40.760  29.860  30.025  1.00  0.00     0.049 A 
ATOM     47  C   UNL A   1      46.013  28.096  30.711  1.00  0.00     0.074 A 
ATOM     48  C   UNL A   1      40.444  31.100  30.554  1.00  0.00     0.029 A 
ATOM     49  N   UNL A   1      42.103  29.643  30.286  1.00  0.00    -0.354 N 
ATOM     50  N   UNL A   1      44.825  28.643  30.638  1.00  0.00    -0.248 NA
ATOM     51  C   UNL A   1      47.033  28.950  31.335  1.00  0.00     0.031 C 
ATOM     52  C   UNL A   1      41.608  31.658  31.081  1.00  0.00     0.029 A 
ATOM     53  C   UNL A   1      42.636  30.739  30.943  1.00  0.00     0.049 A 
ATOM     54  H   UNL A   1      42.603  28.831  30.042  1.00  0.00     0.167 HD
ATOM     55  C   UNL A   1      44.949  29.899  31.219  1.00  0.00     0.074 A 
ATOM     56  C   UNL A   1      46.323  30.024  31.657  1.00  0.00     0.031 C 
ATOM     57  C   UNL A   1      44.005  30.859  31.372  1.00  0.00     0.031 A 
BRANCH  44  58
ATOM     58  C   UNL A   1      38.471  29.364  29.102  1.00  0.00    -0.014 A 
ATOM     59  C   UNL A   1      37.517  29.180  30.116  1.00  0.00     0.009 A 
ATOM     60  C   UNL A   1      38.051  29.852  27.855  1.00  0.00     0.009 A 
ATOM     61  C   UNL A   1      36.170  29.463  29.883  1.00  0.00     0.001 A 
ATOM     62  C   UNL A   1      36.706  30.163  27.634  1.00  0.00     0.001 A 
ATOM     63  C   UNL A   1      35.767  29.959  28.645  1.00  0.00     0.000 A 
ENDBRANCH  44  58
BRANCH  45  64
ATOM     64  C   UNL A   1      47.840  26.254  30.489  1.00  0.00    -0.014 A 
ATOM     65  C   UNL A   1      48.801  26.321  29.467  1.00  0.00     0.009 A 
ATOM     66  C   UNL A   1      48.198  25.680  31.718  1.00  0.00     0.009 A 
ATOM     67  C   UNL A   1      50.081  25.798  29.660  1.00  0.00     0.001 A 
ATOM     68  C   UNL A   1      49.489  25.185  31.919  1.00  0.00     0.001 A 
ATOM     69  C   UNL A   1      50.425  25.234  30.886  1.00  0.00     0.000 A 
ENDBRANCH  45  64
BRANCH  57  70
ATOM     70  C   UNL A   1      44.405  32.142  32.048  1.00  0.00    -0.014 A 
ATOM     71  C   UNL A   1      44.927  33.198  31.284  1.00  0.00     0.009 A 
ATOM     72  C   UNL A   1      44.370  32.264  33.444  1.00  0.00     0.009 A 
ATOM     73  C   UNL A   1      45.425  34.345  31.906  1.00  0.00     0.001 A 
ATOM     74  C   UNL A   1      44.842  33.423  34.063  1.00  0.00     0.001 A 
ATOM     75  C   UNL A   1      45.379  34.458  33.295  1.00  0.00     0.000 A 
ENDBRANCH  57  70
ENDBRANCH  31  32
ENDBRANCH  23  26
ENDBRANCH  21  22
ENDBRANCH   1  21
TORSDOF 12
ENDMDL
