MODEL 1
REMARK VINA RESULT:     -13.5      0.000      0.000
REMARK SMILES Cc1ccc(S(=O)(=O)n2cc(C(=O)C(=O)N[C@@H](Cc3c[nH]c4ccccc34)C(=O)NCC(=O)NCCCNC(=O)c3ccc(-c4c5nc(c(-c6ccccc6)c6ccc([nH]6)c(-c6ccccc6)c6nc(c(-c7ccccc7)c7ccc4[nH]7)C=C6)C=C5)cc3)c3ccccc32)cc1
REMARK SMILES IDX 32 1 33 2 34 3 31 5 30 6 28 7 29 8 17 10 16 11 14 12 15 13
REMARK SMILES IDX 12 15 13 16 11 17 9 18 10 19 94 20 89 21 93 22 90 23 92 24
REMARK SMILES IDX 91 25 6 26 7 27 8 28 5 29 1 30 2 31 3 32 96 33 4 34 95 35
REMARK SMILES IDX 18 36 19 37 20 38 27 39 21 40 22 41 26 42 23 44 25 45 24 46
REMARK SMILES IDX 35 47 36 48 37 49 38 50 39 51 40 53 41 54 42 55 88 56 43 57
REMARK SMILES IDX 87 58 44 59 45 60 46 61 81 62 47 63 86 64 80 65 82 66 48 67
REMARK SMILES IDX 85 68 79 69 78 70 49 72 71 73 56 74 70 75 57 76 60 77 69 78
REMARK SMILES IDX 83 79 58 80 59 81 68 83 84 84 61 85 50 86 51 87 55 88 52 89
REMARK SMILES IDX 54 90 53 91 72 92 73 93 77 94 74 95 76 96 75 97 62 98 63 99
REMARK SMILES IDX 67 100 64 101 66 102 65 103
REMARK H PARENT 34 4 30 9 16 14 21 43 38 52 82 71 60 82
REMARK Flexibility Score: inf
ROOT
ATOM      1  C   UNL A   1      34.832  23.156  26.432  1.00  0.00     0.239 C 
ATOM      2  O   UNL A   1      34.082  22.879  27.369  1.00  0.00    -0.273 OA
ATOM      3  N   UNL A   1      36.164  22.850  26.521  1.00  0.00    -0.355 N 
ATOM      4  H   UNL A   1      36.456  22.353  27.320  1.00  0.00     0.163 HD
ENDROOT
BRANCH   1   5
ATOM      5  C   UNL A   1      34.316  23.802  25.141  1.00  0.00     0.216 C 
BRANCH   5   6
ATOM      6  N   UNL A   1      34.668  25.188  24.888  1.00  0.00    -0.345 N 
ATOM      7  C   UNL A   1      33.934  26.335  24.959  1.00  0.00     0.243 C 
ATOM      8  O   UNL A   1      34.593  27.380  25.035  1.00  0.00    -0.273 OA
ATOM      9  H   UNL A   1      35.604  25.323  24.617  1.00  0.00     0.164 HD
BRANCH   7  10
ATOM     10  C   UNL A   1      32.375  26.411  25.054  1.00  0.00     0.176 C 
BRANCH  10  11
ATOM     11  N   UNL A   1      31.786  26.831  26.345  1.00  0.00    -0.337 N 
ATOM     12  C   UNL A   1      31.963  27.973  27.125  1.00  0.00     0.293 C 
ATOM     13  O   UNL A   1      31.435  28.039  28.232  1.00  0.00    -0.265 OA
ATOM     14  H   UNL A   1      31.149  26.183  26.725  1.00  0.00     0.164 HD
BRANCH  12  15
ATOM     15  C   UNL A   1      32.713  29.200  26.588  1.00  0.00     0.252 C 
ATOM     16  O   UNL A   1      32.334  29.613  25.492  1.00  0.00    -0.283 OA
BRANCH  15  17
ATOM     17  C   UNL A   1      33.867  29.815  27.270  1.00  0.00     0.054 A 
ATOM     18  N   UNL A   1      35.820  30.338  28.302  1.00  0.00    -0.240 N 
ATOM     19  C   UNL A   1      35.022  29.277  27.861  1.00  0.00     0.117 A 
ATOM     20  C   UNL A   1      35.224  31.527  27.849  1.00  0.00     0.065 A 
ATOM     21  C   UNL A   1      33.901  31.211  27.568  1.00  0.00     0.012 A 
ATOM     22  C   UNL A   1      35.652  32.869  27.927  1.00  0.00     0.028 A 
ATOM     23  C   UNL A   1      32.940  32.245  27.577  1.00  0.00     0.011 A 
ATOM     24  C   UNL A   1      34.682  33.867  27.985  1.00  0.00     0.002 A 
ATOM     25  C   UNL A   1      33.336  33.555  27.861  1.00  0.00     0.001 A 
BRANCH  18  26
ATOM     26  S   UNL A   1      36.558  30.551  29.871  1.00  0.00     0.268 S 
ATOM     27  O   UNL A   1      37.927  30.906  29.540  1.00  0.00    -0.201 OA
ATOM     28  O   UNL A   1      36.249  29.281  30.518  1.00  0.00    -0.201 OA
BRANCH  26  29
ATOM     29  C   UNL A   1      36.090  31.673  31.140  1.00  0.00     0.088 A 
ATOM     30  C   UNL A   1      35.733  33.905  34.829  1.00  0.00     0.044 C 
ATOM     31  C   UNL A   1      35.839  33.185  33.515  1.00  0.00    -0.051 A 
ATOM     32  C   UNL A   1      37.049  32.575  33.219  1.00  0.00     0.005 A 
ATOM     33  C   UNL A   1      34.768  33.051  32.603  1.00  0.00     0.005 A 
ATOM     34  C   UNL A   1      37.168  31.848  32.048  1.00  0.00     0.022 A 
ATOM     35  C   UNL A   1      34.881  32.290  31.407  1.00  0.00     0.022 A 
ENDBRANCH  26  29
ENDBRANCH  18  26
ENDBRANCH  15  17
ENDBRANCH  12  15
ENDBRANCH  10  11
BRANCH  10  36
ATOM     36  C   UNL A   1      31.729  27.133  23.827  1.00  0.00     0.072 C 
BRANCH  36  37
ATOM     37  C   UNL A   1      30.227  27.305  23.810  1.00  0.00    -0.020 A 
ATOM     38  C   UNL A   1      29.301  26.282  23.943  1.00  0.00     0.087 A 
ATOM     39  C   UNL A   1      29.461  28.509  23.605  1.00  0.00     0.003 A 
ATOM     40  N   UNL A   1      28.050  26.785  23.695  1.00  0.00    -0.361 N 
ATOM     41  C   UNL A   1      28.141  28.117  23.362  1.00  0.00     0.046 A 
ATOM     42  C   UNL A   1      29.779  29.875  23.459  1.00  0.00     0.010 A 
ATOM     43  H   UNL A   1      27.213  26.271  23.746  1.00  0.00     0.166 HD
ATOM     44  C   UNL A   1      27.173  28.983  22.841  1.00  0.00     0.026 A 
ATOM     45  C   UNL A   1      28.832  30.751  22.913  1.00  0.00     0.001 A 
ATOM     46  C   UNL A   1      27.558  30.301  22.581  1.00  0.00     0.002 A 
ENDBRANCH  36  37
ENDBRANCH  10  36
ENDBRANCH   7  10
ENDBRANCH   5   6
ENDBRANCH   1   5
BRANCH   3  47
ATOM     47  C   UNL A   1      37.182  23.191  25.549  1.00  0.00     0.117 C 
BRANCH  47  48
ATOM     48  C   UNL A   1      38.294  24.013  26.194  1.00  0.00     0.042 C 
BRANCH  48  49
ATOM     49  C   UNL A   1      39.256  23.160  26.982  1.00  0.00     0.118 C 
BRANCH  49  50
ATOM     50  N   UNL A   1      40.271  22.480  26.188  1.00  0.00    -0.352 N 
ATOM     51  C   UNL A   1      41.654  22.584  26.296  1.00  0.00     0.251 C 
ATOM     52  H   UNL A   1      39.937  21.872  25.489  1.00  0.00     0.163 HD
ATOM     53  O   UNL A   1      42.393  21.974  25.557  1.00  0.00    -0.269 OA
BRANCH  51  54
ATOM     54  C   UNL A   1      42.193  23.356  27.449  1.00  0.00     0.039 A 
ATOM     55  C   UNL A   1      42.155  24.747  27.341  1.00  0.00     0.014 A 
ATOM     56  C   UNL A   1      43.027  22.733  28.374  1.00  0.00     0.014 A 
ATOM     57  C   UNL A   1      43.169  25.490  27.932  1.00  0.00     0.010 A 
ATOM     58  C   UNL A   1      44.105  23.452  28.854  1.00  0.00     0.010 A 
ATOM     59  C   UNL A   1      44.214  24.816  28.564  1.00  0.00    -0.014 A 
BRANCH  59  60
ATOM     60  C   UNL A   1      45.501  25.447  28.836  1.00  0.00     0.031 A 
ATOM     61  C   UNL A   1      46.665  25.126  27.991  1.00  0.00     0.074 A 
ATOM     62  C   UNL A   1      45.646  26.305  29.872  1.00  0.00     0.049 A 
ATOM     63  N   UNL A   1      47.889  25.150  28.400  1.00  0.00    -0.248 NA
ATOM     64  C   UNL A   1      46.524  24.676  26.612  1.00  0.00     0.031 C 
ATOM     65  C   UNL A   1      46.798  27.150  30.176  1.00  0.00     0.029 A 
ATOM     66  N   UNL A   1      44.849  26.411  31.000  1.00  0.00    -0.354 N 
ATOM     67  C   UNL A   1      48.691  25.021  27.291  1.00  0.00     0.074 A 
ATOM     68  C   UNL A   1      47.799  24.633  26.224  1.00  0.00     0.031 C 
ATOM     69  C   UNL A   1      46.758  27.487  31.476  1.00  0.00     0.029 A 
ATOM     70  C   UNL A   1      45.655  26.766  32.087  1.00  0.00     0.049 A 
ATOM     71  H   UNL A   1      43.876  26.262  31.031  1.00  0.00     0.167 HD
ATOM     72  C   UNL A   1      49.997  25.403  27.356  1.00  0.00     0.031 A 
ATOM     73  C   UNL A   1      45.764  25.946  33.174  1.00  0.00     0.031 A 
ATOM     74  C   UNL A   1      50.383  25.795  28.712  1.00  0.00     0.049 A 
ATOM     75  C   UNL A   1      47.161  25.392  33.374  1.00  0.00     0.074 A 
ATOM     76  C   UNL A   1      50.544  27.025  29.329  1.00  0.00     0.029 A 
ATOM     77  N   UNL A   1      50.359  24.846  29.730  1.00  0.00    -0.354 N 
ATOM     78  N   UNL A   1      48.103  25.433  32.472  1.00  0.00    -0.248 NA
ATOM     79  C   UNL A   1      47.592  24.709  34.594  1.00  0.00     0.031 C 
ATOM     80  C   UNL A   1      50.533  26.816  30.733  1.00  0.00     0.029 A 
ATOM     81  C   UNL A   1      50.398  25.460  30.968  1.00  0.00     0.049 A 
ATOM     82  H   UNL A   1      50.320  23.873  29.587  1.00  0.00     0.167 HD
ATOM     83  C   UNL A   1      49.223  24.799  32.945  1.00  0.00     0.074 A 
ATOM     84  C   UNL A   1      48.859  24.377  34.285  1.00  0.00     0.031 C 
ATOM     85  C   UNL A   1      50.351  24.664  32.187  1.00  0.00     0.031 A 
BRANCH  72  86
ATOM     86  C   UNL A   1      50.810  25.723  26.121  1.00  0.00    -0.014 A 
ATOM     87  C   UNL A   1      52.067  25.118  25.939  1.00  0.00     0.009 A 
ATOM     88  C   UNL A   1      50.437  26.662  25.145  1.00  0.00     0.009 A 
ATOM     89  C   UNL A   1      52.941  25.513  24.916  1.00  0.00     0.001 A 
ATOM     90  C   UNL A   1      51.321  27.096  24.147  1.00  0.00     0.001 A 
ATOM     91  C   UNL A   1      52.581  26.530  24.040  1.00  0.00     0.000 A 
ENDBRANCH  72  86
BRANCH  73  92
ATOM     92  C   UNL A   1      44.503  25.218  33.494  1.00  0.00    -0.014 A 
ATOM     93  C   UNL A   1      44.423  23.853  33.149  1.00  0.00     0.009 A 
ATOM     94  C   UNL A   1      43.587  25.726  34.424  1.00  0.00     0.009 A 
ATOM     95  C   UNL A   1      43.541  22.995  33.813  1.00  0.00     0.001 A 
ATOM     96  C   UNL A   1      42.692  24.865  35.074  1.00  0.00     0.001 A 
ATOM     97  C   UNL A   1      42.698  23.498  34.798  1.00  0.00     0.000 A 
ENDBRANCH  73  92
BRANCH  85  98
ATOM     98  C   UNL A   1      51.559  23.831  32.541  1.00  0.00    -0.014 A 
ATOM     99  C   UNL A   1      51.582  22.430  32.542  1.00  0.00     0.009 A 
ATOM    100  C   UNL A   1      52.793  24.484  32.766  1.00  0.00     0.009 A 
ATOM    101  C   UNL A   1      52.763  21.721  32.806  1.00  0.00     0.001 A 
ATOM    102  C   UNL A   1      53.980  23.782  32.983  1.00  0.00     0.001 A 
ATOM    103  C   UNL A   1      53.962  22.396  33.017  1.00  0.00     0.000 A 
ENDBRANCH  85  98
ENDBRANCH  59  60
ENDBRANCH  51  54
ENDBRANCH  49  50
ENDBRANCH  48  49
ENDBRANCH  47  48
ENDBRANCH   3  47
TORSDOF 19
ENDMDL
MODEL 2
REMARK VINA RESULT:     -13.4      3.747      8.767
REMARK SMILES Cc1ccc(S(=O)(=O)n2cc(C(=O)C(=O)N[C@@H](Cc3c[nH]c4ccccc34)C(=O)NCC(=O)NCCCNC(=O)c3ccc(-c4c5nc(c(-c6ccccc6)c6ccc([nH]6)c(-c6ccccc6)c6nc(c(-c7ccccc7)c7ccc4[nH]7)C=C6)C=C5)cc3)c3ccccc32)cc1
REMARK SMILES IDX 32 1 33 2 34 3 31 5 30 6 28 7 29 8 17 10 16 11 14 12 15 13
REMARK SMILES IDX 12 15 13 16 11 17 9 18 10 19 94 20 89 21 93 22 90 23 92 24
REMARK SMILES IDX 91 25 6 26 7 27 8 28 5 29 1 30 2 31 3 32 96 33 4 34 95 35
REMARK SMILES IDX 18 36 19 37 20 38 27 39 21 40 22 41 26 42 23 44 25 45 24 46
REMARK SMILES IDX 35 47 36 48 37 49 38 50 39 51 40 53 41 54 42 55 88 56 43 57
REMARK SMILES IDX 87 58 44 59 45 60 46 61 81 62 47 63 86 64 80 65 82 66 48 67
REMARK SMILES IDX 85 68 79 69 78 70 49 72 71 73 56 74 70 75 57 76 60 77 69 78
REMARK SMILES IDX 83 79 58 80 59 81 68 83 84 84 61 85 50 86 51 87 55 88 52 89
REMARK SMILES IDX 54 90 53 91 72 92 73 93 77 94 74 95 76 96 75 97 62 98 63 99
REMARK SMILES IDX 67 100 64 101 66 102 65 103
REMARK H PARENT 34 4 30 9 16 14 21 43 38 52 82 71 60 82
REMARK Flexibility Score: inf
ROOT
ATOM      1  C   UNL A   1      35.179  23.224  26.626  1.00  0.00     0.239 C 
ATOM      2  O   UNL A   1      34.455  22.937  27.579  1.00  0.00    -0.273 OA
ATOM      3  N   UNL A   1      36.402  22.618  26.502  1.00  0.00    -0.355 N 
ATOM      4  H   UNL A   1      36.622  21.917  27.158  1.00  0.00     0.163 HD
ENDROOT
BRANCH   1   5
ATOM      5  C   UNL A   1      34.742  24.216  25.542  1.00  0.00     0.216 C 
BRANCH   5   6
ATOM      6  N   UNL A   1      34.143  23.679  24.333  1.00  0.00    -0.345 N 
ATOM      7  C   UNL A   1      33.218  22.697  24.141  1.00  0.00     0.243 C 
ATOM      8  O   UNL A   1      32.650  22.712  23.041  1.00  0.00    -0.273 OA
ATOM      9  H   UNL A   1      34.465  24.099  23.503  1.00  0.00     0.164 HD
BRANCH   7  10
ATOM     10  C   UNL A   1      32.763  21.656  25.216  1.00  0.00     0.176 C 
BRANCH  10  11
ATOM     11  N   UNL A   1      31.738  22.081  26.195  1.00  0.00    -0.337 N 
ATOM     12  C   UNL A   1      30.919  23.208  26.260  1.00  0.00     0.293 C 
ATOM     13  O   UNL A   1      30.217  23.391  27.251  1.00  0.00    -0.265 OA
ATOM     14  H   UNL A   1      31.610  21.451  26.941  1.00  0.00     0.164 HD
BRANCH  12  15
ATOM     15  C   UNL A   1      30.791  24.172  25.073  1.00  0.00     0.252 C 
ATOM     16  O   UNL A   1      30.382  23.670  24.026  1.00  0.00    -0.283 OA
BRANCH  15  17
ATOM     17  C   UNL A   1      31.198  25.589  25.124  1.00  0.00     0.054 A 
ATOM     18  N   UNL A   1      32.183  27.609  25.443  1.00  0.00    -0.240 N 
ATOM     19  C   UNL A   1      32.203  26.267  25.834  1.00  0.00     0.117 A 
ATOM     20  C   UNL A   1      31.265  27.724  24.385  1.00  0.00     0.065 A 
ATOM     21  C   UNL A   1      30.444  26.607  24.466  1.00  0.00     0.012 A 
ATOM     22  C   UNL A   1      30.927  28.819  23.564  1.00  0.00     0.028 A 
ATOM     23  C   UNL A   1      29.157  26.669  23.889  1.00  0.00     0.011 A 
ATOM     24  C   UNL A   1      29.635  28.881  23.048  1.00  0.00     0.002 A 
ATOM     25  C   UNL A   1      28.741  27.840  23.250  1.00  0.00     0.001 A 
BRANCH  18  26
ATOM     26  S   UNL A   1      32.163  29.028  26.462  1.00  0.00     0.268 S 
ATOM     27  O   UNL A   1      31.403  28.586  27.619  1.00  0.00    -0.201 OA
ATOM     28  O   UNL A   1      31.626  30.036  25.554  1.00  0.00    -0.201 OA
BRANCH  26  29
ATOM     29  C   UNL A   1      33.536  29.901  27.125  1.00  0.00     0.088 A 
ATOM     30  C   UNL A   1      36.356  32.931  28.384  1.00  0.00     0.044 C 
ATOM     31  C   UNL A   1      35.395  31.842  28.000  1.00  0.00    -0.051 A 
ATOM     32  C   UNL A   1      34.063  32.195  27.842  1.00  0.00     0.005 A 
ATOM     33  C   UNL A   1      35.782  30.507  27.739  1.00  0.00     0.005 A 
ATOM     34  C   UNL A   1      33.157  31.236  27.427  1.00  0.00     0.022 A 
ATOM     35  C   UNL A   1      34.856  29.523  27.294  1.00  0.00     0.022 A 
ENDBRANCH  26  29
ENDBRANCH  18  26
ENDBRANCH  15  17
ENDBRANCH  12  15
ENDBRANCH  10  11
BRANCH  10  36
ATOM     36  C   UNL A   1      32.472  20.245  24.606  1.00  0.00     0.072 C 
BRANCH  36  37
ATOM     37  C   UNL A   1      33.490  19.149  24.826  1.00  0.00    -0.020 A 
ATOM     38  C   UNL A   1      34.850  19.257  24.578  1.00  0.00     0.087 A 
ATOM     39  C   UNL A   1      33.274  17.794  25.266  1.00  0.00     0.003 A 
ATOM     40  N   UNL A   1      35.422  18.019  24.716  1.00  0.00    -0.361 N 
ATOM     41  C   UNL A   1      34.453  17.088  25.011  1.00  0.00     0.046 A 
ATOM     42  C   UNL A   1      32.156  17.065  25.720  1.00  0.00     0.010 A 
ATOM     43  H   UNL A   1      36.382  17.824  24.617  1.00  0.00     0.166 HD
ATOM     44  C   UNL A   1      34.526  15.690  25.042  1.00  0.00     0.026 A 
ATOM     45  C   UNL A   1      32.201  15.665  25.730  1.00  0.00     0.001 A 
ATOM     46  C   UNL A   1      33.361  14.990  25.365  1.00  0.00     0.002 A 
ENDBRANCH  36  37
ENDBRANCH  10  36
ENDBRANCH   7  10
ENDBRANCH   5   6
ENDBRANCH   1   5
BRANCH   3  47
ATOM     47  C   UNL A   1      37.399  22.914  25.494  1.00  0.00     0.117 C 
BRANCH  47  48
ATOM     48  C   UNL A   1      38.463  23.858  26.045  1.00  0.00     0.042 C 
BRANCH  48  49
ATOM     49  C   UNL A   1      39.492  23.140  26.881  1.00  0.00     0.118 C 
BRANCH  49  50
ATOM     50  N   UNL A   1      39.993  21.897  26.311  1.00  0.00    -0.352 N 
ATOM     51  C   UNL A   1      41.316  21.489  26.176  1.00  0.00     0.251 C 
ATOM     52  H   UNL A   1      39.312  21.268  25.979  1.00  0.00     0.163 HD
ATOM     53  O   UNL A   1      41.601  20.431  25.663  1.00  0.00    -0.269 OA
BRANCH  51  54
ATOM     54  C   UNL A   1      42.360  22.332  26.820  1.00  0.00     0.039 A 
ATOM     55  C   UNL A   1      42.494  22.209  28.204  1.00  0.00     0.014 A 
ATOM     56  C   UNL A   1      42.872  23.439  26.147  1.00  0.00     0.014 A 
ATOM     57  C   UNL A   1      42.862  23.328  28.940  1.00  0.00     0.010 A 
ATOM     58  C   UNL A   1      43.111  24.584  26.882  1.00  0.00     0.010 A 
ATOM     59  C   UNL A   1      43.027  24.543  28.278  1.00  0.00    -0.014 A 
BRANCH  59  60
ATOM     60  C   UNL A   1      42.993  25.826  28.974  1.00  0.00     0.031 A 
ATOM     61  C   UNL A   1      41.779  26.659  28.910  1.00  0.00     0.074 A 
ATOM     62  C   UNL A   1      44.072  26.272  29.656  1.00  0.00     0.049 A 
ATOM     63  N   UNL A   1      41.777  27.948  28.982  1.00  0.00    -0.248 NA
ATOM     64  C   UNL A   1      40.457  26.089  28.686  1.00  0.00     0.031 C 
ATOM     65  C   UNL A   1      44.151  27.428  30.544  1.00  0.00     0.029 A 
ATOM     66  N   UNL A   1      45.393  25.885  29.496  1.00  0.00    -0.354 N 
ATOM     67  C   UNL A   1      40.468  28.346  29.116  1.00  0.00     0.074 A 
ATOM     68  C   UNL A   1      39.684  27.167  28.830  1.00  0.00     0.031 C 
ATOM     69  C   UNL A   1      45.436  27.806  30.654  1.00  0.00     0.029 A 
ATOM     70  C   UNL A   1      46.216  26.989  29.739  1.00  0.00     0.049 A 
ATOM     71  H   UNL A   1      45.701  24.982  29.252  1.00  0.00     0.167 HD
ATOM     72  C   UNL A   1      40.188  29.587  29.604  1.00  0.00     0.031 A 
ATOM     73  C   UNL A   1      47.037  27.478  28.764  1.00  0.00     0.031 A 
ATOM     74  C   UNL A   1      41.401  30.382  29.799  1.00  0.00     0.049 A 
ATOM     75  C   UNL A   1      46.678  28.882  28.319  1.00  0.00     0.074 A 
ATOM     76  C   UNL A   1      42.157  30.692  30.918  1.00  0.00     0.029 A 
ATOM     77  N   UNL A   1      42.176  30.726  28.695  1.00  0.00    -0.354 N 
ATOM     78  N   UNL A   1      45.550  29.474  28.599  1.00  0.00    -0.248 NA
ATOM     79  C   UNL A   1      47.547  29.713  27.485  1.00  0.00     0.031 C 
ATOM     80  C   UNL A   1      43.427  31.149  30.478  1.00  0.00     0.029 A 
ATOM     81  C   UNL A   1      43.431  31.147  29.095  1.00  0.00     0.049 A 
ATOM     82  H   UNL A   1      41.872  30.677  27.760  1.00  0.00     0.167 HD
ATOM     83  C   UNL A   1      45.516  30.709  28.004  1.00  0.00     0.074 A 
ATOM     84  C   UNL A   1      46.797  30.820  27.331  1.00  0.00     0.031 C 
ATOM     85  C   UNL A   1      44.430  31.530  28.105  1.00  0.00     0.031 A 
BRANCH  72  86
ATOM     86  C   UNL A   1      38.844  29.937  30.202  1.00  0.00    -0.014 A 
ATOM     87  C   UNL A   1      38.622  31.233  30.703  1.00  0.00     0.009 A 
ATOM     88  C   UNL A   1      37.788  29.026  30.374  1.00  0.00     0.009 A 
ATOM     89  C   UNL A   1      37.469  31.561  31.430  1.00  0.00     0.001 A 
ATOM     90  C   UNL A   1      36.654  29.332  31.140  1.00  0.00     0.001 A 
ATOM     91  C   UNL A   1      36.500  30.599  31.681  1.00  0.00     0.000 A 
ENDBRANCH  72  86
BRANCH  73  92
ATOM     92  C   UNL A   1      47.596  26.418  27.876  1.00  0.00    -0.014 A 
ATOM     93  C   UNL A   1      47.044  26.279  26.585  1.00  0.00     0.009 A 
ATOM     94  C   UNL A   1      48.846  25.839  28.133  1.00  0.00     0.009 A 
ATOM     95  C   UNL A   1      47.778  25.694  25.550  1.00  0.00     0.001 A 
ATOM     96  C   UNL A   1      49.570  25.238  27.095  1.00  0.00     0.001 A 
ATOM     97  C   UNL A   1      49.055  25.202  25.799  1.00  0.00     0.000 A 
ENDBRANCH  73  92
BRANCH  85  98
ATOM     98  C   UNL A   1      44.219  32.817  27.344  1.00  0.00    -0.014 A 
ATOM     99  C   UNL A   1      44.265  34.094  27.919  1.00  0.00     0.009 A 
ATOM    100  C   UNL A   1      44.091  32.761  25.937  1.00  0.00     0.009 A 
ATOM    101  C   UNL A   1      44.138  35.250  27.135  1.00  0.00     0.001 A 
ATOM    102  C   UNL A   1      44.010  33.910  25.149  1.00  0.00     0.001 A 
ATOM    103  C   UNL A   1      44.020  35.159  25.752  1.00  0.00     0.000 A 
ENDBRANCH  85  98
ENDBRANCH  59  60
ENDBRANCH  51  54
ENDBRANCH  49  50
ENDBRANCH  48  49
ENDBRANCH  47  48
ENDBRANCH   3  47
TORSDOF 19
ENDMDL
MODEL 3
REMARK VINA RESULT:     -13.2      3.536      6.116
REMARK SMILES Cc1ccc(S(=O)(=O)n2cc(C(=O)C(=O)N[C@@H](Cc3c[nH]c4ccccc34)C(=O)NCC(=O)NCCCNC(=O)c3ccc(-c4c5nc(c(-c6ccccc6)c6ccc([nH]6)c(-c6ccccc6)c6nc(c(-c7ccccc7)c7ccc4[nH]7)C=C6)C=C5)cc3)c3ccccc32)cc1
REMARK SMILES IDX 32 1 33 2 34 3 31 5 30 6 28 7 29 8 17 10 16 11 14 12 15 13
REMARK SMILES IDX 12 15 13 16 11 17 9 18 10 19 94 20 89 21 93 22 90 23 92 24
REMARK SMILES IDX 91 25 6 26 7 27 8 28 5 29 1 30 2 31 3 32 96 33 4 34 95 35
REMARK SMILES IDX 18 36 19 37 20 38 27 39 21 40 22 41 26 42 23 44 25 45 24 46
REMARK SMILES IDX 35 47 36 48 37 49 38 50 39 51 40 53 41 54 42 55 88 56 43 57
REMARK SMILES IDX 87 58 44 59 45 60 46 61 81 62 47 63 86 64 80 65 82 66 48 67
REMARK SMILES IDX 85 68 79 69 78 70 49 72 71 73 56 74 70 75 57 76 60 77 69 78
REMARK SMILES IDX 83 79 58 80 59 81 68 83 84 84 61 85 50 86 51 87 55 88 52 89
REMARK SMILES IDX 54 90 53 91 72 92 73 93 77 94 74 95 76 96 75 97 62 98 63 99
REMARK SMILES IDX 67 100 64 101 66 102 65 103
REMARK H PARENT 34 4 30 9 16 14 21 43 38 52 82 71 60 82
REMARK Flexibility Score: inf
ROOT
ATOM      1  C   UNL A   1      35.171  23.206  26.666  1.00  0.00     0.239 C 
ATOM      2  O   UNL A   1      34.480  22.717  27.560  1.00  0.00    -0.273 OA
ATOM      3  N   UNL A   1      36.520  22.965  26.648  1.00  0.00    -0.355 N 
ATOM      4  H   UNL A   1      36.872  22.346  27.327  1.00  0.00     0.163 HD
ENDROOT
BRANCH   1   5
ATOM      5  C   UNL A   1      34.565  24.050  25.539  1.00  0.00     0.216 C 
BRANCH   5   6
ATOM      6  N   UNL A   1      34.147  23.365  24.328  1.00  0.00    -0.345 N 
ATOM      7  C   UNL A   1      33.296  22.320  24.129  1.00  0.00     0.243 C 
ATOM      8  O   UNL A   1      32.871  22.196  22.972  1.00  0.00    -0.273 OA
ATOM      9  H   UNL A   1      34.552  23.721  23.504  1.00  0.00     0.164 HD
BRANCH   7  10
ATOM     10  C   UNL A   1      32.756  21.364  25.242  1.00  0.00     0.176 C 
BRANCH  10  11
ATOM     11  N   UNL A   1      31.738  21.900  26.173  1.00  0.00    -0.337 N 
ATOM     12  C   UNL A   1      30.976  23.068  26.153  1.00  0.00     0.293 C 
ATOM     13  O   UNL A   1      30.268  23.346  27.117  1.00  0.00    -0.265 OA
ATOM     14  H   UNL A   1      31.566  21.324  26.953  1.00  0.00     0.164 HD
BRANCH  12  15
ATOM     15  C   UNL A   1      30.917  23.962  24.907  1.00  0.00     0.252 C 
ATOM     16  O   UNL A   1      30.404  23.450  23.913  1.00  0.00    -0.283 OA
BRANCH  15  17
ATOM     17  C   UNL A   1      31.499  25.316  24.846  1.00  0.00     0.054 A 
ATOM     18  N   UNL A   1      32.306  27.408  25.201  1.00  0.00    -0.240 N 
ATOM     19  C   UNL A   1      31.568  26.368  25.775  1.00  0.00     0.117 A 
ATOM     20  C   UNL A   1      32.816  26.936  23.978  1.00  0.00     0.065 A 
ATOM     21  C   UNL A   1      32.029  25.845  23.630  1.00  0.00     0.012 A 
ATOM     22  C   UNL A   1      33.693  27.529  23.048  1.00  0.00     0.028 A 
ATOM     23  C   UNL A   1      31.954  25.472  22.271  1.00  0.00     0.011 A 
ATOM     24  C   UNL A   1      33.564  27.180  21.706  1.00  0.00     0.002 A 
ATOM     25  C   UNL A   1      32.668  26.196  21.313  1.00  0.00     0.001 A 
BRANCH  18  26
ATOM     26  S   UNL A   1      31.887  29.101  25.106  1.00  0.00     0.268 S 
ATOM     27  O   UNL A   1      33.114  29.712  24.623  1.00  0.00    -0.201 OA
ATOM     28  O   UNL A   1      31.403  29.361  26.458  1.00  0.00    -0.201 OA
BRANCH  26  29
ATOM     29  C   UNL A   1      30.605  29.845  24.163  1.00  0.00     0.088 A 
ATOM     30  C   UNL A   1      28.038  31.278  20.989  1.00  0.00     0.044 C 
ATOM     31  C   UNL A   1      28.875  30.774  22.130  1.00  0.00    -0.051 A 
ATOM     32  C   UNL A   1      29.677  29.668  21.891  1.00  0.00     0.005 A 
ATOM     33  C   UNL A   1      28.931  31.394  23.399  1.00  0.00     0.005 A 
ATOM     34  C   UNL A   1      30.511  29.211  22.896  1.00  0.00     0.022 A 
ATOM     35  C   UNL A   1      29.800  30.939  24.428  1.00  0.00     0.022 A 
ENDBRANCH  26  29
ENDBRANCH  18  26
ENDBRANCH  15  17
ENDBRANCH  12  15
ENDBRANCH  10  11
BRANCH  10  36
ATOM     36  C   UNL A   1      32.393  19.944  24.696  1.00  0.00     0.072 C 
BRANCH  36  37
ATOM     37  C   UNL A   1      33.402  18.832  24.873  1.00  0.00    -0.020 A 
ATOM     38  C   UNL A   1      34.753  18.921  24.574  1.00  0.00     0.087 A 
ATOM     39  C   UNL A   1      33.183  17.478  25.316  1.00  0.00     0.003 A 
ATOM     40  N   UNL A   1      35.311  17.674  24.685  1.00  0.00    -0.361 N 
ATOM     41  C   UNL A   1      34.341  16.757  25.013  1.00  0.00     0.046 A 
ATOM     42  C   UNL A   1      32.072  16.763  25.809  1.00  0.00     0.010 A 
ATOM     43  H   UNL A   1      36.264  17.466  24.549  1.00  0.00     0.166 HD
ATOM     44  C   UNL A   1      34.394  15.358  25.035  1.00  0.00     0.026 A 
ATOM     45  C   UNL A   1      32.096  15.363  25.812  1.00  0.00     0.001 A 
ATOM     46  C   UNL A   1      33.233  14.673  25.400  1.00  0.00     0.002 A 
ENDBRANCH  36  37
ENDBRANCH  10  36
ENDBRANCH   7  10
ENDBRANCH   5   6
ENDBRANCH   1   5
BRANCH   3  47
ATOM     47  C   UNL A   1      37.474  23.539  25.721  1.00  0.00     0.117 C 
BRANCH  47  48
ATOM     48  C   UNL A   1      38.676  24.111  26.466  1.00  0.00     0.042 C 
BRANCH  48  49
ATOM     49  C   UNL A   1      39.566  23.035  27.036  1.00  0.00     0.118 C 
BRANCH  49  50
ATOM     50  N   UNL A   1      40.613  22.561  26.141  1.00  0.00    -0.352 N 
ATOM     51  C   UNL A   1      41.972  22.854  26.183  1.00  0.00     0.251 C 
ATOM     52  H   UNL A   1      40.323  21.960  25.416  1.00  0.00     0.163 HD
ATOM     53  O   UNL A   1      42.740  22.407  25.363  1.00  0.00    -0.269 OA
BRANCH  51  54
ATOM     54  C   UNL A   1      42.470  23.616  27.361  1.00  0.00     0.039 A 
ATOM     55  C   UNL A   1      42.489  25.007  27.242  1.00  0.00     0.014 A 
ATOM     56  C   UNL A   1      43.227  22.972  28.337  1.00  0.00     0.014 A 
ATOM     57  C   UNL A   1      43.493  25.718  27.887  1.00  0.00     0.010 A 
ATOM     58  C   UNL A   1      44.299  23.656  28.874  1.00  0.00     0.010 A 
ATOM     59  C   UNL A   1      44.474  25.013  28.583  1.00  0.00    -0.014 A 
BRANCH  59  60
ATOM     60  C   UNL A   1      45.765  25.601  28.926  1.00  0.00     0.031 A 
ATOM     61  C   UNL A   1      46.947  25.300  28.099  1.00  0.00     0.074 A 
ATOM     62  C   UNL A   1      45.896  26.398  30.010  1.00  0.00     0.049 A 
ATOM     63  N   UNL A   1      48.159  25.276  28.543  1.00  0.00    -0.248 NA
ATOM     64  C   UNL A   1      46.837  24.928  26.694  1.00  0.00     0.031 C 
ATOM     65  C   UNL A   1      47.055  27.201  30.393  1.00  0.00     0.029 A 
ATOM     66  N   UNL A   1      45.067  26.460  31.120  1.00  0.00    -0.354 N 
ATOM     67  C   UNL A   1      48.991  25.189  27.453  1.00  0.00     0.074 A 
ATOM     68  C   UNL A   1      48.123  24.879  26.340  1.00  0.00     0.031 C 
ATOM     69  C   UNL A   1      46.983  27.468  31.708  1.00  0.00     0.029 A 
ATOM     70  C   UNL A   1      45.848  26.738  32.247  1.00  0.00     0.049 A 
ATOM     71  H   UNL A   1      44.092  26.331  31.115  1.00  0.00     0.167 HD
ATOM     72  C   UNL A   1      50.302  25.539  27.576  1.00  0.00     0.031 A 
ATOM     73  C   UNL A   1      45.908  25.860  33.290  1.00  0.00     0.031 A 
ATOM     74  C   UNL A   1      50.654  25.849  28.961  1.00  0.00     0.049 A 
ATOM     75  C   UNL A   1      47.287  25.265  33.501  1.00  0.00     0.074 A 
ATOM     76  C   UNL A   1      50.821  27.040  29.649  1.00  0.00     0.029 A 
ATOM     77  N   UNL A   1      50.581  24.847  29.925  1.00  0.00    -0.354 N 
ATOM     78  N   UNL A   1      48.256  25.334  32.630  1.00  0.00    -0.248 NA
ATOM     79  C   UNL A   1      47.668  24.508  34.693  1.00  0.00     0.031 C 
ATOM     80  C   UNL A   1      50.764  26.756  31.039  1.00  0.00     0.029 A 
ATOM     81  C   UNL A   1      50.595  25.392  31.195  1.00  0.00     0.049 A 
ATOM     82  H   UNL A   1      50.527  23.884  29.729  1.00  0.00     0.167 HD
ATOM     83  C   UNL A   1      49.348  24.652  33.098  1.00  0.00     0.074 A 
ATOM     84  C   UNL A   1      48.936  24.166  34.403  1.00  0.00     0.031 C 
ATOM     85  C   UNL A   1      50.495  24.533  32.368  1.00  0.00     0.031 A 
BRANCH  72  86
ATOM     86  C   UNL A   1      51.157  25.907  26.384  1.00  0.00    -0.014 A 
ATOM     87  C   UNL A   1      50.864  27.071  25.651  1.00  0.00     0.009 A 
ATOM     88  C   UNL A   1      52.207  25.118  25.884  1.00  0.00     0.009 A 
ATOM     89  C   UNL A   1      51.500  27.365  24.436  1.00  0.00     0.001 A 
ATOM     90  C   UNL A   1      52.815  25.378  24.648  1.00  0.00     0.001 A 
ATOM     91  C   UNL A   1      52.451  26.497  23.915  1.00  0.00     0.000 A 
ENDBRANCH  72  86
BRANCH  73  92
ATOM     92  C   UNL A   1      44.623  25.143  33.534  1.00  0.00    -0.014 A 
ATOM     93  C   UNL A   1      44.533  23.794  33.132  1.00  0.00     0.009 A 
ATOM     94  C   UNL A   1      43.682  25.631  34.450  1.00  0.00     0.009 A 
ATOM     95  C   UNL A   1      43.612  22.927  33.727  1.00  0.00     0.001 A 
ATOM     96  C   UNL A   1      42.748  24.761  35.030  1.00  0.00     0.001 A 
ATOM     97  C   UNL A   1      42.741  23.406  34.700  1.00  0.00     0.000 A 
ENDBRANCH  73  92
BRANCH  85  98
ATOM     98  C   UNL A   1      51.676  23.656  32.710  1.00  0.00    -0.014 A 
ATOM     99  C   UNL A   1      53.010  24.086  32.702  1.00  0.00     0.009 A 
ATOM    100  C   UNL A   1      51.435  22.350  33.193  1.00  0.00     0.009 A 
ATOM    101  C   UNL A   1      54.050  23.238  33.107  1.00  0.00     0.001 A 
ATOM    102  C   UNL A   1      52.464  21.518  33.640  1.00  0.00     0.001 A 
ATOM    103  C   UNL A   1      53.777  21.959  33.584  1.00  0.00     0.000 A 
ENDBRANCH  85  98
ENDBRANCH  59  60
ENDBRANCH  51  54
ENDBRANCH  49  50
ENDBRANCH  48  49
ENDBRANCH  47  48
ENDBRANCH   3  47
TORSDOF 19
ENDMDL
