MODEL 1
REMARK VINA RESULT:     -11.2      0.000      0.000
REMARK SMILES O=C(NCCCNC(=O)c1ccc(N2CC3(CC3)C2)cc1)c1ccc(-c2c3nc(c(-c4ccccc4)c4ccc([nH]4)c(-c4ccccc4)c4nc(c(-c5ccccc5)c5ccc2[nH]5)C=C4)C=C3)cc1
REMARK SMILES IDX 4 1 3 2 1 3 2 4 22 6 23 7 69 8 24 9 68 10 25 11 26 12 27 13
REMARK SMILES IDX 62 14 28 15 67 16 61 17 63 18 29 19 66 20 60 21 59 22 30 24
REMARK SMILES IDX 52 25 37 26 51 27 38 28 41 29 50 30 64 31 39 32 40 33 49 35
REMARK SMILES IDX 65 36 42 37 31 38 32 39 36 40 33 41 35 42 34 43 53 44 54 45
REMARK SMILES IDX 58 46 55 47 57 48 56 49 43 50 44 51 48 52 45 53 47 54 46 55
REMARK SMILES IDX 5 56 6 57 7 58 8 59 9 61 10 62 11 63 21 64 12 65 20 66 13 67
REMARK SMILES IDX 14 68 15 69 19 70 16 71 17 72 18 73
REMARK H PARENT 3 5 63 23 41 34 7 60
REMARK Flexibility Score: inf
ROOT
ATOM      1  C   UNL A   1      33.747  28.326  26.954  1.00  0.00     0.118 C 
ENDROOT
BRANCH   1   2
ATOM      2  N   UNL A   1      33.575  29.713  27.366  1.00  0.00    -0.352 N 
ATOM      3  O   UNL A   1      34.008  31.642  28.444  1.00  0.00    -0.269 OA
ATOM      4  C   UNL A   1      34.420  30.554  28.048  1.00  0.00     0.251 C 
ATOM      5  H   UNL A   1      32.712  30.115  27.114  1.00  0.00     0.163 HD
BRANCH   4   6
ATOM      6  C   UNL A   1      35.816  30.152  28.331  1.00  0.00     0.039 A 
ATOM      7  C   UNL A   1      36.807  30.273  27.359  1.00  0.00     0.014 A 
ATOM      8  C   UNL A   1      36.143  29.675  29.605  1.00  0.00     0.014 A 
ATOM      9  C   UNL A   1      38.077  29.762  27.596  1.00  0.00     0.010 A 
ATOM     10  C   UNL A   1      37.451  29.260  29.878  1.00  0.00     0.010 A 
ATOM     11  C   UNL A   1      38.422  29.270  28.866  1.00  0.00    -0.014 A 
BRANCH  11  12
ATOM     12  C   UNL A   1      39.822  28.847  29.121  1.00  0.00     0.031 A 
ATOM     13  C   UNL A   1      40.797  29.746  29.830  1.00  0.00     0.074 A 
ATOM     14  C   UNL A   1      40.204  27.616  28.726  1.00  0.00     0.049 A 
ATOM     15  N   UNL A   1      42.045  29.511  30.153  1.00  0.00    -0.248 NA
ATOM     16  C   UNL A   1      40.318  31.081  30.221  1.00  0.00     0.031 C 
ATOM     17  C   UNL A   1      39.351  26.654  28.022  1.00  0.00     0.029 A 
ATOM     18  N   UNL A   1      41.396  26.954  28.875  1.00  0.00    -0.354 N 
ATOM     19  C   UNL A   1      42.506  30.669  30.765  1.00  0.00     0.074 A 
ATOM     20  C   UNL A   1      41.412  31.617  30.747  1.00  0.00     0.031 C 
ATOM     21  C   UNL A   1      40.027  25.511  27.848  1.00  0.00     0.029 A 
ATOM     22  C   UNL A   1      41.382  25.682  28.359  1.00  0.00     0.049 A 
ATOM     23  H   UNL A   1      42.184  27.352  29.310  1.00  0.00     0.167 HD
ATOM     24  C   UNL A   1      43.728  30.918  31.296  1.00  0.00     0.031 A 
ATOM     25  C   UNL A   1      42.354  24.756  28.282  1.00  0.00     0.031 A 
ATOM     26  C   UNL A   1      44.815  29.972  31.308  1.00  0.00     0.049 A 
ATOM     27  C   UNL A   1      43.708  25.074  28.842  1.00  0.00     0.074 A 
ATOM     28  C   UNL A   1      46.079  30.120  31.856  1.00  0.00     0.029 A 
ATOM     29  N   UNL A   1      44.773  28.709  30.738  1.00  0.00    -0.354 N 
ATOM     30  N   UNL A   1      44.113  26.159  29.456  1.00  0.00    -0.248 NA
ATOM     31  C   UNL A   1      44.739  24.039  28.701  1.00  0.00     0.031 C 
ATOM     32  C   UNL A   1      46.821  28.972  31.561  1.00  0.00     0.029 A 
ATOM     33  C   UNL A   1      45.999  28.080  30.891  1.00  0.00     0.049 A 
ATOM     34  H   UNL A   1      43.989  28.316  30.290  1.00  0.00     0.167 HD
ATOM     35  C   UNL A   1      45.440  25.930  29.791  1.00  0.00     0.074 A 
ATOM     36  C   UNL A   1      45.763  24.593  29.334  1.00  0.00     0.031 C 
ATOM     37  C   UNL A   1      46.311  26.755  30.423  1.00  0.00     0.031 A 
BRANCH  24  38
ATOM     38  C   UNL A   1      43.972  32.283  31.881  1.00  0.00    -0.014 A 
ATOM     39  C   UNL A   1      43.738  32.553  33.238  1.00  0.00     0.009 A 
ATOM     40  C   UNL A   1      44.499  33.301  31.070  1.00  0.00     0.009 A 
ATOM     41  C   UNL A   1      43.999  33.822  33.763  1.00  0.00     0.001 A 
ATOM     42  C   UNL A   1      44.786  34.560  31.603  1.00  0.00     0.001 A 
ATOM     43  C   UNL A   1      44.526  34.822  32.947  1.00  0.00     0.000 A 
ENDBRANCH  24  38
BRANCH  25  44
ATOM     44  C   UNL A   1      42.080  23.452  27.625  1.00  0.00    -0.014 A 
ATOM     45  C   UNL A   1      42.417  23.240  26.280  1.00  0.00     0.009 A 
ATOM     46  C   UNL A   1      41.491  22.403  28.350  1.00  0.00     0.009 A 
ATOM     47  C   UNL A   1      42.147  22.012  25.669  1.00  0.00     0.001 A 
ATOM     48  C   UNL A   1      41.255  21.167  27.748  1.00  0.00     0.001 A 
ATOM     49  C   UNL A   1      41.575  20.976  26.405  1.00  0.00     0.000 A 
ENDBRANCH  25  44
BRANCH  37  50
ATOM     50  C   UNL A   1      47.691  26.219  30.681  1.00  0.00    -0.014 A 
ATOM     51  C   UNL A   1      48.681  26.234  29.685  1.00  0.00     0.009 A 
ATOM     52  C   UNL A   1      48.013  25.714  31.951  1.00  0.00     0.009 A 
ATOM     53  C   UNL A   1      49.953  25.721  29.946  1.00  0.00     0.001 A 
ATOM     54  C   UNL A   1      49.295  25.231  32.219  1.00  0.00     0.001 A 
ATOM     55  C   UNL A   1      50.260  25.225  31.213  1.00  0.00     0.000 A 
ENDBRANCH  37  50
ENDBRANCH  11  12
ENDBRANCH   4   6
ENDBRANCH   1   2
BRANCH   1  56
ATOM     56  C   UNL A   1      33.942  28.169  25.452  1.00  0.00     0.042 C 
BRANCH  56  57
ATOM     57  C   UNL A   1      33.643  26.770  24.929  1.00  0.00     0.118 C 
BRANCH  57  58
ATOM     58  N   UNL A   1      33.489  26.747  23.482  1.00  0.00    -0.352 N 
ATOM     59  C   UNL A   1      33.543  25.692  22.606  1.00  0.00     0.251 C 
ATOM     60  H   UNL A   1      33.323  27.624  23.068  1.00  0.00     0.163 HD
ATOM     61  O   UNL A   1      33.619  25.906  21.400  1.00  0.00    -0.269 OA
BRANCH  59  62
ATOM     62  C   UNL A   1      33.523  24.304  23.107  1.00  0.00     0.039 A 
ATOM     63  C   UNL A   1      34.717  23.727  23.541  1.00  0.00     0.016 A 
ATOM     64  C   UNL A   1      32.347  23.549  23.091  1.00  0.00     0.016 A 
ATOM     65  C   UNL A   1      34.712  22.421  24.036  1.00  0.00     0.027 A 
ATOM     66  C   UNL A   1      32.355  22.239  23.575  1.00  0.00     0.027 A 
ATOM     67  C   UNL A   1      33.531  21.667  24.073  1.00  0.00     0.037 A 
BRANCH  67  68
ATOM     68  N   UNL A   1      33.555  20.372  24.613  1.00  0.00    -0.370 N 
ATOM     69  C   UNL A   1      32.526  19.383  24.461  1.00  0.00     0.125 C 
ATOM     70  C   UNL A   1      34.607  19.409  24.702  1.00  0.00     0.125 C 
ATOM     71  C   UNL A   1      33.601  18.377  24.402  1.00  0.00     0.005 C 
ATOM     72  C   UNL A   1      33.765  17.281  23.393  1.00  0.00     0.011 C 
ATOM     73  C   UNL A   1      33.547  16.955  24.849  1.00  0.00     0.011 C 
ENDBRANCH  67  68
ENDBRANCH  59  62
ENDBRANCH  57  58
ENDBRANCH  56  57
ENDBRANCH   1  56
TORSDOF 11
ENDMDL
MODEL 2
REMARK VINA RESULT:     -11.1      0.472      6.195
REMARK SMILES O=C(NCCCNC(=O)c1ccc(N2CC3(CC3)C2)cc1)c1ccc(-c2c3nc(c(-c4ccccc4)c4ccc([nH]4)c(-c4ccccc4)c4nc(c(-c5ccccc5)c5ccc2[nH]5)C=C4)C=C3)cc1
REMARK SMILES IDX 4 1 3 2 1 3 2 4 22 6 23 7 69 8 24 9 68 10 25 11 26 12 27 13
REMARK SMILES IDX 62 14 28 15 67 16 61 17 63 18 29 19 66 20 60 21 59 22 30 24
REMARK SMILES IDX 52 25 37 26 51 27 38 28 41 29 50 30 64 31 39 32 40 33 49 35
REMARK SMILES IDX 65 36 42 37 31 38 32 39 36 40 33 41 35 42 34 43 53 44 54 45
REMARK SMILES IDX 58 46 55 47 57 48 56 49 43 50 44 51 48 52 45 53 47 54 46 55
REMARK SMILES IDX 5 56 6 57 7 58 8 59 9 61 10 62 11 63 21 64 12 65 20 66 13 67
REMARK SMILES IDX 14 68 15 69 19 70 16 71 17 72 18 73
REMARK H PARENT 3 5 63 23 41 34 7 60
REMARK Flexibility Score: inf
ROOT
ATOM      1  C   UNL A   1      33.926  28.435  26.980  1.00  0.00     0.118 C 
ENDROOT
BRANCH   1   2
ATOM      2  N   UNL A   1      33.776  29.791  27.494  1.00  0.00    -0.352 N 
ATOM      3  O   UNL A   1      34.248  31.632  28.702  1.00  0.00    -0.269 OA
ATOM      4  C   UNL A   1      34.641  30.572  28.220  1.00  0.00     0.251 C 
ATOM      5  H   UNL A   1      32.912  30.217  27.288  1.00  0.00     0.163 HD
BRANCH   4   6
ATOM      6  C   UNL A   1      36.037  30.137  28.449  1.00  0.00     0.039 A 
ATOM      7  C   UNL A   1      37.010  30.306  27.464  1.00  0.00     0.014 A 
ATOM      8  C   UNL A   1      36.385  29.578  29.683  1.00  0.00     0.014 A 
ATOM      9  C   UNL A   1      38.278  29.768  27.643  1.00  0.00     0.010 A 
ATOM     10  C   UNL A   1      37.693  29.133  29.903  1.00  0.00     0.010 A 
ATOM     11  C   UNL A   1      38.643  29.194  28.872  1.00  0.00    -0.014 A 
BRANCH  11  12
ATOM     12  C   UNL A   1      40.043  28.740  29.071  1.00  0.00     0.031 A 
ATOM     13  C   UNL A   1      40.489  27.366  28.655  1.00  0.00     0.074 A 
ATOM     14  C   UNL A   1      40.926  29.601  29.613  1.00  0.00     0.049 A 
ATOM     15  N   UNL A   1      41.682  26.831  28.735  1.00  0.00    -0.248 NA
ATOM     16  C   UNL A   1      39.469  26.473  28.082  1.00  0.00     0.031 C 
ATOM     17  C   UNL A   1      40.612  30.960  30.065  1.00  0.00     0.029 A 
ATOM     18  N   UNL A   1      42.269  29.473  29.860  1.00  0.00    -0.354 N 
ATOM     19  C   UNL A   1      41.555  25.537  28.245  1.00  0.00     0.074 A 
ATOM     20  C   UNL A   1      40.163  25.357  27.891  1.00  0.00     0.031 C 
ATOM     21  C   UNL A   1      41.736  31.556  30.482  1.00  0.00     0.029 A 
ATOM     22  C   UNL A   1      42.835  30.602  30.399  1.00  0.00     0.049 A 
ATOM     23  H   UNL A   1      42.778  28.653  29.668  1.00  0.00     0.167 HD
ATOM     24  C   UNL A   1      42.512  24.589  28.100  1.00  0.00     0.031 A 
ATOM     25  C   UNL A   1      44.094  30.844  30.806  1.00  0.00     0.031 A 
ATOM     26  C   UNL A   1      43.897  24.772  28.457  1.00  0.00     0.049 A 
ATOM     27  C   UNL A   1      45.123  29.761  30.670  1.00  0.00     0.074 A 
ATOM     28  C   UNL A   1      44.948  23.881  28.312  1.00  0.00     0.029 A 
ATOM     29  N   UNL A   1      44.421  25.916  29.039  1.00  0.00    -0.354 N 
ATOM     30  N   UNL A   1      44.994  28.559  30.164  1.00  0.00    -0.248 NA
ATOM     31  C   UNL A   1      46.472  30.070  31.160  1.00  0.00     0.031 C 
ATOM     32  C   UNL A   1      46.093  24.463  28.866  1.00  0.00     0.029 A 
ATOM     33  C   UNL A   1      45.772  25.742  29.291  1.00  0.00     0.049 A 
ATOM     34  H   UNL A   1      43.909  26.732  29.243  1.00  0.00     0.167 HD
ATOM     35  C   UNL A   1      46.249  27.974  30.256  1.00  0.00     0.074 A 
ATOM     36  C   UNL A   1      47.130  28.963  30.845  1.00  0.00     0.031 C 
ATOM     37  C   UNL A   1      46.636  26.729  29.886  1.00  0.00     0.031 A 
BRANCH  24  38
ATOM     38  C   UNL A   1      42.093  23.248  27.561  1.00  0.00    -0.014 A 
ATOM     39  C   UNL A   1      41.590  22.243  28.401  1.00  0.00     0.009 A 
ATOM     40  C   UNL A   1      42.153  23.007  26.179  1.00  0.00     0.009 A 
ATOM     41  C   UNL A   1      41.183  21.015  27.872  1.00  0.00     0.001 A 
ATOM     42  C   UNL A   1      41.719  21.790  25.648  1.00  0.00     0.001 A 
ATOM     43  C   UNL A   1      41.243  20.791  26.497  1.00  0.00     0.000 A 
ENDBRANCH  24  38
BRANCH  25  44
ATOM     44  C   UNL A   1      44.437  32.161  31.402  1.00  0.00    -0.014 A 
ATOM     45  C   UNL A   1      44.320  32.377  32.783  1.00  0.00     0.009 A 
ATOM     46  C   UNL A   1      44.898  33.208  30.588  1.00  0.00     0.009 A 
ATOM     47  C   UNL A   1      44.638  33.622  33.332  1.00  0.00     0.001 A 
ATOM     48  C   UNL A   1      45.247  34.439  31.143  1.00  0.00     0.001 A 
ATOM     49  C   UNL A   1      45.107  34.648  32.514  1.00  0.00     0.000 A 
ENDBRANCH  25  44
BRANCH  37  50
ATOM     50  C   UNL A   1      48.084  26.379  30.081  1.00  0.00    -0.014 A 
ATOM     51  C   UNL A   1      48.547  25.819  31.282  1.00  0.00     0.009 A 
ATOM     52  C   UNL A   1      48.995  26.590  29.033  1.00  0.00     0.009 A 
ATOM     53  C   UNL A   1      49.900  25.511  31.443  1.00  0.00     0.001 A 
ATOM     54  C   UNL A   1      50.341  26.251  29.186  1.00  0.00     0.001 A 
ATOM     55  C   UNL A   1      50.794  25.723  30.393  1.00  0.00     0.000 A 
ENDBRANCH  37  50
ENDBRANCH  11  12
ENDBRANCH   4   6
ENDBRANCH   1   2
BRANCH   1  56
ATOM     56  C   UNL A   1      33.758  28.349  25.469  1.00  0.00     0.042 C 
BRANCH  56  57
ATOM     57  C   UNL A   1      33.624  26.927  24.939  1.00  0.00     0.118 C 
BRANCH  57  58
ATOM     58  N   UNL A   1      33.466  26.895  23.492  1.00  0.00    -0.352 N 
ATOM     59  C   UNL A   1      33.527  25.836  22.622  1.00  0.00     0.251 C 
ATOM     60  H   UNL A   1      33.292  27.768  23.073  1.00  0.00     0.163 HD
ATOM     61  O   UNL A   1      33.597  26.042  21.415  1.00  0.00    -0.269 OA
BRANCH  59  62
ATOM     62  C   UNL A   1      33.518  24.450  23.131  1.00  0.00     0.039 A 
ATOM     63  C   UNL A   1      34.728  23.861  23.500  1.00  0.00     0.016 A 
ATOM     64  C   UNL A   1      32.335  23.709  23.186  1.00  0.00     0.016 A 
ATOM     65  C   UNL A   1      34.736  22.558  24.003  1.00  0.00     0.027 A 
ATOM     66  C   UNL A   1      32.355  22.401  23.676  1.00  0.00     0.027 A 
ATOM     67  C   UNL A   1      33.551  21.818  24.110  1.00  0.00     0.037 A 
BRANCH  67  68
ATOM     68  N   UNL A   1      33.590  20.525  24.655  1.00  0.00    -0.370 N 
ATOM     69  C   UNL A   1      32.571  19.526  24.512  1.00  0.00     0.125 C 
ATOM     70  C   UNL A   1      34.653  19.574  24.742  1.00  0.00     0.125 C 
ATOM     71  C   UNL A   1      33.656  18.530  24.452  1.00  0.00     0.005 C 
ATOM     72  C   UNL A   1      33.825  17.432  23.447  1.00  0.00     0.011 C 
ATOM     73  C   UNL A   1      33.618  17.109  24.904  1.00  0.00     0.011 C 
ENDBRANCH  67  68
ENDBRANCH  59  62
ENDBRANCH  57  58
ENDBRANCH  56  57
ENDBRANCH   1  56
TORSDOF 11
ENDMDL
MODEL 3
REMARK VINA RESULT:     -11.0      2.195      7.794
REMARK SMILES O=C(NCCCNC(=O)c1ccc(N2CC3(CC3)C2)cc1)c1ccc(-c2c3nc(c(-c4ccccc4)c4ccc([nH]4)c(-c4ccccc4)c4nc(c(-c5ccccc5)c5ccc2[nH]5)C=C4)C=C3)cc1
REMARK SMILES IDX 4 1 3 2 1 3 2 4 22 6 23 7 69 8 24 9 68 10 25 11 26 12 27 13
REMARK SMILES IDX 62 14 28 15 67 16 61 17 63 18 29 19 66 20 60 21 59 22 30 24
REMARK SMILES IDX 52 25 37 26 51 27 38 28 41 29 50 30 64 31 39 32 40 33 49 35
REMARK SMILES IDX 65 36 42 37 31 38 32 39 36 40 33 41 35 42 34 43 53 44 54 45
REMARK SMILES IDX 58 46 55 47 57 48 56 49 43 50 44 51 48 52 45 53 47 54 46 55
REMARK SMILES IDX 5 56 6 57 7 58 8 59 9 61 10 62 11 63 21 64 12 65 20 66 13 67
REMARK SMILES IDX 14 68 15 69 19 70 16 71 17 72 18 73
REMARK H PARENT 3 5 63 23 41 34 7 60
REMARK Flexibility Score: inf
ROOT
ATOM      1  C   UNL A   1      38.539  20.282  25.528  1.00  0.00     0.118 C 
ENDROOT
BRANCH   1   2
ATOM      2  N   UNL A   1      39.676  19.376  25.634  1.00  0.00    -0.352 N 
ATOM      3  O   UNL A   1      41.821  18.734  25.873  1.00  0.00    -0.269 OA
ATOM      4  C   UNL A   1      40.973  19.612  26.018  1.00  0.00     0.251 C 
ATOM      5  H   UNL A   1      39.483  18.441  25.392  1.00  0.00     0.163 HD
BRANCH   4   6
ATOM      6  C   UNL A   1      41.366  20.922  26.582  1.00  0.00     0.039 A 
ATOM      7  C   UNL A   1      41.236  21.183  27.945  1.00  0.00     0.014 A 
ATOM      8  C   UNL A   1      41.903  21.897  25.735  1.00  0.00     0.014 A 
ATOM      9  C   UNL A   1      41.478  22.461  28.433  1.00  0.00     0.010 A 
ATOM     10  C   UNL A   1      42.248  23.152  26.247  1.00  0.00     0.010 A 
ATOM     11  C   UNL A   1      42.008  23.456  27.595  1.00  0.00    -0.014 A 
BRANCH  11  12
ATOM     12  C   UNL A   1      42.370  24.773  28.177  1.00  0.00     0.031 A 
ATOM     13  C   UNL A   1      43.784  25.093  28.575  1.00  0.00     0.074 A 
ATOM     14  C   UNL A   1      41.403  25.701  28.318  1.00  0.00     0.049 A 
ATOM     15  N   UNL A   1      44.266  26.207  29.069  1.00  0.00    -0.248 NA
ATOM     16  C   UNL A   1      44.787  24.030  28.406  1.00  0.00     0.031 C 
ATOM     17  C   UNL A   1      39.991  25.507  27.975  1.00  0.00     0.029 A 
ATOM     18  N   UNL A   1      41.459  26.995  28.768  1.00  0.00    -0.354 N 
ATOM     19  C   UNL A   1      45.617  25.974  29.290  1.00  0.00     0.074 A 
ATOM     20  C   UNL A   1      45.877  24.605  28.898  1.00  0.00     0.031 C 
ATOM     21  C   UNL A   1      39.328  26.653  28.175  1.00  0.00     0.029 A 
ATOM     22  C   UNL A   1      40.247  27.639  28.730  1.00  0.00     0.049 A 
ATOM     23  H   UNL A   1      42.287  27.421  29.086  1.00  0.00     0.167 HD
ATOM     24  C   UNL A   1      46.555  26.826  29.770  1.00  0.00     0.031 A 
ATOM     25  C   UNL A   1      39.899  28.879  29.119  1.00  0.00     0.031 A 
ATOM     26  C   UNL A   1      46.291  28.188  30.163  1.00  0.00     0.049 A 
ATOM     27  C   UNL A   1      40.951  29.786  29.685  1.00  0.00     0.074 A 
ATOM     28  C   UNL A   1      47.185  29.139  30.626  1.00  0.00     0.029 A 
ATOM     29  N   UNL A   1      45.041  28.788  30.148  1.00  0.00    -0.354 N 
ATOM     30  N   UNL A   1      42.233  29.563  29.845  1.00  0.00    -0.248 NA
ATOM     31  C   UNL A   1      40.509  31.116  30.121  1.00  0.00     0.031 C 
ATOM     32  C   UNL A   1      46.465  30.293  30.953  1.00  0.00     0.029 A 
ATOM     33  C   UNL A   1      45.135  30.085  30.627  1.00  0.00     0.049 A 
ATOM     34  H   UNL A   1      44.211  28.357  29.843  1.00  0.00     0.167 HD
ATOM     35  C   UNL A   1      42.755  30.731  30.383  1.00  0.00     0.074 A 
ATOM     36  C   UNL A   1      41.654  31.667  30.498  1.00  0.00     0.031 C 
ATOM     37  C   UNL A   1      44.032  31.003  30.747  1.00  0.00     0.031 A 
BRANCH  24  38
ATOM     38  C   UNL A   1      47.958  26.303  29.935  1.00  0.00    -0.014 A 
ATOM     39  C   UNL A   1      48.398  25.751  31.147  1.00  0.00     0.009 A 
ATOM     40  C   UNL A   1      48.835  26.315  28.839  1.00  0.00     0.009 A 
ATOM     41  C   UNL A   1      49.696  25.248  31.267  1.00  0.00     0.001 A 
ATOM     42  C   UNL A   1      50.123  25.786  28.951  1.00  0.00     0.001 A 
ATOM     43  C   UNL A   1      50.555  25.261  30.168  1.00  0.00     0.000 A 
ENDBRANCH  24  38
BRANCH  25  44
ATOM     44  C   UNL A   1      38.485  29.319  29.005  1.00  0.00    -0.014 A 
ATOM     45  C   UNL A   1      37.618  29.241  30.105  1.00  0.00     0.009 A 
ATOM     46  C   UNL A   1      37.999  29.834  27.793  1.00  0.00     0.009 A 
ATOM     47  C   UNL A   1      36.287  29.650  29.985  1.00  0.00     0.001 A 
ATOM     48  C   UNL A   1      36.679  30.274  27.685  1.00  0.00     0.001 A 
ATOM     49  C   UNL A   1      35.822  30.172  28.779  1.00  0.00     0.000 A 
ENDBRANCH  25  44
BRANCH  37  50
ATOM     50  C   UNL A   1      44.310  32.381  31.279  1.00  0.00    -0.014 A 
ATOM     51  C   UNL A   1      44.251  32.661  32.653  1.00  0.00     0.009 A 
ATOM     52  C   UNL A   1      44.663  33.409  30.390  1.00  0.00     0.009 A 
ATOM     53  C   UNL A   1      44.504  33.952  33.122  1.00  0.00     0.001 A 
ATOM     54  C   UNL A   1      44.947  34.690  30.865  1.00  0.00     0.001 A 
ATOM     55  C   UNL A   1      44.856  34.963  32.229  1.00  0.00     0.000 A 
ENDBRANCH  37  50
ENDBRANCH  11  12
ENDBRANCH   4   6
ENDBRANCH   1   2
BRANCH   1  56
ATOM     56  C   UNL A   1      37.294  19.612  24.962  1.00  0.00     0.042 C 
BRANCH  56  57
ATOM     57  C   UNL A   1      36.045  20.483  25.009  1.00  0.00     0.118 C 
BRANCH  57  58
ATOM     58  N   UNL A   1      34.826  19.689  25.056  1.00  0.00    -0.352 N 
ATOM     59  C   UNL A   1      33.526  20.080  25.258  1.00  0.00     0.251 C 
ATOM     60  H   UNL A   1      34.954  18.722  24.924  1.00  0.00     0.163 HD
ATOM     61  O   UNL A   1      32.666  19.238  25.493  1.00  0.00    -0.269 OA
BRANCH  59  62
ATOM     62  C   UNL A   1      33.159  21.509  25.206  1.00  0.00     0.039 A 
ATOM     63  C   UNL A   1      33.165  22.249  26.390  1.00  0.00     0.016 A 
ATOM     64  C   UNL A   1      32.751  22.106  24.011  1.00  0.00     0.016 A 
ATOM     65  C   UNL A   1      32.841  23.608  26.355  1.00  0.00     0.027 A 
ATOM     66  C   UNL A   1      32.414  23.461  23.989  1.00  0.00     0.027 A 
ATOM     67  C   UNL A   1      32.475  24.232  25.155  1.00  0.00     0.037 A 
BRANCH  67  68
ATOM     68  N   UNL A   1      32.193  25.607  25.150  1.00  0.00    -0.370 N 
ATOM     69  C   UNL A   1      31.116  26.242  25.854  1.00  0.00     0.125 C 
ATOM     70  C   UNL A   1      33.054  26.744  25.236  1.00  0.00     0.125 C 
ATOM     71  C   UNL A   1      32.030  27.375  26.086  1.00  0.00     0.005 C 
ATOM     72  C   UNL A   1      32.298  28.073  27.385  1.00  0.00     0.011 C 
ATOM     73  C   UNL A   1      31.680  28.817  26.229  1.00  0.00     0.011 C 
ENDBRANCH  67  68
ENDBRANCH  59  62
ENDBRANCH  57  58
ENDBRANCH  56  57
ENDBRANCH   1  56
TORSDOF 11
ENDMDL
