MODEL 1
REMARK VINA RESULT:     -10.6      0.000      0.000
REMARK SMILES C[C@H](NC(=O)N[C@](C)(C(=O)NCCCNC(=O)c1ccc(-c2c3nc(c(-c4ccccc4)c4ccc([nH]4)c(-c4ccccc4)c4nc(c(-c5ccccc5)c5ccc2[nH]5)C=C4)C=C3)cc1)C(F)(F)F)C(N)=O
REMARK SMILES IDX 12 1 11 2 9 3 10 4 7 6 8 7 6 8 3 9 4 10 5 12 2 14 1 15 70 16
REMARK SMILES IDX 71 17 72 18 66 21 67 22 68 23 69 24 13 25 14 26 15 27 16 28
REMARK SMILES IDX 17 30 18 31 19 32 65 33 20 34 64 35 21 36 22 37 23 38 58 39
REMARK SMILES IDX 24 40 63 41 57 42 59 43 25 44 62 45 56 46 55 47 26 49 48 50
REMARK SMILES IDX 33 51 47 52 34 53 37 54 46 55 60 56 35 57 36 58 45 60 61 61
REMARK SMILES IDX 38 62 27 63 28 64 32 65 29 66 31 67 30 68 49 69 50 70 54 71
REMARK SMILES IDX 51 72 53 73 52 74 39 75 40 76 44 77 41 78 43 79 42 80
REMARK H PARENT 11 5 3 11 6 13 71 19 71 20 15 29 59 48 37 59
REMARK Flexibility Score: inf
ROOT
ATOM      1  C   UNL A   1      36.054  23.152  23.831  1.00  0.00     0.117 C 
ENDROOT
BRANCH   1   2
ATOM      2  N   UNL A   1      34.839  23.196  23.024  1.00  0.00    -0.354 N 
ATOM      3  C   UNL A   1      33.627  22.568  23.128  1.00  0.00     0.255 C 
ATOM      4  O   UNL A   1      32.838  22.806  22.210  1.00  0.00    -0.272 OA
ATOM      5  H   UNL A   1      34.906  23.797  22.247  1.00  0.00     0.163 HD
BRANCH   3   6
ATOM      6  C   UNL A   1      33.333  21.494  24.210  1.00  0.00     0.213 C 
ATOM      7  C   UNL A   1      32.275  20.581  23.612  1.00  0.00     0.056 C 
BRANCH   6   8
ATOM      8  N   UNL A   1      34.653  20.896  24.594  1.00  0.00    -0.316 N 
ATOM      9  N   UNL A   1      35.007  18.535  24.587  1.00  0.00    -0.327 N 
ATOM     10  C   UNL A   1      35.356  19.794  24.759  1.00  0.00     0.316 C 
ATOM     11  H   UNL A   1      35.800  17.955  24.650  1.00  0.00     0.166 HD
ATOM     12  O   UNL A   1      36.534  19.979  25.088  1.00  0.00    -0.249 OA
ATOM     13  H   UNL A   1      35.249  21.646  24.819  1.00  0.00     0.166 HD
BRANCH   9  14
ATOM     14  C   UNL A   1      33.819  17.725  24.332  1.00  0.00     0.169 C 
ATOM     15  C   UNL A   1      34.034  16.739  23.194  1.00  0.00     0.041 C 
BRANCH  14  16
ATOM     16  C   UNL A   1      33.111  17.265  25.624  1.00  0.00     0.239 C 
ATOM     17  N   UNL A   1      32.775  18.219  26.538  1.00  0.00    -0.368 N 
ATOM     18  O   UNL A   1      32.930  16.082  25.910  1.00  0.00    -0.273 OA
ATOM     19  H   UNL A   1      32.911  19.171  26.330  1.00  0.00     0.159 HD
ATOM     20  H   UNL A   1      32.395  17.955  27.407  1.00  0.00     0.159 HD
ENDBRANCH  14  16
ENDBRANCH   9  14
ENDBRANCH   6   8
BRANCH   6  21
ATOM     21  C   UNL A   1      32.718  22.244  25.416  1.00  0.00     0.420 C 
ATOM     22  F   UNL A   1      32.660  23.582  25.244  1.00  0.00    -0.168 F 
ATOM     23  F   UNL A   1      31.437  21.838  25.622  1.00  0.00    -0.168 F 
ATOM     24  F   UNL A   1      33.387  21.987  26.565  1.00  0.00    -0.168 F 
ENDBRANCH   6  21
ENDBRANCH   3   6
ENDBRANCH   1   2
BRANCH   1  25
ATOM     25  C   UNL A   1      35.998  24.043  25.066  1.00  0.00     0.042 C 
BRANCH  25  26
ATOM     26  C   UNL A   1      36.410  23.371  26.366  1.00  0.00     0.118 C 
BRANCH  26  27
ATOM     27  N   UNL A   1      37.601  22.549  26.230  1.00  0.00    -0.352 N 
ATOM     28  C   UNL A   1      38.933  22.849  26.358  1.00  0.00     0.251 C 
ATOM     29  H   UNL A   1      37.419  21.608  26.006  1.00  0.00     0.163 HD
ATOM     30  O   UNL A   1      39.763  22.002  26.023  1.00  0.00    -0.269 OA
BRANCH  28  31
ATOM     31  C   UNL A   1      39.407  24.155  26.875  1.00  0.00     0.039 A 
ATOM     32  C   UNL A   1      39.214  24.439  28.233  1.00  0.00     0.014 A 
ATOM     33  C   UNL A   1      39.956  25.136  26.046  1.00  0.00     0.014 A 
ATOM     34  C   UNL A   1      39.604  25.673  28.760  1.00  0.00     0.010 A 
ATOM     35  C   UNL A   1      40.427  26.334  26.587  1.00  0.00     0.010 A 
ATOM     36  C   UNL A   1      40.237  26.625  27.946  1.00  0.00    -0.014 A 
BRANCH  36  37
ATOM     37  C   UNL A   1      40.665  27.940  28.491  1.00  0.00     0.031 A 
ATOM     38  C   UNL A   1      42.112  28.193  28.822  1.00  0.00     0.074 A 
ATOM     39  C   UNL A   1      39.749  28.900  28.730  1.00  0.00     0.049 A 
ATOM     40  N   UNL A   1      42.667  29.256  29.347  1.00  0.00    -0.248 NA
ATOM     41  C   UNL A   1      43.057  27.097  28.551  1.00  0.00     0.031 C 
ATOM     42  C   UNL A   1      38.310  28.781  28.490  1.00  0.00     0.029 A 
ATOM     43  N   UNL A   1      39.900  30.171  29.229  1.00  0.00    -0.354 N 
ATOM     44  C   UNL A   1      44.014  28.947  29.493  1.00  0.00     0.074 A 
ATOM     45  C   UNL A   1      44.187  27.584  29.040  1.00  0.00     0.031 C 
ATOM     46  C   UNL A   1      37.714  29.941  28.813  1.00  0.00     0.029 A 
ATOM     47  C   UNL A   1      38.722  30.872  29.310  1.00  0.00     0.049 A 
ATOM     48  H   UNL A   1      40.768  30.543  29.501  1.00  0.00     0.167 HD
ATOM     49  C   UNL A   1      45.023  29.730  29.945  1.00  0.00     0.031 A 
ATOM     50  C   UNL A   1      38.478  32.127  29.734  1.00  0.00     0.031 A 
ATOM     51  C   UNL A   1      44.870  31.097  30.364  1.00  0.00     0.049 A 
ATOM     52  C   UNL A   1      39.617  32.983  30.209  1.00  0.00     0.074 A 
ATOM     53  C   UNL A   1      45.844  31.987  30.780  1.00  0.00     0.029 A 
ATOM     54  N   UNL A   1      43.661  31.773  30.413  1.00  0.00    -0.354 N 
ATOM     55  N   UNL A   1      40.891  32.689  30.294  1.00  0.00    -0.248 NA
ATOM     56  C   UNL A   1      39.282  34.348  30.637  1.00  0.00     0.031 C 
ATOM     57  C   UNL A   1      45.220  33.195  31.112  1.00  0.00     0.029 A 
ATOM     58  C   UNL A   1      43.863  33.066  30.865  1.00  0.00     0.049 A 
ATOM     59  H   UNL A   1      42.789  31.391  30.164  1.00  0.00     0.167 HD
ATOM     60  C   UNL A   1      41.513  33.839  30.762  1.00  0.00     0.074 A 
ATOM     61  C   UNL A   1      40.479  34.839  30.929  1.00  0.00     0.031 C 
ATOM     62  C   UNL A   1      42.825  34.048  31.028  1.00  0.00     0.031 A 
BRANCH  49  63
ATOM     63  C   UNL A   1      46.394  29.117  30.007  1.00  0.00    -0.014 A 
ATOM     64  C   UNL A   1      46.863  28.506  31.180  1.00  0.00     0.009 A 
ATOM     65  C   UNL A   1      47.217  29.129  28.870  1.00  0.00     0.009 A 
ATOM     66  C   UNL A   1      48.144  27.952  31.225  1.00  0.00     0.001 A 
ATOM     67  C   UNL A   1      48.488  28.552  28.911  1.00  0.00     0.001 A 
ATOM     68  C   UNL A   1      48.953  27.973  30.091  1.00  0.00     0.000 A 
ENDBRANCH  49  63
BRANCH  50  69
ATOM     69  C   UNL A   1      37.095  32.664  29.703  1.00  0.00    -0.014 A 
ATOM     70  C   UNL A   1      36.626  33.346  28.569  1.00  0.00     0.009 A 
ATOM     71  C   UNL A   1      36.240  32.503  30.804  1.00  0.00     0.009 A 
ATOM     72  C   UNL A   1      35.335  33.877  28.548  1.00  0.00     0.001 A 
ATOM     73  C   UNL A   1      34.941  33.015  30.770  1.00  0.00     0.001 A 
ATOM     74  C   UNL A   1      34.493  33.708  29.646  1.00  0.00     0.000 A 
ENDBRANCH  50  69
BRANCH  62  75
ATOM     75  C   UNL A   1      43.217  35.417  31.502  1.00  0.00    -0.014 A 
ATOM     76  C   UNL A   1      43.681  36.389  30.603  1.00  0.00     0.009 A 
ATOM     77  C   UNL A   1      43.090  35.747  32.860  1.00  0.00     0.009 A 
ATOM     78  C   UNL A   1      44.042  37.657  31.062  1.00  0.00     0.001 A 
ATOM     79  C   UNL A   1      43.429  37.023  33.312  1.00  0.00     0.001 A 
ATOM     80  C   UNL A   1      43.913  37.974  32.415  1.00  0.00     0.000 A 
ENDBRANCH  62  75
ENDBRANCH  36  37
ENDBRANCH  28  31
ENDBRANCH  26  27
ENDBRANCH  25  26
ENDBRANCH   1  25
TORSDOF 14
ENDMDL
MODEL 2
REMARK VINA RESULT:     -10.5      4.324      8.753
REMARK SMILES C[C@H](NC(=O)N[C@](C)(C(=O)NCCCNC(=O)c1ccc(-c2c3nc(c(-c4ccccc4)c4ccc([nH]4)c(-c4ccccc4)c4nc(c(-c5ccccc5)c5ccc2[nH]5)C=C4)C=C3)cc1)C(F)(F)F)C(N)=O
REMARK SMILES IDX 12 1 11 2 9 3 10 4 7 6 8 7 6 8 3 9 4 10 5 12 2 14 1 15 70 16
REMARK SMILES IDX 71 17 72 18 66 21 67 22 68 23 69 24 13 25 14 26 15 27 16 28
REMARK SMILES IDX 17 30 18 31 19 32 65 33 20 34 64 35 21 36 22 37 23 38 58 39
REMARK SMILES IDX 24 40 63 41 57 42 59 43 25 44 62 45 56 46 55 47 26 49 48 50
REMARK SMILES IDX 33 51 47 52 34 53 37 54 46 55 60 56 35 57 36 58 45 60 61 61
REMARK SMILES IDX 38 62 27 63 28 64 32 65 29 66 31 67 30 68 49 69 50 70 54 71
REMARK SMILES IDX 51 72 53 73 52 74 39 75 40 76 44 77 41 78 43 79 42 80
REMARK H PARENT 11 5 3 11 6 13 71 19 71 20 15 29 59 48 37 59
REMARK Flexibility Score: inf
ROOT
ATOM      1  C   UNL A   1      33.727  26.756  25.313  1.00  0.00     0.117 C 
ENDROOT
BRANCH   1   2
ATOM      2  N   UNL A   1      32.485  26.195  25.836  1.00  0.00    -0.354 N 
ATOM      3  C   UNL A   1      31.172  26.338  25.474  1.00  0.00     0.255 C 
ATOM      4  O   UNL A   1      30.367  25.743  26.196  1.00  0.00    -0.272 OA
ATOM      5  H   UNL A   1      32.619  25.593  26.603  1.00  0.00     0.163 HD
BRANCH   3   6
ATOM      6  C   UNL A   1      30.714  27.320  24.363  1.00  0.00     0.213 C 
ATOM      7  C   UNL A   1      29.223  27.080  24.186  1.00  0.00     0.056 C 
BRANCH   6   8
ATOM      8  N   UNL A   1      31.168  28.686  24.781  1.00  0.00    -0.316 N 
ATOM      9  N   UNL A   1      29.983  30.654  24.130  1.00  0.00    -0.327 N 
ATOM     10  C   UNL A   1      30.945  29.984  24.732  1.00  0.00     0.316 C 
ATOM     11  H   UNL A   1      30.010  31.599  24.403  1.00  0.00     0.166 HD
ATOM     12  O   UNL A   1      31.741  30.669  25.386  1.00  0.00    -0.249 OA
ATOM     13  H   UNL A   1      31.980  28.561  25.324  1.00  0.00     0.166 HD
BRANCH   9  14
ATOM     14  C   UNL A   1      28.890  30.442  23.185  1.00  0.00     0.169 C 
ATOM     15  C   UNL A   1      27.599  31.098  23.650  1.00  0.00     0.041 C 
BRANCH  14  16
ATOM     16  C   UNL A   1      29.330  30.570  21.712  1.00  0.00     0.239 C 
ATOM     17  N   UNL A   1      30.579  30.137  21.381  1.00  0.00    -0.368 N 
ATOM     18  O   UNL A   1      28.653  31.131  20.851  1.00  0.00    -0.273 OA
ATOM     19  H   UNL A   1      31.138  29.685  22.054  1.00  0.00     0.159 HD
ATOM     20  H   UNL A   1      30.924  30.275  20.469  1.00  0.00     0.159 HD
ENDBRANCH  14  16
ENDBRANCH   9  14
ENDBRANCH   6   8
BRANCH   6  21
ATOM     21  C   UNL A   1      31.444  26.890  23.069  1.00  0.00     0.420 C 
ATOM     22  F   UNL A   1      30.699  27.047  21.954  1.00  0.00    -0.168 F 
ATOM     23  F   UNL A   1      32.560  27.644  22.881  1.00  0.00    -0.168 F 
ATOM     24  F   UNL A   1      31.861  25.603  23.127  1.00  0.00    -0.168 F 
ENDBRANCH   6  21
ENDBRANCH   3   6
ENDBRANCH   1   2
BRANCH   1  25
ATOM     25  C   UNL A   1      34.058  28.133  25.875  1.00  0.00     0.042 C 
BRANCH  25  26
ATOM     26  C   UNL A   1      33.572  28.387  27.293  1.00  0.00     0.118 C 
BRANCH  26  27
ATOM     27  N   UNL A   1      33.538  29.798  27.639  1.00  0.00    -0.352 N 
ATOM     28  C   UNL A   1      34.468  30.610  28.236  1.00  0.00     0.251 C 
ATOM     29  H   UNL A   1      32.697  30.252  27.403  1.00  0.00     0.163 HD
ATOM     30  O   UNL A   1      34.127  31.745  28.576  1.00  0.00    -0.269 OA
BRANCH  28  31
ATOM     31  C   UNL A   1      35.860  30.169  28.494  1.00  0.00     0.039 A 
ATOM     32  C   UNL A   1      36.777  30.221  27.438  1.00  0.00     0.014 A 
ATOM     33  C   UNL A   1      36.261  29.629  29.718  1.00  0.00     0.014 A 
ATOM     34  C   UNL A   1      38.089  29.776  27.618  1.00  0.00     0.010 A 
ATOM     35  C   UNL A   1      37.593  29.267  29.926  1.00  0.00     0.010 A 
ATOM     36  C   UNL A   1      38.518  29.316  28.872  1.00  0.00    -0.014 A 
BRANCH  36  37
ATOM     37  C   UNL A   1      39.911  28.846  29.084  1.00  0.00     0.031 A 
ATOM     38  C   UNL A   1      40.934  29.753  29.718  1.00  0.00     0.074 A 
ATOM     39  C   UNL A   1      40.277  27.616  28.671  1.00  0.00     0.049 A 
ATOM     40  N   UNL A   1      42.206  29.537  29.942  1.00  0.00    -0.248 NA
ATOM     41  C   UNL A   1      40.471  31.088  30.132  1.00  0.00     0.031 C 
ATOM     42  C   UNL A   1      39.402  26.646  28.011  1.00  0.00     0.029 A 
ATOM     43  N   UNL A   1      41.488  26.973  28.749  1.00  0.00    -0.354 N 
ATOM     44  C   UNL A   1      42.698  30.713  30.494  1.00  0.00     0.074 A 
ATOM     45  C   UNL A   1      41.599  31.654  30.534  1.00  0.00     0.031 C 
ATOM     46  C   UNL A   1      40.096  25.520  27.772  1.00  0.00     0.029 A 
ATOM     47  C   UNL A   1      41.469  25.700  28.233  1.00  0.00     0.049 A 
ATOM     48  H   UNL A   1      42.293  27.385  29.138  1.00  0.00     0.167 HD
ATOM     49  C   UNL A   1      43.945  30.985  30.946  1.00  0.00     0.031 A 
ATOM     50  C   UNL A   1      42.446  24.779  28.142  1.00  0.00     0.031 A 
ATOM     51  C   UNL A   1      45.036  30.047  30.943  1.00  0.00     0.049 A 
ATOM     52  C   UNL A   1      43.816  25.096  28.671  1.00  0.00     0.074 A 
ATOM     53  C   UNL A   1      46.319  30.213  31.435  1.00  0.00     0.029 A 
ATOM     54  N   UNL A   1      44.967  28.763  30.427  1.00  0.00    -0.354 N 
ATOM     55  N   UNL A   1      44.249  26.196  29.235  1.00  0.00    -0.248 NA
ATOM     56  C   UNL A   1      44.828  24.035  28.559  1.00  0.00     0.031 C 
ATOM     57  C   UNL A   1      47.037  29.038  31.188  1.00  0.00     0.029 A 
ATOM     58  C   UNL A   1      46.188  28.130  30.577  1.00  0.00     0.049 A 
ATOM     59  H   UNL A   1      44.168  28.361  30.016  1.00  0.00     0.167 HD
ATOM     60  C   UNL A   1      45.576  25.954  29.566  1.00  0.00     0.074 A 
ATOM     61  C   UNL A   1      45.872  24.598  29.153  1.00  0.00     0.031 C 
ATOM     62  C   UNL A   1      46.469  26.782  30.160  1.00  0.00     0.031 A 
BRANCH  49  63
ATOM     63  C   UNL A   1      44.196  32.365  31.486  1.00  0.00    -0.014 A 
ATOM     64  C   UNL A   1      44.014  32.656  32.847  1.00  0.00     0.009 A 
ATOM     65  C   UNL A   1      44.644  33.380  30.627  1.00  0.00     0.009 A 
ATOM     66  C   UNL A   1      44.239  33.947  33.330  1.00  0.00     0.001 A 
ATOM     67  C   UNL A   1      44.893  34.663  31.118  1.00  0.00     0.001 A 
ATOM     68  C   UNL A   1      44.681  34.947  32.467  1.00  0.00     0.000 A 
ENDBRANCH  49  63
BRANCH  50  69
ATOM     69  C   UNL A   1      42.158  23.449  27.549  1.00  0.00    -0.014 A 
ATOM     70  C   UNL A   1      41.550  22.446  28.320  1.00  0.00     0.009 A 
ATOM     71  C   UNL A   1      42.492  23.174  26.214  1.00  0.00     0.009 A 
ATOM     72  C   UNL A   1      41.303  21.186  27.773  1.00  0.00     0.001 A 
ATOM     73  C   UNL A   1      42.223  21.920  25.662  1.00  0.00     0.001 A 
ATOM     74  C   UNL A   1      41.636  20.925  26.444  1.00  0.00     0.000 A 
ENDBRANCH  50  69
BRANCH  62  75
ATOM     75  C   UNL A   1      47.840  26.232  30.423  1.00  0.00    -0.014 A 
ATOM     76  C   UNL A   1      48.819  26.217  29.418  1.00  0.00     0.009 A 
ATOM     77  C   UNL A   1      48.165  25.752  31.701  1.00  0.00     0.009 A 
ATOM     78  C   UNL A   1      50.090  25.701  29.681  1.00  0.00     0.001 A 
ATOM     79  C   UNL A   1      49.443  25.258  31.966  1.00  0.00     0.001 A 
ATOM     80  C   UNL A   1      50.401  25.225  30.954  1.00  0.00     0.000 A 
ENDBRANCH  62  75
ENDBRANCH  36  37
ENDBRANCH  28  31
ENDBRANCH  26  27
ENDBRANCH  25  26
ENDBRANCH   1  25
TORSDOF 14
ENDMDL
MODEL 3
REMARK VINA RESULT:     -10.4      2.931      7.319
REMARK SMILES C[C@H](NC(=O)N[C@](C)(C(=O)NCCCNC(=O)c1ccc(-c2c3nc(c(-c4ccccc4)c4ccc([nH]4)c(-c4ccccc4)c4nc(c(-c5ccccc5)c5ccc2[nH]5)C=C4)C=C3)cc1)C(F)(F)F)C(N)=O
REMARK SMILES IDX 12 1 11 2 9 3 10 4 7 6 8 7 6 8 3 9 4 10 5 12 2 14 1 15 70 16
REMARK SMILES IDX 71 17 72 18 66 21 67 22 68 23 69 24 13 25 14 26 15 27 16 28
REMARK SMILES IDX 17 30 18 31 19 32 65 33 20 34 64 35 21 36 22 37 23 38 58 39
REMARK SMILES IDX 24 40 63 41 57 42 59 43 25 44 62 45 56 46 55 47 26 49 48 50
REMARK SMILES IDX 33 51 47 52 34 53 37 54 46 55 60 56 35 57 36 58 45 60 61 61
REMARK SMILES IDX 38 62 27 63 28 64 32 65 29 66 31 67 30 68 49 69 50 70 54 71
REMARK SMILES IDX 51 72 53 73 52 74 39 75 40 76 44 77 41 78 43 79 42 80
REMARK H PARENT 11 5 3 11 6 13 71 19 71 20 15 29 59 48 37 59
REMARK Flexibility Score: inf
ROOT
ATOM      1  C   UNL A   1      33.548  26.185  25.877  1.00  0.00     0.117 C 
ENDROOT
BRANCH   1   2
ATOM      2  N   UNL A   1      34.057  25.653  24.617  1.00  0.00    -0.354 N 
ATOM      3  C   UNL A   1      33.569  24.733  23.728  1.00  0.00     0.255 C 
ATOM      4  O   UNL A   1      34.316  24.482  22.777  1.00  0.00    -0.272 OA
ATOM      5  H   UNL A   1      34.927  26.031  24.355  1.00  0.00     0.163 HD
BRANCH   3   6
ATOM      6  C   UNL A   1      32.269  23.928  23.988  1.00  0.00     0.213 C 
ATOM      7  C   UNL A   1      32.287  22.776  22.996  1.00  0.00     0.056 C 
BRANCH   6   8
ATOM      8  N   UNL A   1      32.247  23.603  25.452  1.00  0.00    -0.316 N 
ATOM      9  N   UNL A   1      33.099  21.537  26.289  1.00  0.00    -0.327 N 
ATOM     10  C   UNL A   1      32.542  22.726  26.390  1.00  0.00     0.316 C 
ATOM     11  H   UNL A   1      33.317  21.192  27.185  1.00  0.00     0.166 HD
ATOM     12  O   UNL A   1      32.289  23.100  27.542  1.00  0.00    -0.249 OA
ATOM     13  H   UNL A   1      31.840  24.376  25.907  1.00  0.00     0.166 HD
BRANCH   9  14
ATOM     14  C   UNL A   1      33.495  20.566  25.274  1.00  0.00     0.169 C 
ATOM     15  C   UNL A   1      34.997  20.569  25.036  1.00  0.00     0.041 C 
BRANCH  14  16
ATOM     16  C   UNL A   1      32.738  19.225  25.389  1.00  0.00     0.239 C 
ATOM     17  N   UNL A   1      32.864  18.523  26.551  1.00  0.00    -0.368 N 
ATOM     18  O   UNL A   1      32.116  18.718  24.457  1.00  0.00    -0.273 OA
ATOM     19  H   UNL A   1      33.357  18.910  27.310  1.00  0.00     0.159 HD
ATOM     20  H   UNL A   1      32.462  17.628  26.631  1.00  0.00     0.159 HD
ENDBRANCH  14  16
ENDBRANCH   9  14
ENDBRANCH   6   8
BRANCH   6  21
ATOM     21  C   UNL A   1      31.092  24.868  23.635  1.00  0.00     0.420 C 
ATOM     22  F   UNL A   1      30.103  24.258  22.947  1.00  0.00    -0.168 F 
ATOM     23  F   UNL A   1      30.515  25.351  24.768  1.00  0.00    -0.168 F 
ATOM     24  F   UNL A   1      31.503  25.948  22.929  1.00  0.00    -0.168 F 
ENDBRANCH   6  21
ENDBRANCH   3   6
ENDBRANCH   1   2
BRANCH   1  25
ATOM     25  C   UNL A   1      33.584  27.706  25.956  1.00  0.00     0.042 C 
BRANCH  25  26
ATOM     26  C   UNL A   1      33.330  28.288  27.337  1.00  0.00     0.118 C 
BRANCH  26  27
ATOM     27  N   UNL A   1      33.375  29.740  27.360  1.00  0.00    -0.352 N 
ATOM     28  C   UNL A   1      34.339  30.613  27.795  1.00  0.00     0.251 C 
ATOM     29  H   UNL A   1      32.570  30.176  26.998  1.00  0.00     0.163 HD
ATOM     30  O   UNL A   1      34.062  31.812  27.862  1.00  0.00    -0.269 OA
BRANCH  28  31
ATOM     31  C   UNL A   1      35.694  30.165  28.196  1.00  0.00     0.039 A 
ATOM     32  C   UNL A   1      36.705  30.167  27.227  1.00  0.00     0.014 A 
ATOM     33  C   UNL A   1      35.974  29.666  29.470  1.00  0.00     0.014 A 
ATOM     34  C   UNL A   1      37.989  29.713  27.543  1.00  0.00     0.010 A 
ATOM     35  C   UNL A   1      37.276  29.297  29.812  1.00  0.00     0.010 A 
ATOM     36  C   UNL A   1      38.294  29.295  28.847  1.00  0.00    -0.014 A 
BRANCH  36  37
ATOM     37  C   UNL A   1      39.655  28.816  29.203  1.00  0.00     0.031 A 
ATOM     38  C   UNL A   1      40.584  29.689  30.004  1.00  0.00     0.074 A 
ATOM     39  C   UNL A   1      40.078  27.611  28.773  1.00  0.00     0.049 A 
ATOM     40  N   UNL A   1      41.821  29.464  30.370  1.00  0.00    -0.248 NA
ATOM     41  C   UNL A   1      40.064  30.999  30.429  1.00  0.00     0.031 C 
ATOM     42  C   UNL A   1      39.298  26.676  27.960  1.00  0.00     0.029 A 
ATOM     43  N   UNL A   1      41.276  26.966  28.964  1.00  0.00    -0.354 N 
ATOM     44  C   UNL A   1      42.232  30.609  31.041  1.00  0.00     0.074 A 
ATOM     45  C   UNL A   1      41.129  31.544  30.996  1.00  0.00     0.031 C 
ATOM     46  C   UNL A   1      40.026  25.566  27.749  1.00  0.00     0.029 A 
ATOM     47  C   UNL A   1      41.330  25.723  28.383  1.00  0.00     0.049 A 
ATOM     48  H   UNL A   1      42.023  27.358  29.470  1.00  0.00     0.167 HD
ATOM     49  C   UNL A   1      43.413  30.858  31.656  1.00  0.00     0.031 A 
ATOM     50  C   UNL A   1      42.319  24.809  28.364  1.00  0.00     0.031 A 
ATOM     51  C   UNL A   1      44.504  29.924  31.737  1.00  0.00     0.049 A 
ATOM     52  C   UNL A   1      43.611  25.100  29.073  1.00  0.00     0.074 A 
ATOM     53  C   UNL A   1      45.715  30.065  32.390  1.00  0.00     0.029 A 
ATOM     54  N   UNL A   1      44.508  28.669  31.149  1.00  0.00    -0.354 N 
ATOM     55  N   UNL A   1      43.963  26.169  29.743  1.00  0.00    -0.248 NA
ATOM     56  C   UNL A   1      44.637  24.048  29.029  1.00  0.00     0.031 C 
ATOM     57  C   UNL A   1      46.468  28.906  32.171  1.00  0.00     0.029 A 
ATOM     58  C   UNL A   1      45.707  28.030  31.414  1.00  0.00     0.049 A 
ATOM     59  H   UNL A   1      43.769  28.289  30.622  1.00  0.00     0.167 HD
ATOM     60  C   UNL A   1      45.241  25.911  30.220  1.00  0.00     0.074 A 
ATOM     61  C   UNL A   1      45.597  24.580  29.775  1.00  0.00     0.031 C 
ATOM     62  C   UNL A   1      46.048  26.708  30.963  1.00  0.00     0.031 A 
BRANCH  49  63
ATOM     63  C   UNL A   1      43.585  32.207  32.295  1.00  0.00    -0.014 A 
ATOM     64  C   UNL A   1      44.104  33.292  31.572  1.00  0.00     0.009 A 
ATOM     65  C   UNL A   1      43.198  32.402  33.630  1.00  0.00     0.009 A 
ATOM     66  C   UNL A   1      44.269  34.537  32.185  1.00  0.00     0.001 A 
ATOM     67  C   UNL A   1      43.340  33.654  34.232  1.00  0.00     0.001 A 
ATOM     68  C   UNL A   1      43.884  34.717  33.512  1.00  0.00     0.000 A 
ENDBRANCH  49  63
BRANCH  50  69
ATOM     69  C   UNL A   1      42.116  23.513  27.670  1.00  0.00    -0.014 A 
ATOM     70  C   UNL A   1      42.503  23.360  26.329  1.00  0.00     0.009 A 
ATOM     71  C   UNL A   1      41.532  22.427  28.340  1.00  0.00     0.009 A 
ATOM     72  C   UNL A   1      42.288  22.150  25.666  1.00  0.00     0.001 A 
ATOM     73  C   UNL A   1      41.340  21.211  27.680  1.00  0.00     0.001 A 
ATOM     74  C   UNL A   1      41.711  21.077  26.342  1.00  0.00     0.000 A 
ENDBRANCH  50  69
BRANCH  62  75
ATOM     75  C   UNL A   1      47.381  26.147  31.362  1.00  0.00    -0.014 A 
ATOM     76  C   UNL A   1      48.484  26.214  30.497  1.00  0.00     0.009 A 
ATOM     77  C   UNL A   1      47.542  25.571  32.632  1.00  0.00     0.009 A 
ATOM     78  C   UNL A   1      49.717  25.686  30.885  1.00  0.00     0.001 A 
ATOM     79  C   UNL A   1      48.782  25.066  33.026  1.00  0.00     0.001 A 
ATOM     80  C   UNL A   1      49.865  25.115  32.149  1.00  0.00     0.000 A 
ENDBRANCH  62  75
ENDBRANCH  36  37
ENDBRANCH  28  31
ENDBRANCH  26  27
ENDBRANCH  25  26
ENDBRANCH   1  25
TORSDOF 14
ENDMDL
