MODEL 1
REMARK VINA RESULT:     -11.8      0.000      0.000
REMARK SMILES CO[C@H]1C[C@@H](C(=O)NCCCNC(=O)c2ccc(-c3c4nc(c(-c5ccccc5)c5ccc([nH]5)c(-c5ccccc5)c5nc(c(-c6ccccc6)c6ccc3[nH]6)C=C5)C=C4)cc2)N(C(=O)Nc2cc(C)cc(F)c2)C1
REMARK SMILES IDX 10 1 9 2 8 3 6 4 7 5 5 7 3 8 4 9 75 10 63 11 2 12 1 13 64 14
REMARK SMILES IDX 65 15 66 16 67 18 68 19 74 20 69 21 72 22 70 23 71 24 73 25
REMARK SMILES IDX 11 26 12 27 13 28 14 30 15 31 16 32 62 33 17 34 61 35 18 36
REMARK SMILES IDX 19 37 20 38 55 39 21 40 60 41 54 42 56 43 22 44 59 45 53 46
REMARK SMILES IDX 52 47 23 49 45 50 30 51 44 52 31 53 34 54 43 55 57 56 32 57
REMARK SMILES IDX 33 58 42 60 58 61 35 62 24 63 25 64 29 65 26 66 28 67 27 68
REMARK SMILES IDX 46 69 47 70 51 71 48 72 50 73 49 74 36 75 37 76 41 77 38 78
REMARK SMILES IDX 40 79 39 80
REMARK H PARENT 8 6 66 17 12 29 56 48 34 59
REMARK Flexibility Score: inf
ROOT
ATOM      1  C   UNL A   1      37.907  19.762  24.683  1.00  0.00     0.042 C 
ENDROOT
BRANCH   1   2
ATOM      2  C   UNL A   1      36.463  20.159  25.006  1.00  0.00     0.117 C 
BRANCH   2   3
ATOM      3  N   UNL A   1      36.408  21.534  25.459  1.00  0.00    -0.354 N 
ATOM      4  C   UNL A   1      35.921  22.573  24.706  1.00  0.00     0.242 C 
ATOM      5  O   UNL A   1      36.636  23.557  24.527  1.00  0.00    -0.273 OA
ATOM      6  H   UNL A   1      36.740  21.736  26.363  1.00  0.00     0.163 HD
BRANCH   4   7
ATOM      7  C   UNL A   1      34.543  22.396  24.063  1.00  0.00     0.179 C 
ATOM      8  C   UNL A   1      33.154  24.253  23.222  1.00  0.00     0.140 C 
ATOM      9  C   UNL A   1      34.449  23.489  22.995  1.00  0.00     0.069 C 
ATOM     10  C   UNL A   1      32.534  23.650  24.479  1.00  0.00     0.154 C 
ATOM     11  N   UNL A   1      33.410  22.594  24.966  1.00  0.00    -0.310 N 
BRANCH   8  12
ATOM     12  O   UNL A   1      33.327  25.658  23.422  1.00  0.00    -0.380 OA
ATOM     13  C   UNL A   1      33.808  26.044  24.701  1.00  0.00     0.195 C 
ENDBRANCH   8  12
BRANCH  11  14
ATOM     14  C   UNL A   1      32.881  21.744  25.909  1.00  0.00     0.322 C 
ATOM     15  O   UNL A   1      32.803  22.079  27.095  1.00  0.00    -0.248 OA
ATOM     16  N   UNL A   1      32.204  20.626  25.547  1.00  0.00    -0.308 N 
ATOM     17  H   UNL A   1      31.300  20.571  25.934  1.00  0.00     0.171 HD
BRANCH  16  18
ATOM     18  C   UNL A   1      32.532  19.533  24.734  1.00  0.00     0.046 A 
ATOM     19  C   UNL A   1      33.216  18.469  25.338  1.00  0.00     0.029 A 
ATOM     20  C   UNL A   1      32.293  19.492  23.365  1.00  0.00     0.065 A 
ATOM     21  C   UNL A   1      33.528  17.306  24.618  1.00  0.00    -0.046 A 
ATOM     22  C   UNL A   1      32.593  18.333  22.651  1.00  0.00     0.125 A 
ATOM     23  C   UNL A   1      34.265  16.179  25.277  1.00  0.00     0.044 C 
ATOM     24  C   UNL A   1      33.190  17.238  23.266  1.00  0.00     0.042 A 
ATOM     25  F   UNL A   1      32.271  18.252  21.353  1.00  0.00    -0.207 F 
ENDBRANCH  16  18
ENDBRANCH  11  14
ENDBRANCH   4   7
ENDBRANCH   2   3
ENDBRANCH   1   2
BRANCH   1  26
ATOM     26  C   UNL A   1      38.909  20.170  25.759  1.00  0.00     0.118 C 
BRANCH  26  27
ATOM     27  N   UNL A   1      40.024  19.242  25.833  1.00  0.00    -0.352 N 
ATOM     28  C   UNL A   1      41.340  19.513  26.106  1.00  0.00     0.251 C 
ATOM     29  H   UNL A   1      39.806  18.296  25.667  1.00  0.00     0.163 HD
ATOM     30  O   UNL A   1      42.203  18.672  25.885  1.00  0.00    -0.269 OA
BRANCH  28  31
ATOM     31  C   UNL A   1      41.712  20.836  26.651  1.00  0.00     0.039 A 
ATOM     32  C   UNL A   1      42.118  21.837  25.768  1.00  0.00     0.014 A 
ATOM     33  C   UNL A   1      41.668  21.081  28.029  1.00  0.00     0.014 A 
ATOM     34  C   UNL A   1      42.448  23.099  26.265  1.00  0.00     0.010 A 
ATOM     35  C   UNL A   1      41.925  22.359  28.514  1.00  0.00     0.010 A 
ATOM     36  C   UNL A   1      42.335  23.375  27.638  1.00  0.00    -0.014 A 
BRANCH  36  37
ATOM     37  C   UNL A   1      42.658  24.725  28.161  1.00  0.00     0.031 A 
ATOM     38  C   UNL A   1      44.082  25.113  28.443  1.00  0.00     0.074 A 
ATOM     39  C   UNL A   1      41.661  25.600  28.396  1.00  0.00     0.049 A 
ATOM     40  N   UNL A   1      44.560  26.267  28.839  1.00  0.00    -0.248 NA
ATOM     41  C   UNL A   1      45.103  24.066  28.281  1.00  0.00     0.031 C 
ATOM     42  C   UNL A   1      40.234  25.327  28.213  1.00  0.00     0.029 A 
ATOM     43  N   UNL A   1      41.700  26.901  28.827  1.00  0.00    -0.354 N 
ATOM     44  C   UNL A   1      45.929  26.081  28.977  1.00  0.00     0.074 A 
ATOM     45  C   UNL A   1      46.198  24.691  28.684  1.00  0.00     0.031 C 
ATOM     46  C   UNL A   1      39.538  26.443  28.478  1.00  0.00     0.029 A 
ATOM     47  C   UNL A   1      40.465  27.498  28.877  1.00  0.00     0.049 A 
ATOM     48  H   UNL A   1      42.533  27.363  29.076  1.00  0.00     0.167 HD
ATOM     49  C   UNL A   1      46.882  26.989  29.298  1.00  0.00     0.031 A 
ATOM     50  C   UNL A   1      40.118  28.759  29.192  1.00  0.00     0.031 A 
ATOM     51  C   UNL A   1      46.615  28.371  29.595  1.00  0.00     0.049 A 
ATOM     52  C   UNL A   1      41.190  29.749  29.546  1.00  0.00     0.074 A 
ATOM     53  C   UNL A   1      47.515  29.384  29.880  1.00  0.00     0.029 A 
ATOM     54  N   UNL A   1      45.349  28.933  29.653  1.00  0.00    -0.354 N 
ATOM     55  N   UNL A   1      42.489  29.577  29.594  1.00  0.00    -0.248 NA
ATOM     56  C   UNL A   1      40.745  31.111  29.872  1.00  0.00     0.031 C 
ATOM     57  C   UNL A   1      46.788  30.548  30.158  1.00  0.00     0.029 A 
ATOM     58  C   UNL A   1      45.439  30.272  29.993  1.00  0.00     0.049 A 
ATOM     59  H   UNL A   1      44.508  28.450  29.478  1.00  0.00     0.167 HD
ATOM     60  C   UNL A   1      43.020  30.814  29.937  1.00  0.00     0.074 A 
ATOM     61  C   UNL A   1      41.902  31.729  30.061  1.00  0.00     0.031 C 
ATOM     62  C   UNL A   1      44.316  31.163  30.133  1.00  0.00     0.031 A 
BRANCH  49  63
ATOM     63  C   UNL A   1      48.303  26.498  29.350  1.00  0.00    -0.014 A 
ATOM     64  C   UNL A   1      48.850  25.976  30.534  1.00  0.00     0.009 A 
ATOM     65  C   UNL A   1      49.107  26.556  28.201  1.00  0.00     0.009 A 
ATOM     66  C   UNL A   1      50.184  25.568  30.579  1.00  0.00     0.001 A 
ATOM     67  C   UNL A   1      50.432  26.118  28.240  1.00  0.00     0.001 A 
ATOM     68  C   UNL A   1      50.974  25.636  29.432  1.00  0.00     0.000 A 
ENDBRANCH  49  63
BRANCH  50  69
ATOM     69  C   UNL A   1      38.692  29.169  29.135  1.00  0.00    -0.014 A 
ATOM     70  C   UNL A   1      38.143  29.654  27.938  1.00  0.00     0.009 A 
ATOM     71  C   UNL A   1      37.870  29.067  30.268  1.00  0.00     0.009 A 
ATOM     72  C   UNL A   1      36.803  30.046  27.883  1.00  0.00     0.001 A 
ATOM     73  C   UNL A   1      36.525  29.435  30.202  1.00  0.00     0.001 A 
ATOM     74  C   UNL A   1      35.995  29.932  29.012  1.00  0.00     0.000 A 
ENDBRANCH  50  69
BRANCH  62  75
ATOM     75  C   UNL A   1      44.586  32.598  30.485  1.00  0.00    -0.014 A 
ATOM     76  C   UNL A   1      44.692  33.012  31.822  1.00  0.00     0.009 A 
ATOM     77  C   UNL A   1      44.742  33.549  29.465  1.00  0.00     0.009 A 
ATOM     78  C   UNL A   1      44.905  34.357  32.132  1.00  0.00     0.001 A 
ATOM     79  C   UNL A   1      44.984  34.888  29.775  1.00  0.00     0.001 A 
ATOM     80  C   UNL A   1      45.052  35.292  31.108  1.00  0.00     0.000 A 
ENDBRANCH  62  75
ENDBRANCH  36  37
ENDBRANCH  28  31
ENDBRANCH  26  27
ENDBRANCH   1  26
TORSDOF 13
ENDMDL
MODEL 2
REMARK VINA RESULT:     -11.7      4.591      9.676
REMARK SMILES CO[C@H]1C[C@@H](C(=O)NCCCNC(=O)c2ccc(-c3c4nc(c(-c5ccccc5)c5ccc([nH]5)c(-c5ccccc5)c5nc(c(-c6ccccc6)c6ccc3[nH]6)C=C5)C=C4)cc2)N(C(=O)Nc2cc(C)cc(F)c2)C1
REMARK SMILES IDX 10 1 9 2 8 3 6 4 7 5 5 7 3 8 4 9 75 10 63 11 2 12 1 13 64 14
REMARK SMILES IDX 65 15 66 16 67 18 68 19 74 20 69 21 72 22 70 23 71 24 73 25
REMARK SMILES IDX 11 26 12 27 13 28 14 30 15 31 16 32 62 33 17 34 61 35 18 36
REMARK SMILES IDX 19 37 20 38 55 39 21 40 60 41 54 42 56 43 22 44 59 45 53 46
REMARK SMILES IDX 52 47 23 49 45 50 30 51 44 52 31 53 34 54 43 55 57 56 32 57
REMARK SMILES IDX 33 58 42 60 58 61 35 62 24 63 25 64 29 65 26 66 28 67 27 68
REMARK SMILES IDX 46 69 47 70 51 71 48 72 50 73 49 74 36 75 37 76 41 77 38 78
REMARK SMILES IDX 40 79 39 80
REMARK H PARENT 8 6 66 17 12 29 56 48 34 59
REMARK Flexibility Score: inf
ROOT
ATOM      1  C   UNL A   1      31.172  31.787  26.613  1.00  0.00     0.042 C 
ENDROOT
BRANCH   1   2
ATOM      2  C   UNL A   1      31.312  30.743  25.501  1.00  0.00     0.117 C 
BRANCH   2   3
ATOM      3  N   UNL A   1      32.496  29.937  25.714  1.00  0.00    -0.354 N 
ATOM      4  C   UNL A   1      32.474  28.641  26.168  1.00  0.00     0.242 C 
ATOM      5  O   UNL A   1      33.142  28.354  27.160  1.00  0.00    -0.273 OA
ATOM      6  H   UNL A   1      33.372  30.342  25.518  1.00  0.00     0.163 HD
BRANCH   4   7
ATOM      7  C   UNL A   1      31.544  27.657  25.455  1.00  0.00     0.179 C 
ATOM      8  C   UNL A   1      31.700  25.204  25.659  1.00  0.00     0.140 C 
ATOM      9  C   UNL A   1      31.380  26.481  26.420  1.00  0.00     0.069 C 
ATOM     10  C   UNL A   1      32.130  25.650  24.266  1.00  0.00     0.154 C 
ATOM     11  N   UNL A   1      32.070  27.104  24.206  1.00  0.00    -0.310 N 
BRANCH   8  12
ATOM     12  O   UNL A   1      32.748  24.421  26.236  1.00  0.00    -0.380 OA
ATOM     13  C   UNL A   1      33.911  24.265  25.438  1.00  0.00     0.195 C 
ENDBRANCH   8  12
BRANCH  11  14
ATOM     14  C   UNL A   1      32.135  27.671  22.955  1.00  0.00     0.322 C 
ATOM     15  O   UNL A   1      33.213  27.782  22.362  1.00  0.00    -0.248 OA
ATOM     16  N   UNL A   1      31.014  27.898  22.227  1.00  0.00    -0.308 N 
ATOM     17  H   UNL A   1      31.038  27.488  21.331  1.00  0.00     0.171 HD
BRANCH  16  18
ATOM     18  C   UNL A   1      29.829  28.597  22.491  1.00  0.00     0.046 A 
ATOM     19  C   UNL A   1      29.831  29.976  22.241  1.00  0.00     0.029 A 
ATOM     20  C   UNL A   1      28.702  28.016  23.059  1.00  0.00     0.065 A 
ATOM     21  C   UNL A   1      28.671  30.746  22.413  1.00  0.00    -0.046 A 
ATOM     22  C   UNL A   1      27.545  28.777  23.221  1.00  0.00     0.125 A 
ATOM     23  C   UNL A   1      28.691  32.221  22.148  1.00  0.00     0.044 C 
ATOM     24  C   UNL A   1      27.515  30.126  22.890  1.00  0.00     0.042 A 
ATOM     25  F   UNL A   1      26.426  28.195  23.674  1.00  0.00    -0.207 F 
ENDBRANCH  16  18
ENDBRANCH  11  14
ENDBRANCH   4   7
ENDBRANCH   2   3
ENDBRANCH   1   2
BRANCH   1  26
ATOM     26  C   UNL A   1      32.501  32.398  27.049  1.00  0.00     0.118 C 
BRANCH  26  27
ATOM     27  N   UNL A   1      32.337  33.765  27.511  1.00  0.00    -0.352 N 
ATOM     28  C   UNL A   1      33.079  34.444  28.443  1.00  0.00     0.251 C 
ATOM     29  H   UNL A   1      31.598  34.271  27.100  1.00  0.00     0.163 HD
ATOM     30  O   UNL A   1      32.668  35.499  28.911  1.00  0.00    -0.269 OA
BRANCH  28  31
ATOM     31  C   UNL A   1      34.370  33.882  28.894  1.00  0.00     0.039 A 
ATOM     32  C   UNL A   1      34.390  33.067  30.026  1.00  0.00     0.014 A 
ATOM     33  C   UNL A   1      35.555  34.167  28.205  1.00  0.00     0.014 A 
ATOM     34  C   UNL A   1      35.597  32.508  30.449  1.00  0.00     0.010 A 
ATOM     35  C   UNL A   1      36.742  33.550  28.584  1.00  0.00     0.010 A 
ATOM     36  C   UNL A   1      36.778  32.729  29.720  1.00  0.00    -0.014 A 
BRANCH  36  37
ATOM     37  C   UNL A   1      38.054  32.111  30.155  1.00  0.00     0.031 A 
ATOM     38  C   UNL A   1      38.891  32.758  31.222  1.00  0.00     0.074 A 
ATOM     39  C   UNL A   1      38.468  30.969  29.573  1.00  0.00     0.049 A 
ATOM     40  N   UNL A   1      39.998  32.329  31.775  1.00  0.00    -0.248 NA
ATOM     41  C   UNL A   1      38.439  34.066  31.721  1.00  0.00     0.031 C 
ATOM     42  C   UNL A   1      37.773  30.270  28.490  1.00  0.00     0.029 A 
ATOM     43  N   UNL A   1      39.567  30.188  29.824  1.00  0.00    -0.354 N 
ATOM     44  C   UNL A   1      40.375  33.315  32.678  1.00  0.00     0.074 A 
ATOM     45  C   UNL A   1      39.414  34.389  32.556  1.00  0.00     0.031 C 
ATOM     46  C   UNL A   1      38.434  29.137  28.206  1.00  0.00     0.029 A 
ATOM     47  C   UNL A   1      39.611  29.045  29.064  1.00  0.00     0.049 A 
ATOM     48  H   UNL A   1      40.257  30.423  30.485  1.00  0.00     0.167 HD
ATOM     49  C   UNL A   1      41.414  33.319  33.547  1.00  0.00     0.031 A 
ATOM     50  C   UNL A   1      40.491  28.027  29.070  1.00  0.00     0.031 A 
ATOM     51  C   UNL A   1      42.373  32.254  33.667  1.00  0.00     0.049 A 
ATOM     52  C   UNL A   1      41.636  28.053  30.041  1.00  0.00     0.074 A 
ATOM     53  C   UNL A   1      43.431  32.137  34.552  1.00  0.00     0.029 A 
ATOM     54  N   UNL A   1      42.394  31.121  32.867  1.00  0.00    -0.354 N 
ATOM     55  N   UNL A   1      41.933  28.956  30.945  1.00  0.00    -0.248 NA
ATOM     56  C   UNL A   1      42.557  26.909  30.002  1.00  0.00     0.031 C 
ATOM     57  C   UNL A   1      44.122  30.956  34.254  1.00  0.00     0.029 A 
ATOM     58  C   UNL A   1      43.461  30.311  33.220  1.00  0.00     0.049 A 
ATOM     59  H   UNL A   1      41.746  30.923  32.152  1.00  0.00     0.167 HD
ATOM     60  C   UNL A   1      43.064  28.480  31.596  1.00  0.00     0.074 A 
ATOM     61  C   UNL A   1      43.383  27.198  30.997  1.00  0.00     0.031 C 
ATOM     62  C   UNL A   1      43.776  29.050  32.599  1.00  0.00     0.031 A 
BRANCH  49  63
ATOM     63  C   UNL A   1      41.561  34.528  34.431  1.00  0.00    -0.014 A 
ATOM     64  C   UNL A   1      40.935  34.592  35.687  1.00  0.00     0.009 A 
ATOM     65  C   UNL A   1      42.335  35.617  34.004  1.00  0.00     0.009 A 
ATOM     66  C   UNL A   1      41.043  35.739  36.476  1.00  0.00     0.001 A 
ATOM     67  C   UNL A   1      42.467  36.752  34.808  1.00  0.00     0.001 A 
ATOM     68  C   UNL A   1      41.811  36.817  36.037  1.00  0.00     0.000 A 
ENDBRANCH  49  63
BRANCH  50  69
ATOM     69  C   UNL A   1      40.292  26.873  28.158  1.00  0.00    -0.014 A 
ATOM     70  C   UNL A   1      40.872  26.873  26.880  1.00  0.00     0.009 A 
ATOM     71  C   UNL A   1      39.533  25.764  28.560  1.00  0.00     0.009 A 
ATOM     72  C   UNL A   1      40.681  25.792  26.017  1.00  0.00     0.001 A 
ATOM     73  C   UNL A   1      39.365  24.673  27.704  1.00  0.00     0.001 A 
ATOM     74  C   UNL A   1      39.933  24.691  26.431  1.00  0.00     0.000 A 
ENDBRANCH  50  69
BRANCH  62  75
ATOM     75  C   UNL A   1      44.957  28.279  33.115  1.00  0.00    -0.014 A 
ATOM     76  C   UNL A   1      44.819  27.343  34.152  1.00  0.00     0.009 A 
ATOM     77  C   UNL A   1      46.226  28.487  32.552  1.00  0.00     0.009 A 
ATOM     78  C   UNL A   1      45.934  26.663  34.646  1.00  0.00     0.001 A 
ATOM     79  C   UNL A   1      47.335  27.784  33.027  1.00  0.00     0.001 A 
ATOM     80  C   UNL A   1      47.190  26.884  34.081  1.00  0.00     0.000 A 
ENDBRANCH  62  75
ENDBRANCH  36  37
ENDBRANCH  28  31
ENDBRANCH  26  27
ENDBRANCH   1  26
TORSDOF 13
ENDMDL
MODEL 3
REMARK VINA RESULT:     -11.6      4.148      9.252
REMARK SMILES CO[C@H]1C[C@@H](C(=O)NCCCNC(=O)c2ccc(-c3c4nc(c(-c5ccccc5)c5ccc([nH]5)c(-c5ccccc5)c5nc(c(-c6ccccc6)c6ccc3[nH]6)C=C5)C=C4)cc2)N(C(=O)Nc2cc(C)cc(F)c2)C1
REMARK SMILES IDX 10 1 9 2 8 3 6 4 7 5 5 7 3 8 4 9 75 10 63 11 2 12 1 13 64 14
REMARK SMILES IDX 65 15 66 16 67 18 68 19 74 20 69 21 72 22 70 23 71 24 73 25
REMARK SMILES IDX 11 26 12 27 13 28 14 30 15 31 16 32 62 33 17 34 61 35 18 36
REMARK SMILES IDX 19 37 20 38 55 39 21 40 60 41 54 42 56 43 22 44 59 45 53 46
REMARK SMILES IDX 52 47 23 49 45 50 30 51 44 52 31 53 34 54 43 55 57 56 32 57
REMARK SMILES IDX 33 58 42 60 58 61 35 62 24 63 25 64 29 65 26 66 28 67 27 68
REMARK SMILES IDX 46 69 47 70 51 71 48 72 50 73 49 74 36 75 37 76 41 77 38 78
REMARK SMILES IDX 40 79 39 80
REMARK H PARENT 8 6 66 17 12 29 56 48 34 59
REMARK Flexibility Score: inf
ROOT
ATOM      1  C   UNL A   1      31.371  31.549  26.427  1.00  0.00     0.042 C 
ENDROOT
BRANCH   1   2
ATOM      2  C   UNL A   1      31.595  30.210  25.721  1.00  0.00     0.117 C 
BRANCH   2   3
ATOM      3  N   UNL A   1      33.012  29.940  25.591  1.00  0.00    -0.354 N 
ATOM      4  C   UNL A   1      33.587  28.714  25.820  1.00  0.00     0.242 C 
ATOM      5  O   UNL A   1      34.516  28.640  26.622  1.00  0.00    -0.273 OA
ATOM      6  H   UNL A   1      33.601  30.682  25.321  1.00  0.00     0.163 HD
BRANCH   4   7
ATOM      7  C   UNL A   1      32.968  27.502  25.120  1.00  0.00     0.179 C 
ATOM      8  C   UNL A   1      33.933  25.231  25.166  1.00  0.00     0.140 C 
ATOM      9  C   UNL A   1      33.284  26.307  26.024  1.00  0.00     0.069 C 
ATOM     10  C   UNL A   1      34.067  25.839  23.774  1.00  0.00     0.154 C 
ATOM     11  N   UNL A   1      33.531  27.193  23.806  1.00  0.00    -0.310 N 
BRANCH   8  12
ATOM     12  O   UNL A   1      35.226  24.821  25.616  1.00  0.00    -0.380 OA
ATOM     13  C   UNL A   1      35.357  23.445  25.940  1.00  0.00     0.195 C 
ENDBRANCH   8  12
BRANCH  11  14
ATOM     14  C   UNL A   1      33.294  27.789  22.589  1.00  0.00     0.322 C 
ATOM     15  O   UNL A   1      34.225  28.217  21.899  1.00  0.00    -0.248 OA
ATOM     16  N   UNL A   1      32.081  27.709  21.991  1.00  0.00    -0.308 N 
ATOM     17  H   UNL A   1      32.117  27.347  21.075  1.00  0.00     0.171 HD
BRANCH  16  18
ATOM     18  C   UNL A   1      30.785  28.036  22.412  1.00  0.00     0.046 A 
ATOM     19  C   UNL A   1      30.355  29.352  22.191  1.00  0.00     0.029 A 
ATOM     20  C   UNL A   1      29.955  27.162  23.102  1.00  0.00     0.065 A 
ATOM     21  C   UNL A   1      29.051  29.754  22.520  1.00  0.00    -0.046 A 
ATOM     22  C   UNL A   1      28.656  27.555  23.420  1.00  0.00     0.125 A 
ATOM     23  C   UNL A   1      28.608  31.166  22.284  1.00  0.00     0.044 C 
ATOM     24  C   UNL A   1      28.193  28.831  23.122  1.00  0.00     0.042 A 
ATOM     25  F   UNL A   1      27.820  26.680  23.994  1.00  0.00    -0.207 F 
ENDBRANCH  16  18
ENDBRANCH  11  14
ENDBRANCH   4   7
ENDBRANCH   2   3
ENDBRANCH   1   2
BRANCH   1  26
ATOM     26  C   UNL A   1      32.646  32.159  27.004  1.00  0.00     0.118 C 
BRANCH  26  27
ATOM     27  N   UNL A   1      32.439  33.532  27.428  1.00  0.00    -0.352 N 
ATOM     28  C   UNL A   1      33.148  34.251  28.357  1.00  0.00     0.251 C 
ATOM     29  H   UNL A   1      31.696  34.009  26.993  1.00  0.00     0.163 HD
ATOM     30  O   UNL A   1      32.703  35.307  28.791  1.00  0.00    -0.269 OA
BRANCH  28  31
ATOM     31  C   UNL A   1      34.443  33.733  28.843  1.00  0.00     0.039 A 
ATOM     32  C   UNL A   1      34.466  32.964  30.007  1.00  0.00     0.014 A 
ATOM     33  C   UNL A   1      35.631  34.015  28.157  1.00  0.00     0.014 A 
ATOM     34  C   UNL A   1      35.678  32.446  30.465  1.00  0.00     0.010 A 
ATOM     35  C   UNL A   1      36.825  33.436  28.574  1.00  0.00     0.010 A 
ATOM     36  C   UNL A   1      36.863  32.661  29.742  1.00  0.00    -0.014 A 
BRANCH  36  37
ATOM     37  C   UNL A   1      38.146  32.086  30.215  1.00  0.00     0.031 A 
ATOM     38  C   UNL A   1      38.636  30.771  29.679  1.00  0.00     0.074 A 
ATOM     39  C   UNL A   1      38.865  32.747  31.143  1.00  0.00     0.049 A 
ATOM     40  N   UNL A   1      39.762  30.148  29.925  1.00  0.00    -0.248 NA
ATOM     41  C   UNL A   1      37.739  30.049  28.763  1.00  0.00     0.031 C 
ATOM     42  C   UNL A   1      38.473  34.005  31.780  1.00  0.00     0.029 A 
ATOM     43  N   UNL A   1      40.083  32.455  31.700  1.00  0.00    -0.354 N 
ATOM     44  C   UNL A   1      39.703  28.963  29.202  1.00  0.00     0.074 A 
ATOM     45  C   UNL A   1      38.409  28.926  28.557  1.00  0.00     0.031 C 
ATOM     46  C   UNL A   1      39.456  34.405  32.601  1.00  0.00     0.029 A 
ATOM     47  C   UNL A   1      40.531  33.418  32.570  1.00  0.00     0.049 A 
ATOM     48  H   UNL A   1      40.589  31.636  31.496  1.00  0.00     0.167 HD
ATOM     49  C   UNL A   1      40.648  28.003  29.067  1.00  0.00     0.031 A 
ATOM     50  C   UNL A   1      41.688  33.507  33.253  1.00  0.00     0.031 A 
ATOM     51  C   UNL A   1      41.934  28.036  29.711  1.00  0.00     0.049 A 
ATOM     52  C   UNL A   1      42.721  32.429  33.089  1.00  0.00     0.074 A 
ATOM     53  C   UNL A   1      42.983  27.139  29.598  1.00  0.00     0.029 A 
ATOM     54  N   UNL A   1      42.344  29.020  30.599  1.00  0.00    -0.354 N 
ATOM     55  N   UNL A   1      42.683  31.355  32.338  1.00  0.00    -0.248 NA
ATOM     56  C   UNL A   1      43.963  32.589  33.857  1.00  0.00     0.031 C 
ATOM     57  C   UNL A   1      44.008  27.555  30.456  1.00  0.00     0.029 A 
ATOM     58  C   UNL A   1      43.619  28.740  31.061  1.00  0.00     0.049 A 
ATOM     59  H   UNL A   1      41.806  29.802  30.862  1.00  0.00     0.167 HD
ATOM     60  C   UNL A   1      43.903  30.720  32.527  1.00  0.00     0.074 A 
ATOM     61  C   UNL A   1      44.666  31.543  33.445  1.00  0.00     0.031 C 
ATOM     62  C   UNL A   1      44.354  29.559  31.990  1.00  0.00     0.031 A 
BRANCH  49  63
ATOM     63  C   UNL A   1      40.309  26.829  28.188  1.00  0.00    -0.014 A 
ATOM     64  C   UNL A   1      39.510  25.774  28.660  1.00  0.00     0.009 A 
ATOM     65  C   UNL A   1      40.791  26.776  26.872  1.00  0.00     0.009 A 
ATOM     66  C   UNL A   1      39.242  24.670  27.849  1.00  0.00     0.001 A 
ATOM     67  C   UNL A   1      40.496  25.685  26.052  1.00  0.00     0.001 A 
ATOM     68  C   UNL A   1      39.733  24.627  26.545  1.00  0.00     0.000 A 
ENDBRANCH  49  63
BRANCH  50  69
ATOM     69  C   UNL A   1      41.948  34.687  34.115  1.00  0.00    -0.014 A 
ATOM     70  C   UNL A   1      41.617  34.654  35.478  1.00  0.00     0.009 A 
ATOM     71  C   UNL A   1      42.536  35.846  33.586  1.00  0.00     0.009 A 
ATOM     72  C   UNL A   1      41.854  35.765  36.290  1.00  0.00     0.001 A 
ATOM     73  C   UNL A   1      42.795  36.946  34.406  1.00  0.00     0.001 A 
ATOM     74  C   UNL A   1      42.447  36.907  35.756  1.00  0.00     0.000 A 
ENDBRANCH  50  69
BRANCH  62  75
ATOM     75  C   UNL A   1      45.741  29.128  32.375  1.00  0.00    -0.014 A 
ATOM     76  C   UNL A   1      45.963  28.295  33.484  1.00  0.00     0.009 A 
ATOM     77  C   UNL A   1      46.840  29.554  31.615  1.00  0.00     0.009 A 
ATOM     78  C   UNL A   1      47.262  27.936  33.850  1.00  0.00     0.001 A 
ATOM     79  C   UNL A   1      48.135  29.170  31.964  1.00  0.00     0.001 A 
ATOM     80  C   UNL A   1      48.345  28.372  33.089  1.00  0.00     0.000 A 
ENDBRANCH  62  75
ENDBRANCH  36  37
ENDBRANCH  28  31
ENDBRANCH  26  27
ENDBRANCH   1  26
TORSDOF 13
ENDMDL
