MODEL 1
REMARK VINA RESULT:      -9.8      0.000      0.000
REMARK SMILES CC[C@@H]1SC[C@H](C(=O)NCCCNC(=O)c2ccc(-c3c4nc(c(-c5ccccc5)c5ccc([nH]5)c(-c5ccccc5)c5nc(c(-c6ccccc6)c6ccc3[nH]6)C=C5)C=C4)cc2)N1C(=O)[C@](C)([NH3+])C(F)(F)F
REMARK SMILES IDX 10 1 9 2 7 3 8 4 6 6 3 7 4 8 64 9 5 10 2 11 1 12 65 13 66 14
REMARK SMILES IDX 67 15 68 16 69 17 70 21 71 22 72 23 73 24 11 25 12 26 13 27
REMARK SMILES IDX 14 28 15 30 16 31 17 32 63 33 18 34 62 35 19 36 20 37 21 38
REMARK SMILES IDX 56 39 22 40 61 41 55 42 57 43 23 44 60 45 54 46 53 47 24 49
REMARK SMILES IDX 46 50 31 51 45 52 32 53 35 54 44 55 58 56 33 57 34 58 43 60
REMARK SMILES IDX 59 61 36 62 25 63 26 64 30 65 27 66 29 67 28 68 47 69 48 70
REMARK SMILES IDX 52 71 49 72 51 73 50 74 37 75 38 76 42 77 39 78 41 79 40 80
REMARK H PARENT 9 5 69 18 69 19 69 20 13 29 57 48 35 59
REMARK Flexibility Score: inf
ROOT
ATOM      1  C   UNL A   1      32.731  27.578  24.918  1.00  0.00     0.117 C 
ENDROOT
BRANCH   1   2
ATOM      2  N   UNL A   1      33.181  26.634  23.912  1.00  0.00    -0.354 N 
ATOM      3  C   UNL A   1      32.956  25.284  23.808  1.00  0.00     0.243 C 
ATOM      4  O   UNL A   1      33.196  24.761  22.716  1.00  0.00    -0.273 OA
ATOM      5  H   UNL A   1      33.734  27.021  23.194  1.00  0.00     0.163 HD
BRANCH   3   6
ATOM      6  C   UNL A   1      32.434  24.460  25.017  1.00  0.00     0.185 C 
ATOM      7  C   UNL A   1      32.394  22.054  25.635  1.00  0.00     0.144 C 
ATOM      8  S   UNL A   1      30.713  22.701  25.911  1.00  0.00    -0.134 SA
ATOM      9  N   UNL A   1      33.221  23.194  25.226  1.00  0.00    -0.312 N 
ATOM     10  C   UNL A   1      30.966  24.108  24.830  1.00  0.00     0.107 C 
BRANCH   7  11
ATOM     11  C   UNL A   1      32.283  20.850  24.687  1.00  0.00     0.033 C 
ATOM     12  C   UNL A   1      32.335  21.124  23.194  1.00  0.00     0.007 C 
ENDBRANCH   7  11
BRANCH   9  13
ATOM     13  C   UNL A   1      34.545  23.382  25.617  1.00  0.00     0.294 C 
ATOM     14  O   UNL A   1      34.759  24.086  26.622  1.00  0.00    -0.267 OA
BRANCH  13  15
ATOM     15  C   UNL A   1      35.805  22.841  24.861  1.00  0.00     0.267 C 
ATOM     16  C   UNL A   1      37.128  23.597  24.910  1.00  0.00     0.100 C 
BRANCH  15  17
ATOM     17  N   UNL A   1      35.443  22.869  23.382  1.00  0.00    -0.337 N 
ATOM     18  H   UNL A   1      35.932  23.640  22.927  1.00  0.00     0.345 HD
ATOM     19  H   UNL A   1      34.436  22.998  23.281  1.00  0.00     0.345 HD
ATOM     20  H   UNL A   1      35.719  21.989  22.948  1.00  0.00     0.345 HD
ENDBRANCH  15  17
BRANCH  15  21
ATOM     21  C   UNL A   1      36.020  21.412  25.428  1.00  0.00     0.453 C 
ATOM     22  F   UNL A   1      35.501  20.476  24.589  1.00  0.00    -0.164 F 
ATOM     23  F   UNL A   1      37.334  21.119  25.557  1.00  0.00    -0.164 F 
ATOM     24  F   UNL A   1      35.424  21.231  26.626  1.00  0.00    -0.164 F 
ENDBRANCH  15  21
ENDBRANCH  13  15
ENDBRANCH   9  13
ENDBRANCH   3   6
ENDBRANCH   1   2
BRANCH   1  25
ATOM     25  C   UNL A   1      33.825  28.175  25.795  1.00  0.00     0.042 C 
BRANCH  25  26
ATOM     26  C   UNL A   1      33.482  28.416  27.259  1.00  0.00     0.118 C 
BRANCH  26  27
ATOM     27  N   UNL A   1      33.473  29.819  27.646  1.00  0.00    -0.352 N 
ATOM     28  C   UNL A   1      34.454  30.640  28.153  1.00  0.00     0.251 C 
ATOM     29  H   UNL A   1      32.604  30.263  27.521  1.00  0.00     0.163 HD
ATOM     30  O   UNL A   1      34.145  31.784  28.482  1.00  0.00    -0.269 OA
BRANCH  28  31
ATOM     31  C   UNL A   1      35.857  30.189  28.347  1.00  0.00     0.039 A 
ATOM     32  C   UNL A   1      36.215  29.647  29.588  1.00  0.00     0.014 A 
ATOM     33  C   UNL A   1      36.840  30.342  27.368  1.00  0.00     0.014 A 
ATOM     34  C   UNL A   1      37.525  29.214  29.822  1.00  0.00     0.010 A 
ATOM     35  C   UNL A   1      38.119  29.818  27.564  1.00  0.00     0.010 A 
ATOM     36  C   UNL A   1      38.485  29.266  28.801  1.00  0.00    -0.014 A 
BRANCH  36  37
ATOM     37  C   UNL A   1      39.880  28.797  29.024  1.00  0.00     0.031 A 
ATOM     38  C   UNL A   1      40.898  29.710  29.659  1.00  0.00     0.074 A 
ATOM     39  C   UNL A   1      40.253  27.567  28.619  1.00  0.00     0.049 A 
ATOM     40  N   UNL A   1      42.167  29.492  29.903  1.00  0.00    -0.248 NA
ATOM     41  C   UNL A   1      40.439  31.055  30.042  1.00  0.00     0.031 C 
ATOM     42  C   UNL A   1      39.389  26.594  27.946  1.00  0.00     0.029 A 
ATOM     43  N   UNL A   1      41.463  26.923  28.715  1.00  0.00    -0.354 N 
ATOM     44  C   UNL A   1      42.658  30.678  30.438  1.00  0.00     0.074 A 
ATOM     45  C   UNL A   1      41.567  31.627  30.434  1.00  0.00     0.031 C 
ATOM     46  C   UNL A   1      40.084  25.466  27.725  1.00  0.00     0.029 A 
ATOM     47  C   UNL A   1      41.448  25.644  28.211  1.00  0.00     0.049 A 
ATOM     48  H   UNL A   1      42.263  27.338  29.109  1.00  0.00     0.167 HD
ATOM     49  C   UNL A   1      43.896  30.952  30.916  1.00  0.00     0.031 A 
ATOM     50  C   UNL A   1      42.421  24.715  28.154  1.00  0.00     0.031 A 
ATOM     51  C   UNL A   1      44.978  30.005  30.956  1.00  0.00     0.049 A 
ATOM     52  C   UNL A   1      43.777  25.028  28.725  1.00  0.00     0.074 A 
ATOM     53  C   UNL A   1      46.252  30.171  31.472  1.00  0.00     0.029 A 
ATOM     54  N   UNL A   1      44.909  28.711  30.468  1.00  0.00    -0.354 N 
ATOM     55  N   UNL A   1      44.203  26.134  29.283  1.00  0.00    -0.248 NA
ATOM     56  C   UNL A   1      44.777  23.952  28.675  1.00  0.00     0.031 C 
ATOM     57  C   UNL A   1      46.965  28.984  31.267  1.00  0.00     0.029 A 
ATOM     58  C   UNL A   1      46.118  28.066  30.665  1.00  0.00     0.049 A 
ATOM     59  H   UNL A   1      44.117  28.309  30.043  1.00  0.00     0.167 HD
ATOM     60  C   UNL A   1      45.509  25.877  29.681  1.00  0.00     0.074 A 
ATOM     61  C   UNL A   1      45.799  24.507  29.311  1.00  0.00     0.031 C 
ATOM     62  C   UNL A   1      46.389  26.702  30.299  1.00  0.00     0.031 A 
BRANCH  49  63
ATOM     63  C   UNL A   1      44.140  32.340  31.441  1.00  0.00    -0.014 A 
ATOM     64  C   UNL A   1      44.600  33.365  30.598  1.00  0.00     0.009 A 
ATOM     65  C   UNL A   1      43.893  32.632  32.791  1.00  0.00     0.009 A 
ATOM     66  C   UNL A   1      44.848  34.642  31.107  1.00  0.00     0.001 A 
ATOM     67  C   UNL A   1      44.114  33.917  33.290  1.00  0.00     0.001 A 
ATOM     68  C   UNL A   1      44.602  34.918  32.451  1.00  0.00     0.000 A 
ENDBRANCH  49  63
BRANCH  50  69
ATOM     69  C   UNL A   1      42.140  23.375  27.575  1.00  0.00    -0.014 A 
ATOM     70  C   UNL A   1      42.465  23.101  26.237  1.00  0.00     0.009 A 
ATOM     71  C   UNL A   1      41.539  22.372  28.348  1.00  0.00     0.009 A 
ATOM     72  C   UNL A   1      42.167  21.857  25.677  1.00  0.00     0.001 A 
ATOM     73  C   UNL A   1      41.266  21.119  27.792  1.00  0.00     0.001 A 
ATOM     74  C   UNL A   1      41.572  20.866  26.456  1.00  0.00     0.000 A 
ENDBRANCH  50  69
BRANCH  62  75
ATOM     75  C   UNL A   1      47.730  26.128  30.656  1.00  0.00    -0.014 A 
ATOM     76  C   UNL A   1      48.007  25.672  31.954  1.00  0.00     0.009 A 
ATOM     77  C   UNL A   1      48.722  26.020  29.669  1.00  0.00     0.009 A 
ATOM     78  C   UNL A   1      49.267  25.155  32.265  1.00  0.00     0.001 A 
ATOM     79  C   UNL A   1      49.970  25.477  29.976  1.00  0.00     0.001 A 
ATOM     80  C   UNL A   1      50.246  25.056  31.277  1.00  0.00     0.000 A 
ENDBRANCH  62  75
ENDBRANCH  36  37
ENDBRANCH  28  31
ENDBRANCH  26  27
ENDBRANCH  25  26
ENDBRANCH   1  25
TORSDOF 15
ENDMDL
MODEL 2
REMARK VINA RESULT:      -9.8      1.117      1.831
REMARK SMILES CC[C@@H]1SC[C@H](C(=O)NCCCNC(=O)c2ccc(-c3c4nc(c(-c5ccccc5)c5ccc([nH]5)c(-c5ccccc5)c5nc(c(-c6ccccc6)c6ccc3[nH]6)C=C5)C=C4)cc2)N1C(=O)[C@](C)([NH3+])C(F)(F)F
REMARK SMILES IDX 10 1 9 2 7 3 8 4 6 6 3 7 4 8 64 9 5 10 2 11 1 12 65 13 66 14
REMARK SMILES IDX 67 15 68 16 69 17 70 21 71 22 72 23 73 24 11 25 12 26 13 27
REMARK SMILES IDX 14 28 15 30 16 31 17 32 63 33 18 34 62 35 19 36 20 37 21 38
REMARK SMILES IDX 56 39 22 40 61 41 55 42 57 43 23 44 60 45 54 46 53 47 24 49
REMARK SMILES IDX 46 50 31 51 45 52 32 53 35 54 44 55 58 56 33 57 34 58 43 60
REMARK SMILES IDX 59 61 36 62 25 63 26 64 30 65 27 66 29 67 28 68 47 69 48 70
REMARK SMILES IDX 52 71 49 72 51 73 50 74 37 75 38 76 42 77 39 78 41 79 40 80
REMARK H PARENT 9 5 69 18 69 19 69 20 13 29 57 48 35 59
REMARK Flexibility Score: inf
ROOT
ATOM      1  C   UNL A   1      31.756  26.535  26.292  1.00  0.00     0.117 C 
ENDROOT
BRANCH   1   2
ATOM      2  N   UNL A   1      30.998  25.446  26.881  1.00  0.00    -0.354 N 
ATOM      3  C   UNL A   1      30.930  24.123  26.520  1.00  0.00     0.243 C 
ATOM      4  O   UNL A   1      30.449  23.344  27.347  1.00  0.00    -0.273 OA
ATOM      5  H   UNL A   1      30.447  25.695  27.659  1.00  0.00     0.163 HD
BRANCH   3   6
ATOM      6  C   UNL A   1      31.425  23.644  25.128  1.00  0.00     0.185 C 
ATOM      7  C   UNL A   1      33.347  24.184  23.650  1.00  0.00     0.144 C 
ATOM      8  S   UNL A   1      31.849  24.236  22.612  1.00  0.00    -0.134 SA
ATOM      9  N   UNL A   1      32.919  23.754  24.985  1.00  0.00    -0.312 N 
ATOM     10  C   UNL A   1      30.758  24.446  24.019  1.00  0.00     0.107 C 
BRANCH   7  11
ATOM     11  C   UNL A   1      34.063  25.536  23.507  1.00  0.00     0.033 C 
ATOM     12  C   UNL A   1      33.504  26.522  22.497  1.00  0.00     0.007 C 
ENDBRANCH   7  11
BRANCH   9  13
ATOM     13  C   UNL A   1      33.653  22.902  25.806  1.00  0.00     0.294 C 
ATOM     14  O   UNL A   1      34.302  23.413  26.740  1.00  0.00    -0.267 OA
BRANCH  13  15
ATOM     15  C   UNL A   1      33.796  21.354  25.622  1.00  0.00     0.267 C 
ATOM     16  C   UNL A   1      32.872  20.591  24.680  1.00  0.00     0.100 C 
BRANCH  15  17
ATOM     17  N   UNL A   1      33.484  20.745  26.982  1.00  0.00    -0.337 N 
ATOM     18  H   UNL A   1      32.569  20.296  26.953  1.00  0.00     0.345 HD
ATOM     19  H   UNL A   1      33.480  21.480  27.690  1.00  0.00     0.345 HD
ATOM     20  H   UNL A   1      34.196  20.053  27.216  1.00  0.00     0.345 HD
ENDBRANCH  15  17
BRANCH  15  21
ATOM     21  C   UNL A   1      35.265  21.148  25.163  1.00  0.00     0.453 C 
ATOM     22  F   UNL A   1      35.450  19.888  24.685  1.00  0.00    -0.164 F 
ATOM     23  F   UNL A   1      35.595  21.988  24.155  1.00  0.00    -0.164 F 
ATOM     24  F   UNL A   1      36.153  21.316  26.166  1.00  0.00    -0.164 F 
ENDBRANCH  15  21
ENDBRANCH  13  15
ENDBRANCH   9  13
ENDBRANCH   3   6
ENDBRANCH   1   2
BRANCH   1  25
ATOM     25  C   UNL A   1      31.960  27.753  27.185  1.00  0.00     0.042 C 
BRANCH  25  26
ATOM     26  C   UNL A   1      33.346  28.383  27.187  1.00  0.00     0.118 C 
BRANCH  26  27
ATOM     27  N   UNL A   1      33.354  29.803  27.505  1.00  0.00    -0.352 N 
ATOM     28  C   UNL A   1      34.326  30.623  28.031  1.00  0.00     0.251 C 
ATOM     29  H   UNL A   1      32.506  30.262  27.308  1.00  0.00     0.163 HD
ATOM     30  O   UNL A   1      34.031  31.789  28.286  1.00  0.00    -0.269 OA
BRANCH  28  31
ATOM     31  C   UNL A   1      35.702  30.146  28.330  1.00  0.00     0.039 A 
ATOM     32  C   UNL A   1      36.659  30.198  27.308  1.00  0.00     0.014 A 
ATOM     33  C   UNL A   1      36.058  29.594  29.561  1.00  0.00     0.014 A 
ATOM     34  C   UNL A   1      37.967  29.756  27.537  1.00  0.00     0.010 A 
ATOM     35  C   UNL A   1      37.385  29.248  29.822  1.00  0.00     0.010 A 
ATOM     36  C   UNL A   1      38.353  29.304  28.808  1.00  0.00    -0.014 A 
BRANCH  36  37
ATOM     37  C   UNL A   1      39.742  28.843  29.077  1.00  0.00     0.031 A 
ATOM     38  C   UNL A   1      40.726  29.752  29.768  1.00  0.00     0.074 A 
ATOM     39  C   UNL A   1      40.142  27.624  28.663  1.00  0.00     0.049 A 
ATOM     40  N   UNL A   1      41.987  29.541  30.058  1.00  0.00    -0.248 NA
ATOM     41  C   UNL A   1      40.239  31.086  30.159  1.00  0.00     0.031 C 
ATOM     42  C   UNL A   1      39.314  26.658  27.938  1.00  0.00     0.029 A 
ATOM     43  N   UNL A   1      41.354  26.989  28.794  1.00  0.00    -0.354 N 
ATOM     44  C   UNL A   1      42.445  30.720  30.635  1.00  0.00     0.074 A 
ATOM     45  C   UNL A   1      41.345  31.659  30.605  1.00  0.00     0.031 C 
ATOM     46  C   UNL A   1      40.029  25.541  27.723  1.00  0.00     0.029 A 
ATOM     47  C   UNL A   1      41.371  25.721  28.265  1.00  0.00     0.049 A 
ATOM     48  H   UNL A   1      42.134  27.404  29.227  1.00  0.00     0.167 HD
ATOM     49  C   UNL A   1      43.660  30.996  31.166  1.00  0.00     0.031 A 
ATOM     50  C   UNL A   1      42.354  24.801  28.229  1.00  0.00     0.031 A 
ATOM     51  C   UNL A   1      44.749  30.059  31.230  1.00  0.00     0.049 A 
ATOM     52  C   UNL A   1      43.684  25.115  28.858  1.00  0.00     0.074 A 
ATOM     53  C   UNL A   1      46.000  30.225  31.799  1.00  0.00     0.029 A 
ATOM     54  N   UNL A   1      44.711  28.774  30.714  1.00  0.00    -0.354 N 
ATOM     55  N   UNL A   1      44.078  26.214  29.454  1.00  0.00    -0.248 NA
ATOM     56  C   UNL A   1      44.695  24.050  28.827  1.00  0.00     0.031 C 
ATOM     57  C   UNL A   1      46.732  29.049  31.599  1.00  0.00     0.029 A 
ATOM     58  C   UNL A   1      45.919  28.136  30.946  1.00  0.00     0.049 A 
ATOM     59  H   UNL A   1      43.941  28.373  30.251  1.00  0.00     0.167 HD
ATOM     60  C   UNL A   1      45.369  25.961  29.897  1.00  0.00     0.074 A 
ATOM     61  C   UNL A   1      45.687  24.601  29.513  1.00  0.00     0.031 C 
ATOM     62  C   UNL A   1      46.216  26.782  30.565  1.00  0.00     0.031 A 
BRANCH  49  63
ATOM     63  C   UNL A   1      43.870  32.376  31.726  1.00  0.00    -0.014 A 
ATOM     64  C   UNL A   1      44.351  33.422  30.922  1.00  0.00     0.009 A 
ATOM     65  C   UNL A   1      43.571  32.638  33.072  1.00  0.00     0.009 A 
ATOM     66  C   UNL A   1      44.567  34.691  31.464  1.00  0.00     0.001 A 
ATOM     67  C   UNL A   1      43.759  33.915  33.604  1.00  0.00     0.001 A 
ATOM     68  C   UNL A   1      44.268  34.938  32.803  1.00  0.00     0.000 A 
ENDBRANCH  49  63
BRANCH  50  69
ATOM     69  C   UNL A   1      42.109  23.471  27.614  1.00  0.00    -0.014 A 
ATOM     70  C   UNL A   1      42.496  23.223  26.287  1.00  0.00     0.009 A 
ATOM     71  C   UNL A   1      41.480  22.450  28.340  1.00  0.00     0.009 A 
ATOM     72  C   UNL A   1      42.233  21.988  25.692  1.00  0.00     0.001 A 
ATOM     73  C   UNL A   1      41.241  21.206  27.750  1.00  0.00     0.001 A 
ATOM     74  C   UNL A   1      41.609  20.979  26.425  1.00  0.00     0.000 A 
ENDBRANCH  50  69
BRANCH  62  75
ATOM     75  C   UNL A   1      47.548  26.212  30.964  1.00  0.00    -0.014 A 
ATOM     76  C   UNL A   1      47.772  25.714  32.257  1.00  0.00     0.009 A 
ATOM     77  C   UNL A   1      48.585  26.153  30.020  1.00  0.00     0.009 A 
ATOM     78  C   UNL A   1      49.024  25.203  32.607  1.00  0.00     0.001 A 
ATOM     79  C   UNL A   1      49.826  25.616  30.366  1.00  0.00     0.001 A 
ATOM     80  C   UNL A   1      50.048  25.152  31.662  1.00  0.00     0.000 A 
ENDBRANCH  62  75
ENDBRANCH  36  37
ENDBRANCH  28  31
ENDBRANCH  26  27
ENDBRANCH  25  26
ENDBRANCH   1  25
TORSDOF 15
ENDMDL
MODEL 3
REMARK VINA RESULT:      -9.6      1.510      2.100
REMARK SMILES CC[C@@H]1SC[C@H](C(=O)NCCCNC(=O)c2ccc(-c3c4nc(c(-c5ccccc5)c5ccc([nH]5)c(-c5ccccc5)c5nc(c(-c6ccccc6)c6ccc3[nH]6)C=C5)C=C4)cc2)N1C(=O)[C@](C)([NH3+])C(F)(F)F
REMARK SMILES IDX 10 1 9 2 7 3 8 4 6 6 3 7 4 8 64 9 5 10 2 11 1 12 65 13 66 14
REMARK SMILES IDX 67 15 68 16 69 17 70 21 71 22 72 23 73 24 11 25 12 26 13 27
REMARK SMILES IDX 14 28 15 30 16 31 17 32 63 33 18 34 62 35 19 36 20 37 21 38
REMARK SMILES IDX 56 39 22 40 61 41 55 42 57 43 23 44 60 45 54 46 53 47 24 49
REMARK SMILES IDX 46 50 31 51 45 52 32 53 35 54 44 55 58 56 33 57 34 58 43 60
REMARK SMILES IDX 59 61 36 62 25 63 26 64 30 65 27 66 29 67 28 68 47 69 48 70
REMARK SMILES IDX 52 71 49 72 51 73 50 74 37 75 38 76 42 77 39 78 41 79 40 80
REMARK H PARENT 9 5 69 18 69 19 69 20 13 29 57 48 35 59
REMARK Flexibility Score: inf
ROOT
ATOM      1  C   UNL A   1      31.787  26.954  25.878  1.00  0.00     0.117 C 
ENDROOT
BRANCH   1   2
ATOM      2  N   UNL A   1      30.841  25.859  25.987  1.00  0.00    -0.354 N 
ATOM      3  C   UNL A   1      31.035  24.566  26.406  1.00  0.00     0.243 C 
ATOM      4  O   UNL A   1      30.026  23.914  26.685  1.00  0.00    -0.273 OA
ATOM      5  H   UNL A   1      29.918  26.077  25.718  1.00  0.00     0.163 HD
BRANCH   3   6
ATOM      6  C   UNL A   1      32.461  23.959  26.507  1.00  0.00     0.185 C 
ATOM      7  C   UNL A   1      33.657  22.062  25.440  1.00  0.00     0.144 C 
ATOM      8  S   UNL A   1      33.949  21.930  27.234  1.00  0.00    -0.134 SA
ATOM      9  N   UNL A   1      32.889  23.293  25.228  1.00  0.00    -0.312 N 
ATOM     10  C   UNL A   1      32.531  22.947  27.643  1.00  0.00     0.107 C 
BRANCH   7  11
ATOM     11  C   UNL A   1      33.057  20.730  24.964  1.00  0.00     0.033 C 
ATOM     12  C   UNL A   1      34.020  19.597  24.656  1.00  0.00     0.007 C 
ENDBRANCH   7  11
BRANCH   9  13
ATOM     13  C   UNL A   1      33.072  24.154  24.149  1.00  0.00     0.294 C 
ATOM     14  O   UNL A   1      33.866  25.105  24.292  1.00  0.00    -0.267 OA
BRANCH  13  15
ATOM     15  C   UNL A   1      32.312  24.079  22.781  1.00  0.00     0.267 C 
ATOM     16  C   UNL A   1      32.070  25.335  21.953  1.00  0.00     0.100 C 
BRANCH  15  17
ATOM     17  N   UNL A   1      30.904  23.608  23.118  1.00  0.00    -0.337 N 
ATOM     18  H   UNL A   1      30.244  24.370  22.963  1.00  0.00     0.345 HD
ATOM     19  H   UNL A   1      30.867  23.318  24.095  1.00  0.00     0.345 HD
ATOM     20  H   UNL A   1      30.658  22.818  22.520  1.00  0.00     0.345 HD
ENDBRANCH  15  17
BRANCH  15  21
ATOM     21  C   UNL A   1      33.128  23.066  21.934  1.00  0.00     0.453 C 
ATOM     22  F   UNL A   1      33.209  23.474  20.639  1.00  0.00    -0.164 F 
ATOM     23  F   UNL A   1      34.401  22.957  22.378  1.00  0.00    -0.164 F 
ATOM     24  F   UNL A   1      32.576  21.834  21.919  1.00  0.00    -0.164 F 
ENDBRANCH  15  21
ENDBRANCH  13  15
ENDBRANCH   9  13
ENDBRANCH   3   6
ENDBRANCH   1   2
BRANCH   1  25
ATOM     25  C   UNL A   1      31.936  27.820  27.124  1.00  0.00     0.042 C 
BRANCH  25  26
ATOM     26  C   UNL A   1      33.318  28.394  27.404  1.00  0.00     0.118 C 
BRANCH  26  27
ATOM     27  N   UNL A   1      33.334  29.834  27.611  1.00  0.00    -0.352 N 
ATOM     28  C   UNL A   1      34.327  30.694  28.023  1.00  0.00     0.251 C 
ATOM     29  H   UNL A   1      32.475  30.275  27.420  1.00  0.00     0.163 HD
ATOM     30  O   UNL A   1      34.039  31.876  28.201  1.00  0.00    -0.269 OA
BRANCH  28  31
ATOM     31  C   UNL A   1      35.718  30.244  28.290  1.00  0.00     0.039 A 
ATOM     32  C   UNL A   1      36.014  29.713  29.553  1.00  0.00     0.014 A 
ATOM     33  C   UNL A   1      36.749  30.388  27.360  1.00  0.00     0.014 A 
ATOM     34  C   UNL A   1      37.310  29.280  29.855  1.00  0.00     0.010 A 
ATOM     35  C   UNL A   1      38.016  29.864  27.624  1.00  0.00     0.010 A 
ATOM     36  C   UNL A   1      38.320  29.323  28.882  1.00  0.00    -0.014 A 
BRANCH  36  37
ATOM     37  C   UNL A   1      39.701  28.855  29.178  1.00  0.00     0.031 A 
ATOM     38  C   UNL A   1      40.666  29.748  29.916  1.00  0.00     0.074 A 
ATOM     39  C   UNL A   1      40.113  27.646  28.748  1.00  0.00     0.049 A 
ATOM     40  N   UNL A   1      41.918  29.530  30.236  1.00  0.00    -0.248 NA
ATOM     41  C   UNL A   1      40.169  31.073  30.323  1.00  0.00     0.031 C 
ATOM     42  C   UNL A   1      39.305  26.696  27.980  1.00  0.00     0.029 A 
ATOM     43  N   UNL A   1      41.320  27.007  28.899  1.00  0.00    -0.354 N 
ATOM     44  C   UNL A   1      42.361  30.696  30.851  1.00  0.00     0.074 A 
ATOM     45  C   UNL A   1      41.262  31.636  30.812  1.00  0.00     0.031 C 
ATOM     46  C   UNL A   1      40.024  25.584  27.760  1.00  0.00     0.029 A 
ATOM     47  C   UNL A   1      41.352  25.751  28.342  1.00  0.00     0.049 A 
ATOM     48  H   UNL A   1      42.088  27.412  29.362  1.00  0.00     0.167 HD
ATOM     49  C   UNL A   1      43.561  30.959  31.421  1.00  0.00     0.031 A 
ATOM     50  C   UNL A   1      42.335  24.832  28.313  1.00  0.00     0.031 A 
ATOM     51  C   UNL A   1      44.647  30.020  31.494  1.00  0.00     0.049 A 
ATOM     52  C   UNL A   1      43.647  25.131  28.985  1.00  0.00     0.074 A 
ATOM     53  C   UNL A   1      45.883  30.172  32.100  1.00  0.00     0.029 A 
ATOM     54  N   UNL A   1      44.624  28.747  30.949  1.00  0.00    -0.354 N 
ATOM     55  N   UNL A   1      44.025  26.216  29.615  1.00  0.00    -0.248 NA
ATOM     56  C   UNL A   1      44.659  24.066  28.958  1.00  0.00     0.031 C 
ATOM     57  C   UNL A   1      46.619  29.000  31.895  1.00  0.00     0.029 A 
ATOM     58  C   UNL A   1      45.824  28.103  31.200  1.00  0.00     0.049 A 
ATOM     59  H   UNL A   1      43.866  28.357  30.457  1.00  0.00     0.167 HD
ATOM     60  C   UNL A   1      45.304  25.953  30.088  1.00  0.00     0.074 A 
ATOM     61  C   UNL A   1      45.631  24.601  29.683  1.00  0.00     0.031 C 
ATOM     62  C   UNL A   1      46.132  26.757  30.797  1.00  0.00     0.031 A 
BRANCH  49  63
ATOM     63  C   UNL A   1      43.756  32.326  32.018  1.00  0.00    -0.014 A 
ATOM     64  C   UNL A   1      43.439  32.584  33.361  1.00  0.00     0.009 A 
ATOM     65  C   UNL A   1      44.276  33.366  31.232  1.00  0.00     0.009 A 
ATOM     66  C   UNL A   1      43.599  33.866  33.893  1.00  0.00     0.001 A 
ATOM     67  C   UNL A   1      44.463  34.638  31.774  1.00  0.00     0.001 A 
ATOM     68  C   UNL A   1      44.114  34.890  33.101  1.00  0.00     0.000 A 
ENDBRANCH  49  63
BRANCH  50  69
ATOM     69  C   UNL A   1      42.107  23.516  27.661  1.00  0.00    -0.014 A 
ATOM     70  C   UNL A   1      42.495  23.309  26.328  1.00  0.00     0.009 A 
ATOM     71  C   UNL A   1      41.493  22.467  28.360  1.00  0.00     0.009 A 
ATOM     72  C   UNL A   1      42.248  22.088  25.700  1.00  0.00     0.001 A 
ATOM     73  C   UNL A   1      41.270  21.236  27.737  1.00  0.00     0.001 A 
ATOM     74  C   UNL A   1      41.639  21.051  26.405  1.00  0.00     0.000 A 
ENDBRANCH  50  69
BRANCH  62  75
ATOM     75  C   UNL A   1      47.453  26.178  31.219  1.00  0.00    -0.014 A 
ATOM     76  C   UNL A   1      47.632  25.622  32.495  1.00  0.00     0.009 A 
ATOM     77  C   UNL A   1      48.524  26.169  30.314  1.00  0.00     0.009 A 
ATOM     78  C   UNL A   1      48.874  25.104  32.869  1.00  0.00     0.001 A 
ATOM     79  C   UNL A   1      49.756  25.624  30.681  1.00  0.00     0.001 A 
ATOM     80  C   UNL A   1      49.933  25.102  31.962  1.00  0.00     0.000 A 
ENDBRANCH  62  75
ENDBRANCH  36  37
ENDBRANCH  28  31
ENDBRANCH  26  27
ENDBRANCH  25  26
ENDBRANCH   1  25
TORSDOF 15
ENDMDL
