MODEL 1
REMARK VINA RESULT:     -12.0      0.000      0.000
REMARK SMILES Cc1nccnc1N1CCC2(CCC(=O)N([C@@H](C)C(=O)NCCCNC(=O)c3ccc(-c4c5nc(c(-c6ccccc6)c6ccc([nH]6)c(-c6ccccc6)c6nc(c(-c7ccccc7)c7ccc4[nH]7)C=C6)C=C5)cc3)C2)CC1
REMARK SMILES IDX 23 1 22 2 21 3 19 4 20 5 17 7 18 8 16 9 8 10 9 11 78 12
REMARK SMILES IDX 10 13 77 14 11 15 12 16 76 17 13 18 14 19 15 20 7 21 1 22
REMARK SMILES IDX 2 23 3 24 4 25 6 26 5 27 24 28 25 29 26 30 27 32 28 33 29 34
REMARK SMILES IDX 75 35 30 36 74 37 31 38 32 39 33 40 68 41 34 42 73 43 67 44
REMARK SMILES IDX 69 45 35 46 72 47 66 48 65 49 36 51 58 52 43 53 57 54 44 55
REMARK SMILES IDX 47 56 56 57 70 58 45 59 46 60 55 62 71 63 48 64 37 65 38 66
REMARK SMILES IDX 42 67 39 68 41 69 40 70 59 71 60 72 64 73 61 74 63 75 62 76
REMARK SMILES IDX 49 77 50 78 54 79 51 80 53 81 52 82
REMARK H PARENT 21 6 25 31 69 50 47 61
REMARK Flexibility Score: inf
ROOT
ATOM      1  C   UNL A   1      31.381  31.963  26.494  1.00  0.00     0.042 C 
ENDROOT
BRANCH   1   2
ATOM      2  C   UNL A   1      31.418  30.465  26.198  1.00  0.00     0.117 C 
BRANCH   2   3
ATOM      3  N   UNL A   1      32.268  30.157  25.058  1.00  0.00    -0.354 N 
ATOM      4  C   UNL A   1      32.831  29.002  24.614  1.00  0.00     0.242 C 
ATOM      5  O   UNL A   1      33.649  29.132  23.690  1.00  0.00    -0.273 OA
ATOM      6  H   UNL A   1      32.478  30.939  24.499  1.00  0.00     0.163 HD
BRANCH   4   7
ATOM      7  C   UNL A   1      32.609  27.597  25.237  1.00  0.00     0.171 C 
ATOM      8  C   UNL A   1      33.783  26.993  25.992  1.00  0.00     0.042 C 
BRANCH   7   9
ATOM      9  N   UNL A   1      31.879  26.710  24.313  1.00  0.00    -0.330 N 
ATOM     10  N   UNL A   1      32.516  21.571  24.079  1.00  0.00    -0.355 N 
ATOM     11  C   UNL A   1      31.747  22.249  25.107  1.00  0.00     0.119 C 
ATOM     12  C   UNL A   1      32.218  21.938  22.706  1.00  0.00     0.119 C 
ATOM     13  C   UNL A   1      32.075  23.740  25.003  1.00  0.00     0.030 C 
ATOM     14  C   UNL A   1      32.626  23.401  22.535  1.00  0.00     0.030 C 
ATOM     15  C   UNL A   1      31.931  24.329  23.568  1.00  0.00    -0.008 C 
ATOM     16  C   UNL A   1      30.463  24.515  23.127  1.00  0.00     0.019 C 
ATOM     17  C   UNL A   1      32.615  25.709  23.547  1.00  0.00     0.127 C 
ATOM     18  C   UNL A   1      29.752  25.614  23.886  1.00  0.00     0.101 C 
ATOM     19  C   UNL A   1      30.547  26.899  24.011  1.00  0.00     0.223 C 
ATOM     20  O   UNL A   1      29.985  27.993  24.024  1.00  0.00    -0.275 OA
BRANCH  10  21
ATOM     21  C   UNL A   1      33.017  20.310  24.337  1.00  0.00     0.150 A 
ATOM     22  C   UNL A   1      35.349  21.248  24.737  1.00  0.00     0.071 C 
ATOM     23  C   UNL A   1      34.386  20.101  24.625  1.00  0.00     0.080 A 
ATOM     24  N   UNL A   1      34.907  18.867  24.869  1.00  0.00    -0.256 NA
ATOM     25  C   UNL A   1      34.024  17.851  24.859  1.00  0.00     0.131 A 
ATOM     26  N   UNL A   1      32.153  19.269  24.358  1.00  0.00    -0.236 NA
ATOM     27  C   UNL A   1      32.678  18.050  24.618  1.00  0.00     0.133 A 
ENDBRANCH  10  21
ENDBRANCH   7   9
ENDBRANCH   4   7
ENDBRANCH   2   3
ENDBRANCH   1   2
BRANCH   1  28
ATOM     28  C   UNL A   1      32.700  32.552  26.967  1.00  0.00     0.118 C 
BRANCH  28  29
ATOM     29  N   UNL A   1      32.523  33.850  27.596  1.00  0.00    -0.352 N 
ATOM     30  C   UNL A   1      33.168  34.411  28.670  1.00  0.00     0.251 C 
ATOM     31  H   UNL A   1      31.830  34.416  27.187  1.00  0.00     0.163 HD
ATOM     32  O   UNL A   1      32.690  35.421  29.191  1.00  0.00    -0.269 OA
BRANCH  30  33
ATOM     33  C   UNL A   1      34.417  33.833  29.222  1.00  0.00     0.039 A 
ATOM     34  C   UNL A   1      35.637  34.186  28.633  1.00  0.00     0.014 A 
ATOM     35  C   UNL A   1      34.404  32.890  30.254  1.00  0.00     0.014 A 
ATOM     36  C   UNL A   1      36.833  33.629  29.099  1.00  0.00     0.010 A 
ATOM     37  C   UNL A   1      35.603  32.402  30.776  1.00  0.00     0.010 A 
ATOM     38  C   UNL A   1      36.830  32.749  30.192  1.00  0.00    -0.014 A 
BRANCH  38  39
ATOM     39  C   UNL A   1      38.094  32.156  30.708  1.00  0.00     0.031 A 
ATOM     40  C   UNL A   1      38.649  30.896  30.097  1.00  0.00     0.074 A 
ATOM     41  C   UNL A   1      38.724  32.724  31.756  1.00  0.00     0.049 A 
ATOM     42  N   UNL A   1      39.709  30.206  30.439  1.00  0.00    -0.248 NA
ATOM     43  C   UNL A   1      37.903  30.320  28.966  1.00  0.00     0.031 C 
ATOM     44  C   UNL A   1      38.282  33.927  32.462  1.00  0.00     0.029 A 
ATOM     45  N   UNL A   1      39.876  32.359  32.410  1.00  0.00    -0.354 N 
ATOM     46  C   UNL A   1      39.742  29.111  29.585  1.00  0.00     0.074 A 
ATOM     47  C   UNL A   1      38.571  29.199  28.741  1.00  0.00     0.031 C 
ATOM     48  C   UNL A   1      39.166  34.218  33.430  1.00  0.00     0.029 A 
ATOM     49  C   UNL A   1      40.214  33.201  33.441  1.00  0.00     0.049 A 
ATOM     50  H   UNL A   1      40.408  31.569  32.163  1.00  0.00     0.167 HD
ATOM     51  C   UNL A   1      40.672  28.130  29.493  1.00  0.00     0.031 A 
ATOM     52  C   UNL A   1      41.247  33.160  34.304  1.00  0.00     0.031 A 
ATOM     53  C   UNL A   1      41.848  28.047  30.317  1.00  0.00     0.049 A 
ATOM     54  C   UNL A   1      42.258  32.053  34.192  1.00  0.00     0.074 A 
ATOM     55  C   UNL A   1      42.878  27.123  30.262  1.00  0.00     0.029 A 
ATOM     56  N   UNL A   1      42.150  28.921  31.349  1.00  0.00    -0.354 N 
ATOM     57  N   UNL A   1      42.306  31.061  33.336  1.00  0.00    -0.248 NA
ATOM     58  C   UNL A   1      43.364  32.067  35.160  1.00  0.00     0.031 C 
ATOM     59  C   UNL A   1      43.777  27.407  31.294  1.00  0.00     0.029 A 
ATOM     60  C   UNL A   1      43.337  28.544  31.954  1.00  0.00     0.049 A 
ATOM     61  H   UNL A   1      41.603  29.696  31.613  1.00  0.00     0.167 HD
ATOM     62  C   UNL A   1      43.460  30.352  33.644  1.00  0.00     0.074 A 
ATOM     63  C   UNL A   1      44.090  31.035  34.753  1.00  0.00     0.031 C 
ATOM     64  C   UNL A   1      43.953  29.233  33.059  1.00  0.00     0.031 A 
BRANCH  51  65
ATOM     65  C   UNL A   1      40.448  27.057  28.461  1.00  0.00    -0.014 A 
ATOM     66  C   UNL A   1      39.659  25.929  28.741  1.00  0.00     0.009 A 
ATOM     67  C   UNL A   1      41.004  27.194  27.180  1.00  0.00     0.009 A 
ATOM     68  C   UNL A   1      39.468  24.941  27.772  1.00  0.00     0.001 A 
ATOM     69  C   UNL A   1      40.786  26.219  26.204  1.00  0.00     0.001 A 
ATOM     70  C   UNL A   1      40.027  25.090  26.503  1.00  0.00     0.000 A 
ENDBRANCH  51  65
BRANCH  52  71
ATOM     71  C   UNL A   1      41.388  34.210  35.347  1.00  0.00    -0.014 A 
ATOM     72  C   UNL A   1      40.845  34.020  36.628  1.00  0.00     0.009 A 
ATOM     73  C   UNL A   1      42.059  35.410  35.067  1.00  0.00     0.009 A 
ATOM     74  C   UNL A   1      40.949  35.022  37.596  1.00  0.00     0.001 A 
ATOM     75  C   UNL A   1      42.187  36.397  36.046  1.00  0.00     0.001 A 
ATOM     76  C   UNL A   1      41.624  36.206  37.307  1.00  0.00     0.000 A 
ENDBRANCH  52  71
BRANCH  64  77
ATOM     77  C   UNL A   1      45.256  28.699  33.584  1.00  0.00    -0.014 A 
ATOM     78  C   UNL A   1      45.295  27.629  34.490  1.00  0.00     0.009 A 
ATOM     79  C   UNL A   1      46.465  29.250  33.129  1.00  0.00     0.009 A 
ATOM     80  C   UNL A   1      46.519  27.145  34.957  1.00  0.00     0.001 A 
ATOM     81  C   UNL A   1      47.687  28.745  33.574  1.00  0.00     0.001 A 
ATOM     82  C   UNL A   1      47.713  27.699  34.495  1.00  0.00     0.000 A 
ENDBRANCH  64  77
ENDBRANCH  38  39
ENDBRANCH  30  33
ENDBRANCH  28  29
ENDBRANCH   1  28
TORSDOF 12
ENDMDL
MODEL 2
REMARK VINA RESULT:     -12.0      4.445      9.674
REMARK SMILES Cc1nccnc1N1CCC2(CCC(=O)N([C@@H](C)C(=O)NCCCNC(=O)c3ccc(-c4c5nc(c(-c6ccccc6)c6ccc([nH]6)c(-c6ccccc6)c6nc(c(-c7ccccc7)c7ccc4[nH]7)C=C6)C=C5)cc3)C2)CC1
REMARK SMILES IDX 23 1 22 2 21 3 19 4 20 5 17 7 18 8 16 9 8 10 9 11 78 12
REMARK SMILES IDX 10 13 77 14 11 15 12 16 76 17 13 18 14 19 15 20 7 21 1 22
REMARK SMILES IDX 2 23 3 24 4 25 6 26 5 27 24 28 25 29 26 30 27 32 28 33 29 34
REMARK SMILES IDX 75 35 30 36 74 37 31 38 32 39 33 40 68 41 34 42 73 43 67 44
REMARK SMILES IDX 69 45 35 46 72 47 66 48 65 49 36 51 58 52 43 53 57 54 44 55
REMARK SMILES IDX 47 56 56 57 70 58 45 59 46 60 55 62 71 63 48 64 37 65 38 66
REMARK SMILES IDX 42 67 39 68 41 69 40 70 59 71 60 72 64 73 61 74 63 75 62 76
REMARK SMILES IDX 49 77 50 78 54 79 51 80 53 81 52 82
REMARK H PARENT 21 6 25 31 69 50 47 61
REMARK Flexibility Score: inf
ROOT
ATOM      1  C   UNL A   1      38.113  19.197  25.003  1.00  0.00     0.042 C 
ENDROOT
BRANCH   1   2
ATOM      2  C   UNL A   1      36.815  20.002  24.986  1.00  0.00     0.117 C 
BRANCH   2   3
ATOM      3  N   UNL A   1      37.013  21.366  25.452  1.00  0.00    -0.354 N 
ATOM      4  C   UNL A   1      36.309  22.514  25.269  1.00  0.00     0.242 C 
ATOM      5  O   UNL A   1      36.864  23.546  25.676  1.00  0.00    -0.273 OA
ATOM      6  H   UNL A   1      37.817  21.480  26.010  1.00  0.00     0.163 HD
BRANCH   4   7
ATOM      7  C   UNL A   1      34.959  22.628  24.511  1.00  0.00     0.171 C 
ATOM      8  C   UNL A   1      35.009  23.228  23.114  1.00  0.00     0.042 C 
BRANCH   7   9
ATOM      9  N   UNL A   1      33.882  23.096  25.402  1.00  0.00    -0.330 N 
ATOM     10  N   UNL A   1      30.441  26.767  24.156  1.00  0.00    -0.355 N 
ATOM     11  C   UNL A   1      30.374  25.396  23.684  1.00  0.00     0.119 C 
ATOM     12  C   UNL A   1      30.625  26.946  25.585  1.00  0.00     0.119 C 
ATOM     13  C   UNL A   1      31.720  24.743  24.007  1.00  0.00     0.030 C 
ATOM     14  C   UNL A   1      32.007  26.393  25.933  1.00  0.00     0.030 C 
ATOM     15  C   UNL A   1      32.176  24.915  25.487  1.00  0.00    -0.008 C 
ATOM     16  C   UNL A   1      31.390  24.028  26.476  1.00  0.00     0.019 C 
ATOM     17  C   UNL A   1      33.665  24.528  25.576  1.00  0.00     0.127 C 
ATOM     18  C   UNL A   1      31.699  22.554  26.324  1.00  0.00     0.101 C 
ATOM     19  C   UNL A   1      33.177  22.235  26.218  1.00  0.00     0.223 C 
ATOM     20  O   UNL A   1      33.634  21.189  26.676  1.00  0.00    -0.275 OA
BRANCH  10  21
ATOM     21  C   UNL A   1      29.799  27.757  23.438  1.00  0.00     0.150 A 
ATOM     22  C   UNL A   1      32.018  28.687  22.611  1.00  0.00     0.071 C 
ATOM     23  C   UNL A   1      30.520  28.727  22.705  1.00  0.00     0.080 A 
ATOM     24  N   UNL A   1      29.911  29.721  22.001  1.00  0.00    -0.256 NA
ATOM     25  C   UNL A   1      28.565  29.699  22.012  1.00  0.00     0.131 A 
ATOM     26  N   UNL A   1      28.446  27.751  23.408  1.00  0.00    -0.236 NA
ATOM     27  C   UNL A   1      27.851  28.732  22.692  1.00  0.00     0.133 A 
ENDBRANCH  10  21
ENDBRANCH   7   9
ENDBRANCH   4   7
ENDBRANCH   2   3
ENDBRANCH   1   2
BRANCH   1  28
ATOM     28  C   UNL A   1      39.250  19.840  25.780  1.00  0.00     0.118 C 
BRANCH  28  29
ATOM     29  N   UNL A   1      40.388  18.946  25.918  1.00  0.00    -0.352 N 
ATOM     30  C   UNL A   1      41.720  19.226  26.094  1.00  0.00     0.251 C 
ATOM     31  H   UNL A   1      40.168  17.988  25.881  1.00  0.00     0.163 HD
ATOM     32  O   UNL A   1      42.544  18.323  25.939  1.00  0.00    -0.269 OA
BRANCH  30  33
ATOM     33  C   UNL A   1      42.193  20.583  26.459  1.00  0.00     0.039 A 
ATOM     34  C   UNL A   1      42.185  20.956  27.809  1.00  0.00     0.014 A 
ATOM     35  C   UNL A   1      42.568  21.522  25.494  1.00  0.00     0.014 A 
ATOM     36  C   UNL A   1      42.583  22.242  28.188  1.00  0.00     0.010 A 
ATOM     37  C   UNL A   1      43.049  22.774  25.879  1.00  0.00     0.010 A 
ATOM     38  C   UNL A   1      43.043  23.158  27.228  1.00  0.00    -0.014 A 
BRANCH  38  39
ATOM     39  C   UNL A   1      43.483  24.526  27.614  1.00  0.00     0.031 A 
ATOM     40  C   UNL A   1      42.468  25.568  28.007  1.00  0.00     0.074 A 
ATOM     41  C   UNL A   1      44.790  24.849  27.574  1.00  0.00     0.049 A 
ATOM     42  N   UNL A   1      42.654  26.825  28.329  1.00  0.00    -0.248 NA
ATOM     43  C   UNL A   1      41.056  25.153  28.015  1.00  0.00     0.031 C 
ATOM     44  C   UNL A   1      45.875  23.948  27.184  1.00  0.00     0.029 A 
ATOM     45  N   UNL A   1      45.428  26.031  27.864  1.00  0.00    -0.354 N 
ATOM     46  C   UNL A   1      41.387  27.350  28.556  1.00  0.00     0.074 A 
ATOM     47  C   UNL A   1      40.438  26.293  28.286  1.00  0.00     0.031 C 
ATOM     48  C   UNL A   1      47.045  24.598  27.288  1.00  0.00     0.029 A 
ATOM     49  C   UNL A   1      46.792  25.972  27.710  1.00  0.00     0.049 A 
ATOM     50  H   UNL A   1      44.953  26.842  28.154  1.00  0.00     0.167 HD
ATOM     51  C   UNL A   1      41.042  28.593  28.971  1.00  0.00     0.031 A 
ATOM     52  C   UNL A   1      47.735  26.918  27.884  1.00  0.00     0.031 A 
ATOM     53  C   UNL A   1      41.983  29.643  29.258  1.00  0.00     0.049 A 
ATOM     54  C   UNL A   1      47.326  28.294  28.331  1.00  0.00     0.074 A 
ATOM     55  C   UNL A   1      41.734  30.917  29.738  1.00  0.00     0.029 A 
ATOM     56  N   UNL A   1      43.354  29.540  29.089  1.00  0.00    -0.354 N 
ATOM     57  N   UNL A   1      46.128  28.754  28.600  1.00  0.00    -0.248 NA
ATOM     58  C   UNL A   1      48.403  29.279  28.507  1.00  0.00     0.031 C 
ATOM     59  C   UNL A   1      42.950  31.603  29.810  1.00  0.00     0.029 A 
ATOM     60  C   UNL A   1      43.963  30.736  29.431  1.00  0.00     0.049 A 
ATOM     61  H   UNL A   1      43.827  28.736  28.773  1.00  0.00     0.167 HD
ATOM     62  C   UNL A   1      46.311  30.070  29.006  1.00  0.00     0.074 A 
ATOM     63  C   UNL A   1      47.734  30.330  28.961  1.00  0.00     0.031 C 
ATOM     64  C   UNL A   1      45.381  30.981  29.381  1.00  0.00     0.031 A 
BRANCH  51  65
ATOM     65  C   UNL A   1      39.575  28.887  29.134  1.00  0.00    -0.014 A 
ATOM     66  C   UNL A   1      38.919  28.672  30.357  1.00  0.00     0.009 A 
ATOM     67  C   UNL A   1      38.846  29.421  28.060  1.00  0.00     0.009 A 
ATOM     68  C   UNL A   1      37.555  28.945  30.487  1.00  0.00     0.001 A 
ATOM     69  C   UNL A   1      37.491  29.722  28.202  1.00  0.00     0.001 A 
ATOM     70  C   UNL A   1      36.844  29.475  29.411  1.00  0.00     0.000 A 
ENDBRANCH  51  65
BRANCH  52  71
ATOM     71  C   UNL A   1      49.167  26.594  27.648  1.00  0.00    -0.014 A 
ATOM     72  C   UNL A   1      49.707  26.655  26.354  1.00  0.00     0.009 A 
ATOM     73  C   UNL A   1      49.999  26.216  28.713  1.00  0.00     0.009 A 
ATOM     74  C   UNL A   1      51.044  26.318  26.128  1.00  0.00     0.001 A 
ATOM     75  C   UNL A   1      51.342  25.908  28.488  1.00  0.00     0.001 A 
ATOM     76  C   UNL A   1      51.861  25.949  27.195  1.00  0.00     0.000 A 
ENDBRANCH  52  71
BRANCH  64  77
ATOM     77  C   UNL A   1      45.877  32.334  29.809  1.00  0.00    -0.014 A 
ATOM     78  C   UNL A   1      46.228  32.596  31.142  1.00  0.00     0.009 A 
ATOM     79  C   UNL A   1      46.034  33.350  28.852  1.00  0.00     0.009 A 
ATOM     80  C   UNL A   1      46.694  33.858  31.513  1.00  0.00     0.001 A 
ATOM     81  C   UNL A   1      46.528  34.601  29.220  1.00  0.00     0.001 A 
ATOM     82  C   UNL A   1      46.849  34.857  30.553  1.00  0.00     0.000 A 
ENDBRANCH  64  77
ENDBRANCH  38  39
ENDBRANCH  30  33
ENDBRANCH  28  29
ENDBRANCH   1  28
TORSDOF 12
ENDMDL
MODEL 3
REMARK VINA RESULT:     -11.9      3.805      9.092
REMARK SMILES Cc1nccnc1N1CCC2(CCC(=O)N([C@@H](C)C(=O)NCCCNC(=O)c3ccc(-c4c5nc(c(-c6ccccc6)c6ccc([nH]6)c(-c6ccccc6)c6nc(c(-c7ccccc7)c7ccc4[nH]7)C=C6)C=C5)cc3)C2)CC1
REMARK SMILES IDX 23 1 22 2 21 3 19 4 20 5 17 7 18 8 16 9 8 10 9 11 78 12
REMARK SMILES IDX 10 13 77 14 11 15 12 16 76 17 13 18 14 19 15 20 7 21 1 22
REMARK SMILES IDX 2 23 3 24 4 25 6 26 5 27 24 28 25 29 26 30 27 32 28 33 29 34
REMARK SMILES IDX 75 35 30 36 74 37 31 38 32 39 33 40 68 41 34 42 73 43 67 44
REMARK SMILES IDX 69 45 35 46 72 47 66 48 65 49 36 51 58 52 43 53 57 54 44 55
REMARK SMILES IDX 47 56 56 57 70 58 45 59 46 60 55 62 71 63 48 64 37 65 38 66
REMARK SMILES IDX 42 67 39 68 41 69 40 70 59 71 60 72 64 73 61 74 63 75 62 76
REMARK SMILES IDX 49 77 50 78 54 79 51 80 53 81 52 82
REMARK H PARENT 21 6 25 31 69 50 47 61
REMARK Flexibility Score: inf
ROOT
ATOM      1  C   UNL A   1      38.120  19.203  25.035  1.00  0.00     0.042 C 
ENDROOT
BRANCH   1   2
ATOM      2  C   UNL A   1      36.768  19.913  24.989  1.00  0.00     0.117 C 
BRANCH   2   3
ATOM      3  N   UNL A   1      36.841  21.260  25.531  1.00  0.00    -0.354 N 
ATOM      4  C   UNL A   1      36.100  22.380  25.320  1.00  0.00     0.242 C 
ATOM      5  O   UNL A   1      36.551  23.418  25.829  1.00  0.00    -0.273 OA
ATOM      6  H   UNL A   1      37.572  21.386  26.179  1.00  0.00     0.163 HD
BRANCH   4   7
ATOM      7  C   UNL A   1      34.836  22.465  24.423  1.00  0.00     0.171 C 
ATOM      8  C   UNL A   1      34.985  23.202  23.100  1.00  0.00     0.042 C 
BRANCH   7   9
ATOM      9  N   UNL A   1      33.631  22.758  25.221  1.00  0.00    -0.330 N 
ATOM     10  N   UNL A   1      30.196  26.467  24.074  1.00  0.00    -0.355 N 
ATOM     11  C   UNL A   1      30.260  25.182  23.402  1.00  0.00     0.119 C 
ATOM     12  C   UNL A   1      30.187  26.433  25.526  1.00  0.00     0.119 C 
ATOM     13  C   UNL A   1      31.585  24.529  23.803  1.00  0.00     0.030 C 
ATOM     14  C   UNL A   1      31.539  25.876  25.970  1.00  0.00     0.030 C 
ATOM     15  C   UNL A   1      31.838  24.489  25.341  1.00  0.00    -0.008 C 
ATOM     16  C   UNL A   1      30.979  23.438  26.075  1.00  0.00     0.019 C 
ATOM     17  C   UNL A   1      33.321  24.140  25.571  1.00  0.00     0.127 C 
ATOM     18  C   UNL A   1      31.379  22.015  25.752  1.00  0.00     0.101 C 
ATOM     19  C   UNL A   1      32.873  21.762  25.800  1.00  0.00     0.223 C 
ATOM     20  O   UNL A   1      33.320  20.674  26.157  1.00  0.00    -0.275 OA
BRANCH  10  21
ATOM     21  C   UNL A   1      29.601  27.533  23.429  1.00  0.00     0.150 A 
ATOM     22  C   UNL A   1      31.860  28.396  22.636  1.00  0.00     0.071 C 
ATOM     23  C   UNL A   1      30.367  28.510  22.751  1.00  0.00     0.080 A 
ATOM     24  N   UNL A   1      29.806  29.577  22.119  1.00  0.00    -0.256 NA
ATOM     25  C   UNL A   1      28.461  29.626  22.145  1.00  0.00     0.131 A 
ATOM     26  N   UNL A   1      28.249  27.601  23.415  1.00  0.00    -0.236 NA
ATOM     27  C   UNL A   1      27.702  28.656  22.770  1.00  0.00     0.133 A 
ENDBRANCH  10  21
ENDBRANCH   7   9
ENDBRANCH   4   7
ENDBRANCH   2   3
ENDBRANCH   1   2
BRANCH   1  28
ATOM     28  C   UNL A   1      39.218  19.971  25.753  1.00  0.00     0.118 C 
BRANCH  28  29
ATOM     29  N   UNL A   1      40.431  19.184  25.891  1.00  0.00    -0.352 N 
ATOM     30  C   UNL A   1      41.719  19.579  26.156  1.00  0.00     0.251 C 
ATOM     31  H   UNL A   1      40.311  18.215  25.777  1.00  0.00     0.163 HD
ATOM     32  O   UNL A   1      42.636  18.773  25.984  1.00  0.00    -0.269 OA
BRANCH  30  33
ATOM     33  C   UNL A   1      42.037  20.945  26.636  1.00  0.00     0.039 A 
ATOM     34  C   UNL A   1      41.920  21.219  28.004  1.00  0.00     0.014 A 
ATOM     35  C   UNL A   1      42.368  21.981  25.758  1.00  0.00     0.014 A 
ATOM     36  C   UNL A   1      42.169  22.507  28.489  1.00  0.00     0.010 A 
ATOM     37  C   UNL A   1      42.702  23.243  26.252  1.00  0.00     0.010 A 
ATOM     38  C   UNL A   1      42.587  23.528  27.620  1.00  0.00    -0.014 A 
BRANCH  38  39
ATOM     39  C   UNL A   1      42.869  24.900  28.120  1.00  0.00     0.031 A 
ATOM     40  C   UNL A   1      44.276  25.307  28.473  1.00  0.00     0.074 A 
ATOM     41  C   UNL A   1      41.857  25.773  28.300  1.00  0.00     0.049 A 
ATOM     42  N   UNL A   1      44.712  26.440  28.967  1.00  0.00    -0.248 NA
ATOM     43  C   UNL A   1      45.331  24.301  28.268  1.00  0.00     0.031 C 
ATOM     44  C   UNL A   1      40.445  25.502  28.027  1.00  0.00     0.029 A 
ATOM     45  N   UNL A   1      41.865  27.068  28.757  1.00  0.00    -0.354 N 
ATOM     46  C   UNL A   1      46.080  26.273  29.150  1.00  0.00     0.074 A 
ATOM     47  C   UNL A   1      46.395  24.916  28.762  1.00  0.00     0.031 C 
ATOM     48  C   UNL A   1      39.727  26.605  28.293  1.00  0.00     0.029 A 
ATOM     49  C   UNL A   1      40.619  27.646  28.794  1.00  0.00     0.049 A 
ATOM     50  H   UNL A   1      42.685  27.537  29.033  1.00  0.00     0.167 HD
ATOM     51  C   UNL A   1      46.997  27.173  29.580  1.00  0.00     0.031 A 
ATOM     52  C   UNL A   1      40.234  28.874  29.191  1.00  0.00     0.031 A 
ATOM     53  C   UNL A   1      46.692  28.529  29.950  1.00  0.00     0.049 A 
ATOM     54  C   UNL A   1      41.269  29.850  29.680  1.00  0.00     0.074 A 
ATOM     55  C   UNL A   1      47.561  29.532  30.344  1.00  0.00     0.029 A 
ATOM     56  N   UNL A   1      45.418  29.072  29.973  1.00  0.00    -0.354 N 
ATOM     57  N   UNL A   1      42.566  29.694  29.786  1.00  0.00    -0.248 NA
ATOM     58  C   UNL A   1      40.785  31.175  30.093  1.00  0.00     0.031 C 
ATOM     59  C   UNL A   1      46.807  30.667  30.656  1.00  0.00     0.029 A 
ATOM     60  C   UNL A   1      45.473  30.389  30.398  1.00  0.00     0.049 A 
ATOM     61  H   UNL A   1      44.594  28.594  29.723  1.00  0.00     0.167 HD
ATOM     62  C   UNL A   1      43.056  30.909  30.249  1.00  0.00     0.074 A 
ATOM     63  C   UNL A   1      41.919  31.794  30.389  1.00  0.00     0.031 C 
ATOM     64  C   UNL A   1      44.334  31.259  30.534  1.00  0.00     0.031 A 
BRANCH  51  65
ATOM     65  C   UNL A   1      48.426  26.711  29.681  1.00  0.00    -0.014 A 
ATOM     66  C   UNL A   1      49.330  26.898  28.623  1.00  0.00     0.009 A 
ATOM     67  C   UNL A   1      48.884  26.113  30.866  1.00  0.00     0.009 A 
ATOM     68  C   UNL A   1      50.651  26.457  28.733  1.00  0.00     0.001 A 
ATOM     69  C   UNL A   1      50.213  25.701  30.984  1.00  0.00     0.001 A 
ATOM     70  C   UNL A   1      51.092  25.864  29.916  1.00  0.00     0.000 A 
ENDBRANCH  51  65
BRANCH  52  71
ATOM     71  C   UNL A   1      38.800  29.260  29.132  1.00  0.00    -0.014 A 
ATOM     72  C   UNL A   1      37.970  29.095  30.252  1.00  0.00     0.009 A 
ATOM     73  C   UNL A   1      38.250  29.788  27.953  1.00  0.00     0.009 A 
ATOM     74  C   UNL A   1      36.615  29.427  30.184  1.00  0.00     0.001 A 
ATOM     75  C   UNL A   1      36.902  30.146  27.898  1.00  0.00     0.001 A 
ATOM     76  C   UNL A   1      36.083  29.956  29.010  1.00  0.00     0.000 A 
ENDBRANCH  52  71
BRANCH  64  77
ATOM     77  C   UNL A   1      44.576  32.670  30.990  1.00  0.00    -0.014 A 
ATOM     78  C   UNL A   1      44.599  33.004  32.353  1.00  0.00     0.009 A 
ATOM     79  C   UNL A   1      44.826  33.673  30.040  1.00  0.00     0.009 A 
ATOM     80  C   UNL A   1      44.833  34.320  32.753  1.00  0.00     0.001 A 
ATOM     81  C   UNL A   1      45.090  34.982  30.444  1.00  0.00     0.001 A 
ATOM     82  C   UNL A   1      45.084  35.307  31.799  1.00  0.00     0.000 A 
ENDBRANCH  64  77
ENDBRANCH  38  39
ENDBRANCH  30  33
ENDBRANCH  28  29
ENDBRANCH   1  28
TORSDOF 12
ENDMDL
