MODEL 1
REMARK VINA RESULT:      -9.7      0.000      0.000
REMARK SMILES CN(Cc1cccs1)C(=O)NCCOCC(=O)NCCCNC(=O)c1ccc(-c2c3nc(c(-c4ccccc4)c4ccc([nH]4)c(-c4ccccc4)c4nc(c(-c5ccccc5)c5ccc2[nH]5)C=C4)C=C3)cc1
REMARK SMILES IDX 16 1 17 2 18 3 15 5 14 6 13 7 12 8 11 9 9 10 10 11 2 13 1 14
REMARK SMILES IDX 3 15 4 16 5 17 8 18 6 19 7 20 19 21 20 22 21 23 22 24 23 25
REMARK SMILES IDX 24 27 25 28 26 29 72 30 27 31 71 32 28 33 29 34 30 35 65 36
REMARK SMILES IDX 31 37 70 38 64 39 66 40 32 41 69 42 63 43 62 44 33 46 55 47
REMARK SMILES IDX 40 48 54 49 41 50 44 51 53 52 67 53 42 54 43 55 52 57 68 58
REMARK SMILES IDX 45 59 34 60 35 61 39 62 36 63 38 64 37 65 56 66 57 67 61 68
REMARK SMILES IDX 58 69 60 70 59 71 46 72 47 73 51 74 48 75 50 76 49 77
REMARK H PARENT 18 4 11 12 22 26 66 45 44 56
REMARK Flexibility Score: inf
ROOT
ATOM      1  C   UNL A   1      33.800  20.190  24.851  1.00  0.00     0.245 C 
ATOM      2  O   UNL A   1      32.951  19.301  24.784  1.00  0.00    -0.272 OA
ATOM      3  N   UNL A   1      35.108  19.831  25.002  1.00  0.00    -0.354 N 
ATOM      4  H   UNL A   1      35.277  18.869  25.127  1.00  0.00     0.163 HD
ENDROOT
BRANCH   1   5
ATOM      5  C   UNL A   1      33.432  21.676  24.746  1.00  0.00     0.260 C 
BRANCH   5   6
ATOM      6  O   UNL A   1      32.068  22.010  24.545  1.00  0.00    -0.370 OA
BRANCH   6   7
ATOM      7  C   UNL A   1      31.828  22.954  23.497  1.00  0.00     0.182 C 
BRANCH   7   8
ATOM      8  C   UNL A   1      33.060  23.782  23.111  1.00  0.00     0.146 C 
BRANCH   8   9
ATOM      9  N   UNL A   1      32.997  24.335  21.769  1.00  0.00    -0.336 N 
ATOM     10  C   UNL A   1      32.763  25.509  21.171  1.00  0.00     0.317 C 
ATOM     11  O   UNL A   1      32.832  25.467  19.935  1.00  0.00    -0.249 OA
ATOM     12  H   UNL A   1      33.181  23.636  21.100  1.00  0.00     0.165 HD
BRANCH  10  13
ATOM     13  N   UNL A   1      32.499  26.679  21.819  1.00  0.00    -0.323 N 
ATOM     14  C   UNL A   1      33.670  27.518  22.060  1.00  0.00     0.149 C 
BRANCH  13  15
ATOM     15  C   UNL A   1      31.237  27.194  22.335  1.00  0.00     0.167 C 
BRANCH  15  16
ATOM     16  C   UNL A   1      30.915  26.710  23.722  1.00  0.00     0.024 A 
ATOM     17  C   UNL A   1      29.788  26.017  24.129  1.00  0.00     0.017 A 
ATOM     18  S   UNL A   1      32.017  26.896  25.026  1.00  0.00    -0.147 S 
ATOM     19  C   UNL A   1      29.785  25.737  25.525  1.00  0.00     0.012 A 
ATOM     20  C   UNL A   1      30.943  26.161  26.133  1.00  0.00     0.065 A 
ENDBRANCH  15  16
ENDBRANCH  13  15
ENDBRANCH  10  13
ENDBRANCH   8   9
ENDBRANCH   7   8
ENDBRANCH   6   7
ENDBRANCH   5   6
ENDBRANCH   1   5
BRANCH   3  21
ATOM     21  C   UNL A   1      36.280  20.685  25.004  1.00  0.00     0.117 C 
BRANCH  21  22
ATOM     22  C   UNL A   1      37.573  19.897  24.831  1.00  0.00     0.042 C 
BRANCH  22  23
ATOM     23  C   UNL A   1      38.748  20.405  25.664  1.00  0.00     0.118 C 
BRANCH  23  24
ATOM     24  N   UNL A   1      39.844  19.451  25.749  1.00  0.00    -0.352 N 
ATOM     25  C   UNL A   1      41.161  19.627  26.096  1.00  0.00     0.251 C 
ATOM     26  H   UNL A   1      39.600  18.525  25.519  1.00  0.00     0.163 HD
ATOM     27  O   UNL A   1      41.955  18.705  25.936  1.00  0.00    -0.269 OA
BRANCH  25  28
ATOM     28  C   UNL A   1      41.640  20.918  26.637  1.00  0.00     0.039 A 
ATOM     29  C   UNL A   1      42.125  21.878  25.744  1.00  0.00     0.014 A 
ATOM     30  C   UNL A   1      41.655  21.178  28.010  1.00  0.00     0.014 A 
ATOM     31  C   UNL A   1      42.558  23.118  26.220  1.00  0.00     0.010 A 
ATOM     32  C   UNL A   1      42.014  22.442  28.477  1.00  0.00     0.010 A 
ATOM     33  C   UNL A   1      42.469  23.426  27.587  1.00  0.00    -0.014 A 
BRANCH  33  34
ATOM     34  C   UNL A   1      42.839  24.774  28.095  1.00  0.00     0.031 A 
ATOM     35  C   UNL A   1      41.787  25.832  28.295  1.00  0.00     0.074 A 
ATOM     36  C   UNL A   1      44.134  25.061  28.338  1.00  0.00     0.049 A 
ATOM     37  N   UNL A   1      41.931  27.075  28.682  1.00  0.00    -0.248 NA
ATOM     38  C   UNL A   1      40.395  25.451  28.006  1.00  0.00     0.031 C 
ATOM     39  C   UNL A   1      45.257  24.137  28.154  1.00  0.00     0.029 A 
ATOM     40  N   UNL A   1      44.726  26.214  28.787  1.00  0.00    -0.354 N 
ATOM     41  C   UNL A   1      40.653  27.621  28.684  1.00  0.00     0.074 A 
ATOM     42  C   UNL A   1      39.754  26.594  28.203  1.00  0.00     0.031 C 
ATOM     43  C   UNL A   1      46.395  24.752  28.513  1.00  0.00     0.029 A 
ATOM     44  C   UNL A   1      46.092  26.123  28.908  1.00  0.00     0.049 A 
ATOM     45  H   UNL A   1      44.219  27.030  29.005  1.00  0.00     0.167 HD
ATOM     46  C   UNL A   1      40.257  28.857  29.075  1.00  0.00     0.031 A 
ATOM     47  C   UNL A   1      47.002  27.043  29.284  1.00  0.00     0.031 A 
ATOM     48  C   UNL A   1      41.147  29.881  29.552  1.00  0.00     0.049 A 
ATOM     49  C   UNL A   1      46.537  28.419  29.674  1.00  0.00     0.074 A 
ATOM     50  C   UNL A   1      40.835  31.157  29.990  1.00  0.00     0.029 A 
ATOM     51  N   UNL A   1      42.522  29.747  29.658  1.00  0.00    -0.354 N 
ATOM     52  N   UNL A   1      45.318  28.900  29.718  1.00  0.00    -0.248 NA
ATOM     53  C   UNL A   1      47.576  29.377  30.079  1.00  0.00     0.031 C 
ATOM     54  C   UNL A   1      42.027  31.811  30.318  1.00  0.00     0.029 A 
ATOM     55  C   UNL A   1      43.074  30.922  30.141  1.00  0.00     0.049 A 
ATOM     56  H   UNL A   1      43.031  28.937  29.427  1.00  0.00     0.167 HD
ATOM     57  C   UNL A   1      45.442  30.201  30.187  1.00  0.00     0.074 A 
ATOM     58  C   UNL A   1      46.849  30.427  30.433  1.00  0.00     0.031 C 
ATOM     59  C   UNL A   1      44.475  31.129  30.391  1.00  0.00     0.031 A 
BRANCH  46  60
ATOM     60  C   UNL A   1      38.787  29.166  29.015  1.00  0.00    -0.014 A 
ATOM     61  C   UNL A   1      37.966  28.984  30.139  1.00  0.00     0.009 A 
ATOM     62  C   UNL A   1      38.227  29.706  27.846  1.00  0.00     0.009 A 
ATOM     63  C   UNL A   1      36.610  29.311  30.087  1.00  0.00     0.001 A 
ATOM     64  C   UNL A   1      36.877  30.059  27.806  1.00  0.00     0.001 A 
ATOM     65  C   UNL A   1      36.068  29.855  28.924  1.00  0.00     0.000 A 
ENDBRANCH  46  60
BRANCH  47  66
ATOM     66  C   UNL A   1      48.451  26.706  29.307  1.00  0.00    -0.014 A 
ATOM     67  C   UNL A   1      49.285  27.054  28.233  1.00  0.00     0.009 A 
ATOM     68  C   UNL A   1      48.998  25.989  30.383  1.00  0.00     0.009 A 
ATOM     69  C   UNL A   1      50.623  26.651  28.214  1.00  0.00     0.001 A 
ATOM     70  C   UNL A   1      50.344  25.618  30.379  1.00  0.00     0.001 A 
ATOM     71  C   UNL A   1      51.151  25.935  29.288  1.00  0.00     0.000 A 
ENDBRANCH  47  66
BRANCH  59  72
ATOM     72  C   UNL A   1      44.906  32.456  30.953  1.00  0.00    -0.014 A 
ATOM     73  C   UNL A   1      45.248  33.530  30.116  1.00  0.00     0.009 A 
ATOM     74  C   UNL A   1      44.940  32.641  32.344  1.00  0.00     0.009 A 
ATOM     75  C   UNL A   1      45.656  34.748  30.662  1.00  0.00     0.001 A 
ATOM     76  C   UNL A   1      45.317  33.870  32.887  1.00  0.00     0.001 A 
ATOM     77  C   UNL A   1      45.686  34.918  32.045  1.00  0.00     0.000 A 
ENDBRANCH  59  72
ENDBRANCH  33  34
ENDBRANCH  25  28
ENDBRANCH  23  24
ENDBRANCH  22  23
ENDBRANCH  21  22
ENDBRANCH   3  21
TORSDOF 17
ENDMDL
MODEL 2
REMARK VINA RESULT:      -9.7      0.347      6.079
REMARK SMILES CN(Cc1cccs1)C(=O)NCCOCC(=O)NCCCNC(=O)c1ccc(-c2c3nc(c(-c4ccccc4)c4ccc([nH]4)c(-c4ccccc4)c4nc(c(-c5ccccc5)c5ccc2[nH]5)C=C4)C=C3)cc1
REMARK SMILES IDX 16 1 17 2 18 3 15 5 14 6 13 7 12 8 11 9 9 10 10 11 2 13 1 14
REMARK SMILES IDX 3 15 4 16 5 17 8 18 6 19 7 20 19 21 20 22 21 23 22 24 23 25
REMARK SMILES IDX 24 27 25 28 26 29 72 30 27 31 71 32 28 33 29 34 30 35 65 36
REMARK SMILES IDX 31 37 70 38 64 39 66 40 32 41 69 42 63 43 62 44 33 46 55 47
REMARK SMILES IDX 40 48 54 49 41 50 44 51 53 52 67 53 42 54 43 55 52 57 68 58
REMARK SMILES IDX 45 59 34 60 35 61 39 62 36 63 38 64 37 65 56 66 57 67 61 68
REMARK SMILES IDX 58 69 60 70 59 71 46 72 47 73 51 74 48 75 50 76 49 77
REMARK H PARENT 18 4 11 12 22 26 66 45 44 56
REMARK Flexibility Score: inf
ROOT
ATOM      1  C   UNL A   1      33.780  20.113  24.873  1.00  0.00     0.245 C 
ATOM      2  O   UNL A   1      32.910  19.242  24.856  1.00  0.00    -0.272 OA
ATOM      3  N   UNL A   1      35.082  19.732  25.020  1.00  0.00    -0.354 N 
ATOM      4  H   UNL A   1      35.232  18.772  25.182  1.00  0.00     0.163 HD
ENDROOT
BRANCH   1   5
ATOM      5  C   UNL A   1      33.443  21.602  24.711  1.00  0.00     0.260 C 
BRANCH   5   6
ATOM      6  O   UNL A   1      32.085  21.958  24.506  1.00  0.00    -0.370 OA
BRANCH   6   7
ATOM      7  C   UNL A   1      31.865  22.921  23.471  1.00  0.00     0.182 C 
BRANCH   7   8
ATOM      8  C   UNL A   1      33.110  23.742  23.111  1.00  0.00     0.146 C 
BRANCH   8   9
ATOM      9  N   UNL A   1      33.063  24.320  21.779  1.00  0.00    -0.336 N 
ATOM     10  C   UNL A   1      32.823  25.503  21.200  1.00  0.00     0.317 C 
ATOM     11  O   UNL A   1      32.915  25.486  19.965  1.00  0.00    -0.249 OA
ATOM     12  H   UNL A   1      33.270  23.638  21.100  1.00  0.00     0.165 HD
BRANCH  10  13
ATOM     13  N   UNL A   1      32.530  26.656  21.866  1.00  0.00    -0.323 N 
ATOM     14  C   UNL A   1      33.680  27.518  22.124  1.00  0.00     0.149 C 
BRANCH  13  15
ATOM     15  C   UNL A   1      31.254  27.132  22.386  1.00  0.00     0.167 C 
BRANCH  15  16
ATOM     16  C   UNL A   1      30.970  26.670  23.789  1.00  0.00     0.024 A 
ATOM     17  C   UNL A   1      29.820  26.054  24.252  1.00  0.00     0.017 A 
ATOM     18  S   UNL A   1      32.144  26.783  25.036  1.00  0.00    -0.147 S 
ATOM     19  C   UNL A   1      29.867  25.774  25.647  1.00  0.00     0.012 A 
ATOM     20  C   UNL A   1      31.078  26.121  26.197  1.00  0.00     0.065 A 
ENDBRANCH  15  16
ENDBRANCH  13  15
ENDBRANCH  10  13
ENDBRANCH   8   9
ENDBRANCH   7   8
ENDBRANCH   6   7
ENDBRANCH   5   6
ENDBRANCH   1   5
BRANCH   3  21
ATOM     21  C   UNL A   1      36.272  20.557  24.969  1.00  0.00     0.117 C 
BRANCH  21  22
ATOM     22  C   UNL A   1      37.550  19.730  24.884  1.00  0.00     0.042 C 
BRANCH  22  23
ATOM     23  C   UNL A   1      38.739  20.310  25.647  1.00  0.00     0.118 C 
BRANCH  23  24
ATOM     24  N   UNL A   1      39.878  19.405  25.706  1.00  0.00    -0.352 N 
ATOM     25  C   UNL A   1      41.188  19.635  26.045  1.00  0.00     0.251 C 
ATOM     26  H   UNL A   1      39.674  18.474  25.461  1.00  0.00     0.163 HD
ATOM     27  O   UNL A   1      42.022  18.754  25.862  1.00  0.00    -0.269 OA
BRANCH  25  28
ATOM     28  C   UNL A   1      41.613  20.937  26.606  1.00  0.00     0.039 A 
ATOM     29  C   UNL A   1      42.065  21.927  25.728  1.00  0.00     0.014 A 
ATOM     30  C   UNL A   1      41.611  21.179  27.982  1.00  0.00     0.014 A 
ATOM     31  C   UNL A   1      42.447  23.177  26.223  1.00  0.00     0.010 A 
ATOM     32  C   UNL A   1      41.917  22.449  28.467  1.00  0.00     0.010 A 
ATOM     33  C   UNL A   1      42.338  23.463  27.594  1.00  0.00    -0.014 A 
BRANCH  33  34
ATOM     34  C   UNL A   1      42.652  24.817  28.121  1.00  0.00     0.031 A 
ATOM     35  C   UNL A   1      44.053  25.167  28.545  1.00  0.00     0.074 A 
ATOM     36  C   UNL A   1      41.663  25.724  28.257  1.00  0.00     0.049 A 
ATOM     37  N   UNL A   1      44.502  26.279  29.071  1.00  0.00    -0.248 NA
ATOM     38  C   UNL A   1      45.082  24.128  28.371  1.00  0.00     0.031 C 
ATOM     39  C   UNL A   1      40.256  25.503  27.915  1.00  0.00     0.029 A 
ATOM     40  N   UNL A   1      41.691  27.013  28.725  1.00  0.00    -0.354 N 
ATOM     41  C   UNL A   1      45.859  26.073  29.291  1.00  0.00     0.074 A 
ATOM     42  C   UNL A   1      46.149  24.712  28.896  1.00  0.00     0.031 C 
ATOM     43  C   UNL A   1      39.562  26.626  28.160  1.00  0.00     0.029 A 
ATOM     44  C   UNL A   1      40.462  27.630  28.717  1.00  0.00     0.049 A 
ATOM     45  H   UNL A   1      42.513  27.456  29.037  1.00  0.00     0.167 HD
ATOM     46  C   UNL A   1      46.787  26.946  29.754  1.00  0.00     0.031 A 
ATOM     47  C   UNL A   1      40.097  28.862  29.123  1.00  0.00     0.031 A 
ATOM     48  C   UNL A   1      46.503  28.300  30.149  1.00  0.00     0.049 A 
ATOM     49  C   UNL A   1      41.142  29.795  29.671  1.00  0.00     0.074 A 
ATOM     50  C   UNL A   1      47.383  29.264  30.611  1.00  0.00     0.029 A 
ATOM     51  N   UNL A   1      45.247  28.883  30.124  1.00  0.00    -0.354 N 
ATOM     52  N   UNL A   1      42.430  29.598  29.821  1.00  0.00    -0.248 NA
ATOM     53  C   UNL A   1      40.684  31.126  30.092  1.00  0.00     0.031 C 
ATOM     54  C   UNL A   1      46.650  30.417  30.910  1.00  0.00     0.029 A 
ATOM     55  C   UNL A   1      45.326  30.190  30.577  1.00  0.00     0.049 A 
ATOM     56  H   UNL A   1      44.421  28.436  29.828  1.00  0.00     0.167 HD
ATOM     57  C   UNL A   1      42.937  30.790  30.322  1.00  0.00     0.074 A 
ATOM     58  C   UNL A   1      41.825  31.709  30.428  1.00  0.00     0.031 C 
ATOM     59  C   UNL A   1      44.211  31.096  30.668  1.00  0.00     0.031 A 
BRANCH  46  60
ATOM     60  C   UNL A   1      48.208  26.464  29.847  1.00  0.00    -0.014 A 
ATOM     61  C   UNL A   1      49.113  26.681  28.795  1.00  0.00     0.009 A 
ATOM     62  C   UNL A   1      48.667  25.843  31.019  1.00  0.00     0.009 A 
ATOM     63  C   UNL A   1      50.441  26.265  28.905  1.00  0.00     0.001 A 
ATOM     64  C   UNL A   1      50.003  25.454  31.138  1.00  0.00     0.001 A 
ATOM     65  C   UNL A   1      50.887  25.659  30.078  1.00  0.00     0.000 A 
ENDBRANCH  46  60
BRANCH  47  66
ATOM     66  C   UNL A   1      38.676  29.294  29.038  1.00  0.00    -0.014 A 
ATOM     67  C   UNL A   1      37.816  29.149  30.137  1.00  0.00     0.009 A 
ATOM     68  C   UNL A   1      38.159  29.810  27.839  1.00  0.00     0.009 A 
ATOM     69  C   UNL A   1      36.459  29.465  30.024  1.00  0.00     0.001 A 
ATOM     70  C   UNL A   1      36.811  30.159  27.738  1.00  0.00     0.001 A 
ATOM     71  C   UNL A   1      35.959  29.971  28.824  1.00  0.00     0.000 A 
ENDBRANCH  47  66
BRANCH  59  72
ATOM     72  C   UNL A   1      44.476  32.496  31.147  1.00  0.00    -0.014 A 
ATOM     73  C   UNL A   1      44.421  32.827  32.510  1.00  0.00     0.009 A 
ATOM     74  C   UNL A   1      44.815  33.494  30.218  1.00  0.00     0.009 A 
ATOM     75  C   UNL A   1      44.659  34.138  32.928  1.00  0.00     0.001 A 
ATOM     76  C   UNL A   1      45.083  34.795  30.643  1.00  0.00     0.001 A 
ATOM     77  C   UNL A   1      44.993  35.119  31.995  1.00  0.00     0.000 A 
ENDBRANCH  59  72
ENDBRANCH  33  34
ENDBRANCH  25  28
ENDBRANCH  23  24
ENDBRANCH  22  23
ENDBRANCH  21  22
ENDBRANCH   3  21
TORSDOF 17
ENDMDL
MODEL 3
REMARK VINA RESULT:      -9.6      1.597      6.324
REMARK SMILES CN(Cc1cccs1)C(=O)NCCOCC(=O)NCCCNC(=O)c1ccc(-c2c3nc(c(-c4ccccc4)c4ccc([nH]4)c(-c4ccccc4)c4nc(c(-c5ccccc5)c5ccc2[nH]5)C=C4)C=C3)cc1
REMARK SMILES IDX 16 1 17 2 18 3 15 5 14 6 13 7 12 8 11 9 9 10 10 11 2 13 1 14
REMARK SMILES IDX 3 15 4 16 5 17 8 18 6 19 7 20 19 21 20 22 21 23 22 24 23 25
REMARK SMILES IDX 24 27 25 28 26 29 72 30 27 31 71 32 28 33 29 34 30 35 65 36
REMARK SMILES IDX 31 37 70 38 64 39 66 40 32 41 69 42 63 43 62 44 33 46 55 47
REMARK SMILES IDX 40 48 54 49 41 50 44 51 53 52 67 53 42 54 43 55 52 57 68 58
REMARK SMILES IDX 45 59 34 60 35 61 39 62 36 63 38 64 37 65 56 66 57 67 61 68
REMARK SMILES IDX 58 69 60 70 59 71 46 72 47 73 51 74 48 75 50 76 49 77
REMARK H PARENT 18 4 11 12 22 26 66 45 44 56
REMARK Flexibility Score: inf
ROOT
ATOM      1  C   UNL A   1      35.998  22.536  25.902  1.00  0.00     0.245 C 
ATOM      2  O   UNL A   1      36.396  23.690  26.062  1.00  0.00    -0.272 OA
ATOM      3  N   UNL A   1      36.793  21.662  25.219  1.00  0.00    -0.354 N 
ATOM      4  H   UNL A   1      37.613  22.043  24.828  1.00  0.00     0.163 HD
ENDROOT
BRANCH   1   5
ATOM      5  C   UNL A   1      34.654  22.054  26.463  1.00  0.00     0.260 C 
BRANCH   5   6
ATOM      6  O   UNL A   1      33.591  21.835  25.548  1.00  0.00    -0.370 OA
BRANCH   6   7
ATOM      7  C   UNL A   1      32.313  22.303  25.988  1.00  0.00     0.182 C 
BRANCH   7   8
ATOM      8  C   UNL A   1      32.386  23.447  27.007  1.00  0.00     0.146 C 
BRANCH   8   9
ATOM      9  N   UNL A   1      31.313  24.417  26.876  1.00  0.00    -0.336 N 
ATOM     10  C   UNL A   1      30.885  25.337  26.003  1.00  0.00     0.317 C 
ATOM     11  O   UNL A   1      29.864  25.937  26.365  1.00  0.00    -0.249 OA
ATOM     12  H   UNL A   1      30.724  24.388  27.665  1.00  0.00     0.165 HD
BRANCH  10  13
ATOM     13  N   UNL A   1      31.468  25.606  24.800  1.00  0.00    -0.323 N 
ATOM     14  C   UNL A   1      30.864  24.915  23.665  1.00  0.00     0.149 C 
BRANCH  13  15
ATOM     15  C   UNL A   1      32.618  26.446  24.490  1.00  0.00     0.167 C 
BRANCH  15  16
ATOM     16  C   UNL A   1      32.542  27.816  25.104  1.00  0.00     0.024 A 
ATOM     17  C   UNL A   1      31.534  28.752  24.946  1.00  0.00     0.017 A 
ATOM     18  S   UNL A   1      33.728  28.382  26.209  1.00  0.00    -0.147 S 
ATOM     19  C   UNL A   1      31.790  29.965  25.646  1.00  0.00     0.012 A 
ATOM     20  C   UNL A   1      32.954  29.897  26.376  1.00  0.00     0.065 A 
ENDBRANCH  15  16
ENDBRANCH  13  15
ENDBRANCH  10  13
ENDBRANCH   8   9
ENDBRANCH   7   8
ENDBRANCH   6   7
ENDBRANCH   5   6
ENDBRANCH   1   5
BRANCH   3  21
ATOM     21  C   UNL A   1      36.586  20.245  24.994  1.00  0.00     0.117 C 
BRANCH  21  22
ATOM     22  C   UNL A   1      37.896  19.469  24.927  1.00  0.00     0.042 C 
BRANCH  22  23
ATOM     23  C   UNL A   1      39.034  20.063  25.754  1.00  0.00     0.118 C 
BRANCH  23  24
ATOM     24  N   UNL A   1      40.205  19.200  25.819  1.00  0.00    -0.352 N 
ATOM     25  C   UNL A   1      41.515  19.488  26.109  1.00  0.00     0.251 C 
ATOM     26  H   UNL A   1      40.026  18.252  25.621  1.00  0.00     0.163 HD
ATOM     27  O   UNL A   1      42.374  18.628  25.941  1.00  0.00    -0.269 OA
BRANCH  25  28
ATOM     28  C   UNL A   1      41.911  20.827  26.600  1.00  0.00     0.039 A 
ATOM     29  C   UNL A   1      42.331  21.782  25.669  1.00  0.00     0.014 A 
ATOM     30  C   UNL A   1      41.911  21.138  27.962  1.00  0.00     0.014 A 
ATOM     31  C   UNL A   1      42.683  23.065  26.097  1.00  0.00     0.010 A 
ATOM     32  C   UNL A   1      42.187  22.440  28.380  1.00  0.00     0.010 A 
ATOM     33  C   UNL A   1      42.576  23.417  27.452  1.00  0.00    -0.014 A 
BRANCH  33  34
ATOM     34  C   UNL A   1      42.859  24.804  27.907  1.00  0.00     0.031 A 
ATOM     35  C   UNL A   1      44.270  25.241  28.198  1.00  0.00     0.074 A 
ATOM     36  C   UNL A   1      41.837  25.663  28.100  1.00  0.00     0.049 A 
ATOM     37  N   UNL A   1      44.700  26.393  28.649  1.00  0.00    -0.248 NA
ATOM     38  C   UNL A   1      45.335  24.252  27.969  1.00  0.00     0.031 C 
ATOM     39  C   UNL A   1      40.420  25.357  27.888  1.00  0.00     0.029 A 
ATOM     40  N   UNL A   1      41.833  26.968  28.523  1.00  0.00    -0.354 N 
ATOM     41  C   UNL A   1      46.080  26.267  28.757  1.00  0.00     0.074 A 
ATOM     42  C   UNL A   1      46.410  24.909  28.381  1.00  0.00     0.031 C 
ATOM     43  C   UNL A   1      39.689  26.451  28.156  1.00  0.00     0.029 A 
ATOM     44  C   UNL A   1      40.576  27.520  28.602  1.00  0.00     0.049 A 
ATOM     45  H   UNL A   1      42.654  27.464  28.748  1.00  0.00     0.167 HD
ATOM     46  C   UNL A   1      46.994  27.202  29.110  1.00  0.00     0.031 A 
ATOM     47  C   UNL A   1      40.180  28.745  28.998  1.00  0.00     0.031 A 
ATOM     48  C   UNL A   1      46.671  28.553  29.485  1.00  0.00     0.049 A 
ATOM     49  C   UNL A   1      41.215  29.749  29.424  1.00  0.00     0.074 A 
ATOM     50  C   UNL A   1      47.532  29.578  29.839  1.00  0.00     0.029 A 
ATOM     51  N   UNL A   1      45.387  29.069  29.551  1.00  0.00    -0.354 N 
ATOM     52  N   UNL A   1      42.520  29.626  29.469  1.00  0.00    -0.248 NA
ATOM     53  C   UNL A   1      40.722  31.070  29.842  1.00  0.00     0.031 C 
ATOM     54  C   UNL A   1      46.766  30.701  30.164  1.00  0.00     0.029 A 
ATOM     55  C   UNL A   1      45.432  30.394  29.954  1.00  0.00     0.049 A 
ATOM     56  H   UNL A   1      44.565  28.570  29.341  1.00  0.00     0.167 HD
ATOM     57  C   UNL A   1      43.002  30.860  29.887  1.00  0.00     0.074 A 
ATOM     58  C   UNL A   1      41.853  31.723  30.060  1.00  0.00     0.031 C 
ATOM     59  C   UNL A   1      44.282  31.243  30.112  1.00  0.00     0.031 A 
BRANCH  46  60
ATOM     60  C   UNL A   1      48.442  26.798  29.095  1.00  0.00    -0.014 A 
ATOM     61  C   UNL A   1      49.031  26.186  30.213  1.00  0.00     0.009 A 
ATOM     62  C   UNL A   1      49.211  26.972  27.933  1.00  0.00     0.009 A 
ATOM     63  C   UNL A   1      50.366  25.779  30.178  1.00  0.00     0.001 A 
ATOM     64  C   UNL A   1      50.538  26.537  27.891  1.00  0.00     0.001 A 
ATOM     65  C   UNL A   1      51.116  25.948  29.015  1.00  0.00     0.000 A 
ENDBRANCH  46  60
BRANCH  47  66
ATOM     66  C   UNL A   1      38.735  29.099  29.023  1.00  0.00    -0.014 A 
ATOM     67  C   UNL A   1      38.111  29.644  27.891  1.00  0.00     0.009 A 
ATOM     68  C   UNL A   1      37.984  28.940  30.199  1.00  0.00     0.009 A 
ATOM     69  C   UNL A   1      36.780  30.066  27.948  1.00  0.00     0.001 A 
ATOM     70  C   UNL A   1      36.644  29.329  30.243  1.00  0.00     0.001 A 
ATOM     71  C   UNL A   1      36.047  29.906  29.124  1.00  0.00     0.000 A 
ENDBRANCH  47  66
BRANCH  59  72
ATOM     72  C   UNL A   1      44.508  32.672  30.522  1.00  0.00    -0.014 A 
ATOM     73  C   UNL A   1      44.717  33.683  29.571  1.00  0.00     0.009 A 
ATOM     74  C   UNL A   1      44.483  33.014  31.884  1.00  0.00     0.009 A 
ATOM     75  C   UNL A   1      44.938  35.001  29.978  1.00  0.00     0.001 A 
ATOM     76  C   UNL A   1      44.672  34.336  32.286  1.00  0.00     0.001 A 
ATOM     77  C   UNL A   1      44.911  35.326  31.334  1.00  0.00     0.000 A 
ENDBRANCH  59  72
ENDBRANCH  33  34
ENDBRANCH  25  28
ENDBRANCH  23  24
ENDBRANCH  22  23
ENDBRANCH  21  22
ENDBRANCH   3  21
TORSDOF 17
ENDMDL
