MODEL 1
REMARK VINA RESULT:     -11.0      0.000      0.000
REMARK SMILES CC[C@@H](C(=O)NC[C@@H]1CC[C@H](C(=O)NCCCNC(=O)c2ccc(-c3c4nc(c(-c5ccccc5)c5ccc([nH]5)c(-c5ccccc5)c5nc(c(-c6ccccc6)c6ccc3[nH]6)C=C5)C=C4)cc2)O1)c1ccccc1
REMARK SMILES IDX 15 1 14 2 12 3 13 4 11 6 8 7 9 8 69 9 10 10 7 11 6 12 4 13
REMARK SMILES IDX 5 14 3 16 2 17 1 18 70 19 71 20 75 21 72 22 74 23 73 24
REMARK SMILES IDX 16 25 17 26 18 27 19 28 20 30 21 31 22 32 68 33 23 34 67 35
REMARK SMILES IDX 24 36 25 37 26 38 61 39 27 40 66 41 60 42 62 43 28 44 65 45
REMARK SMILES IDX 59 46 58 47 29 49 51 50 36 51 50 52 37 53 40 54 49 55 63 56
REMARK SMILES IDX 38 57 39 58 48 60 64 61 41 62 30 63 31 64 35 65 32 66 34 67
REMARK SMILES IDX 33 68 52 69 53 70 57 71 54 72 56 73 55 74 42 75 43 76 47 77
REMARK SMILES IDX 44 78 46 79 45 80
REMARK H PARENT 14 5 6 15 18 29 62 48 40 59
REMARK Flexibility Score: inf
ROOT
ATOM      1  C   UNL A   1      32.252  30.250  27.023  1.00  0.00     0.117 C 
ENDROOT
BRANCH   1   2
ATOM      2  N   UNL A   1      32.994  29.936  25.826  1.00  0.00    -0.354 N 
ATOM      3  C   UNL A   1      32.610  29.158  24.771  1.00  0.00     0.249 C 
ATOM      4  O   UNL A   1      33.357  29.119  23.789  1.00  0.00    -0.272 OA
ATOM      5  H   UNL A   1      33.892  30.334  25.762  1.00  0.00     0.163 HD
BRANCH   3   6
ATOM      6  C   UNL A   1      31.318  28.304  24.819  1.00  0.00     0.207 C 
ATOM      7  C   UNL A   1      30.437  26.323  23.952  1.00  0.00     0.138 C 
ATOM      8  C   UNL A   1      29.984  27.428  23.010  1.00  0.00     0.037 C 
ATOM      9  O   UNL A   1      31.507  26.890  24.718  1.00  0.00    -0.363 OA
ATOM     10  C   UNL A   1      30.289  28.704  23.771  1.00  0.00     0.045 C 
BRANCH   7  11
ATOM     11  C   UNL A   1      30.849  24.982  23.288  1.00  0.00     0.147 C 
BRANCH  11  12
ATOM     12  N   UNL A   1      31.740  25.109  22.143  1.00  0.00    -0.353 N 
ATOM     13  C   UNL A   1      32.862  24.481  21.702  1.00  0.00     0.227 C 
ATOM     14  O   UNL A   1      33.298  25.009  20.671  1.00  0.00    -0.274 OA
ATOM     15  H   UNL A   1      31.458  25.831  21.536  1.00  0.00     0.163 HD
BRANCH  13  16
ATOM     16  C   UNL A   1      33.541  23.248  22.370  1.00  0.00     0.108 C 
BRANCH  16  17
ATOM     17  C   UNL A   1      32.564  22.249  23.039  1.00  0.00     0.015 C 
ATOM     18  C   UNL A   1      31.912  21.255  22.085  1.00  0.00     0.005 C 
ENDBRANCH  16  17
BRANCH  16  19
ATOM     19  C   UNL A   1      34.595  23.592  23.468  1.00  0.00    -0.036 A 
ATOM     20  C   UNL A   1      35.899  23.067  23.342  1.00  0.00     0.004 A 
ATOM     21  C   UNL A   1      34.299  24.258  24.669  1.00  0.00     0.004 A 
ATOM     22  C   UNL A   1      36.841  23.192  24.374  1.00  0.00     0.000 A 
ATOM     23  C   UNL A   1      35.248  24.418  25.685  1.00  0.00     0.000 A 
ATOM     24  C   UNL A   1      36.515  23.870  25.545  1.00  0.00     0.000 A 
ENDBRANCH  16  19
ENDBRANCH  13  16
ENDBRANCH  11  12
ENDBRANCH   7  11
ENDBRANCH   3   6
ENDBRANCH   1   2
BRANCH   1  25
ATOM     25  C   UNL A   1      31.519  31.580  26.958  1.00  0.00     0.042 C 
BRANCH  25  26
ATOM     26  C   UNL A   1      32.439  32.738  26.629  1.00  0.00     0.118 C 
BRANCH  26  27
ATOM     27  N   UNL A   1      32.228  33.894  27.489  1.00  0.00    -0.352 N 
ATOM     28  C   UNL A   1      33.038  34.453  28.450  1.00  0.00     0.251 C 
ATOM     29  H   UNL A   1      31.364  34.349  27.361  1.00  0.00     0.163 HD
ATOM     30  O   UNL A   1      32.705  35.461  29.045  1.00  0.00    -0.269 OA
BRANCH  28  31
ATOM     31  C   UNL A   1      34.282  33.758  28.841  1.00  0.00     0.039 A 
ATOM     32  C   UNL A   1      35.485  34.252  28.324  1.00  0.00     0.014 A 
ATOM     33  C   UNL A   1      34.284  32.697  29.743  1.00  0.00     0.014 A 
ATOM     34  C   UNL A   1      36.695  33.727  28.770  1.00  0.00     0.010 A 
ATOM     35  C   UNL A   1      35.490  32.244  30.262  1.00  0.00     0.010 A 
ATOM     36  C   UNL A   1      36.705  32.750  29.775  1.00  0.00    -0.014 A 
BRANCH  36  37
ATOM     37  C   UNL A   1      37.976  32.215  30.315  1.00  0.00     0.031 A 
ATOM     38  C   UNL A   1      38.538  30.940  29.752  1.00  0.00     0.074 A 
ATOM     39  C   UNL A   1      38.582  32.836  31.345  1.00  0.00     0.049 A 
ATOM     40  N   UNL A   1      39.578  30.251  30.146  1.00  0.00    -0.248 NA
ATOM     41  C   UNL A   1      37.816  30.344  28.615  1.00  0.00     0.031 C 
ATOM     42  C   UNL A   1      38.113  34.063  31.994  1.00  0.00     0.029 A 
ATOM     43  N   UNL A   1      39.724  32.513  32.031  1.00  0.00    -0.354 N 
ATOM     44  C   UNL A   1      39.616  29.132  29.325  1.00  0.00     0.074 A 
ATOM     45  C   UNL A   1      38.469  29.204  28.449  1.00  0.00     0.031 C 
ATOM     46  C   UNL A   1      38.977  34.404  32.965  1.00  0.00     0.029 A 
ATOM     47  C   UNL A   1      40.032  33.399  33.035  1.00  0.00     0.049 A 
ATOM     48  H   UNL A   1      40.271  31.722  31.824  1.00  0.00     0.167 HD
ATOM     49  C   UNL A   1      40.539  28.142  29.289  1.00  0.00     0.031 A 
ATOM     50  C   UNL A   1      41.049  33.395  33.916  1.00  0.00     0.031 A 
ATOM     51  C   UNL A   1      41.691  28.088  30.146  1.00  0.00     0.049 A 
ATOM     52  C   UNL A   1      42.056  32.280  33.859  1.00  0.00     0.074 A 
ATOM     53  C   UNL A   1      42.713  27.158  30.158  1.00  0.00     0.029 A 
ATOM     54  N   UNL A   1      41.974  29.013  31.140  1.00  0.00    -0.354 N 
ATOM     55  N   UNL A   1      42.108  31.254  33.044  1.00  0.00    -0.248 NA
ATOM     56  C   UNL A   1      43.151  32.329  34.838  1.00  0.00     0.031 C 
ATOM     57  C   UNL A   1      43.595  27.495  31.190  1.00  0.00     0.029 A 
ATOM     58  C   UNL A   1      43.148  28.665  31.785  1.00  0.00     0.049 A 
ATOM     59  H   UNL A   1      41.422  29.799  31.355  1.00  0.00     0.167 HD
ATOM     60  C   UNL A   1      43.254  30.551  33.393  1.00  0.00     0.074 A 
ATOM     61  C   UNL A   1      43.876  31.278  34.481  1.00  0.00     0.031 C 
ATOM     62  C   UNL A   1      43.749  29.408  32.861  1.00  0.00     0.031 A 
BRANCH  49  63
ATOM     63  C   UNL A   1      40.331  27.042  28.288  1.00  0.00    -0.014 A 
ATOM     64  C   UNL A   1      40.886  27.116  27.000  1.00  0.00     0.009 A 
ATOM     65  C   UNL A   1      39.587  25.906  28.641  1.00  0.00     0.009 A 
ATOM     66  C   UNL A   1      40.670  26.092  26.075  1.00  0.00     0.001 A 
ATOM     67  C   UNL A   1      39.398  24.869  27.726  1.00  0.00     0.001 A 
ATOM     68  C   UNL A   1      39.930  24.968  26.441  1.00  0.00     0.000 A 
ENDBRANCH  49  63
BRANCH  50  69
ATOM     69  C   UNL A   1      41.178  34.485  34.919  1.00  0.00    -0.014 A 
ATOM     70  C   UNL A   1      41.922  35.637  34.624  1.00  0.00     0.009 A 
ATOM     71  C   UNL A   1      40.574  34.373  36.181  1.00  0.00     0.009 A 
ATOM     72  C   UNL A   1      42.084  36.641  35.581  1.00  0.00     0.001 A 
ATOM     73  C   UNL A   1      40.713  35.392  37.127  1.00  0.00     0.001 A 
ATOM     74  C   UNL A   1      41.476  36.520  36.830  1.00  0.00     0.000 A 
ENDBRANCH  50  69
BRANCH  62  75
ATOM     75  C   UNL A   1      45.044  28.897  33.423  1.00  0.00    -0.014 A 
ATOM     76  C   UNL A   1      45.065  27.976  34.482  1.00  0.00     0.009 A 
ATOM     77  C   UNL A   1      46.258  29.313  32.854  1.00  0.00     0.009 A 
ATOM     78  C   UNL A   1      46.281  27.508  34.982  1.00  0.00     0.001 A 
ATOM     79  C   UNL A   1      47.471  28.820  33.337  1.00  0.00     0.001 A 
ATOM     80  C   UNL A   1      47.481  27.925  34.406  1.00  0.00     0.000 A 
ENDBRANCH  62  75
ENDBRANCH  36  37
ENDBRANCH  28  31
ENDBRANCH  26  27
ENDBRANCH  25  26
ENDBRANCH   1  25
TORSDOF 15
ENDMDL
MODEL 2
REMARK VINA RESULT:     -11.0      3.788      8.806
REMARK SMILES CC[C@@H](C(=O)NC[C@@H]1CC[C@H](C(=O)NCCCNC(=O)c2ccc(-c3c4nc(c(-c5ccccc5)c5ccc([nH]5)c(-c5ccccc5)c5nc(c(-c6ccccc6)c6ccc3[nH]6)C=C5)C=C4)cc2)O1)c1ccccc1
REMARK SMILES IDX 15 1 14 2 12 3 13 4 11 6 8 7 9 8 69 9 10 10 7 11 6 12 4 13
REMARK SMILES IDX 5 14 3 16 2 17 1 18 70 19 71 20 75 21 72 22 74 23 73 24
REMARK SMILES IDX 16 25 17 26 18 27 19 28 20 30 21 31 22 32 68 33 23 34 67 35
REMARK SMILES IDX 24 36 25 37 26 38 61 39 27 40 66 41 60 42 62 43 28 44 65 45
REMARK SMILES IDX 59 46 58 47 29 49 51 50 36 51 50 52 37 53 40 54 49 55 63 56
REMARK SMILES IDX 38 57 39 58 48 60 64 61 41 62 30 63 31 64 35 65 32 66 34 67
REMARK SMILES IDX 33 68 52 69 53 70 57 71 54 72 56 73 55 74 42 75 43 76 47 77
REMARK SMILES IDX 44 78 46 79 45 80
REMARK H PARENT 14 5 6 15 18 29 62 48 40 59
REMARK Flexibility Score: inf
ROOT
ATOM      1  C   UNL A   1      37.513  21.802  25.059  1.00  0.00     0.117 C 
ENDROOT
BRANCH   1   2
ATOM      2  N   UNL A   1      36.515  21.826  26.100  1.00  0.00    -0.354 N 
ATOM      3  C   UNL A   1      35.190  21.508  26.010  1.00  0.00     0.249 C 
ATOM      4  O   UNL A   1      34.536  21.482  27.058  1.00  0.00    -0.272 OA
ATOM      5  H   UNL A   1      36.829  22.108  26.989  1.00  0.00     0.163 HD
BRANCH   3   6
ATOM      6  C   UNL A   1      34.507  21.248  24.644  1.00  0.00     0.207 C 
ATOM      7  C   UNL A   1      32.587  21.833  23.451  1.00  0.00     0.138 C 
ATOM      8  C   UNL A   1      32.255  20.529  24.160  1.00  0.00     0.037 C 
ATOM      9  O   UNL A   1      33.753  22.340  24.111  1.00  0.00    -0.363 OA
ATOM     10  C   UNL A   1      33.601  20.023  24.644  1.00  0.00     0.045 C 
BRANCH   7  11
ATOM     11  C   UNL A   1      31.452  22.889  23.391  1.00  0.00     0.147 C 
BRANCH  11  12
ATOM     12  N   UNL A   1      31.776  24.102  22.655  1.00  0.00    -0.353 N 
ATOM     13  C   UNL A   1      31.527  25.430  22.799  1.00  0.00     0.227 C 
ATOM     14  O   UNL A   1      31.982  26.080  21.849  1.00  0.00    -0.274 OA
ATOM     15  H   UNL A   1      32.312  23.913  21.851  1.00  0.00     0.163 HD
BRANCH  13  16
ATOM     16  C   UNL A   1      30.779  26.095  23.993  1.00  0.00     0.108 C 
BRANCH  16  17
ATOM     17  C   UNL A   1      29.791  27.222  23.598  1.00  0.00     0.015 C 
ATOM     18  C   UNL A   1      28.318  26.876  23.786  1.00  0.00     0.005 C 
ENDBRANCH  16  17
BRANCH  16  19
ATOM     19  C   UNL A   1      31.704  26.721  25.083  1.00  0.00    -0.036 A 
ATOM     20  C   UNL A   1      31.137  27.094  26.319  1.00  0.00     0.004 A 
ATOM     21  C   UNL A   1      33.041  27.095  24.866  1.00  0.00     0.004 A 
ATOM     22  C   UNL A   1      31.870  27.817  27.272  1.00  0.00     0.000 A 
ATOM     23  C   UNL A   1      33.787  27.784  25.830  1.00  0.00     0.000 A 
ATOM     24  C   UNL A   1      33.196  28.160  27.027  1.00  0.00     0.000 A 
ENDBRANCH  16  19
ENDBRANCH  13  16
ENDBRANCH  11  12
ENDBRANCH   7  11
ENDBRANCH   3   6
ENDBRANCH   1   2
BRANCH   1  25
ATOM     25  C   UNL A   1      38.244  20.475  24.941  1.00  0.00     0.042 C 
BRANCH  25  26
ATOM     26  C   UNL A   1      39.139  20.193  26.131  1.00  0.00     0.118 C 
BRANCH  26  27
ATOM     27  N   UNL A   1      40.289  19.368  25.794  1.00  0.00    -0.352 N 
ATOM     28  C   UNL A   1      41.631  19.570  26.019  1.00  0.00     0.251 C 
ATOM     29  H   UNL A   1      40.071  18.528  25.328  1.00  0.00     0.163 HD
ATOM     30  O   UNL A   1      42.456  18.734  25.700  1.00  0.00    -0.269 OA
BRANCH  28  31
ATOM     31  C   UNL A   1      42.086  20.868  26.560  1.00  0.00     0.039 A 
ATOM     32  C   UNL A   1      42.451  21.856  25.638  1.00  0.00     0.014 A 
ATOM     33  C   UNL A   1      42.088  21.140  27.925  1.00  0.00     0.014 A 
ATOM     34  C   UNL A   1      42.749  23.141  26.087  1.00  0.00     0.010 A 
ATOM     35  C   UNL A   1      42.286  22.444  28.362  1.00  0.00     0.010 A 
ATOM     36  C   UNL A   1      42.625  23.452  27.447  1.00  0.00    -0.014 A 
BRANCH  36  37
ATOM     37  C   UNL A   1      42.875  24.824  27.948  1.00  0.00     0.031 A 
ATOM     38  C   UNL A   1      44.272  25.227  28.327  1.00  0.00     0.074 A 
ATOM     39  C   UNL A   1      41.845  25.674  28.120  1.00  0.00     0.049 A 
ATOM     40  N   UNL A   1      44.690  26.338  28.877  1.00  0.00    -0.248 NA
ATOM     41  C   UNL A   1      45.336  24.237  28.086  1.00  0.00     0.031 C 
ATOM     42  C   UNL A   1      40.441  25.384  27.816  1.00  0.00     0.029 A 
ATOM     43  N   UNL A   1      41.822  26.958  28.601  1.00  0.00    -0.354 N 
ATOM     44  C   UNL A   1      46.055  26.168  29.070  1.00  0.00     0.074 A 
ATOM     45  C   UNL A   1      46.386  24.831  28.631  1.00  0.00     0.031 C 
ATOM     46  C   UNL A   1      39.699  26.469  28.091  1.00  0.00     0.029 A 
ATOM     47  C   UNL A   1      40.565  27.512  28.630  1.00  0.00     0.049 A 
ATOM     48  H   UNL A   1      42.628  27.437  28.898  1.00  0.00     0.167 HD
ATOM     49  C   UNL A   1      46.957  27.055  29.551  1.00  0.00     0.031 A 
ATOM     50  C   UNL A   1      40.158  28.723  29.051  1.00  0.00     0.031 A 
ATOM     51  C   UNL A   1      46.626  28.391  29.963  1.00  0.00     0.049 A 
ATOM     52  C   UNL A   1      41.180  29.687  29.586  1.00  0.00     0.074 A 
ATOM     53  C   UNL A   1      47.471  29.387  30.417  1.00  0.00     0.029 A 
ATOM     54  N   UNL A   1      45.344  28.918  29.962  1.00  0.00    -0.354 N 
ATOM     55  N   UNL A   1      42.475  29.531  29.716  1.00  0.00    -0.248 NA
ATOM     56  C   UNL A   1      40.684  31.000  30.023  1.00  0.00     0.031 C 
ATOM     57  C   UNL A   1      46.694  30.505  30.733  1.00  0.00     0.029 A 
ATOM     58  C   UNL A   1      45.372  30.222  30.426  1.00  0.00     0.049 A 
ATOM     59  H   UNL A   1      44.534  28.436  29.677  1.00  0.00     0.167 HD
ATOM     60  C   UNL A   1      42.953  30.733  30.224  1.00  0.00     0.074 A 
ATOM     61  C   UNL A   1      41.810  31.613  30.360  1.00  0.00     0.031 C 
ATOM     62  C   UNL A   1      44.222  31.078  30.547  1.00  0.00     0.031 A 
BRANCH  49  63
ATOM     63  C   UNL A   1      48.385  26.599  29.652  1.00  0.00    -0.014 A 
ATOM     64  C   UNL A   1      48.858  25.937  30.796  1.00  0.00     0.009 A 
ATOM     65  C   UNL A   1      49.265  26.816  28.581  1.00  0.00     0.009 A 
ATOM     66  C   UNL A   1      50.192  25.534  30.881  1.00  0.00     0.001 A 
ATOM     67  C   UNL A   1      50.591  26.385  28.655  1.00  0.00     0.001 A 
ATOM     68  C   UNL A   1      51.056  25.755  29.808  1.00  0.00     0.000 A 
ENDBRANCH  49  63
BRANCH  50  69
ATOM     69  C   UNL A   1      38.723  29.104  28.973  1.00  0.00    -0.014 A 
ATOM     70  C   UNL A   1      38.190  29.627  27.785  1.00  0.00     0.009 A 
ATOM     71  C   UNL A   1      37.882  28.961  30.087  1.00  0.00     0.009 A 
ATOM     72  C   UNL A   1      36.854  30.028  27.722  1.00  0.00     0.001 A 
ATOM     73  C   UNL A   1      36.538  29.335  30.014  1.00  0.00     0.001 A 
ATOM     74  C   UNL A   1      36.028  29.879  28.836  1.00  0.00     0.000 A 
ENDBRANCH  50  69
BRANCH  62  75
ATOM     75  C   UNL A   1      44.444  32.479  31.042  1.00  0.00    -0.014 A 
ATOM     76  C   UNL A   1      44.406  32.782  32.412  1.00  0.00     0.009 A 
ATOM     77  C   UNL A   1      44.738  33.499  30.124  1.00  0.00     0.009 A 
ATOM     78  C   UNL A   1      44.625  34.088  32.849  1.00  0.00     0.001 A 
ATOM     79  C   UNL A   1      44.985  34.799  30.567  1.00  0.00     0.001 A 
ATOM     80  C   UNL A   1      44.920  35.094  31.927  1.00  0.00     0.000 A 
ENDBRANCH  62  75
ENDBRANCH  36  37
ENDBRANCH  28  31
ENDBRANCH  26  27
ENDBRANCH  25  26
ENDBRANCH   1  25
TORSDOF 15
ENDMDL
MODEL 3
REMARK VINA RESULT:     -11.0      3.791      9.025
REMARK SMILES CC[C@@H](C(=O)NC[C@@H]1CC[C@H](C(=O)NCCCNC(=O)c2ccc(-c3c4nc(c(-c5ccccc5)c5ccc([nH]5)c(-c5ccccc5)c5nc(c(-c6ccccc6)c6ccc3[nH]6)C=C5)C=C4)cc2)O1)c1ccccc1
REMARK SMILES IDX 15 1 14 2 12 3 13 4 11 6 8 7 9 8 69 9 10 10 7 11 6 12 4 13
REMARK SMILES IDX 5 14 3 16 2 17 1 18 70 19 71 20 75 21 72 22 74 23 73 24
REMARK SMILES IDX 16 25 17 26 18 27 19 28 20 30 21 31 22 32 68 33 23 34 67 35
REMARK SMILES IDX 24 36 25 37 26 38 61 39 27 40 66 41 60 42 62 43 28 44 65 45
REMARK SMILES IDX 59 46 58 47 29 49 51 50 36 51 50 52 37 53 40 54 49 55 63 56
REMARK SMILES IDX 38 57 39 58 48 60 64 61 41 62 30 63 31 64 35 65 32 66 34 67
REMARK SMILES IDX 33 68 52 69 53 70 57 71 54 72 56 73 55 74 42 75 43 76 47 77
REMARK SMILES IDX 44 78 46 79 45 80
REMARK H PARENT 14 5 6 15 18 29 62 48 40 59
REMARK Flexibility Score: inf
ROOT
ATOM      1  C   UNL A   1      36.568  20.848  25.040  1.00  0.00     0.117 C 
ENDROOT
BRANCH   1   2
ATOM      2  N   UNL A   1      35.309  20.189  25.290  1.00  0.00    -0.354 N 
ATOM      3  C   UNL A   1      34.055  20.598  24.938  1.00  0.00     0.249 C 
ATOM      4  O   UNL A   1      33.120  19.819  25.148  1.00  0.00    -0.272 OA
ATOM      5  H   UNL A   1      35.362  19.336  25.778  1.00  0.00     0.163 HD
BRANCH   3   6
ATOM      6  C   UNL A   1      33.793  22.009  24.353  1.00  0.00     0.207 C 
ATOM      7  C   UNL A   1      32.302  23.794  24.555  1.00  0.00     0.138 C 
ATOM      8  C   UNL A   1      31.774  22.937  23.414  1.00  0.00     0.037 C 
ATOM      9  O   UNL A   1      33.231  22.961  25.260  1.00  0.00    -0.363 OA
ATOM     10  C   UNL A   1      32.921  21.994  23.104  1.00  0.00     0.045 C 
BRANCH   7  11
ATOM     11  C   UNL A   1      31.236  24.403  25.505  1.00  0.00     0.147 C 
BRANCH  11  12
ATOM     12  N   UNL A   1      31.294  25.850  25.648  1.00  0.00    -0.353 N 
ATOM     13  C   UNL A   1      31.002  26.923  24.867  1.00  0.00     0.227 C 
ATOM     14  O   UNL A   1      31.285  27.986  25.436  1.00  0.00    -0.274 OA
ATOM     15  H   UNL A   1      31.629  26.119  26.534  1.00  0.00     0.163 HD
BRANCH  13  16
ATOM     16  C   UNL A   1      30.381  26.871  23.439  1.00  0.00     0.108 C 
BRANCH  16  17
ATOM     17  C   UNL A   1      31.393  26.597  22.298  1.00  0.00     0.015 C 
ATOM     18  C   UNL A   1      32.842  26.930  22.633  1.00  0.00     0.005 C 
ENDBRANCH  16  17
BRANCH  16  19
ATOM     19  C   UNL A   1      29.613  28.160  23.008  1.00  0.00    -0.036 A 
ATOM     20  C   UNL A   1      28.237  28.256  23.300  1.00  0.00     0.004 A 
ATOM     21  C   UNL A   1      30.158  29.173  22.201  1.00  0.00     0.004 A 
ATOM     22  C   UNL A   1      27.453  29.303  22.791  1.00  0.00     0.000 A 
ATOM     23  C   UNL A   1      29.386  30.239  21.723  1.00  0.00     0.000 A 
ATOM     24  C   UNL A   1      28.029  30.295  22.004  1.00  0.00     0.000 A 
ENDBRANCH  16  19
ENDBRANCH  13  16
ENDBRANCH  11  12
ENDBRANCH   7  11
ENDBRANCH   3   6
ENDBRANCH   1   2
BRANCH   1  25
ATOM     25  C   UNL A   1      37.744  19.893  24.910  1.00  0.00     0.042 C 
BRANCH  25  26
ATOM     26  C   UNL A   1      38.923  20.299  25.771  1.00  0.00     0.118 C 
BRANCH  26  27
ATOM     27  N   UNL A   1      40.033  19.361  25.692  1.00  0.00    -0.352 N 
ATOM     28  C   UNL A   1      41.330  19.471  26.138  1.00  0.00     0.251 C 
ATOM     29  H   UNL A   1      39.821  18.509  25.245  1.00  0.00     0.163 HD
ATOM     30  O   UNL A   1      42.116  18.550  26.019  1.00  0.00    -0.269 OA
BRANCH  28  31
ATOM     31  C   UNL A   1      41.803  20.765  26.672  1.00  0.00     0.039 A 
ATOM     32  C   UNL A   1      42.265  21.712  25.751  1.00  0.00     0.014 A 
ATOM     33  C   UNL A   1      41.733  21.076  28.028  1.00  0.00     0.014 A 
ATOM     34  C   UNL A   1      42.587  22.996  26.183  1.00  0.00     0.010 A 
ATOM     35  C   UNL A   1      41.957  22.382  28.442  1.00  0.00     0.010 A 
ATOM     36  C   UNL A   1      42.393  23.350  27.525  1.00  0.00    -0.014 A 
BRANCH  36  37
ATOM     37  C   UNL A   1      42.668  24.724  28.004  1.00  0.00     0.031 A 
ATOM     38  C   UNL A   1      44.070  25.105  28.388  1.00  0.00     0.074 A 
ATOM     39  C   UNL A   1      41.654  25.598  28.154  1.00  0.00     0.049 A 
ATOM     40  N   UNL A   1      44.507  26.216  28.922  1.00  0.00    -0.248 NA
ATOM     41  C   UNL A   1      45.115  24.090  28.171  1.00  0.00     0.031 C 
ATOM     42  C   UNL A   1      40.247  25.332  27.844  1.00  0.00     0.029 A 
ATOM     43  N   UNL A   1      41.654  26.890  28.614  1.00  0.00    -0.354 N 
ATOM     44  C   UNL A   1      45.866  26.021  29.128  1.00  0.00     0.074 A 
ATOM     45  C   UNL A   1      46.173  24.671  28.714  1.00  0.00     0.031 C 
ATOM     46  C   UNL A   1      39.525  26.437  28.096  1.00  0.00     0.029 A 
ATOM     47  C   UNL A   1      40.409  27.471  28.624  1.00  0.00     0.049 A 
ATOM     48  H   UNL A   1      42.468  27.357  28.909  1.00  0.00     0.167 HD
ATOM     49  C   UNL A   1      46.783  26.897  29.601  1.00  0.00     0.031 A 
ATOM     50  C   UNL A   1      40.024  28.697  29.022  1.00  0.00     0.031 A 
ATOM     51  C   UNL A   1      46.477  28.246  29.988  1.00  0.00     0.049 A 
ATOM     52  C   UNL A   1      41.062  29.648  29.548  1.00  0.00     0.074 A 
ATOM     53  C   UNL A   1      47.340  29.232  30.432  1.00  0.00     0.029 A 
ATOM     54  N   UNL A   1      45.206  28.800  29.969  1.00  0.00    -0.354 N 
ATOM     55  N   UNL A   1      42.353  29.467  29.691  1.00  0.00    -0.248 NA
ATOM     56  C   UNL A   1      40.590  30.978  29.960  1.00  0.00     0.031 C 
ATOM     57  C   UNL A   1      46.583  30.372  30.723  1.00  0.00     0.029 A 
ATOM     58  C   UNL A   1      45.258  30.111  30.411  1.00  0.00     0.049 A 
ATOM     59  H   UNL A   1      44.389  28.330  29.685  1.00  0.00     0.167 HD
ATOM     60  C   UNL A   1      42.851  30.668  30.182  1.00  0.00     0.074 A 
ATOM     61  C   UNL A   1      41.726  31.573  30.295  1.00  0.00     0.031 C 
ATOM     62  C   UNL A   1      44.125  30.992  30.509  1.00  0.00     0.031 A 
BRANCH  49  63
ATOM     63  C   UNL A   1      48.201  26.414  29.721  1.00  0.00    -0.014 A 
ATOM     64  C   UNL A   1      48.681  25.855  30.916  1.00  0.00     0.009 A 
ATOM     65  C   UNL A   1      49.063  26.498  28.617  1.00  0.00     0.009 A 
ATOM     66  C   UNL A   1      50.006  25.426  31.016  1.00  0.00     0.001 A 
ATOM     67  C   UNL A   1      50.379  26.040  28.709  1.00  0.00     0.001 A 
ATOM     68  C   UNL A   1      50.851  25.514  29.911  1.00  0.00     0.000 A 
ENDBRANCH  49  63
BRANCH  50  69
ATOM     69  C   UNL A   1      38.598  29.106  28.926  1.00  0.00    -0.014 A 
ATOM     70  C   UNL A   1      38.091  29.643  27.733  1.00  0.00     0.009 A 
ATOM     71  C   UNL A   1      37.740  28.976  30.029  1.00  0.00     0.009 A 
ATOM     72  C   UNL A   1      36.764  30.070  27.655  1.00  0.00     0.001 A 
ATOM     73  C   UNL A   1      36.405  29.377  29.940  1.00  0.00     0.001 A 
ATOM     74  C   UNL A   1      35.921  29.934  28.757  1.00  0.00     0.000 A 
ENDBRANCH  50  69
BRANCH  62  75
ATOM     75  C   UNL A   1      44.373  32.396  30.982  1.00  0.00    -0.014 A 
ATOM     76  C   UNL A   1      44.337  32.721  32.347  1.00  0.00     0.009 A 
ATOM     77  C   UNL A   1      44.688  33.396  30.049  1.00  0.00     0.009 A 
ATOM     78  C   UNL A   1      44.581  34.030  32.764  1.00  0.00     0.001 A 
ATOM     79  C   UNL A   1      44.959  34.697  30.472  1.00  0.00     0.001 A 
ATOM     80  C   UNL A   1      44.896  35.015  31.828  1.00  0.00     0.000 A 
ENDBRANCH  62  75
ENDBRANCH  36  37
ENDBRANCH  28  31
ENDBRANCH  26  27
ENDBRANCH  25  26
ENDBRANCH   1  25
TORSDOF 15
ENDMDL
