MODEL 1
REMARK VINA RESULT:     -13.4      0.000      0.000
REMARK SMILES Cc1ccc(S(=O)(=O)Nc2ccc(C(=O)CCC(=O)NCCCNC(=O)c3ccc(-c4c5nc(c(-c6ccccc6)c6ccc([nH]6)c(-c6ccccc6)c6nc(c(-c7ccccc7)c7ccc4[nH]7)C=C6)C=C5)cc3)cc2)c(C)c1
REMARK SMILES IDX 18 1 19 2 20 3 17 5 16 6 14 7 15 8 13 9 10 10 11 11 76 12
REMARK SMILES IDX 12 13 75 14 9 15 6 17 7 18 8 19 5 20 1 21 2 22 3 23 79 24
REMARK SMILES IDX 4 25 77 26 78 27 21 28 22 29 23 30 24 31 25 32 26 34 27 35
REMARK SMILES IDX 28 36 74 37 29 38 73 39 30 40 31 41 32 42 67 43 33 44 72 45
REMARK SMILES IDX 66 46 68 47 34 48 71 49 65 50 64 51 35 53 57 54 42 55 56 56
REMARK SMILES IDX 43 57 46 58 55 59 69 60 44 61 45 62 54 64 70 65 47 66 36 67
REMARK SMILES IDX 37 68 41 69 38 70 40 71 39 72 58 73 59 74 63 75 60 76 62 77
REMARK SMILES IDX 61 78 48 79 49 80 53 81 50 82 52 83 51 84
REMARK H PARENT 20 4 9 16 24 33 68 52 46 63
REMARK Flexibility Score: inf
ROOT
ATOM      1  C   UNL A   1      32.960  29.250  24.257  1.00  0.00     0.220 C 
ATOM      2  O   UNL A   1      33.244  28.999  23.085  1.00  0.00    -0.275 OA
ATOM      3  N   UNL A   1      33.984  29.290  25.174  1.00  0.00    -0.356 N 
ATOM      4  H   UNL A   1      34.885  29.447  24.811  1.00  0.00     0.163 HD
ENDROOT
BRANCH   1   5
ATOM      5  C   UNL A   1      31.499  29.491  24.684  1.00  0.00     0.108 C 
BRANCH   5   6
ATOM      6  C   UNL A   1      30.416  29.045  23.658  1.00  0.00     0.091 C 
BRANCH   6   7
ATOM      7  C   UNL A   1      29.946  27.560  23.733  1.00  0.00     0.163 C 
ATOM      8  O   UNL A   1      28.780  27.221  23.559  1.00  0.00    -0.294 OA
BRANCH   7   9
ATOM      9  C   UNL A   1      30.917  26.521  24.252  1.00  0.00     0.018 A 
ATOM     10  C   UNL A   1      30.988  23.086  25.453  1.00  0.00     0.049 A 
ATOM     11  C   UNL A   1      31.088  23.446  23.646  1.00  0.00     0.027 A 
ATOM     12  C   UNL A   1      30.868  24.451  26.612  1.00  0.00     0.027 A 
ATOM     13  C   UNL A   1      31.109  25.157  23.063  1.00  0.00     0.014 A 
ATOM     14  C   UNL A   1      30.842  26.160  26.003  1.00  0.00     0.014 A 
BRANCH  10  15
ATOM     15  N   UNL A   1      31.581  21.840  25.872  1.00  0.00    -0.280 N 
ATOM     16  H   UNL A   1      30.983  21.087  26.087  1.00  0.00     0.180 HD
BRANCH  15  17
ATOM     17  S   UNL A   1      33.249  21.605  26.016  1.00  0.00     0.262 S 
ATOM     18  O   UNL A   1      33.527  21.169  27.367  1.00  0.00    -0.201 OA
ATOM     19  O   UNL A   1      33.866  22.796  25.475  1.00  0.00    -0.201 OA
BRANCH  17  20
ATOM     20  C   UNL A   1      33.609  20.272  24.908  1.00  0.00     0.090 A 
ATOM     21  C   UNL A   1      34.044  16.250  23.546  1.00  0.00     0.044 C 
ATOM     22  C   UNL A   1      33.931  17.697  23.915  1.00  0.00    -0.051 A 
ATOM     23  C   UNL A   1      32.698  18.335  23.800  1.00  0.00     0.005 A 
ATOM     24  C   UNL A   1      35.044  18.430  24.350  1.00  0.00     0.008 A 
ATOM     25  C   UNL A   1      32.545  19.632  24.269  1.00  0.00     0.023 A 
ATOM     26  C   UNL A   1      34.901  19.734  24.849  1.00  0.00    -0.030 A 
ATOM     27  C   UNL A   1      36.124  20.550  25.159  1.00  0.00     0.046 C 
ENDBRANCH  17  20
ENDBRANCH  15  17
ENDBRANCH  10  15
ENDBRANCH   7   9
ENDBRANCH   6   7
ENDBRANCH   5   6
ENDBRANCH   1   5
BRANCH   3  28
ATOM     28  C   UNL A   1      33.890  29.125  26.633  1.00  0.00     0.117 C 
BRANCH  28  29
ATOM     29  C   UNL A   1      33.640  30.633  27.268  1.00  0.00     0.042 C 
BRANCH  29  30
ATOM     30  C   UNL A   1      32.267  32.316  27.064  1.00  0.00     0.118 C 
BRANCH  30  31
ATOM     31  N   UNL A   1      32.435  33.868  27.637  1.00  0.00    -0.352 N 
ATOM     32  C   UNL A   1      33.168  34.575  28.514  1.00  0.00     0.251 C 
ATOM     33  H   UNL A   1      31.788  34.460  27.189  1.00  0.00     0.163 HD
ATOM     34  O   UNL A   1      32.853  35.751  28.688  1.00  0.00    -0.269 OA
BRANCH  32  35
ATOM     35  C   UNL A   1      34.302  34.023  29.211  1.00  0.00     0.039 A 
ATOM     36  C   UNL A   1      35.561  34.447  28.774  1.00  0.00     0.014 A 
ATOM     37  C   UNL A   1      34.137  33.012  30.152  1.00  0.00     0.014 A 
ATOM     38  C   UNL A   1      36.681  33.847  29.299  1.00  0.00     0.010 A 
ATOM     39  C   UNL A   1      35.255  32.472  30.742  1.00  0.00     0.010 A 
ATOM     40  C   UNL A   1      36.516  32.876  30.291  1.00  0.00    -0.014 A 
BRANCH  40  41
ATOM     41  C   UNL A   1      37.687  32.237  30.873  1.00  0.00     0.031 A 
ATOM     42  C   UNL A   1      38.198  32.742  32.178  1.00  0.00     0.074 A 
ATOM     43  C   UNL A   1      38.261  31.269  30.144  1.00  0.00     0.049 A 
ATOM     44  N   UNL A   1      39.248  32.360  32.844  1.00  0.00    -0.248 NA
ATOM     45  C   UNL A   1      37.456  33.857  32.799  1.00  0.00     0.031 C 
ATOM     46  C   UNL A   1      37.786  30.806  28.833  1.00  0.00     0.029 A 
ATOM     47  N   UNL A   1      39.354  30.503  30.395  1.00  0.00    -0.354 N 
ATOM     48  C   UNL A   1      39.308  33.199  33.948  1.00  0.00     0.074 A 
ATOM     49  C   UNL A   1      38.228  34.150  33.833  1.00  0.00     0.031 C 
ATOM     50  C   UNL A   1      38.565  29.798  28.417  1.00  0.00     0.029 A 
ATOM     51  C   UNL A   1      39.605  29.582  29.411  1.00  0.00     0.049 A 
ATOM     52  H   UNL A   1      39.910  30.599  31.203  1.00  0.00     0.167 HD
ATOM     53  C   UNL A   1      40.190  33.147  34.969  1.00  0.00     0.031 A 
ATOM     54  C   UNL A   1      40.576  28.659  29.350  1.00  0.00     0.031 A 
ATOM     55  C   UNL A   1      41.237  32.163  35.018  1.00  0.00     0.049 A 
ATOM     56  C   UNL A   1      41.509  28.591  30.522  1.00  0.00     0.074 A 
ATOM     57  C   UNL A   1      42.188  31.948  35.995  1.00  0.00     0.029 A 
ATOM     58  N   UNL A   1      41.453  31.211  34.023  1.00  0.00    -0.354 N 
ATOM     59  N   UNL A   1      41.542  29.354  31.593  1.00  0.00    -0.248 NA
ATOM     60  C   UNL A   1      42.515  27.530  30.498  1.00  0.00     0.031 C 
ATOM     61  C   UNL A   1      43.001  30.889  35.571  1.00  0.00     0.029 A 
ATOM     62  C   UNL A   1      42.522  30.406  34.359  1.00  0.00     0.049 A 
ATOM     63  H   UNL A   1      40.919  31.126  33.201  1.00  0.00     0.167 HD
ATOM     64  C   UNL A   1      42.555  28.851  32.389  1.00  0.00     0.074 A 
ATOM     65  C   UNL A   1      43.096  27.702  31.679  1.00  0.00     0.031 C 
ATOM     66  C   UNL A   1      43.007  29.284  33.593  1.00  0.00     0.031 A 
BRANCH  53  67
ATOM     67  C   UNL A   1      40.050  34.172  36.060  1.00  0.00    -0.014 A 
ATOM     68  C   UNL A   1      39.280  33.919  37.210  1.00  0.00     0.009 A 
ATOM     69  C   UNL A   1      40.671  35.423  35.931  1.00  0.00     0.009 A 
ATOM     70  C   UNL A   1      39.096  34.910  38.177  1.00  0.00     0.001 A 
ATOM     71  C   UNL A   1      40.512  36.402  36.916  1.00  0.00     0.001 A 
ATOM     72  C   UNL A   1      39.714  36.149  38.032  1.00  0.00     0.000 A 
ENDBRANCH  53  67
BRANCH  54  73
ATOM     73  C   UNL A   1      40.640  27.725  28.201  1.00  0.00    -0.014 A 
ATOM     74  C   UNL A   1      39.874  26.548  28.198  1.00  0.00     0.009 A 
ATOM     75  C   UNL A   1      41.407  28.034  27.066  1.00  0.00     0.009 A 
ATOM     76  C   UNL A   1      39.898  25.690  27.096  1.00  0.00     0.001 A 
ATOM     77  C   UNL A   1      41.406  27.188  25.954  1.00  0.00     0.001 A 
ATOM     78  C   UNL A   1      40.660  26.012  25.974  1.00  0.00     0.000 A 
ENDBRANCH  54  73
BRANCH  66  79
ATOM     79  C   UNL A   1      44.113  28.478  34.203  1.00  0.00    -0.014 A 
ATOM     80  C   UNL A   1      43.838  27.378  35.029  1.00  0.00     0.009 A 
ATOM     81  C   UNL A   1      45.445  28.813  33.915  1.00  0.00     0.009 A 
ATOM     82  C   UNL A   1      44.885  26.651  35.591  1.00  0.00     0.001 A 
ATOM     83  C   UNL A   1      46.488  28.061  34.452  1.00  0.00     0.001 A 
ATOM     84  C   UNL A   1      46.206  26.989  35.298  1.00  0.00     0.000 A 
ENDBRANCH  66  79
ENDBRANCH  40  41
ENDBRANCH  32  35
ENDBRANCH  30  31
ENDBRANCH  29  30
ENDBRANCH  28  29
ENDBRANCH   3  28
TORSDOF 16
ENDMDL
MODEL 2
REMARK VINA RESULT:     -13.2      1.331      2.129
REMARK SMILES Cc1ccc(S(=O)(=O)Nc2ccc(C(=O)CCC(=O)NCCCNC(=O)c3ccc(-c4c5nc(c(-c6ccccc6)c6ccc([nH]6)c(-c6ccccc6)c6nc(c(-c7ccccc7)c7ccc4[nH]7)C=C6)C=C5)cc3)cc2)c(C)c1
REMARK SMILES IDX 18 1 19 2 20 3 17 5 16 6 14 7 15 8 13 9 10 10 11 11 76 12
REMARK SMILES IDX 12 13 75 14 9 15 6 17 7 18 8 19 5 20 1 21 2 22 3 23 79 24
REMARK SMILES IDX 4 25 77 26 78 27 21 28 22 29 23 30 24 31 25 32 26 34 27 35
REMARK SMILES IDX 28 36 74 37 29 38 73 39 30 40 31 41 32 42 67 43 33 44 72 45
REMARK SMILES IDX 66 46 68 47 34 48 71 49 65 50 64 51 35 53 57 54 42 55 56 56
REMARK SMILES IDX 43 57 46 58 55 59 69 60 44 61 45 62 54 64 70 65 47 66 36 67
REMARK SMILES IDX 37 68 41 69 38 70 40 71 39 72 58 73 59 74 63 75 60 76 62 77
REMARK SMILES IDX 61 78 48 79 49 80 53 81 50 82 52 83 51 84
REMARK H PARENT 20 4 9 16 24 33 68 52 46 63
REMARK Flexibility Score: inf
ROOT
ATOM      1  C   UNL A   1      33.124  29.205  24.328  1.00  0.00     0.220 C 
ATOM      2  O   UNL A   1      33.539  29.043  23.180  1.00  0.00    -0.275 OA
ATOM      3  N   UNL A   1      34.048  29.392  25.328  1.00  0.00    -0.356 N 
ATOM      4  H   UNL A   1      34.934  29.714  25.044  1.00  0.00     0.163 HD
ENDROOT
BRANCH   1   5
ATOM      5  C   UNL A   1      31.613  29.178  24.635  1.00  0.00     0.108 C 
BRANCH   5   6
ATOM      6  C   UNL A   1      30.722  30.053  23.704  1.00  0.00     0.091 C 
BRANCH   6   7
ATOM      7  C   UNL A   1      30.257  29.405  22.364  1.00  0.00     0.163 C 
ATOM      8  O   UNL A   1      29.907  30.066  21.392  1.00  0.00    -0.294 OA
BRANCH   7   9
ATOM      9  C   UNL A   1      30.020  27.911  22.330  1.00  0.00     0.018 A 
ATOM     10  C   UNL A   1      30.641  24.917  24.304  1.00  0.00     0.049 A 
ATOM     11  C   UNL A   1      29.153  25.958  24.628  1.00  0.00     0.027 A 
ATOM     12  C   UNL A   1      31.772  25.392  22.995  1.00  0.00     0.027 A 
ATOM     13  C   UNL A   1      28.823  27.410  23.605  1.00  0.00     0.014 A 
ATOM     14  C   UNL A   1      31.449  26.882  22.010  1.00  0.00     0.014 A 
BRANCH  10  15
ATOM     15  N   UNL A   1      30.525  23.530  24.682  1.00  0.00    -0.280 N 
ATOM     16  H   UNL A   1      30.068  22.914  24.064  1.00  0.00     0.180 HD
BRANCH  15  17
ATOM     17  S   UNL A   1      31.131  22.906  26.132  1.00  0.00     0.262 S 
ATOM     18  O   UNL A   1      30.504  21.624  26.367  1.00  0.00    -0.201 OA
ATOM     19  O   UNL A   1      31.025  23.976  27.099  1.00  0.00    -0.201 OA
BRANCH  17  20
ATOM     20  C   UNL A   1      32.854  22.643  25.818  1.00  0.00     0.090 A 
ATOM     21  C   UNL A   1      36.718  23.263  24.115  1.00  0.00     0.044 C 
ATOM     22  C   UNL A   1      35.409  22.951  24.771  1.00  0.00    -0.051 A 
ATOM     23  C   UNL A   1      35.047  23.634  25.930  1.00  0.00     0.005 A 
ATOM     24  C   UNL A   1      34.550  21.967  24.261  1.00  0.00     0.008 A 
ATOM     25  C   UNL A   1      33.781  23.458  26.469  1.00  0.00     0.023 A 
ATOM     26  C   UNL A   1      33.258  21.794  24.780  1.00  0.00    -0.030 A 
ATOM     27  C   UNL A   1      32.422  20.633  24.321  1.00  0.00     0.046 C 
ENDBRANCH  17  20
ENDBRANCH  15  17
ENDBRANCH  10  15
ENDBRANCH   7   9
ENDBRANCH   6   7
ENDBRANCH   5   6
ENDBRANCH   1   5
BRANCH   3  28
ATOM     28  C   UNL A   1      33.869  29.170  26.772  1.00  0.00     0.117 C 
BRANCH  28  29
ATOM     29  C   UNL A   1      33.490  30.637  27.437  1.00  0.00     0.042 C 
BRANCH  29  30
ATOM     30  C   UNL A   1      32.267  32.391  27.006  1.00  0.00     0.118 C 
BRANCH  30  31
ATOM     31  N   UNL A   1      32.393  33.925  27.637  1.00  0.00    -0.352 N 
ATOM     32  C   UNL A   1      33.113  34.620  28.535  1.00  0.00     0.251 C 
ATOM     33  H   UNL A   1      31.725  34.514  27.217  1.00  0.00     0.163 HD
ATOM     34  O   UNL A   1      32.764  35.778  28.757  1.00  0.00    -0.269 OA
BRANCH  32  35
ATOM     35  C   UNL A   1      34.269  34.076  29.202  1.00  0.00     0.039 A 
ATOM     36  C   UNL A   1      35.512  34.458  28.689  1.00  0.00     0.014 A 
ATOM     37  C   UNL A   1      34.131  33.108  30.192  1.00  0.00     0.014 A 
ATOM     38  C   UNL A   1      36.646  33.859  29.186  1.00  0.00     0.010 A 
ATOM     39  C   UNL A   1      35.266  32.572  30.751  1.00  0.00     0.010 A 
ATOM     40  C   UNL A   1      36.511  32.934  30.226  1.00  0.00    -0.014 A 
BRANCH  40  41
ATOM     41  C   UNL A   1      37.698  32.297  30.779  1.00  0.00     0.031 A 
ATOM     42  C   UNL A   1      38.282  32.851  32.033  1.00  0.00     0.074 A 
ATOM     43  C   UNL A   1      38.217  31.285  30.070  1.00  0.00     0.049 A 
ATOM     44  N   UNL A   1      39.356  32.478  32.665  1.00  0.00    -0.248 NA
ATOM     45  C   UNL A   1      37.593  34.009  32.636  1.00  0.00     0.031 C 
ATOM     46  C   UNL A   1      37.668  30.772  28.807  1.00  0.00     0.029 A 
ATOM     47  N   UNL A   1      39.306  30.508  30.303  1.00  0.00    -0.354 N 
ATOM     48  C   UNL A   1      39.486  33.365  33.724  1.00  0.00     0.074 A 
ATOM     49  C   UNL A   1      38.420  34.333  33.617  1.00  0.00     0.031 C 
ATOM     50  C   UNL A   1      38.407  29.731  28.401  1.00  0.00     0.029 A 
ATOM     51  C   UNL A   1      39.491  29.538  29.352  1.00  0.00     0.049 A 
ATOM     52  H   UNL A   1      39.903  30.630  31.078  1.00  0.00     0.167 HD
ATOM     53  C   UNL A   1      40.417  33.342  34.703  1.00  0.00     0.031 A 
ATOM     54  C   UNL A   1      40.440  28.593  29.288  1.00  0.00     0.031 A 
ATOM     55  C   UNL A   1      41.447  32.340  34.746  1.00  0.00     0.049 A 
ATOM     56  C   UNL A   1      41.429  28.560  30.415  1.00  0.00     0.074 A 
ATOM     57  C   UNL A   1      42.441  32.149  35.685  1.00  0.00     0.029 A 
ATOM     58  N   UNL A   1      41.595  31.339  33.788  1.00  0.00    -0.354 N 
ATOM     59  N   UNL A   1      41.528  29.370  31.446  1.00  0.00    -0.248 NA
ATOM     60  C   UNL A   1      42.412  27.478  30.393  1.00  0.00     0.031 C 
ATOM     61  C   UNL A   1      43.211  31.055  35.272  1.00  0.00     0.029 A 
ATOM     62  C   UNL A   1      42.664  30.528  34.109  1.00  0.00     0.049 A 
ATOM     63  H   UNL A   1      41.019  31.227  32.997  1.00  0.00     0.167 HD
ATOM     64  C   UNL A   1      42.570  28.883  32.215  1.00  0.00     0.074 A 
ATOM     65  C   UNL A   1      43.054  27.692  31.534  1.00  0.00     0.031 C 
ATOM     66  C   UNL A   1      43.090  29.361  33.374  1.00  0.00     0.031 A 
BRANCH  53  67
ATOM     67  C   UNL A   1      40.350  34.419  35.750  1.00  0.00    -0.014 A 
ATOM     68  C   UNL A   1      41.098  35.604  35.631  1.00  0.00     0.009 A 
ATOM     69  C   UNL A   1      39.553  34.240  36.890  1.00  0.00     0.009 A 
ATOM     70  C   UNL A   1      41.085  36.560  36.650  1.00  0.00     0.001 A 
ATOM     71  C   UNL A   1      39.517  35.213  37.893  1.00  0.00     0.001 A 
ATOM     72  C   UNL A   1      40.292  36.366  37.778  1.00  0.00     0.000 A 
ENDBRANCH  53  67
BRANCH  54  73
ATOM     73  C   UNL A   1      40.429  27.606  28.182  1.00  0.00    -0.014 A 
ATOM     74  C   UNL A   1      41.200  27.823  27.029  1.00  0.00     0.009 A 
ATOM     75  C   UNL A   1      39.710  26.407  28.297  1.00  0.00     0.009 A 
ATOM     76  C   UNL A   1      41.227  26.873  26.005  1.00  0.00     0.001 A 
ATOM     77  C   UNL A   1      39.762  25.445  27.285  1.00  0.00     0.001 A 
ATOM     78  C   UNL A   1      40.511  25.684  26.136  1.00  0.00     0.000 A 
ENDBRANCH  54  73
BRANCH  66  79
ATOM     79  C   UNL A   1      44.209  28.562  33.967  1.00  0.00    -0.014 A 
ATOM     80  C   UNL A   1      43.955  27.504  34.852  1.00  0.00     0.009 A 
ATOM     81  C   UNL A   1      45.531  28.858  33.603  1.00  0.00     0.009 A 
ATOM     82  C   UNL A   1      45.014  26.781  35.397  1.00  0.00     0.001 A 
ATOM     83  C   UNL A   1      46.585  28.110  34.123  1.00  0.00     0.001 A 
ATOM     84  C   UNL A   1      46.325  27.081  35.028  1.00  0.00     0.000 A 
ENDBRANCH  66  79
ENDBRANCH  40  41
ENDBRANCH  32  35
ENDBRANCH  30  31
ENDBRANCH  29  30
ENDBRANCH  28  29
ENDBRANCH   3  28
TORSDOF 16
ENDMDL
MODEL 3
REMARK VINA RESULT:     -12.9      0.779      5.931
REMARK SMILES Cc1ccc(S(=O)(=O)Nc2ccc(C(=O)CCC(=O)NCCCNC(=O)c3ccc(-c4c5nc(c(-c6ccccc6)c6ccc([nH]6)c(-c6ccccc6)c6nc(c(-c7ccccc7)c7ccc4[nH]7)C=C6)C=C5)cc3)cc2)c(C)c1
REMARK SMILES IDX 18 1 19 2 20 3 17 5 16 6 14 7 15 8 13 9 10 10 11 11 76 12
REMARK SMILES IDX 12 13 75 14 9 15 6 17 7 18 8 19 5 20 1 21 2 22 3 23 79 24
REMARK SMILES IDX 4 25 77 26 78 27 21 28 22 29 23 30 24 31 25 32 26 34 27 35
REMARK SMILES IDX 28 36 74 37 29 38 73 39 30 40 31 41 32 42 67 43 33 44 72 45
REMARK SMILES IDX 66 46 68 47 34 48 71 49 65 50 64 51 35 53 57 54 42 55 56 56
REMARK SMILES IDX 43 57 46 58 55 59 69 60 44 61 45 62 54 64 70 65 47 66 36 67
REMARK SMILES IDX 37 68 41 69 38 70 40 71 39 72 58 73 59 74 63 75 60 76 62 77
REMARK SMILES IDX 61 78 48 79 49 80 53 81 50 82 52 83 51 84
REMARK H PARENT 20 4 9 16 24 33 68 52 46 63
REMARK Flexibility Score: inf
ROOT
ATOM      1  C   UNL A   1      33.422  28.647  24.584  1.00  0.00     0.220 C 
ATOM      2  O   UNL A   1      33.881  28.416  23.465  1.00  0.00    -0.275 OA
ATOM      3  N   UNL A   1      34.291  29.062  25.565  1.00  0.00    -0.356 N 
ATOM      4  H   UNL A   1      35.134  29.464  25.255  1.00  0.00     0.163 HD
ENDROOT
BRANCH   1   5
ATOM      5  C   UNL A   1      31.920  28.457  24.879  1.00  0.00     0.108 C 
BRANCH   5   6
ATOM      6  C   UNL A   1      30.957  29.399  24.098  1.00  0.00     0.091 C 
BRANCH   6   7
ATOM      7  C   UNL A   1      29.857  28.717  23.229  1.00  0.00     0.163 C 
ATOM      8  O   UNL A   1      28.871  29.316  22.813  1.00  0.00    -0.294 OA
BRANCH   7   9
ATOM      9  C   UNL A   1      29.892  27.212  23.072  1.00  0.00     0.018 A 
ATOM     10  C   UNL A   1      31.685  24.295  24.307  1.00  0.00     0.049 A 
ATOM     11  C   UNL A   1      30.246  24.971  25.242  1.00  0.00     0.027 A 
ATOM     12  C   UNL A   1      32.183  25.086  22.775  1.00  0.00     0.027 A 
ATOM     13  C   UNL A   1      29.326  26.385  24.591  1.00  0.00     0.014 A 
ATOM     14  C   UNL A   1      31.277  26.535  22.163  1.00  0.00     0.014 A 
BRANCH  10  15
ATOM     15  N   UNL A   1      31.956  22.893  24.510  1.00  0.00    -0.280 N 
ATOM     16  H   UNL A   1      31.277  22.239  24.226  1.00  0.00     0.180 HD
BRANCH  15  17
ATOM     17  S   UNL A   1      33.381  22.313  25.213  1.00  0.00     0.262 S 
ATOM     18  O   UNL A   1      33.140  22.122  26.626  1.00  0.00    -0.201 OA
ATOM     19  O   UNL A   1      34.437  23.187  24.748  1.00  0.00    -0.201 OA
BRANCH  17  20
ATOM     20  C   UNL A   1      33.635  20.729  24.463  1.00  0.00     0.090 A 
ATOM     21  C   UNL A   1      33.449  16.493  23.977  1.00  0.00     0.044 C 
ATOM     22  C   UNL A   1      33.578  17.983  24.045  1.00  0.00    -0.051 A 
ATOM     23  C   UNL A   1      32.540  18.780  23.566  1.00  0.00     0.005 A 
ATOM     24  C   UNL A   1      34.731  18.596  24.556  1.00  0.00     0.008 A 
ATOM     25  C   UNL A   1      32.583  20.155  23.750  1.00  0.00     0.023 A 
ATOM     26  C   UNL A   1      34.780  19.982  24.769  1.00  0.00    -0.030 A 
ATOM     27  C   UNL A   1      36.077  20.627  25.167  1.00  0.00     0.046 C 
ENDBRANCH  17  20
ENDBRANCH  15  17
ENDBRANCH  10  15
ENDBRANCH   7   9
ENDBRANCH   6   7
ENDBRANCH   5   6
ENDBRANCH   1   5
BRANCH   3  28
ATOM     28  C   UNL A   1      34.109  28.978  27.022  1.00  0.00     0.117 C 
BRANCH  28  29
ATOM     29  C   UNL A   1      33.767  30.509  27.550  1.00  0.00     0.042 C 
BRANCH  29  30
ATOM     30  C   UNL A   1      32.473  32.191  27.046  1.00  0.00     0.118 C 
BRANCH  30  31
ATOM     31  N   UNL A   1      32.526  33.751  27.622  1.00  0.00    -0.352 N 
ATOM     32  C   UNL A   1      33.189  34.502  28.518  1.00  0.00     0.251 C 
ATOM     33  H   UNL A   1      31.854  34.300  27.158  1.00  0.00     0.163 HD
ATOM     34  O   UNL A   1      32.794  35.655  28.683  1.00  0.00    -0.269 OA
BRANCH  32  35
ATOM     35  C   UNL A   1      34.338  34.023  29.245  1.00  0.00     0.039 A 
ATOM     36  C   UNL A   1      35.587  34.392  28.735  1.00  0.00     0.014 A 
ATOM     37  C   UNL A   1      34.192  33.120  30.293  1.00  0.00     0.014 A 
ATOM     38  C   UNL A   1      36.718  33.848  29.296  1.00  0.00     0.010 A 
ATOM     39  C   UNL A   1      35.323  32.642  30.912  1.00  0.00     0.010 A 
ATOM     40  C   UNL A   1      36.574  32.990  30.391  1.00  0.00    -0.014 A 
BRANCH  40  41
ATOM     41  C   UNL A   1      37.757  32.412  31.012  1.00  0.00     0.031 A 
ATOM     42  C   UNL A   1      38.405  31.243  30.353  1.00  0.00     0.074 A 
ATOM     43  C   UNL A   1      38.139  32.946  32.180  1.00  0.00     0.049 A 
ATOM     44  N   UNL A   1      39.426  30.544  30.756  1.00  0.00    -0.248 NA
ATOM     45  C   UNL A   1      37.799  30.764  29.096  1.00  0.00     0.031 C 
ATOM     46  C   UNL A   1      37.469  34.067  32.854  1.00  0.00     0.029 A 
ATOM     47  N   UNL A   1      39.173  32.630  33.002  1.00  0.00    -0.354 N 
ATOM     48  C   UNL A   1      39.572  29.532  29.817  1.00  0.00     0.074 A 
ATOM     49  C   UNL A   1      38.500  29.667  28.859  1.00  0.00     0.031 C 
ATOM     50  C   UNL A   1      38.144  34.371  33.971  1.00  0.00     0.029 A 
ATOM     51  C   UNL A   1      39.258  33.445  34.101  1.00  0.00     0.049 A 
ATOM     52  H   UNL A   1      39.799  31.891  32.825  1.00  0.00     0.167 HD
ATOM     53  C   UNL A   1      40.541  28.592  29.771  1.00  0.00     0.031 A 
ATOM     54  C   UNL A   1      40.162  33.432  35.090  1.00  0.00     0.031 A 
ATOM     55  C   UNL A   1      41.582  28.526  30.760  1.00  0.00     0.049 A 
ATOM     56  C   UNL A   1      41.255  32.410  34.984  1.00  0.00     0.074 A 
ATOM     57  C   UNL A   1      42.656  27.664  30.839  1.00  0.00     0.029 A 
ATOM     58  N   UNL A   1      41.670  29.388  31.850  1.00  0.00    -0.354 N 
ATOM     59  N   UNL A   1      41.424  31.478  34.072  1.00  0.00    -0.248 NA
ATOM     60  C   UNL A   1      42.291  32.448  36.016  1.00  0.00     0.031 C 
ATOM     61  C   UNL A   1      43.373  27.983  31.999  1.00  0.00     0.029 A 
ATOM     62  C   UNL A   1      42.779  29.080  32.612  1.00  0.00     0.049 A 
ATOM     63  H   UNL A   1      41.034  30.113  32.048  1.00  0.00     0.167 HD
ATOM     64  C   UNL A   1      42.602  30.832  34.401  1.00  0.00     0.074 A 
ATOM     65  C   UNL A   1      43.112  31.498  35.589  1.00  0.00     0.031 C 
ATOM     66  C   UNL A   1      43.218  29.787  33.790  1.00  0.00     0.031 A 
BRANCH  53  67
ATOM     67  C   UNL A   1      40.487  27.595  28.646  1.00  0.00    -0.014 A 
ATOM     68  C   UNL A   1      41.139  27.833  27.424  1.00  0.00     0.009 A 
ATOM     69  C   UNL A   1      39.750  26.411  28.793  1.00  0.00     0.009 A 
ATOM     70  C   UNL A   1      41.015  26.934  26.361  1.00  0.00     0.001 A 
ATOM     71  C   UNL A   1      39.653  25.497  27.740  1.00  0.00     0.001 A 
ATOM     72  C   UNL A   1      40.275  25.765  26.522  1.00  0.00     0.000 A 
ENDBRANCH  53  67
BRANCH  54  73
ATOM     73  C   UNL A   1      40.091  34.442  36.173  1.00  0.00    -0.014 A 
ATOM     74  C   UNL A   1      39.344  34.188  37.334  1.00  0.00     0.009 A 
ATOM     75  C   UNL A   1      40.827  35.635  36.091  1.00  0.00     0.009 A 
ATOM     76  C   UNL A   1      39.312  35.120  38.375  1.00  0.00     0.001 A 
ATOM     77  C   UNL A   1      40.817  36.551  37.146  1.00  0.00     0.001 A 
ATOM     78  C   UNL A   1      40.052  36.298  38.281  1.00  0.00     0.000 A 
ENDBRANCH  54  73
BRANCH  66  79
ATOM     79  C   UNL A   1      44.515  29.349  34.397  1.00  0.00    -0.014 A 
ATOM     80  C   UNL A   1      44.553  28.359  35.389  1.00  0.00     0.009 A 
ATOM     81  C   UNL A   1      45.713  29.917  33.938  1.00  0.00     0.009 A 
ATOM     82  C   UNL A   1      45.772  27.975  35.944  1.00  0.00     0.001 A 
ATOM     83  C   UNL A   1      46.933  29.504  34.471  1.00  0.00     0.001 A 
ATOM     84  C   UNL A   1      46.959  28.543  35.481  1.00  0.00     0.000 A 
ENDBRANCH  66  79
ENDBRANCH  40  41
ENDBRANCH  32  35
ENDBRANCH  30  31
ENDBRANCH  29  30
ENDBRANCH  28  29
ENDBRANCH   3  28
TORSDOF 16
ENDMDL
