MODEL 1
REMARK VINA RESULT:     -13.0      0.000      0.000
REMARK SMILES Cc1cc(C)c2c(CCCC(=O)NCCCNC(=O)c3ccc(-c4c5nc(c(-c6ccccc6)c6ccc([nH]6)c(-c6ccccc6)c6nc(c(-c7ccccc7)c7ccc4[nH]7)C=C6)C=C5)cc3)c(-c3ccccn3)[nH]c2c1
REMARK SMILES IDX 14 1 13 2 11 3 12 4 10 6 9 7 8 8 7 9 1 10 2 11 3 12 77 13
REMARK SMILES IDX 4 14 76 15 5 16 6 17 75 18 68 19 69 21 70 22 74 23 71 24
REMARK SMILES IDX 73 25 72 26 15 27 16 28 17 29 18 30 19 32 20 33 21 34 67 35
REMARK SMILES IDX 22 36 66 37 23 38 24 39 25 40 60 41 26 42 65 43 59 44 61 45
REMARK SMILES IDX 27 46 64 47 58 48 57 49 28 51 50 52 35 53 49 54 36 55 39 56
REMARK SMILES IDX 48 57 62 58 37 59 38 60 47 62 63 63 40 64 29 65 30 66 34 67
REMARK SMILES IDX 31 68 33 69 32 70 51 71 52 72 56 73 53 74 55 75 54 76 41 77
REMARK SMILES IDX 42 78 46 79 43 80 45 81 44 82
REMARK H PARENT 13 5 75 20 17 31 61 50 39 61
REMARK Flexibility Score: inf
ROOT
ATOM      1  C   UNL A   1      41.146  19.827  27.416  1.00  0.00     0.117 C 
ENDROOT
BRANCH   1   2
ATOM      2  N   UNL A   1      40.560  21.028  26.861  1.00  0.00    -0.356 N 
ATOM      3  C   UNL A   1      39.484  21.207  26.050  1.00  0.00     0.220 C 
ATOM      4  O   UNL A   1      39.111  22.376  25.893  1.00  0.00    -0.275 OA
ATOM      5  H   UNL A   1      41.020  21.861  27.117  1.00  0.00     0.163 HD
BRANCH   3   6
ATOM      6  C   UNL A   1      38.662  20.077  25.452  1.00  0.00     0.100 C 
BRANCH   6   7
ATOM      7  C   UNL A   1      37.368  20.279  24.698  1.00  0.00     0.015 C 
BRANCH   7   8
ATOM      8  C   UNL A   1      36.106  20.764  25.379  1.00  0.00     0.039 C 
BRANCH   8   9
ATOM      9  C   UNL A   1      34.699  20.843  24.812  1.00  0.00    -0.013 A 
ATOM     10  C   UNL A   1      32.052  25.250  22.198  1.00  0.00     0.044 C 
ATOM     11  C   UNL A   1      32.830  24.141  22.845  1.00  0.00    -0.049 A 
ATOM     12  C   UNL A   1      34.167  24.328  23.187  1.00  0.00     0.007 A 
ATOM     13  C   UNL A   1      32.228  22.901  23.065  1.00  0.00     0.030 A 
ATOM     14  C   UNL A   1      34.936  23.319  23.810  1.00  0.00    -0.041 A 
ATOM     15  C   UNL A   1      32.974  21.911  23.715  1.00  0.00     0.047 A 
ATOM     16  C   UNL A   1      36.392  23.636  24.056  1.00  0.00     0.045 C 
ATOM     17  C   UNL A   1      34.289  22.084  24.134  1.00  0.00     0.006 A 
ATOM     18  N   UNL A   1      32.610  20.633  24.039  1.00  0.00    -0.353 N 
ATOM     19  C   UNL A   1      33.648  19.925  24.603  1.00  0.00     0.068 A 
ATOM     20  H   UNL A   1      31.710  20.264  23.888  1.00  0.00     0.167 HD
BRANCH  19  21
ATOM     21  C   UNL A   1      33.485  18.465  24.680  1.00  0.00     0.087 A 
ATOM     22  C   UNL A   1      34.456  17.620  24.128  1.00  0.00     0.030 A 
ATOM     23  N   UNL A   1      32.423  17.997  25.362  1.00  0.00    -0.255 NA
ATOM     24  C   UNL A   1      34.430  16.262  24.436  1.00  0.00     0.004 A 
ATOM     25  C   UNL A   1      32.421  16.664  25.639  1.00  0.00     0.112 A 
ATOM     26  C   UNL A   1      33.411  15.777  25.240  1.00  0.00     0.020 A 
ENDBRANCH  19  21
ENDBRANCH   8   9
ENDBRANCH   7   8
ENDBRANCH   6   7
ENDBRANCH   3   6
ENDBRANCH   1   2
BRANCH   1  27
ATOM     27  C   UNL A   1      42.573  19.536  26.949  1.00  0.00     0.042 C 
BRANCH  27  28
ATOM     28  C   UNL A   1      42.697  19.459  25.449  1.00  0.00     0.118 C 
BRANCH  28  29
ATOM     29  N   UNL A   1      43.990  18.942  24.978  1.00  0.00    -0.352 N 
ATOM     30  C   UNL A   1      45.019  19.684  24.400  1.00  0.00     0.251 C 
ATOM     31  H   UNL A   1      44.145  17.975  25.082  1.00  0.00     0.163 HD
ATOM     32  O   UNL A   1      45.874  19.181  23.704  1.00  0.00    -0.269 OA
BRANCH  30  33
ATOM     33  C   UNL A   1      45.023  21.129  24.698  1.00  0.00     0.039 A 
ATOM     34  C   UNL A   1      44.244  22.057  24.006  1.00  0.00     0.014 A 
ATOM     35  C   UNL A   1      45.700  21.475  25.858  1.00  0.00     0.014 A 
ATOM     36  C   UNL A   1      44.085  23.321  24.570  1.00  0.00     0.010 A 
ATOM     37  C   UNL A   1      45.261  22.565  26.546  1.00  0.00     0.010 A 
ATOM     38  C   UNL A   1      44.574  23.552  25.868  1.00  0.00    -0.014 A 
BRANCH  38  39
ATOM     39  C   UNL A   1      44.347  24.787  26.600  1.00  0.00     0.031 A 
ATOM     40  C   UNL A   1      45.354  25.841  26.353  1.00  0.00     0.074 A 
ATOM     41  C   UNL A   1      43.231  25.020  27.327  1.00  0.00     0.049 A 
ATOM     42  N   UNL A   1      46.342  26.141  27.124  1.00  0.00    -0.248 NA
ATOM     43  C   UNL A   1      45.384  26.522  25.051  1.00  0.00     0.031 C 
ATOM     44  C   UNL A   1      41.998  24.223  27.447  1.00  0.00     0.029 A 
ATOM     45  N   UNL A   1      42.940  26.106  28.087  1.00  0.00    -0.354 N 
ATOM     46  C   UNL A   1      47.000  27.202  26.518  1.00  0.00     0.074 A 
ATOM     47  C   UNL A   1      46.487  27.267  25.171  1.00  0.00     0.031 C 
ATOM     48  C   UNL A   1      41.028  24.958  28.036  1.00  0.00     0.029 A 
ATOM     49  C   UNL A   1      41.622  26.187  28.519  1.00  0.00     0.049 A 
ATOM     50  H   UNL A   1      43.613  26.787  28.314  1.00  0.00     0.167 HD
ATOM     51  C   UNL A   1      47.722  28.081  27.266  1.00  0.00     0.031 A 
ATOM     52  C   UNL A   1      41.073  27.191  29.245  1.00  0.00     0.031 A 
ATOM     53  C   UNL A   1      47.908  27.588  28.612  1.00  0.00     0.049 A 
ATOM     54  C   UNL A   1      42.192  27.878  29.930  1.00  0.00     0.074 A 
ATOM     55  C   UNL A   1      48.519  26.482  29.168  1.00  0.00     0.029 A 
ATOM     56  N   UNL A   1      47.034  28.059  29.565  1.00  0.00    -0.354 N 
ATOM     57  N   UNL A   1      42.913  27.312  30.855  1.00  0.00    -0.248 NA
ATOM     58  C   UNL A   1      42.813  29.003  29.249  1.00  0.00     0.031 C 
ATOM     59  C   UNL A   1      47.641  26.069  30.215  1.00  0.00     0.029 A 
ATOM     60  C   UNL A   1      46.594  26.989  30.299  1.00  0.00     0.049 A 
ATOM     61  H   UNL A   1      46.772  28.999  29.697  1.00  0.00     0.167 HD
ATOM     62  C   UNL A   1      44.216  27.698  30.569  1.00  0.00     0.074 A 
ATOM     63  C   UNL A   1      44.081  28.811  29.628  1.00  0.00     0.031 C 
ATOM     64  C   UNL A   1      45.276  26.900  30.892  1.00  0.00     0.031 A 
BRANCH  51  65
ATOM     65  C   UNL A   1      47.877  29.545  26.942  1.00  0.00    -0.014 A 
ATOM     66  C   UNL A   1      49.099  30.167  27.263  1.00  0.00     0.009 A 
ATOM     67  C   UNL A   1      46.805  30.392  26.610  1.00  0.00     0.009 A 
ATOM     68  C   UNL A   1      49.209  31.559  27.349  1.00  0.00     0.001 A 
ATOM     69  C   UNL A   1      46.923  31.783  26.657  1.00  0.00     0.001 A 
ATOM     70  C   UNL A   1      48.116  32.367  27.059  1.00  0.00     0.000 A 
ENDBRANCH  51  65
BRANCH  52  71
ATOM     71  C   UNL A   1      39.726  27.793  29.136  1.00  0.00    -0.014 A 
ATOM     72  C   UNL A   1      38.926  27.960  30.280  1.00  0.00     0.009 A 
ATOM     73  C   UNL A   1      39.355  28.489  27.972  1.00  0.00     0.009 A 
ATOM     74  C   UNL A   1      37.835  28.841  30.276  1.00  0.00     0.001 A 
ATOM     75  C   UNL A   1      38.265  29.368  27.968  1.00  0.00     0.001 A 
ATOM     76  C   UNL A   1      37.517  29.558  29.127  1.00  0.00     0.000 A 
ENDBRANCH  52  71
BRANCH  64  77
ATOM     77  C   UNL A   1      45.017  25.684  31.753  1.00  0.00    -0.014 A 
ATOM     78  C   UNL A   1      45.100  25.697  33.158  1.00  0.00     0.009 A 
ATOM     79  C   UNL A   1      44.498  24.539  31.131  1.00  0.00     0.009 A 
ATOM     80  C   UNL A   1      44.684  24.592  33.912  1.00  0.00     0.001 A 
ATOM     81  C   UNL A   1      44.066  23.444  31.884  1.00  0.00     0.001 A 
ATOM     82  C   UNL A   1      44.160  23.470  33.273  1.00  0.00     0.000 A 
ENDBRANCH  64  77
ENDBRANCH  38  39
ENDBRANCH  30  33
ENDBRANCH  28  29
ENDBRANCH  27  28
ENDBRANCH   1  27
TORSDOF 14
ENDMDL
MODEL 2
REMARK VINA RESULT:     -12.3      3.289      8.560
REMARK SMILES Cc1cc(C)c2c(CCCC(=O)NCCCNC(=O)c3ccc(-c4c5nc(c(-c6ccccc6)c6ccc([nH]6)c(-c6ccccc6)c6nc(c(-c7ccccc7)c7ccc4[nH]7)C=C6)C=C5)cc3)c(-c3ccccn3)[nH]c2c1
REMARK SMILES IDX 14 1 13 2 11 3 12 4 10 6 9 7 8 8 7 9 1 10 2 11 3 12 77 13
REMARK SMILES IDX 4 14 76 15 5 16 6 17 75 18 68 19 69 21 70 22 74 23 71 24
REMARK SMILES IDX 73 25 72 26 15 27 16 28 17 29 18 30 19 32 20 33 21 34 67 35
REMARK SMILES IDX 22 36 66 37 23 38 24 39 25 40 60 41 26 42 65 43 59 44 61 45
REMARK SMILES IDX 27 46 64 47 58 48 57 49 28 51 50 52 35 53 49 54 36 55 39 56
REMARK SMILES IDX 48 57 62 58 37 59 38 60 47 62 63 63 40 64 29 65 30 66 34 67
REMARK SMILES IDX 31 68 33 69 32 70 51 71 52 72 56 73 53 74 55 75 54 76 41 77
REMARK SMILES IDX 42 78 46 79 43 80 45 81 44 82
REMARK H PARENT 13 5 75 20 17 31 61 50 39 61
REMARK Flexibility Score: inf
ROOT
ATOM      1  C   UNL A   1      31.972  28.506  26.966  1.00  0.00     0.117 C 
ENDROOT
BRANCH   1   2
ATOM      2  N   UNL A   1      31.436  27.794  25.825  1.00  0.00    -0.356 N 
ATOM      3  C   UNL A   1      32.041  27.001  24.901  1.00  0.00     0.220 C 
ATOM      4  O   UNL A   1      31.286  26.374  24.147  1.00  0.00    -0.275 OA
ATOM      5  H   UNL A   1      30.466  27.900  25.698  1.00  0.00     0.163 HD
BRANCH   3   6
ATOM      6  C   UNL A   1      33.538  26.751  24.831  1.00  0.00     0.100 C 
BRANCH   6   7
ATOM      7  C   UNL A   1      34.219  25.527  25.400  1.00  0.00     0.015 C 
BRANCH   7   8
ATOM      8  C   UNL A   1      34.708  24.396  24.520  1.00  0.00     0.039 C 
BRANCH   8   9
ATOM      9  C   UNL A   1      35.073  22.977  24.924  1.00  0.00    -0.013 A 
ATOM     10  C   UNL A   1      32.260  18.047  23.906  1.00  0.00     0.044 C 
ATOM     11  C   UNL A   1      32.951  19.368  24.086  1.00  0.00    -0.049 A 
ATOM     12  C   UNL A   1      32.419  20.521  23.512  1.00  0.00     0.007 A 
ATOM     13  C   UNL A   1      34.154  19.438  24.790  1.00  0.00     0.030 A 
ATOM     14  C   UNL A   1      33.026  21.789  23.666  1.00  0.00    -0.041 A 
ATOM     15  C   UNL A   1      34.738  20.696  24.975  1.00  0.00     0.047 A 
ATOM     16  C   UNL A   1      32.380  22.939  22.928  1.00  0.00     0.045 C 
ATOM     17  C   UNL A   1      34.200  21.879  24.479  1.00  0.00     0.006 A 
ATOM     18  N   UNL A   1      35.899  21.019  25.622  1.00  0.00    -0.353 N 
ATOM     19  C   UNL A   1      36.191  22.361  25.524  1.00  0.00     0.068 A 
ATOM     20  H   UNL A   1      36.459  20.367  26.102  1.00  0.00     0.167 HD
BRANCH  19  21
ATOM     21  C   UNL A   1      37.561  22.765  25.880  1.00  0.00     0.087 A 
ATOM     22  C   UNL A   1      37.811  24.062  26.346  1.00  0.00     0.030 A 
ATOM     23  N   UNL A   1      38.521  21.825  25.810  1.00  0.00    -0.255 NA
ATOM     24  C   UNL A   1      39.045  24.350  26.925  1.00  0.00     0.004 A 
ATOM     25  C   UNL A   1      39.719  22.139  26.375  1.00  0.00     0.112 A 
ATOM     26  C   UNL A   1      40.010  23.356  26.975  1.00  0.00     0.020 A 
ENDBRANCH  19  21
ENDBRANCH   8   9
ENDBRANCH   7   8
ENDBRANCH   6   7
ENDBRANCH   3   6
ENDBRANCH   1   2
BRANCH   1  27
ATOM     27  C   UNL A   1      32.488  29.912  26.657  1.00  0.00     0.042 C 
BRANCH  27  28
ATOM     28  C   UNL A   1      33.529  30.386  27.638  1.00  0.00     0.118 C 
BRANCH  28  29
ATOM     29  N   UNL A   1      34.226  31.613  27.229  1.00  0.00    -0.352 N 
ATOM     30  C   UNL A   1      35.459  32.063  27.698  1.00  0.00     0.251 C 
ATOM     31  H   UNL A   1      33.777  32.175  26.557  1.00  0.00     0.163 HD
ATOM     32  O   UNL A   1      35.803  33.222  27.624  1.00  0.00    -0.269 OA
BRANCH  30  33
ATOM     33  C   UNL A   1      36.345  31.035  28.279  1.00  0.00     0.039 A 
ATOM     34  C   UNL A   1      36.388  29.716  27.826  1.00  0.00     0.014 A 
ATOM     35  C   UNL A   1      37.287  31.524  29.171  1.00  0.00     0.014 A 
ATOM     36  C   UNL A   1      37.467  28.928  28.222  1.00  0.00     0.010 A 
ATOM     37  C   UNL A   1      38.477  30.868  29.259  1.00  0.00     0.010 A 
ATOM     38  C   UNL A   1      38.531  29.533  28.914  1.00  0.00    -0.014 A 
BRANCH  38  39
ATOM     39  C   UNL A   1      39.760  28.836  29.257  1.00  0.00     0.031 A 
ATOM     40  C   UNL A   1      39.975  28.645  30.707  1.00  0.00     0.074 A 
ATOM     41  C   UNL A   1      40.570  28.270  28.333  1.00  0.00     0.049 A 
ATOM     42  N   UNL A   1      40.745  29.354  31.459  1.00  0.00    -0.248 NA
ATOM     43  C   UNL A   1      39.132  27.691  31.443  1.00  0.00     0.031 C 
ATOM     44  C   UNL A   1      40.373  28.097  26.884  1.00  0.00     0.029 A 
ATOM     45  N   UNL A   1      41.758  27.647  28.533  1.00  0.00    -0.354 N 
ATOM     46  C   UNL A   1      40.662  28.801  32.729  1.00  0.00     0.074 A 
ATOM     47  C   UNL A   1      39.525  27.913  32.701  1.00  0.00     0.031 C 
ATOM     48  C   UNL A   1      41.284  27.225  26.394  1.00  0.00     0.029 A 
ATOM     49  C   UNL A   1      42.247  26.944  27.438  1.00  0.00     0.049 A 
ATOM     50  H   UNL A   1      42.238  27.688  29.391  1.00  0.00     0.167 HD
ATOM     51  C   UNL A   1      41.692  28.941  33.609  1.00  0.00     0.031 A 
ATOM     52  C   UNL A   1      43.381  26.203  27.398  1.00  0.00     0.031 A 
ATOM     53  C   UNL A   1      42.648  29.917  33.138  1.00  0.00     0.049 A 
ATOM     54  C   UNL A   1      44.246  26.695  28.495  1.00  0.00     0.074 A 
ATOM     55  C   UNL A   1      42.600  31.266  32.849  1.00  0.00     0.029 A 
ATOM     56  N   UNL A   1      43.755  29.427  32.483  1.00  0.00    -0.354 N 
ATOM     57  N   UNL A   1      44.768  27.889  28.507  1.00  0.00    -0.248 NA
ATOM     58  C   UNL A   1      44.129  26.047  29.791  1.00  0.00     0.031 C 
ATOM     59  C   UNL A   1      43.384  31.413  31.665  1.00  0.00     0.029 A 
ATOM     60  C   UNL A   1      43.936  30.170  31.346  1.00  0.00     0.049 A 
ATOM     61  H   UNL A   1      44.318  28.675  32.780  1.00  0.00     0.167 HD
ATOM     62  C   UNL A   1      44.625  28.321  29.818  1.00  0.00     0.074 A 
ATOM     63  C   UNL A   1      44.310  27.111  30.581  1.00  0.00     0.031 C 
ATOM     64  C   UNL A   1      44.489  29.647  30.115  1.00  0.00     0.031 A 
BRANCH  51  65
ATOM     65  C   UNL A   1      42.071  27.913  34.644  1.00  0.00    -0.014 A 
ATOM     66  C   UNL A   1      42.667  26.716  34.201  1.00  0.00     0.009 A 
ATOM     67  C   UNL A   1      41.619  27.937  35.975  1.00  0.00     0.009 A 
ATOM     68  C   UNL A   1      42.711  25.578  35.012  1.00  0.00     0.001 A 
ATOM     69  C   UNL A   1      41.696  26.813  36.801  1.00  0.00     0.001 A 
ATOM     70  C   UNL A   1      42.212  25.623  36.308  1.00  0.00     0.000 A 
ENDBRANCH  51  65
BRANCH  52  71
ATOM     71  C   UNL A   1      43.632  24.917  26.712  1.00  0.00    -0.014 A 
ATOM     72  C   UNL A   1      43.654  23.715  27.439  1.00  0.00     0.009 A 
ATOM     73  C   UNL A   1      43.533  24.832  25.311  1.00  0.00     0.009 A 
ATOM     74  C   UNL A   1      43.519  22.477  26.793  1.00  0.00     0.001 A 
ATOM     75  C   UNL A   1      43.398  23.596  24.667  1.00  0.00     0.001 A 
ATOM     76  C   UNL A   1      43.370  22.421  25.410  1.00  0.00     0.000 A 
ENDBRANCH  52  71
BRANCH  64  77
ATOM     77  C   UNL A   1      44.705  30.651  29.005  1.00  0.00    -0.014 A 
ATOM     78  C   UNL A   1      45.870  31.431  28.882  1.00  0.00     0.009 A 
ATOM     79  C   UNL A   1      43.778  30.676  27.953  1.00  0.00     0.009 A 
ATOM     80  C   UNL A   1      46.090  32.218  27.744  1.00  0.00     0.001 A 
ATOM     81  C   UNL A   1      44.006  31.445  26.810  1.00  0.00     0.001 A 
ATOM     82  C   UNL A   1      45.161  32.217  26.706  1.00  0.00     0.000 A 
ENDBRANCH  64  77
ENDBRANCH  38  39
ENDBRANCH  30  33
ENDBRANCH  28  29
ENDBRANCH  27  28
ENDBRANCH   1  27
TORSDOF 14
ENDMDL
MODEL 3
REMARK VINA RESULT:     -12.3      5.607     11.093
REMARK SMILES Cc1cc(C)c2c(CCCC(=O)NCCCNC(=O)c3ccc(-c4c5nc(c(-c6ccccc6)c6ccc([nH]6)c(-c6ccccc6)c6nc(c(-c7ccccc7)c7ccc4[nH]7)C=C6)C=C5)cc3)c(-c3ccccn3)[nH]c2c1
REMARK SMILES IDX 14 1 13 2 11 3 12 4 10 6 9 7 8 8 7 9 1 10 2 11 3 12 77 13
REMARK SMILES IDX 4 14 76 15 5 16 6 17 75 18 68 19 69 21 70 22 74 23 71 24
REMARK SMILES IDX 73 25 72 26 15 27 16 28 17 29 18 30 19 32 20 33 21 34 67 35
REMARK SMILES IDX 22 36 66 37 23 38 24 39 25 40 60 41 26 42 65 43 59 44 61 45
REMARK SMILES IDX 27 46 64 47 58 48 57 49 28 51 50 52 35 53 49 54 36 55 39 56
REMARK SMILES IDX 48 57 62 58 37 59 38 60 47 62 63 63 40 64 29 65 30 66 34 67
REMARK SMILES IDX 31 68 33 69 32 70 51 71 52 72 56 73 53 74 55 75 54 76 41 77
REMARK SMILES IDX 42 78 46 79 43 80 45 81 44 82
REMARK H PARENT 13 5 75 20 17 31 61 50 39 61
REMARK Flexibility Score: inf
ROOT
ATOM      1  C   UNL A   1      34.251  33.698  27.914  1.00  0.00     0.117 C 
ENDROOT
BRANCH   1   2
ATOM      2  N   UNL A   1      34.626  32.304  28.022  1.00  0.00    -0.356 N 
ATOM      3  C   UNL A   1      33.977  31.171  27.643  1.00  0.00     0.220 C 
ATOM      4  O   UNL A   1      34.636  30.125  27.697  1.00  0.00    -0.275 OA
ATOM      5  H   UNL A   1      35.503  32.149  28.442  1.00  0.00     0.163 HD
BRANCH   3   6
ATOM      6  C   UNL A   1      32.578  31.139  27.052  1.00  0.00     0.100 C 
BRANCH   6   7
ATOM      7  C   UNL A   1      32.039  30.005  26.211  1.00  0.00     0.015 C 
BRANCH   7   8
ATOM      8  C   UNL A   1      32.667  29.611  24.892  1.00  0.00     0.039 C 
BRANCH   8   9
ATOM      9  C   UNL A   1      32.071  28.767  23.778  1.00  0.00    -0.013 A 
ATOM     10  C   UNL A   1      33.283  23.338  22.257  1.00  0.00     0.044 C 
ATOM     11  C   UNL A   1      32.996  24.727  22.748  1.00  0.00    -0.049 A 
ATOM     12  C   UNL A   1      33.645  25.219  23.878  1.00  0.00     0.007 A 
ATOM     13  C   UNL A   1      32.043  25.515  22.100  1.00  0.00     0.030 A 
ATOM     14  C   UNL A   1      33.418  26.525  24.369  1.00  0.00    -0.041 A 
ATOM     15  C   UNL A   1      31.843  26.821  22.561  1.00  0.00     0.047 A 
ATOM     16  C   UNL A   1      34.136  26.899  25.645  1.00  0.00     0.045 C 
ATOM     17  C   UNL A   1      32.522  27.372  23.642  1.00  0.00     0.006 A 
ATOM     18  N   UNL A   1      30.978  27.773  22.098  1.00  0.00    -0.353 N 
ATOM     19  C   UNL A   1      31.007  28.917  22.864  1.00  0.00     0.068 A 
ATOM     20  H   UNL A   1      30.402  27.655  21.308  1.00  0.00     0.167 HD
BRANCH  19  21
ATOM     21  C   UNL A   1      29.898  29.866  22.676  1.00  0.00     0.087 A 
ATOM     22  C   UNL A   1      29.424  30.615  23.760  1.00  0.00     0.030 A 
ATOM     23  N   UNL A   1      29.430  30.029  21.424  1.00  0.00    -0.255 NA
ATOM     24  C   UNL A   1      28.568  31.689  23.522  1.00  0.00     0.004 A 
ATOM     25  C   UNL A   1      28.588  31.081  21.225  1.00  0.00     0.112 A 
ATOM     26  C   UNL A   1      28.169  31.951  22.221  1.00  0.00     0.020 A 
ENDBRANCH  19  21
ENDBRANCH   8   9
ENDBRANCH   7   8
ENDBRANCH   6   7
ENDBRANCH   3   6
ENDBRANCH   1   2
BRANCH   1  27
ATOM     27  C   UNL A   1      34.494  34.525  29.177  1.00  0.00     0.042 C 
BRANCH  27  28
ATOM     28  C   UNL A   1      33.310  34.537  30.109  1.00  0.00     0.118 C 
BRANCH  28  29
ATOM     29  N   UNL A   1      33.321  35.640  31.080  1.00  0.00    -0.352 N 
ATOM     30  C   UNL A   1      33.851  35.605  32.370  1.00  0.00     0.251 C 
ATOM     31  H   UNL A   1      32.914  36.488  30.792  1.00  0.00     0.163 HD
ATOM     32  O   UNL A   1      33.510  36.380  33.236  1.00  0.00    -0.269 OA
BRANCH  30  33
ATOM     33  C   UNL A   1      34.876  34.574  32.622  1.00  0.00     0.039 A 
ATOM     34  C   UNL A   1      34.589  33.210  32.690  1.00  0.00     0.014 A 
ATOM     35  C   UNL A   1      36.181  35.037  32.578  1.00  0.00     0.014 A 
ATOM     36  C   UNL A   1      35.657  32.317  32.612  1.00  0.00     0.010 A 
ATOM     37  C   UNL A   1      37.147  34.171  32.164  1.00  0.00     0.010 A 
ATOM     38  C   UNL A   1      36.937  32.815  32.311  1.00  0.00    -0.014 A 
BRANCH  38  39
ATOM     39  C   UNL A   1      38.091  31.963  32.077  1.00  0.00     0.031 A 
ATOM     40  C   UNL A   1      38.817  31.561  33.301  1.00  0.00     0.074 A 
ATOM     41  C   UNL A   1      38.395  31.448  30.864  1.00  0.00     0.049 A 
ATOM     42  N   UNL A   1      39.909  32.086  33.742  1.00  0.00    -0.248 NA
ATOM     43  C   UNL A   1      38.196  30.605  34.229  1.00  0.00     0.031 C 
ATOM     44  C   UNL A   1      37.634  31.488  29.604  1.00  0.00     0.029 A 
ATOM     45  N   UNL A   1      39.468  30.691  30.522  1.00  0.00    -0.354 N 
ATOM     46  C   UNL A   1      40.243  31.380  34.889  1.00  0.00     0.074 A 
ATOM     47  C   UNL A   1      39.068  30.619  35.241  1.00  0.00     0.031 C 
ATOM     48  C   UNL A   1      38.154  30.604  28.721  1.00  0.00     0.029 A 
ATOM     49  C   UNL A   1      39.394  30.095  29.269  1.00  0.00     0.049 A 
ATOM     50  H   UNL A   1      40.241  30.571  31.119  1.00  0.00     0.167 HD
ATOM     51  C   UNL A   1      41.540  31.301  35.294  1.00  0.00     0.031 A 
ATOM     52  C   UNL A   1      40.307  29.259  28.720  1.00  0.00     0.031 A 
ATOM     53  C   UNL A   1      42.370  32.234  34.566  1.00  0.00     0.049 A 
ATOM     54  C   UNL A   1      41.588  29.515  29.419  1.00  0.00     0.074 A 
ATOM     55  C   UNL A   1      42.406  33.607  34.433  1.00  0.00     0.029 A 
ATOM     56  N   UNL A   1      43.059  31.729  33.486  1.00  0.00    -0.354 N 
ATOM     57  N   UNL A   1      42.238  30.640  29.322  1.00  0.00    -0.248 NA
ATOM     58  C   UNL A   1      41.887  28.716  30.596  1.00  0.00     0.031 C 
ATOM     59  C   UNL A   1      42.687  33.833  33.052  1.00  0.00     0.029 A 
ATOM     60  C   UNL A   1      42.893  32.595  32.438  1.00  0.00     0.049 A 
ATOM     61  H   UNL A   1      43.580  30.894  33.471  1.00  0.00     0.167 HD
ATOM     62  C   UNL A   1      42.672  30.906  30.613  1.00  0.00     0.074 A 
ATOM     63  C   UNL A   1      42.506  29.643  31.335  1.00  0.00     0.031 C 
ATOM     64  C   UNL A   1      42.850  32.188  31.049  1.00  0.00     0.031 A 
BRANCH  51  65
ATOM     65  C   UNL A   1      42.138  30.113  36.004  1.00  0.00    -0.014 A 
ATOM     66  C   UNL A   1      43.335  30.305  36.721  1.00  0.00     0.009 A 
ATOM     67  C   UNL A   1      41.748  28.783  35.769  1.00  0.00     0.009 A 
ATOM     68  C   UNL A   1      44.147  29.226  37.088  1.00  0.00     0.001 A 
ATOM     69  C   UNL A   1      42.538  27.702  36.169  1.00  0.00     0.001 A 
ATOM     70  C   UNL A   1      43.754  27.925  36.799  1.00  0.00     0.000 A 
ENDBRANCH  51  65
BRANCH  52  71
ATOM     71  C   UNL A   1      40.091  28.057  27.886  1.00  0.00    -0.014 A 
ATOM     72  C   UNL A   1      40.837  27.861  26.711  1.00  0.00     0.009 A 
ATOM     73  C   UNL A   1      39.386  26.955  28.404  1.00  0.00     0.009 A 
ATOM     74  C   UNL A   1      40.925  26.595  26.114  1.00  0.00     0.001 A 
ATOM     75  C   UNL A   1      39.475  25.691  27.808  1.00  0.00     0.001 A 
ATOM     76  C   UNL A   1      40.261  25.508  26.674  1.00  0.00     0.000 A 
ENDBRANCH  52  71
BRANCH  64  77
ATOM     77  C   UNL A   1      42.763  33.304  30.033  1.00  0.00    -0.014 A 
ATOM     78  C   UNL A   1      41.595  34.055  29.802  1.00  0.00     0.009 A 
ATOM     79  C   UNL A   1      43.953  33.727  29.420  1.00  0.00     0.009 A 
ATOM     80  C   UNL A   1      41.619  35.185  28.975  1.00  0.00     0.001 A 
ATOM     81  C   UNL A   1      43.981  34.865  28.611  1.00  0.00     0.001 A 
ATOM     82  C   UNL A   1      42.815  35.593  28.387  1.00  0.00     0.000 A 
ENDBRANCH  64  77
ENDBRANCH  38  39
ENDBRANCH  30  33
ENDBRANCH  28  29
ENDBRANCH  27  28
ENDBRANCH   1  27
TORSDOF 14
ENDMDL
