MODEL 1
REMARK VINA RESULT:     -11.8      0.000      0.000
REMARK SMILES O=C(C[NH+]1CCN(c2ncc(C(F)(F)F)cc2Cl)CC1)NCCCNC(=O)c1ccc(-c2c3nc(c(-c4ccccc4)c4ccc([nH]4)c(-c4ccccc4)c4nc(c(-c5ccccc5)c5ccc2[nH]5)C=C4)C=C3)cc1
REMARK SMILES IDX 22 1 21 2 1 3 2 4 3 6 4 7 5 8 20 9 6 11 19 12 7 13 8 14 9 15
REMARK SMILES IDX 17 16 10 17 16 18 18 19 11 20 12 21 13 22 14 23 15 24 23 25
REMARK SMILES IDX 24 26 25 27 26 28 27 30 28 31 29 32 75 33 30 34 74 35 31 36
REMARK SMILES IDX 32 37 33 38 68 39 34 40 73 41 67 42 69 43 35 44 72 45 66 46
REMARK SMILES IDX 65 47 36 49 58 50 43 51 57 52 44 53 47 54 56 55 70 56 45 57
REMARK SMILES IDX 46 58 55 60 71 61 48 62 37 63 38 64 42 65 39 66 41 67 40 68
REMARK SMILES IDX 59 69 60 70 64 71 61 72 63 73 62 74 49 75 50 76 54 77 51 78
REMARK SMILES IDX 53 79 52 80
REMARK H PARENT 21 5 4 10 25 29 69 48 47 59
REMARK Flexibility Score: inf
ROOT
ATOM      1  C   UNL A   1      31.786  29.019  25.217  1.00  0.00     0.118 C 
ENDROOT
BRANCH   1   2
ATOM      2  N   UNL A   1      31.391  27.670  25.570  1.00  0.00    -0.351 N 
ATOM      3  O   UNL A   1      30.216  27.290  23.632  1.00  0.00    -0.269 OA
ATOM      4  C   UNL A   1      30.681  26.876  24.688  1.00  0.00     0.275 C 
ATOM      5  H   UNL A   1      31.634  27.312  26.454  1.00  0.00     0.163 HD
BRANCH   4   6
ATOM      6  C   UNL A   1      30.575  25.417  25.129  1.00  0.00     0.363 C 
BRANCH   6   7
ATOM      7  N   UNL A   1      31.829  24.846  25.641  1.00  0.00    -0.324 N 
ATOM      8  C   UNL A   1      31.651  23.775  26.647  1.00  0.00     0.284 C 
ATOM      9  C   UNL A   1      32.836  24.482  24.628  1.00  0.00     0.284 C 
ATOM     10  H   UNL A   1      32.228  25.647  26.130  1.00  0.00     0.348 HD
ATOM     11  C   UNL A   1      31.649  22.308  26.145  1.00  0.00     0.179 C 
ATOM     12  C   UNL A   1      32.796  23.026  24.105  1.00  0.00     0.179 C 
ATOM     13  N   UNL A   1      32.784  22.095  25.235  1.00  0.00    -0.344 N 
BRANCH  13  14
ATOM     14  C   UNL A   1      33.148  20.780  24.961  1.00  0.00     0.147 A 
ATOM     15  N   UNL A   1      32.157  19.889  24.703  1.00  0.00    -0.237 NA
ATOM     16  C   UNL A   1      34.493  20.363  24.964  1.00  0.00     0.084 A 
ATOM     17  C   UNL A   1      32.488  18.607  24.415  1.00  0.00     0.126 A 
ATOM     18  C   UNL A   1      34.806  19.037  24.657  1.00  0.00     0.039 A 
ATOM     19  Cl  UNL A   1      35.805  21.397  25.420  1.00  0.00    -0.080 Cl
ATOM     20  C   UNL A   1      33.787  18.130  24.371  1.00  0.00     0.075 A 
BRANCH  20  21
ATOM     21  C   UNL A   1      34.052  16.695  24.042  1.00  0.00     0.417 C 
ATOM     22  F   UNL A   1      32.980  15.896  24.296  1.00  0.00    -0.166 F 
ATOM     23  F   UNL A   1      34.357  16.509  22.729  1.00  0.00    -0.166 F 
ATOM     24  F   UNL A   1      35.089  16.162  24.745  1.00  0.00    -0.166 F 
ENDBRANCH  20  21
ENDBRANCH  13  14
ENDBRANCH   6   7
ENDBRANCH   4   6
ENDBRANCH   1   2
BRANCH   1  25
ATOM     25  C   UNL A   1      33.202  29.364  25.653  1.00  0.00     0.042 C 
BRANCH  25  26
ATOM     26  C   UNL A   1      33.454  29.297  27.156  1.00  0.00     0.118 C 
BRANCH  26  27
ATOM     27  N   UNL A   1      33.584  30.594  27.804  1.00  0.00    -0.352 N 
ATOM     28  C   UNL A   1      34.663  31.116  28.484  1.00  0.00     0.251 C 
ATOM     29  H   UNL A   1      32.792  31.178  27.750  1.00  0.00     0.163 HD
ATOM     30  O   UNL A   1      34.583  32.213  29.030  1.00  0.00    -0.269 OA
BRANCH  28  31
ATOM     31  C   UNL A   1      35.907  30.323  28.601  1.00  0.00     0.039 A 
ATOM     32  C   UNL A   1      36.811  30.323  27.535  1.00  0.00     0.014 A 
ATOM     33  C   UNL A   1      36.212  29.642  29.782  1.00  0.00     0.014 A 
ATOM     34  C   UNL A   1      38.070  29.737  27.695  1.00  0.00     0.010 A 
ATOM     35  C   UNL A   1      37.492  29.124  29.964  1.00  0.00     0.010 A 
ATOM     36  C   UNL A   1      38.443  29.187  28.931  1.00  0.00    -0.014 A 
BRANCH  36  37
ATOM     37  C   UNL A   1      39.827  28.714  29.196  1.00  0.00     0.031 A 
ATOM     38  C   UNL A   1      40.849  29.654  29.772  1.00  0.00     0.074 A 
ATOM     39  C   UNL A   1      40.197  27.474  28.817  1.00  0.00     0.049 A 
ATOM     40  N   UNL A   1      42.139  29.481  29.922  1.00  0.00    -0.248 NA
ATOM     41  C   UNL A   1      40.362  30.971  30.210  1.00  0.00     0.031 C 
ATOM     42  C   UNL A   1      39.318  26.468  28.218  1.00  0.00     0.029 A 
ATOM     43  N   UNL A   1      41.423  26.856  28.860  1.00  0.00    -0.354 N 
ATOM     44  C   UNL A   1      42.620  30.676  30.440  1.00  0.00     0.074 A 
ATOM     45  C   UNL A   1      41.491  31.576  30.549  1.00  0.00     0.031 C 
ATOM     46  C   UNL A   1      40.029  25.357  27.964  1.00  0.00     0.029 A 
ATOM     47  C   UNL A   1      41.420  25.586  28.335  1.00  0.00     0.049 A 
ATOM     48  H   UNL A   1      42.230  27.284  29.232  1.00  0.00     0.167 HD
ATOM     49  C   UNL A   1      43.885  30.995  30.803  1.00  0.00     0.031 A 
ATOM     50  C   UNL A   1      42.426  24.709  28.155  1.00  0.00     0.031 A 
ATOM     51  C   UNL A   1      45.006  30.097  30.721  1.00  0.00     0.049 A 
ATOM     52  C   UNL A   1      43.822  25.087  28.559  1.00  0.00     0.074 A 
ATOM     53  C   UNL A   1      46.315  30.315  31.118  1.00  0.00     0.029 A 
ATOM     54  N   UNL A   1      44.950  28.811  30.210  1.00  0.00    -0.354 N 
ATOM     55  N   UNL A   1      44.253  26.207  29.088  1.00  0.00    -0.248 NA
ATOM     56  C   UNL A   1      44.871  24.079  28.347  1.00  0.00     0.031 C 
ATOM     57  C   UNL A   1      47.059  29.171  30.812  1.00  0.00     0.029 A 
ATOM     58  C   UNL A   1      46.204  28.228  30.267  1.00  0.00     0.049 A 
ATOM     59  H   UNL A   1      44.140  28.376  29.857  1.00  0.00     0.167 HD
ATOM     60  C   UNL A   1      45.613  26.026  29.300  1.00  0.00     0.074 A 
ATOM     61  C   UNL A   1      45.937  24.689  28.848  1.00  0.00     0.031 C 
ATOM     62  C   UNL A   1      46.512  26.892  29.827  1.00  0.00     0.031 A 
BRANCH  49  63
ATOM     63  C   UNL A   1      44.126  32.384  31.320  1.00  0.00    -0.014 A 
ATOM     64  C   UNL A   1      44.090  32.664  32.695  1.00  0.00     0.009 A 
ATOM     65  C   UNL A   1      44.424  33.421  30.422  1.00  0.00     0.009 A 
ATOM     66  C   UNL A   1      44.313  33.962  33.157  1.00  0.00     0.001 A 
ATOM     67  C   UNL A   1      44.674  34.712  30.889  1.00  0.00     0.001 A 
ATOM     68  C   UNL A   1      44.609  34.984  32.255  1.00  0.00     0.000 A 
ENDBRANCH  49  63
BRANCH  50  69
ATOM     69  C   UNL A   1      42.150  23.373  27.563  1.00  0.00    -0.014 A 
ATOM     70  C   UNL A   1      42.381  23.142  26.199  1.00  0.00     0.009 A 
ATOM     71  C   UNL A   1      41.647  22.328  28.354  1.00  0.00     0.009 A 
ATOM     72  C   UNL A   1      42.095  21.898  25.634  1.00  0.00     0.001 A 
ATOM     73  C   UNL A   1      41.386  21.078  27.791  1.00  0.00     0.001 A 
ATOM     74  C   UNL A   1      41.602  20.866  26.430  1.00  0.00     0.000 A 
ENDBRANCH  50  69
BRANCH  62  75
ATOM     75  C   UNL A   1      47.922  26.409  29.994  1.00  0.00    -0.014 A 
ATOM     76  C   UNL A   1      48.358  25.831  31.195  1.00  0.00     0.009 A 
ATOM     77  C   UNL A   1      48.810  26.480  28.908  1.00  0.00     0.009 A 
ATOM     78  C   UNL A   1      49.665  25.352  31.312  1.00  0.00     0.001 A 
ATOM     79  C   UNL A   1      50.107  25.981  29.021  1.00  0.00     0.001 A 
ATOM     80  C   UNL A   1      50.536  25.422  30.224  1.00  0.00     0.000 A 
ENDBRANCH  62  75
ENDBRANCH  36  37
ENDBRANCH  28  31
ENDBRANCH  26  27
ENDBRANCH  25  26
ENDBRANCH   1  25
TORSDOF 13
ENDMDL
MODEL 2
REMARK VINA RESULT:     -11.6      4.124      8.437
REMARK SMILES O=C(C[NH+]1CCN(c2ncc(C(F)(F)F)cc2Cl)CC1)NCCCNC(=O)c1ccc(-c2c3nc(c(-c4ccccc4)c4ccc([nH]4)c(-c4ccccc4)c4nc(c(-c5ccccc5)c5ccc2[nH]5)C=C4)C=C3)cc1
REMARK SMILES IDX 22 1 21 2 1 3 2 4 3 6 4 7 5 8 20 9 6 11 19 12 7 13 8 14 9 15
REMARK SMILES IDX 17 16 10 17 16 18 18 19 11 20 12 21 13 22 14 23 15 24 23 25
REMARK SMILES IDX 24 26 25 27 26 28 27 30 28 31 29 32 75 33 30 34 74 35 31 36
REMARK SMILES IDX 32 37 33 38 68 39 34 40 73 41 67 42 69 43 35 44 72 45 66 46
REMARK SMILES IDX 65 47 36 49 58 50 43 51 57 52 44 53 47 54 56 55 70 56 45 57
REMARK SMILES IDX 46 58 55 60 71 61 48 62 37 63 38 64 42 65 39 66 41 67 40 68
REMARK SMILES IDX 59 69 60 70 64 71 61 72 63 73 62 74 49 75 50 76 54 77 51 78
REMARK SMILES IDX 53 79 52 80
REMARK H PARENT 21 5 4 10 25 29 69 48 47 59
REMARK Flexibility Score: inf
ROOT
ATOM      1  C   UNL A   1      35.808  20.690  25.042  1.00  0.00     0.118 C 
ENDROOT
BRANCH   1   2
ATOM      2  N   UNL A   1      34.609  21.476  24.826  1.00  0.00    -0.351 N 
ATOM      3  O   UNL A   1      34.692  22.536  26.863  1.00  0.00    -0.269 OA
ATOM      4  C   UNL A   1      34.186  22.410  25.753  1.00  0.00     0.275 C 
ATOM      5  H   UNL A   1      34.087  21.342  24.002  1.00  0.00     0.163 HD
BRANCH   4   6
ATOM      6  C   UNL A   1      33.060  23.309  25.245  1.00  0.00     0.363 C 
BRANCH   6   7
ATOM      7  N   UNL A   1      33.056  24.660  25.823  1.00  0.00    -0.324 N 
ATOM      8  C   UNL A   1      33.666  25.698  24.961  1.00  0.00     0.284 C 
ATOM      9  C   UNL A   1      31.780  25.113  26.404  1.00  0.00     0.284 C 
ATOM     10  H   UNL A   1      33.678  24.538  26.622  1.00  0.00     0.348 HD
ATOM     11  C   UNL A   1      32.722  26.517  24.041  1.00  0.00     0.179 C 
ATOM     12  C   UNL A   1      30.829  25.892  25.463  1.00  0.00     0.179 C 
ATOM     13  N   UNL A   1      31.560  26.982  24.813  1.00  0.00    -0.344 N 
BRANCH  13  14
ATOM     14  C   UNL A   1      30.793  28.004  24.263  1.00  0.00     0.147 A 
ATOM     15  N   UNL A   1      29.799  27.659  23.406  1.00  0.00    -0.237 NA
ATOM     16  C   UNL A   1      31.035  29.359  24.558  1.00  0.00     0.084 A 
ATOM     17  C   UNL A   1      29.026  28.636  22.872  1.00  0.00     0.126 A 
ATOM     18  C   UNL A   1      30.219  30.345  23.999  1.00  0.00     0.039 A 
ATOM     19  Cl  UNL A   1      32.368  29.895  25.525  1.00  0.00    -0.080 Cl
ATOM     20  C   UNL A   1      29.185  29.985  23.137  1.00  0.00     0.075 A 
BRANCH  20  21
ATOM     21  C   UNL A   1      28.279  30.990  22.499  1.00  0.00     0.417 C 
ATOM     22  F   UNL A   1      27.318  31.440  23.351  1.00  0.00    -0.166 F 
ATOM     23  F   UNL A   1      28.947  32.095  22.069  1.00  0.00    -0.166 F 
ATOM     24  F   UNL A   1      27.617  30.507  21.411  1.00  0.00    -0.166 F 
ENDBRANCH  20  21
ENDBRANCH  13  14
ENDBRANCH   6   7
ENDBRANCH   4   6
ENDBRANCH   1   2
BRANCH   1  25
ATOM     25  C   UNL A   1      37.073  21.375  24.545  1.00  0.00     0.042 C 
BRANCH  25  26
ATOM     26  C   UNL A   1      38.248  21.353  25.517  1.00  0.00     0.118 C 
BRANCH  26  27
ATOM     27  N   UNL A   1      39.059  20.146  25.456  1.00  0.00    -0.352 N 
ATOM     28  C   UNL A   1      40.353  19.951  25.888  1.00  0.00     0.251 C 
ATOM     29  H   UNL A   1      38.623  19.361  25.050  1.00  0.00     0.163 HD
ATOM     30  O   UNL A   1      40.916  18.876  25.701  1.00  0.00    -0.269 OA
BRANCH  28  31
ATOM     31  C   UNL A   1      41.085  21.066  26.531  1.00  0.00     0.039 A 
ATOM     32  C   UNL A   1      41.737  22.000  25.721  1.00  0.00     0.014 A 
ATOM     33  C   UNL A   1      41.066  21.228  27.918  1.00  0.00     0.014 A 
ATOM     34  C   UNL A   1      42.273  23.158  26.294  1.00  0.00     0.010 A 
ATOM     35  C   UNL A   1      41.534  22.416  28.476  1.00  0.00     0.010 A 
ATOM     36  C   UNL A   1      42.121  23.403  27.667  1.00  0.00    -0.014 A 
BRANCH  36  37
ATOM     37  C   UNL A   1      42.518  24.697  28.283  1.00  0.00     0.031 A 
ATOM     38  C   UNL A   1      41.497  25.781  28.487  1.00  0.00     0.074 A 
ATOM     39  C   UNL A   1      43.816  24.940  28.558  1.00  0.00     0.049 A 
ATOM     40  N   UNL A   1      41.676  27.026  28.853  1.00  0.00    -0.248 NA
ATOM     41  C   UNL A   1      40.096  25.428  28.215  1.00  0.00     0.031 C 
ATOM     42  C   UNL A   1      44.916  23.990  28.381  1.00  0.00     0.029 A 
ATOM     43  N   UNL A   1      44.432  26.075  29.025  1.00  0.00    -0.354 N 
ATOM     44  C   UNL A   1      40.417  27.610  28.825  1.00  0.00     0.074 A 
ATOM     45  C   UNL A   1      39.489  26.594  28.375  1.00  0.00     0.031 C 
ATOM     46  C   UNL A   1      46.068  24.576  28.749  1.00  0.00     0.029 A 
ATOM     47  C   UNL A   1      45.796  25.955  29.140  1.00  0.00     0.049 A 
ATOM     48  H   UNL A   1      43.942  26.898  29.256  1.00  0.00     0.167 HD
ATOM     49  C   UNL A   1      40.061  28.875  29.153  1.00  0.00     0.031 A 
ATOM     50  C   UNL A   1      46.729  26.857  29.501  1.00  0.00     0.031 A 
ATOM     51  C   UNL A   1      40.975  29.881  29.623  1.00  0.00     0.049 A 
ATOM     52  C   UNL A   1      46.311  28.255  29.854  1.00  0.00     0.074 A 
ATOM     53  C   UNL A   1      40.696  31.174  30.033  1.00  0.00     0.029 A 
ATOM     54  N   UNL A   1      42.343  29.706  29.751  1.00  0.00    -0.354 N 
ATOM     55  N   UNL A   1      45.110  28.780  29.863  1.00  0.00    -0.248 NA
ATOM     56  C   UNL A   1      47.378  29.186  30.252  1.00  0.00     0.031 C 
ATOM     57  C   UNL A   1      41.902  31.794  30.374  1.00  0.00     0.029 A 
ATOM     58  C   UNL A   1      42.924  30.873  30.219  1.00  0.00     0.049 A 
ATOM     59  H   UNL A   1      42.830  28.877  29.540  1.00  0.00     0.167 HD
ATOM     60  C   UNL A   1      45.272  30.089  30.296  1.00  0.00     0.074 A 
ATOM     61  C   UNL A   1      46.686  30.279  30.545  1.00  0.00     0.031 C 
ATOM     62  C   UNL A   1      44.330  31.046  30.476  1.00  0.00     0.031 A 
BRANCH  49  63
ATOM     63  C   UNL A   1      38.613  29.245  29.005  1.00  0.00    -0.014 A 
ATOM     64  C   UNL A   1      37.729  29.166  30.092  1.00  0.00     0.009 A 
ATOM     65  C   UNL A   1      38.134  29.711  27.770  1.00  0.00     0.009 A 
ATOM     66  C   UNL A   1      36.385  29.511  29.935  1.00  0.00     0.001 A 
ATOM     67  C   UNL A   1      36.797  30.082  27.625  1.00  0.00     0.001 A 
ATOM     68  C   UNL A   1      35.921  29.972  28.704  1.00  0.00     0.000 A 
ENDBRANCH  49  63
BRANCH  50  69
ATOM     69  C   UNL A   1      48.162  26.463  29.554  1.00  0.00    -0.014 A 
ATOM     70  C   UNL A   1      48.705  25.927  30.731  1.00  0.00     0.009 A 
ATOM     71  C   UNL A   1      48.993  26.628  28.434  1.00  0.00     0.009 A 
ATOM     72  C   UNL A   1      50.057  25.584  30.793  1.00  0.00     0.001 A 
ATOM     73  C   UNL A   1      50.338  26.260  28.493  1.00  0.00     0.001 A 
ATOM     74  C   UNL A   1      50.871  25.746  29.674  1.00  0.00     0.000 A 
ENDBRANCH  50  69
BRANCH  62  75
ATOM     75  C   UNL A   1      44.784  32.371  31.013  1.00  0.00    -0.014 A 
ATOM     76  C   UNL A   1      45.140  33.422  30.156  1.00  0.00     0.009 A 
ATOM     77  C   UNL A   1      44.796  32.586  32.400  1.00  0.00     0.009 A 
ATOM     78  C   UNL A   1      45.522  34.659  30.681  1.00  0.00     0.001 A 
ATOM     79  C   UNL A   1      45.156  33.829  32.921  1.00  0.00     0.001 A 
ATOM     80  C   UNL A   1      45.523  34.864  32.061  1.00  0.00     0.000 A 
ENDBRANCH  62  75
ENDBRANCH  36  37
ENDBRANCH  28  31
ENDBRANCH  26  27
ENDBRANCH  25  26
ENDBRANCH   1  25
TORSDOF 13
ENDMDL
MODEL 3
REMARK VINA RESULT:     -11.5      2.389      6.817
REMARK SMILES O=C(C[NH+]1CCN(c2ncc(C(F)(F)F)cc2Cl)CC1)NCCCNC(=O)c1ccc(-c2c3nc(c(-c4ccccc4)c4ccc([nH]4)c(-c4ccccc4)c4nc(c(-c5ccccc5)c5ccc2[nH]5)C=C4)C=C3)cc1
REMARK SMILES IDX 22 1 21 2 1 3 2 4 3 6 4 7 5 8 20 9 6 11 19 12 7 13 8 14 9 15
REMARK SMILES IDX 17 16 10 17 16 18 18 19 11 20 12 21 13 22 14 23 15 24 23 25
REMARK SMILES IDX 24 26 25 27 26 28 27 30 28 31 29 32 75 33 30 34 74 35 31 36
REMARK SMILES IDX 32 37 33 38 68 39 34 40 73 41 67 42 69 43 35 44 72 45 66 46
REMARK SMILES IDX 65 47 36 49 58 50 43 51 57 52 44 53 47 54 56 55 70 56 45 57
REMARK SMILES IDX 46 58 55 60 71 61 48 62 37 63 38 64 42 65 39 66 41 67 40 68
REMARK SMILES IDX 59 69 60 70 64 71 61 72 63 73 62 74 49 75 50 76 54 77 51 78
REMARK SMILES IDX 53 79 52 80
REMARK H PARENT 21 5 4 10 25 29 69 48 47 59
REMARK Flexibility Score: inf
ROOT
ATOM      1  C   UNL A   1      32.746  29.524  25.401  1.00  0.00     0.118 C 
ENDROOT
BRANCH   1   2
ATOM      2  N   UNL A   1      33.049  28.180  25.851  1.00  0.00    -0.351 N 
ATOM      3  O   UNL A   1      31.077  27.267  25.103  1.00  0.00    -0.269 OA
ATOM      4  C   UNL A   1      32.194  27.125  25.589  1.00  0.00     0.275 C 
ATOM      5  H   UNL A   1      33.880  28.015  26.352  1.00  0.00     0.163 HD
BRANCH   4   6
ATOM      6  C   UNL A   1      32.793  25.758  25.915  1.00  0.00     0.363 C 
BRANCH   6   7
ATOM      7  N   UNL A   1      31.849  24.638  25.791  1.00  0.00    -0.324 N 
ATOM      8  C   UNL A   1      31.788  24.033  24.442  1.00  0.00     0.284 C 
ATOM      9  C   UNL A   1      31.917  23.612  26.847  1.00  0.00     0.284 C 
ATOM     10  H   UNL A   1      30.957  25.110  25.943  1.00  0.00     0.348 HD
ATOM     11  C   UNL A   1      32.680  22.794  24.167  1.00  0.00     0.179 C 
ATOM     12  C   UNL A   1      32.844  22.403  26.578  1.00  0.00     0.179 C 
ATOM     13  N   UNL A   1      32.538  21.829  25.266  1.00  0.00    -0.344 N 
BRANCH  13  14
ATOM     14  C   UNL A   1      32.980  20.529  25.038  1.00  0.00     0.147 A 
ATOM     15  N   UNL A   1      32.051  19.540  25.010  1.00  0.00    -0.237 NA
ATOM     16  C   UNL A   1      34.343  20.225  24.859  1.00  0.00     0.084 A 
ATOM     17  C   UNL A   1      32.454  18.268  24.771  1.00  0.00     0.126 A 
ATOM     18  C   UNL A   1      34.731  18.907  24.607  1.00  0.00     0.039 A 
ATOM     19  Cl  UNL A   1      35.604  21.400  25.020  1.00  0.00    -0.080 Cl
ATOM     20  C   UNL A   1      33.770  17.898  24.557  1.00  0.00     0.075 A 
BRANCH  20  21
ATOM     21  C   UNL A   1      34.118  16.466  24.299  1.00  0.00     0.417 C 
ATOM     22  F   UNL A   1      35.261  16.086  24.932  1.00  0.00    -0.166 F 
ATOM     23  F   UNL A   1      33.150  15.610  24.726  1.00  0.00    -0.166 F 
ATOM     24  F   UNL A   1      34.310  16.185  22.981  1.00  0.00    -0.166 F 
ENDBRANCH  20  21
ENDBRANCH  13  14
ENDBRANCH   6   7
ENDBRANCH   4   6
ENDBRANCH   1   2
BRANCH   1  25
ATOM     25  C   UNL A   1      32.098  30.385  26.476  1.00  0.00     0.042 C 
BRANCH  25  26
ATOM     26  C   UNL A   1      33.053  31.290  27.246  1.00  0.00     0.118 C 
BRANCH  26  27
ATOM     27  N   UNL A   1      32.533  32.621  27.522  1.00  0.00    -0.352 N 
ATOM     28  C   UNL A   1      33.114  33.646  28.238  1.00  0.00     0.251 C 
ATOM     29  H   UNL A   1      31.644  32.817  27.145  1.00  0.00     0.163 HD
ATOM     30  O   UNL A   1      32.505  34.694  28.429  1.00  0.00    -0.269 OA
BRANCH  28  31
ATOM     31  C   UNL A   1      34.459  33.456  28.825  1.00  0.00     0.039 A 
ATOM     32  C   UNL A   1      34.572  32.787  30.048  1.00  0.00     0.014 A 
ATOM     33  C   UNL A   1      35.604  33.869  28.141  1.00  0.00     0.014 A 
ATOM     34  C   UNL A   1      35.837  32.432  30.527  1.00  0.00     0.010 A 
ATOM     35  C   UNL A   1      36.856  33.451  28.583  1.00  0.00     0.010 A 
ATOM     36  C   UNL A   1      36.985  32.708  29.768  1.00  0.00    -0.014 A 
BRANCH  36  37
ATOM     37  C   UNL A   1      38.325  32.194  30.156  1.00  0.00     0.031 A 
ATOM     38  C   UNL A   1      38.820  30.885  29.608  1.00  0.00     0.074 A 
ATOM     39  C   UNL A   1      39.052  32.848  31.084  1.00  0.00     0.049 A 
ATOM     40  N   UNL A   1      39.880  30.194  29.948  1.00  0.00    -0.248 NA
ATOM     41  C   UNL A   1      38.000  30.255  28.561  1.00  0.00     0.031 C 
ATOM     42  C   UNL A   1      38.681  34.112  31.723  1.00  0.00     0.029 A 
ATOM     43  N   UNL A   1      40.251  32.523  31.671  1.00  0.00    -0.354 N 
ATOM     44  C   UNL A   1      39.836  29.037  29.181  1.00  0.00     0.074 A 
ATOM     45  C   UNL A   1      38.630  29.103  28.383  1.00  0.00     0.031 C 
ATOM     46  C   UNL A   1      39.637  34.461  32.599  1.00  0.00     0.029 A 
ATOM     47  C   UNL A   1      40.663  33.426  32.621  1.00  0.00     0.049 A 
ATOM     48  H   UNL A   1      40.767  31.717  31.433  1.00  0.00     0.167 HD
ATOM     49  C   UNL A   1      40.723  28.015  29.136  1.00  0.00     0.031 A 
ATOM     50  C   UNL A   1      41.737  33.415  33.434  1.00  0.00     0.031 A 
ATOM     51  C   UNL A   1      41.935  27.956  29.909  1.00  0.00     0.049 A 
ATOM     52  C   UNL A   1      42.704  32.268  33.371  1.00  0.00     0.074 A 
ATOM     53  C   UNL A   1      42.923  26.985  29.887  1.00  0.00     0.029 A 
ATOM     54  N   UNL A   1      42.327  28.906  30.837  1.00  0.00    -0.354 N 
ATOM     55  N   UNL A   1      42.670  31.201  32.610  1.00  0.00    -0.248 NA
ATOM     56  C   UNL A   1      43.861  32.324  34.277  1.00  0.00     0.031 C 
ATOM     57  C   UNL A   1      43.895  27.331  30.832  1.00  0.00     0.029 A 
ATOM     58  C   UNL A   1      43.534  28.539  31.406  1.00  0.00     0.049 A 
ATOM     59  H   UNL A   1      41.821  29.722  31.060  1.00  0.00     0.167 HD
ATOM     60  C   UNL A   1      43.813  30.478  32.921  1.00  0.00     0.074 A 
ATOM     61  C   UNL A   1      44.523  31.227  33.936  1.00  0.00     0.031 C 
ATOM     62  C   UNL A   1      44.237  29.298  32.406  1.00  0.00     0.031 A 
BRANCH  49  63
ATOM     63  C   UNL A   1      40.409  26.867  28.220  1.00  0.00    -0.014 A 
ATOM     64  C   UNL A   1      40.922  26.818  26.915  1.00  0.00     0.009 A 
ATOM     65  C   UNL A   1      39.615  25.805  28.680  1.00  0.00     0.009 A 
ATOM     66  C   UNL A   1      40.616  25.745  26.077  1.00  0.00     0.001 A 
ATOM     67  C   UNL A   1      39.334  24.720  27.848  1.00  0.00     0.001 A 
ATOM     68  C   UNL A   1      39.827  24.695  26.544  1.00  0.00     0.000 A 
ENDBRANCH  49  63
BRANCH  50  69
ATOM     69  C   UNL A   1      41.962  34.537  34.383  1.00  0.00    -0.014 A 
ATOM     70  C   UNL A   1      41.464  34.467  35.693  1.00  0.00     0.009 A 
ATOM     71  C   UNL A   1      42.666  35.684  33.984  1.00  0.00     0.009 A 
ATOM     72  C   UNL A   1      41.647  35.531  36.577  1.00  0.00     0.001 A 
ATOM     73  C   UNL A   1      42.869  36.736  34.879  1.00  0.00     0.001 A 
ATOM     74  C   UNL A   1      42.353  36.663  36.172  1.00  0.00     0.000 A 
ENDBRANCH  50  69
BRANCH  62  75
ATOM     75  C   UNL A   1      45.554  28.766  32.890  1.00  0.00    -0.014 A 
ATOM     76  C   UNL A   1      46.761  29.146  32.287  1.00  0.00     0.009 A 
ATOM     77  C   UNL A   1      45.585  27.915  34.007  1.00  0.00     0.009 A 
ATOM     78  C   UNL A   1      47.976  28.667  32.782  1.00  0.00     0.001 A 
ATOM     79  C   UNL A   1      46.802  27.456  34.513  1.00  0.00     0.001 A 
ATOM     80  C   UNL A   1      47.996  27.828  33.897  1.00  0.00     0.000 A 
ENDBRANCH  62  75
ENDBRANCH  36  37
ENDBRANCH  28  31
ENDBRANCH  26  27
ENDBRANCH  25  26
ENDBRANCH   1  25
TORSDOF 13
ENDMDL
