MODEL 1
REMARK VINA RESULT:     -13.3      0.000      0.000
REMARK SMILES CC1=C(CC(=O)NCCCNC(=O)c2ccc(-c3c4nc(c(-c5ccccc5)c5ccc([nH]5)c(-c5ccccc5)c5nc(c(-c6ccccc6)c6ccc3[nH]6)C=C5)C=C4)cc2)c2cc(F)ccc2/C1=C\c1cccc(OCc2ccccc2)c1
REMARK SMILES IDX 5 1 6 2 7 3 4 5 3 6 1 7 2 8 69 9 62 10 68 11 70 12 63 13
REMARK SMILES IDX 67 14 64 15 66 16 65 17 71 18 72 19 84 20 73 21 75 22 74 23
REMARK SMILES IDX 76 24 77 25 78 26 79 27 83 28 80 29 82 30 81 31 8 32 9 33
REMARK SMILES IDX 10 34 11 35 12 36 13 38 14 39 15 40 61 41 16 42 60 43 17 44
REMARK SMILES IDX 18 45 19 46 54 47 20 48 59 49 53 50 55 51 21 52 58 53 52 54
REMARK SMILES IDX 51 55 22 57 44 58 29 59 43 60 30 61 33 62 42 63 56 64 31 65
REMARK SMILES IDX 32 66 41 68 57 69 34 70 23 71 24 72 28 73 25 74 27 75 26 76
REMARK SMILES IDX 45 77 46 78 50 79 47 80 49 81 48 82 35 83 36 84 40 85 37 86
REMARK SMILES IDX 39 87 38 88
REMARK H PARENT 7 4 11 37 55 56 33 67
REMARK Flexibility Score: inf
ROOT
ATOM      1  C   UNL A   1      33.836  20.301  25.160  1.00  0.00     0.224 C 
ATOM      2  O   UNL A   1      33.056  19.515  25.703  1.00  0.00    -0.275 OA
ATOM      3  N   UNL A   1      35.121  20.348  25.615  1.00  0.00    -0.356 N 
ATOM      4  H   UNL A   1      35.333  19.725  26.348  1.00  0.00     0.163 HD
ENDROOT
BRANCH   1   5
ATOM      5  C   UNL A   1      33.393  21.179  23.992  1.00  0.00     0.136 C 
BRANCH   5   6
ATOM      6  C   UNL A   1      33.138  22.595  24.394  1.00  0.00    -0.027 C 
ATOM      7  C   UNL A   1      34.998  23.843  23.150  1.00  0.00     0.045 C 
ATOM      8  C   UNL A   1      33.824  23.715  24.065  1.00  0.00    -0.039 C 
ATOM      9  C   UNL A   1      33.233  24.871  24.755  1.00  0.00    -0.014 C 
ATOM     10  C   UNL A   1      32.004  22.998  25.247  1.00  0.00    -0.011 A 
ATOM     11  C   UNL A   1      32.027  24.391  25.449  1.00  0.00    -0.010 A 
ATOM     12  C   UNL A   1      33.768  26.105  24.757  1.00  0.00     0.017 C 
ATOM     13  C   UNL A   1      30.996  22.223  25.805  1.00  0.00     0.048 A 
ATOM     14  C   UNL A   1      31.028  25.021  26.178  1.00  0.00     0.012 A 
ATOM     15  C   UNL A   1      30.015  22.861  26.560  1.00  0.00     0.123 A 
ATOM     16  C   UNL A   1      30.019  24.243  26.746  1.00  0.00     0.040 A 
ATOM     17  F   UNL A   1      29.040  22.132  27.119  1.00  0.00    -0.207 F 
BRANCH  12  18
ATOM     18  C   UNL A   1      33.199  27.285  25.404  1.00  0.00    -0.021 A 
ATOM     19  C   UNL A   1      33.514  27.635  26.719  1.00  0.00     0.008 A 
ATOM     20  C   UNL A   1      32.288  28.056  24.675  1.00  0.00     0.054 A 
ATOM     21  C   UNL A   1      32.895  28.739  27.305  1.00  0.00     0.004 A 
ATOM     22  C   UNL A   1      31.709  29.191  25.235  1.00  0.00     0.120 A 
ATOM     23  C   UNL A   1      31.997  29.513  26.563  1.00  0.00     0.046 A 
BRANCH  22  24
ATOM     24  O   UNL A   1      30.861  30.051  24.590  1.00  0.00    -0.489 OA
BRANCH  24  25
ATOM     25  C   UNL A   1      29.846  29.491  23.742  1.00  0.00     0.265 C 
BRANCH  25  26
ATOM     26  C   UNL A   1      29.151  30.528  22.884  1.00  0.00    -0.011 A 
ATOM     27  C   UNL A   1      29.017  31.847  23.341  1.00  0.00     0.007 A 
ATOM     28  C   UNL A   1      28.661  30.199  21.611  1.00  0.00     0.007 A 
ATOM     29  C   UNL A   1      28.437  32.821  22.528  1.00  0.00     0.000 A 
ATOM     30  C   UNL A   1      28.095  31.179  20.793  1.00  0.00     0.000 A 
ATOM     31  C   UNL A   1      27.986  32.490  21.252  1.00  0.00     0.000 A 
ENDBRANCH  25  26
ENDBRANCH  24  25
ENDBRANCH  22  24
ENDBRANCH  12  18
ENDBRANCH   5   6
ENDBRANCH   1   5
BRANCH   3  32
ATOM     32  C   UNL A   1      36.220  21.184  25.174  1.00  0.00     0.117 C 
BRANCH  32  33
ATOM     33  C   UNL A   1      37.462  20.374  24.819  1.00  0.00     0.042 C 
BRANCH  33  34
ATOM     34  C   UNL A   1      38.666  20.651  25.711  1.00  0.00     0.118 C 
BRANCH  34  35
ATOM     35  N   UNL A   1      39.696  19.622  25.629  1.00  0.00    -0.352 N 
ATOM     36  C   UNL A   1      41.031  19.681  25.949  1.00  0.00     0.251 C 
ATOM     37  H   UNL A   1      39.387  18.751  25.291  1.00  0.00     0.163 HD
ATOM     38  O   UNL A   1      41.761  18.728  25.685  1.00  0.00    -0.269 OA
BRANCH  36  39
ATOM     39  C   UNL A   1      41.604  20.898  26.568  1.00  0.00     0.039 A 
ATOM     40  C   UNL A   1      41.548  21.101  27.946  1.00  0.00     0.014 A 
ATOM     41  C   UNL A   1      42.196  21.863  25.747  1.00  0.00     0.014 A 
ATOM     42  C   UNL A   1      41.897  22.338  28.476  1.00  0.00     0.010 A 
ATOM     43  C   UNL A   1      42.635  23.072  26.295  1.00  0.00     0.010 A 
ATOM     44  C   UNL A   1      42.429  23.347  27.655  1.00  0.00    -0.014 A 
BRANCH  44  45
ATOM     45  C   UNL A   1      42.724  24.680  28.242  1.00  0.00     0.031 A 
ATOM     46  C   UNL A   1      44.144  25.100  28.523  1.00  0.00     0.074 A 
ATOM     47  C   UNL A   1      41.717  25.553  28.440  1.00  0.00     0.049 A 
ATOM     48  N   UNL A   1      44.591  26.259  28.940  1.00  0.00    -0.248 NA
ATOM     49  C   UNL A   1      45.200  24.096  28.312  1.00  0.00     0.031 C 
ATOM     50  C   UNL A   1      40.301  25.273  28.191  1.00  0.00     0.029 A 
ATOM     51  N   UNL A   1      41.729  26.863  28.851  1.00  0.00    -0.354 N 
ATOM     52  C   UNL A   1      45.970  26.118  29.053  1.00  0.00     0.074 A 
ATOM     53  C   UNL A   1      46.285  24.753  28.697  1.00  0.00     0.031 C 
ATOM     54  C   UNL A   1      39.592  26.395  28.384  1.00  0.00     0.029 A 
ATOM     55  C   UNL A   1      40.490  27.456  28.829  1.00  0.00     0.049 A 
ATOM     56  H   UNL A   1      42.547  27.333  29.135  1.00  0.00     0.167 HD
ATOM     57  C   UNL A   1      46.891  27.046  29.405  1.00  0.00     0.031 A 
ATOM     58  C   UNL A   1      40.110  28.715  29.126  1.00  0.00     0.031 A 
ATOM     59  C   UNL A   1      46.578  28.407  29.748  1.00  0.00     0.049 A 
ATOM     60  C   UNL A   1      41.147  29.716  29.545  1.00  0.00     0.074 A 
ATOM     61  C   UNL A   1      47.449  29.422  30.107  1.00  0.00     0.029 A 
ATOM     62  N   UNL A   1      45.302  28.948  29.772  1.00  0.00    -0.354 N 
ATOM     63  N   UNL A   1      42.447  29.568  29.631  1.00  0.00    -0.248 NA
ATOM     64  C   UNL A   1      40.670  31.061  29.903  1.00  0.00     0.031 C 
ATOM     65  C   UNL A   1      46.696  30.559  30.404  1.00  0.00     0.029 A 
ATOM     66  C   UNL A   1      45.362  30.276  30.158  1.00  0.00     0.049 A 
ATOM     67  H   UNL A   1      44.477  28.460  29.546  1.00  0.00     0.167 HD
ATOM     68  C   UNL A   1      42.945  30.802  30.031  1.00  0.00     0.074 A 
ATOM     69  C   UNL A   1      41.810  31.692  30.156  1.00  0.00     0.031 C 
ATOM     70  C   UNL A   1      44.229  31.158  30.273  1.00  0.00     0.031 A 
BRANCH  57  71
ATOM     71  C   UNL A   1      48.336  26.629  29.448  1.00  0.00    -0.014 A 
ATOM     72  C   UNL A   1      48.881  26.128  30.641  1.00  0.00     0.009 A 
ATOM     73  C   UNL A   1      49.182  26.819  28.343  1.00  0.00     0.009 A 
ATOM     74  C   UNL A   1      50.244  25.842  30.733  1.00  0.00     0.001 A 
ATOM     75  C   UNL A   1      50.540  26.502  28.429  1.00  0.00     0.001 A 
ATOM     76  C   UNL A   1      51.071  26.024  29.627  1.00  0.00     0.000 A 
ENDBRANCH  57  71
BRANCH  58  77
ATOM     77  C   UNL A   1      38.676  29.090  29.006  1.00  0.00    -0.014 A 
ATOM     78  C   UNL A   1      38.163  29.566  27.788  1.00  0.00     0.009 A 
ATOM     79  C   UNL A   1      37.825  29.028  30.119  1.00  0.00     0.009 A 
ATOM     80  C   UNL A   1      36.840  30.001  27.694  1.00  0.00     0.001 A 
ATOM     81  C   UNL A   1      36.492  29.433  30.014  1.00  0.00     0.001 A 
ATOM     82  C   UNL A   1      36.004  29.931  28.807  1.00  0.00     0.000 A 
ENDBRANCH  58  77
BRANCH  70  83
ATOM     83  C   UNL A   1      44.505  32.580  30.675  1.00  0.00    -0.014 A 
ATOM     84  C   UNL A   1      44.632  32.903  32.036  1.00  0.00     0.009 A 
ATOM     85  C   UNL A   1      44.520  33.613  29.727  1.00  0.00     0.009 A 
ATOM     86  C   UNL A   1      44.750  34.233  32.443  1.00  0.00     0.001 A 
ATOM     87  C   UNL A   1      44.668  34.942  30.134  1.00  0.00     0.001 A 
ATOM     88  C   UNL A   1      44.771  35.250  31.491  1.00  0.00     0.000 A 
ENDBRANCH  70  83
ENDBRANCH  44  45
ENDBRANCH  36  39
ENDBRANCH  34  35
ENDBRANCH  33  34
ENDBRANCH  32  33
ENDBRANCH   3  32
TORSDOF 15
ENDMDL
MODEL 2
REMARK VINA RESULT:     -13.3      4.278     10.109
REMARK SMILES CC1=C(CC(=O)NCCCNC(=O)c2ccc(-c3c4nc(c(-c5ccccc5)c5ccc([nH]5)c(-c5ccccc5)c5nc(c(-c6ccccc6)c6ccc3[nH]6)C=C5)C=C4)cc2)c2cc(F)ccc2/C1=C\c1cccc(OCc2ccccc2)c1
REMARK SMILES IDX 5 1 6 2 7 3 4 5 3 6 1 7 2 8 69 9 62 10 68 11 70 12 63 13
REMARK SMILES IDX 67 14 64 15 66 16 65 17 71 18 72 19 84 20 73 21 75 22 74 23
REMARK SMILES IDX 76 24 77 25 78 26 79 27 83 28 80 29 82 30 81 31 8 32 9 33
REMARK SMILES IDX 10 34 11 35 12 36 13 38 14 39 15 40 61 41 16 42 60 43 17 44
REMARK SMILES IDX 18 45 19 46 54 47 20 48 59 49 53 50 55 51 21 52 58 53 52 54
REMARK SMILES IDX 51 55 22 57 44 58 29 59 43 60 30 61 33 62 42 63 56 64 31 65
REMARK SMILES IDX 32 66 41 68 57 69 34 70 23 71 24 72 28 73 25 74 27 75 26 76
REMARK SMILES IDX 45 77 46 78 50 79 47 80 49 81 48 82 35 83 36 84 40 85 37 86
REMARK SMILES IDX 39 87 38 88
REMARK H PARENT 7 4 11 37 55 56 33 67
REMARK Flexibility Score: inf
ROOT
ATOM      1  C   UNL A   1      31.381  29.445  23.975  1.00  0.00     0.224 C 
ATOM      2  O   UNL A   1      30.497  29.108  23.185  1.00  0.00    -0.275 OA
ATOM      3  N   UNL A   1      31.005  30.032  25.148  1.00  0.00    -0.356 N 
ATOM      4  H   UNL A   1      30.034  30.129  25.280  1.00  0.00     0.163 HD
ENDROOT
BRANCH   1   5
ATOM      5  C   UNL A   1      32.855  29.190  23.673  1.00  0.00     0.136 C 
BRANCH   5   6
ATOM      6  C   UNL A   1      33.269  27.781  23.949  1.00  0.00    -0.027 C 
ATOM      7  C   UNL A   1      33.976  27.908  26.409  1.00  0.00     0.045 C 
ATOM      8  C   UNL A   1      33.766  27.243  25.088  1.00  0.00    -0.039 C 
ATOM      9  C   UNL A   1      34.089  25.827  24.859  1.00  0.00    -0.014 C 
ATOM     10  C   UNL A   1      33.162  26.700  22.951  1.00  0.00    -0.011 A 
ATOM     11  C   UNL A   1      33.627  25.491  23.502  1.00  0.00    -0.010 A 
ATOM     12  C   UNL A   1      34.735  25.046  25.743  1.00  0.00     0.017 C 
ATOM     13  C   UNL A   1      32.677  26.740  21.650  1.00  0.00     0.048 A 
ATOM     14  C   UNL A   1      33.579  24.311  22.773  1.00  0.00     0.012 A 
ATOM     15  C   UNL A   1      32.662  25.557  20.916  1.00  0.00     0.123 A 
ATOM     16  C   UNL A   1      33.099  24.350  21.463  1.00  0.00     0.040 A 
ATOM     17  F   UNL A   1      32.211  25.573  19.655  1.00  0.00    -0.207 F 
BRANCH  12  18
ATOM     18  C   UNL A   1      35.049  23.630  25.568  1.00  0.00    -0.021 A 
ATOM     19  C   UNL A   1      36.269  23.200  25.040  1.00  0.00     0.008 A 
ATOM     20  C   UNL A   1      34.069  22.694  25.915  1.00  0.00     0.054 A 
ATOM     21  C   UNL A   1      36.491  21.838  24.841  1.00  0.00     0.004 A 
ATOM     22  C   UNL A   1      34.306  21.330  25.771  1.00  0.00     0.120 A 
ATOM     23  C   UNL A   1      35.512  20.908  25.206  1.00  0.00     0.046 A 
BRANCH  22  24
ATOM     24  O   UNL A   1      33.446  20.330  26.141  1.00  0.00    -0.489 OA
BRANCH  24  25
ATOM     25  C   UNL A   1      32.641  19.717  25.122  1.00  0.00     0.265 C 
BRANCH  25  26
ATOM     26  C   UNL A   1      32.963  18.253  24.912  1.00  0.00    -0.011 A 
ATOM     27  C   UNL A   1      33.766  17.854  23.835  1.00  0.00     0.007 A 
ATOM     28  C   UNL A   1      32.496  17.277  25.807  1.00  0.00     0.007 A 
ATOM     29  C   UNL A   1      34.120  16.513  23.674  1.00  0.00     0.000 A 
ATOM     30  C   UNL A   1      32.865  15.940  25.654  1.00  0.00     0.000 A 
ATOM     31  C   UNL A   1      33.679  15.559  24.589  1.00  0.00     0.000 A 
ENDBRANCH  25  26
ENDBRANCH  24  25
ENDBRANCH  22  24
ENDBRANCH  12  18
ENDBRANCH   5   6
ENDBRANCH   1   5
BRANCH   3  32
ATOM     32  C   UNL A   1      31.831  30.534  26.228  1.00  0.00     0.117 C 
BRANCH  32  33
ATOM     33  C   UNL A   1      31.543  31.996  26.551  1.00  0.00     0.042 C 
BRANCH  33  34
ATOM     34  C   UNL A   1      32.662  32.703  27.305  1.00  0.00     0.118 C 
BRANCH  34  35
ATOM     35  N   UNL A   1      32.337  34.077  27.666  1.00  0.00    -0.352 N 
ATOM     36  C   UNL A   1      32.956  34.929  28.551  1.00  0.00     0.251 C 
ATOM     37  H   UNL A   1      31.553  34.454  27.206  1.00  0.00     0.163 HD
ATOM     38  O   UNL A   1      32.445  36.016  28.806  1.00  0.00    -0.269 OA
BRANCH  36  39
ATOM     39  C   UNL A   1      34.209  34.527  29.230  1.00  0.00     0.039 A 
ATOM     40  C   UNL A   1      35.452  34.738  28.634  1.00  0.00     0.014 A 
ATOM     41  C   UNL A   1      34.134  33.912  30.484  1.00  0.00     0.014 A 
ATOM     42  C   UNL A   1      36.590  34.163  29.191  1.00  0.00     0.010 A 
ATOM     43  C   UNL A   1      35.294  33.417  31.089  1.00  0.00     0.010 A 
ATOM     44  C   UNL A   1      36.523  33.481  30.417  1.00  0.00    -0.014 A 
BRANCH  44  45
ATOM     45  C   UNL A   1      37.744  32.818  30.945  1.00  0.00     0.031 A 
ATOM     46  C   UNL A   1      38.342  33.245  32.262  1.00  0.00     0.074 A 
ATOM     47  C   UNL A   1      38.267  31.768  30.283  1.00  0.00     0.049 A 
ATOM     48  N   UNL A   1      39.344  32.714  32.920  1.00  0.00    -0.248 NA
ATOM     49  C   UNL A   1      37.746  34.414  32.927  1.00  0.00     0.031 C 
ATOM     50  C   UNL A   1      37.769  31.248  29.007  1.00  0.00     0.029 A 
ATOM     51  N   UNL A   1      39.298  30.922  30.607  1.00  0.00    -0.354 N 
ATOM     52  C   UNL A   1      39.502  33.490  34.063  1.00  0.00     0.074 A 
ATOM     53  C   UNL A   1      38.522  34.549  33.994  1.00  0.00     0.031 C 
ATOM     54  C   UNL A   1      38.446  30.132  28.696  1.00  0.00     0.029 A 
ATOM     55  C   UNL A   1      39.465  29.892  29.713  1.00  0.00     0.049 A 
ATOM     56  H   UNL A   1      39.865  31.041  31.405  1.00  0.00     0.167 HD
ATOM     57  C   UNL A   1      40.375  33.325  35.085  1.00  0.00     0.031 A 
ATOM     58  C   UNL A   1      40.335  28.862  29.706  1.00  0.00     0.031 A 
ATOM     59  C   UNL A   1      41.344  32.264  35.159  1.00  0.00     0.049 A 
ATOM     60  C   UNL A   1      41.314  28.720  30.836  1.00  0.00     0.074 A 
ATOM     61  C   UNL A   1      42.263  32.012  36.163  1.00  0.00     0.029 A 
ATOM     62  N   UNL A   1      41.519  31.279  34.200  1.00  0.00    -0.354 N 
ATOM     63  N   UNL A   1      41.439  29.455  31.914  1.00  0.00    -0.248 NA
ATOM     64  C   UNL A   1      42.270  27.606  30.753  1.00  0.00     0.031 C 
ATOM     65  C   UNL A   1      43.032  30.910  35.785  1.00  0.00     0.029 A 
ATOM     66  C   UNL A   1      42.543  30.430  34.580  1.00  0.00     0.049 A 
ATOM     67  H   UNL A   1      40.991  31.196  33.371  1.00  0.00     0.167 HD
ATOM     68  C   UNL A   1      42.469  28.881  32.648  1.00  0.00     0.074 A 
ATOM     69  C   UNL A   1      42.926  27.728  31.900  1.00  0.00     0.031 C 
ATOM     70  C   UNL A   1      42.987  29.280  33.834  1.00  0.00     0.031 A 
BRANCH  57  71
ATOM     71  C   UNL A   1      40.338  34.317  36.216  1.00  0.00    -0.014 A 
ATOM     72  C   UNL A   1      39.491  34.091  37.313  1.00  0.00     0.009 A 
ATOM     73  C   UNL A   1      41.066  35.516  36.157  1.00  0.00     0.009 A 
ATOM     74  C   UNL A   1      39.360  35.052  38.317  1.00  0.00     0.001 A 
ATOM     75  C   UNL A   1      40.956  36.462  37.179  1.00  0.00     0.001 A 
ATOM     76  C   UNL A   1      40.095  36.233  38.252  1.00  0.00     0.000 A 
ENDBRANCH  57  71
BRANCH  58  77
ATOM     77  C   UNL A   1      40.286  27.875  28.596  1.00  0.00    -0.014 A 
ATOM     78  C   UNL A   1      39.574  26.672  28.741  1.00  0.00     0.009 A 
ATOM     79  C   UNL A   1      40.994  28.101  27.406  1.00  0.00     0.009 A 
ATOM     80  C   UNL A   1      39.597  25.705  27.735  1.00  0.00     0.001 A 
ATOM     81  C   UNL A   1      40.989  27.145  26.387  1.00  0.00     0.001 A 
ATOM     82  C   UNL A   1      40.301  25.944  26.557  1.00  0.00     0.000 A 
ENDBRANCH  58  77
BRANCH  70  83
ATOM     83  C   UNL A   1      44.096  28.460  34.434  1.00  0.00    -0.014 A 
ATOM     84  C   UNL A   1      43.782  27.355  35.242  1.00  0.00     0.009 A 
ATOM     85  C   UNL A   1      45.438  28.847  34.303  1.00  0.00     0.009 A 
ATOM     86  C   UNL A   1      44.786  26.664  35.921  1.00  0.00     0.001 A 
ATOM     87  C   UNL A   1      46.445  28.134  34.959  1.00  0.00     0.001 A 
ATOM     88  C   UNL A   1      46.116  27.052  35.776  1.00  0.00     0.000 A 
ENDBRANCH  70  83
ENDBRANCH  44  45
ENDBRANCH  36  39
ENDBRANCH  34  35
ENDBRANCH  33  34
ENDBRANCH  32  33
ENDBRANCH   3  32
TORSDOF 15
ENDMDL
MODEL 3
REMARK VINA RESULT:     -13.0      0.400      5.616
REMARK SMILES CC1=C(CC(=O)NCCCNC(=O)c2ccc(-c3c4nc(c(-c5ccccc5)c5ccc([nH]5)c(-c5ccccc5)c5nc(c(-c6ccccc6)c6ccc3[nH]6)C=C5)C=C4)cc2)c2cc(F)ccc2/C1=C\c1cccc(OCc2ccccc2)c1
REMARK SMILES IDX 5 1 6 2 7 3 4 5 3 6 1 7 2 8 69 9 62 10 68 11 70 12 63 13
REMARK SMILES IDX 67 14 64 15 66 16 65 17 71 18 72 19 84 20 73 21 75 22 74 23
REMARK SMILES IDX 76 24 77 25 78 26 79 27 83 28 80 29 82 30 81 31 8 32 9 33
REMARK SMILES IDX 10 34 11 35 12 36 13 38 14 39 15 40 61 41 16 42 60 43 17 44
REMARK SMILES IDX 18 45 19 46 54 47 20 48 59 49 53 50 55 51 21 52 58 53 52 54
REMARK SMILES IDX 51 55 22 57 44 58 29 59 43 60 30 61 33 62 42 63 56 64 31 65
REMARK SMILES IDX 32 66 41 68 57 69 34 70 23 71 24 72 28 73 25 74 27 75 26 76
REMARK SMILES IDX 45 77 46 78 50 79 47 80 49 81 48 82 35 83 36 84 40 85 37 86
REMARK SMILES IDX 39 87 38 88
REMARK H PARENT 7 4 11 37 55 56 33 67
REMARK Flexibility Score: inf
ROOT
ATOM      1  C   UNL A   1      33.864  20.146  25.188  1.00  0.00     0.224 C 
ATOM      2  O   UNL A   1      33.099  19.331  25.707  1.00  0.00    -0.275 OA
ATOM      3  N   UNL A   1      35.124  20.260  25.696  1.00  0.00    -0.356 N 
ATOM      4  H   UNL A   1      35.333  19.657  26.446  1.00  0.00     0.163 HD
ENDROOT
BRANCH   1   5
ATOM      5  C   UNL A   1      33.432  20.988  23.990  1.00  0.00     0.136 C 
BRANCH   5   6
ATOM      6  C   UNL A   1      33.223  22.426  24.335  1.00  0.00    -0.027 C 
ATOM      7  C   UNL A   1      35.115  23.565  23.036  1.00  0.00     0.045 C 
ATOM      8  C   UNL A   1      33.942  23.510  23.959  1.00  0.00    -0.039 C 
ATOM      9  C   UNL A   1      33.390  24.711  24.604  1.00  0.00    -0.014 C 
ATOM     10  C   UNL A   1      32.105  22.898  25.175  1.00  0.00    -0.011 A 
ATOM     11  C   UNL A   1      32.173  24.296  25.321  1.00  0.00    -0.010 A 
ATOM     12  C   UNL A   1      33.964  25.926  24.555  1.00  0.00     0.017 C 
ATOM     13  C   UNL A   1      31.076  22.178  25.767  1.00  0.00     0.048 A 
ATOM     14  C   UNL A   1      31.198  24.987  26.028  1.00  0.00     0.012 A 
ATOM     15  C   UNL A   1      30.120  22.876  26.500  1.00  0.00     0.123 A 
ATOM     16  C   UNL A   1      30.167  24.264  26.630  1.00  0.00     0.040 A 
ATOM     17  F   UNL A   1      29.125  22.201  27.090  1.00  0.00    -0.207 F 
BRANCH  12  18
ATOM     18  C   UNL A   1      33.435  27.149  25.156  1.00  0.00    -0.021 A 
ATOM     19  C   UNL A   1      33.738  27.523  26.468  1.00  0.00     0.008 A 
ATOM     20  C   UNL A   1      32.573  27.937  24.386  1.00  0.00     0.054 A 
ATOM     21  C   UNL A   1      33.158  28.670  27.008  1.00  0.00     0.004 A 
ATOM     22  C   UNL A   1      32.034  29.113  24.902  1.00  0.00     0.120 A 
ATOM     23  C   UNL A   1      32.310  29.460  26.226  1.00  0.00     0.046 A 
BRANCH  22  24
ATOM     24  O   UNL A   1      31.238  29.989  24.215  1.00  0.00    -0.489 OA
BRANCH  24  25
ATOM     25  C   UNL A   1      29.905  29.572  23.878  1.00  0.00     0.265 C 
BRANCH  25  26
ATOM     26  C   UNL A   1      29.176  30.567  23.001  1.00  0.00    -0.011 A 
ATOM     27  C   UNL A   1      28.902  31.858  23.474  1.00  0.00     0.007 A 
ATOM     28  C   UNL A   1      28.794  30.230  21.693  1.00  0.00     0.007 A 
ATOM     29  C   UNL A   1      28.289  32.800  22.646  1.00  0.00     0.000 A 
ATOM     30  C   UNL A   1      28.196  31.178  20.861  1.00  0.00     0.000 A 
ATOM     31  C   UNL A   1      27.946  32.463  21.338  1.00  0.00     0.000 A 
ENDBRANCH  25  26
ENDBRANCH  24  25
ENDBRANCH  22  24
ENDBRANCH  12  18
ENDBRANCH   5   6
ENDBRANCH   1   5
BRANCH   3  32
ATOM     32  C   UNL A   1      36.201  21.142  25.291  1.00  0.00     0.117 C 
BRANCH  32  33
ATOM     33  C   UNL A   1      37.455  20.379  24.876  1.00  0.00     0.042 C 
BRANCH  33  34
ATOM     34  C   UNL A   1      38.700  20.740  25.676  1.00  0.00     0.118 C 
BRANCH  34  35
ATOM     35  N   UNL A   1      39.686  19.667  25.726  1.00  0.00    -0.352 N 
ATOM     36  C   UNL A   1      41.015  19.703  26.075  1.00  0.00     0.251 C 
ATOM     37  H   UNL A   1      39.347  18.779  25.470  1.00  0.00     0.163 HD
ATOM     38  O   UNL A   1      41.709  18.700  25.929  1.00  0.00    -0.269 OA
BRANCH  36  39
ATOM     39  C   UNL A   1      41.625  20.953  26.584  1.00  0.00     0.039 A 
ATOM     40  C   UNL A   1      41.602  21.266  27.942  1.00  0.00     0.014 A 
ATOM     41  C   UNL A   1      42.220  21.836  25.677  1.00  0.00     0.014 A 
ATOM     42  C   UNL A   1      41.987  22.534  28.364  1.00  0.00     0.010 A 
ATOM     43  C   UNL A   1      42.696  23.075  26.118  1.00  0.00     0.010 A 
ATOM     44  C   UNL A   1      42.523  23.461  27.455  1.00  0.00    -0.014 A 
BRANCH  44  45
ATOM     45  C   UNL A   1      42.857  24.831  27.928  1.00  0.00     0.031 A 
ATOM     46  C   UNL A   1      41.771  25.849  28.164  1.00  0.00     0.074 A 
ATOM     47  C   UNL A   1      44.135  25.133  28.232  1.00  0.00     0.049 A 
ATOM     48  N   UNL A   1      41.871  27.056  28.667  1.00  0.00    -0.248 NA
ATOM     49  C   UNL A   1      40.399  25.473  27.788  1.00  0.00     0.031 C 
ATOM     50  C   UNL A   1      45.274  24.228  28.064  1.00  0.00     0.029 A 
ATOM     51  N   UNL A   1      44.686  26.261  28.786  1.00  0.00    -0.354 N 
ATOM     52  C   UNL A   1      40.584  27.581  28.655  1.00  0.00     0.074 A 
ATOM     53  C   UNL A   1      39.725  26.582  28.063  1.00  0.00     0.031 C 
ATOM     54  C   UNL A   1      46.372  24.807  28.572  1.00  0.00     0.029 A 
ATOM     55  C   UNL A   1      46.030  26.146  29.044  1.00  0.00     0.049 A 
ATOM     56  H   UNL A   1      44.167  27.076  28.981  1.00  0.00     0.167 HD
ATOM     57  C   UNL A   1      40.155  28.781  29.112  1.00  0.00     0.031 A 
ATOM     58  C   UNL A   1      46.898  27.012  29.603  1.00  0.00     0.031 A 
ATOM     59  C   UNL A   1      41.008  29.772  29.712  1.00  0.00     0.049 A 
ATOM     60  C   UNL A   1      46.402  28.350  30.072  1.00  0.00     0.074 A 
ATOM     61  C   UNL A   1      40.658  31.014  30.213  1.00  0.00     0.029 A 
ATOM     62  N   UNL A   1      42.375  29.637  29.896  1.00  0.00    -0.354 N 
ATOM     63  N   UNL A   1      45.180  28.823  30.066  1.00  0.00    -0.248 NA
ATOM     64  C   UNL A   1      47.402  29.273  30.630  1.00  0.00     0.031 C 
ATOM     65  C   UNL A   1      41.820  31.652  30.648  1.00  0.00     0.029 A 
ATOM     66  C   UNL A   1      42.885  30.780  30.486  1.00  0.00     0.049 A 
ATOM     67  H   UNL A   1      42.904  28.844  29.645  1.00  0.00     0.167 HD
ATOM     68  C   UNL A   1      45.258  30.087  30.637  1.00  0.00     0.074 A 
ATOM     69  C   UNL A   1      46.645  30.301  30.992  1.00  0.00     0.031 C 
ATOM     70  C   UNL A   1      44.265  30.984  30.844  1.00  0.00     0.031 A 
BRANCH  57  71
ATOM     71  C   UNL A   1      38.692  29.108  28.979  1.00  0.00    -0.014 A 
ATOM     72  C   UNL A   1      38.201  29.630  27.771  1.00  0.00     0.009 A 
ATOM     73  C   UNL A   1      37.818  28.990  30.072  1.00  0.00     0.009 A 
ATOM     74  C   UNL A   1      36.872  30.044  27.665  1.00  0.00     0.001 A 
ATOM     75  C   UNL A   1      36.480  29.376  29.953  1.00  0.00     0.001 A 
ATOM     76  C   UNL A   1      36.013  29.912  28.753  1.00  0.00     0.000 A 
ENDBRANCH  57  71
BRANCH  58  77
ATOM     77  C   UNL A   1      48.321  26.614  29.767  1.00  0.00    -0.014 A 
ATOM     78  C   UNL A   1      49.261  26.892  28.760  1.00  0.00     0.009 A 
ATOM     79  C   UNL A   1      48.738  25.905  30.903  1.00  0.00     0.009 A 
ATOM     80  C   UNL A   1      50.578  26.443  28.872  1.00  0.00     0.001 A 
ATOM     81  C   UNL A   1      50.065  25.485  31.028  1.00  0.00     0.001 A 
ATOM     82  C   UNL A   1      50.980  25.744  30.008  1.00  0.00     0.000 A 
ENDBRANCH  58  77
BRANCH  70  83
ATOM     83  C   UNL A   1      44.616  32.286  31.510  1.00  0.00    -0.014 A 
ATOM     84  C   UNL A   1      44.929  33.405  30.721  1.00  0.00     0.009 A 
ATOM     85  C   UNL A   1      44.754  32.375  32.902  1.00  0.00     0.009 A 
ATOM     86  C   UNL A   1      45.391  34.583  31.312  1.00  0.00     0.001 A 
ATOM     87  C   UNL A   1      45.187  33.564  33.494  1.00  0.00     0.001 A 
ATOM     88  C   UNL A   1      45.516  34.662  32.698  1.00  0.00     0.000 A 
ENDBRANCH  70  83
ENDBRANCH  44  45
ENDBRANCH  36  39
ENDBRANCH  34  35
ENDBRANCH  33  34
ENDBRANCH  32  33
ENDBRANCH   3  32
TORSDOF 15
ENDMDL
