MODEL 1
REMARK VINA RESULT:     -10.9      0.000      0.000
REMARK SMILES O=C(NCCCNC(=O)[C@H]1CCC[N@@H+]1Cc1ccccc1[N+](=O)[O-])c1ccc(-c2c3nc(c(-c4ccccc4)c4ccc([nH]4)c(-c4ccccc4)c4nc(c(-c5ccccc5)c5ccc2[nH]5)C=C4)C=C3)cc1
REMARK SMILES IDX 5 1 4 2 3 3 1 4 2 5 25 7 26 8 72 9 27 10 71 11 28 12 29 13
REMARK SMILES IDX 30 14 65 15 31 16 70 17 64 18 66 19 32 20 69 21 63 22 62 23
REMARK SMILES IDX 33 25 55 26 40 27 54 28 41 29 44 30 53 31 67 32 42 33 43 34
REMARK SMILES IDX 52 36 68 37 45 38 34 39 35 40 39 41 36 42 38 43 37 44 56 45
REMARK SMILES IDX 57 46 61 47 58 48 60 49 59 50 46 51 47 52 51 53 48 54 50 55
REMARK SMILES IDX 49 56 6 57 7 58 8 59 9 61 10 62 11 63 14 64 12 65 13 66
REMARK SMILES IDX 15 68 16 69 17 70 21 71 18 72 20 73 19 74 22 75 23 76 24 77
REMARK H PARENT 3 6 66 24 44 35 7 60 14 67
REMARK Flexibility Score: inf
ROOT
ATOM      1  C   UNL A   1      38.066  19.696  24.938  1.00  0.00     0.042 C 
ENDROOT
BRANCH   1   2
ATOM      2  C   UNL A   1      39.063  20.067  26.014  1.00  0.00     0.118 C 
BRANCH   2   3
ATOM      3  N   UNL A   1      40.302  19.291  25.890  1.00  0.00    -0.352 N 
ATOM      4  O   UNL A   1      42.501  18.923  25.544  1.00  0.00    -0.269 OA
ATOM      5  C   UNL A   1      41.618  19.681  25.942  1.00  0.00     0.251 C 
ATOM      6  H   UNL A   1      40.167  18.326  25.746  1.00  0.00     0.163 HD
BRANCH   5   7
ATOM      7  C   UNL A   1      41.968  21.011  26.470  1.00  0.00     0.039 A 
ATOM      8  C   UNL A   1      41.967  21.213  27.846  1.00  0.00     0.014 A 
ATOM      9  C   UNL A   1      42.313  22.062  25.613  1.00  0.00     0.014 A 
ATOM     10  C   UNL A   1      42.049  22.492  28.351  1.00  0.00     0.010 A 
ATOM     11  C   UNL A   1      42.598  23.323  26.147  1.00  0.00     0.010 A 
ATOM     12  C   UNL A   1      42.441  23.552  27.521  1.00  0.00    -0.014 A 
BRANCH  12  13
ATOM     13  C   UNL A   1      42.793  24.830  28.185  1.00  0.00     0.031 A 
ATOM     14  C   UNL A   1      44.210  25.189  28.511  1.00  0.00     0.074 A 
ATOM     15  C   UNL A   1      41.791  25.712  28.393  1.00  0.00     0.049 A 
ATOM     16  N   UNL A   1      44.671  26.308  29.010  1.00  0.00    -0.248 NA
ATOM     17  C   UNL A   1      45.245  24.174  28.258  1.00  0.00     0.031 C 
ATOM     18  C   UNL A   1      40.370  25.457  28.112  1.00  0.00     0.029 A 
ATOM     19  N   UNL A   1      41.808  27.012  28.821  1.00  0.00    -0.354 N 
ATOM     20  C   UNL A   1      46.040  26.126  29.152  1.00  0.00     0.074 A 
ATOM     21  C   UNL A   1      46.336  24.782  28.706  1.00  0.00     0.031 C 
ATOM     22  C   UNL A   1      39.676  26.590  28.271  1.00  0.00     0.029 A 
ATOM     23  C   UNL A   1      40.574  27.615  28.779  1.00  0.00     0.049 A 
ATOM     24  H   UNL A   1      42.623  27.469  29.129  1.00  0.00     0.167 HD
ATOM     25  C   UNL A   1      46.960  27.006  29.612  1.00  0.00     0.031 A 
ATOM     26  C   UNL A   1      40.191  28.852  29.138  1.00  0.00     0.031 A 
ATOM     27  C   UNL A   1      46.648  28.342  30.057  1.00  0.00     0.049 A 
ATOM     28  C   UNL A   1      41.231  29.784  29.679  1.00  0.00     0.074 A 
ATOM     29  C   UNL A   1      47.508  29.311  30.543  1.00  0.00     0.029 A 
ATOM     30  N   UNL A   1      45.376  28.894  30.069  1.00  0.00    -0.354 N 
ATOM     31  N   UNL A   1      42.522  29.594  29.800  1.00  0.00    -0.248 NA
ATOM     32  C   UNL A   1      40.760  31.093  30.139  1.00  0.00     0.031 C 
ATOM     33  C   UNL A   1      46.749  30.431  30.898  1.00  0.00     0.029 A 
ATOM     34  C   UNL A   1      45.424  30.184  30.573  1.00  0.00     0.049 A 
ATOM     35  H   UNL A   1      44.559  28.438  29.763  1.00  0.00     0.167 HD
ATOM     36  C   UNL A   1      43.021  30.765  30.349  1.00  0.00     0.074 A 
ATOM     37  C   UNL A   1      41.899  31.670  30.492  1.00  0.00     0.031 C 
ATOM     38  C   UNL A   1      44.292  31.061  30.716  1.00  0.00     0.031 A 
BRANCH  25  39
ATOM     39  C   UNL A   1      48.392  26.551  29.688  1.00  0.00    -0.014 A 
ATOM     40  C   UNL A   1      49.298  26.813  28.649  1.00  0.00     0.009 A 
ATOM     41  C   UNL A   1      48.857  25.906  30.845  1.00  0.00     0.009 A 
ATOM     42  C   UNL A   1      50.635  26.425  28.759  1.00  0.00     0.001 A 
ATOM     43  C   UNL A   1      50.200  25.542  30.965  1.00  0.00     0.001 A 
ATOM     44  C   UNL A   1      51.086  25.797  29.921  1.00  0.00     0.000 A 
ENDBRANCH  25  39
BRANCH  26  45
ATOM     45  C   UNL A   1      38.760  29.247  29.060  1.00  0.00    -0.014 A 
ATOM     46  C   UNL A   1      38.219  29.781  27.883  1.00  0.00     0.009 A 
ATOM     47  C   UNL A   1      37.926  29.098  30.182  1.00  0.00     0.009 A 
ATOM     48  C   UNL A   1      36.883  30.189  27.841  1.00  0.00     0.001 A 
ATOM     49  C   UNL A   1      36.583  29.467  30.124  1.00  0.00     0.001 A 
ATOM     50  C   UNL A   1      36.065  30.026  28.959  1.00  0.00     0.000 A 
ENDBRANCH  26  45
BRANCH  38  51
ATOM     51  C   UNL A   1      44.519  32.433  31.281  1.00  0.00    -0.014 A 
ATOM     52  C   UNL A   1      44.428  32.676  32.661  1.00  0.00     0.009 A 
ATOM     53  C   UNL A   1      44.818  33.499  30.419  1.00  0.00     0.009 A 
ATOM     54  C   UNL A   1      44.581  33.970  33.160  1.00  0.00     0.001 A 
ATOM     55  C   UNL A   1      45.006  34.784  30.924  1.00  0.00     0.001 A 
ATOM     56  C   UNL A   1      44.872  35.022  32.291  1.00  0.00     0.000 A 
ENDBRANCH  38  51
ENDBRANCH  12  13
ENDBRANCH   5   7
ENDBRANCH   2   3
ENDBRANCH   1   2
BRANCH   1  57
ATOM     57  C   UNL A   1      36.913  20.681  24.939  1.00  0.00     0.118 C 
BRANCH  57  58
ATOM     58  N   UNL A   1      37.211  21.880  25.698  1.00  0.00    -0.351 N 
ATOM     59  C   UNL A   1      36.859  23.190  25.600  1.00  0.00     0.278 C 
ATOM     60  H   UNL A   1      37.808  21.704  26.461  1.00  0.00     0.163 HD
ATOM     61  O   UNL A   1      37.388  23.930  26.443  1.00  0.00    -0.268 OA
BRANCH  59  62
ATOM     62  C   UNL A   1      35.849  23.790  24.571  1.00  0.00     0.274 C 
ATOM     63  C   UNL A   1      35.335  22.871  23.476  1.00  0.00     0.081 C 
ATOM     64  N   UNL A   1      34.613  24.202  25.289  1.00  0.00    -0.321 N 
ATOM     65  C   UNL A   1      34.054  22.255  24.053  1.00  0.00     0.068 C 
ATOM     66  C   UNL A   1      33.799  22.993  25.362  1.00  0.00     0.263 C 
ATOM     67  H   UNL A   1      34.856  24.553  26.215  1.00  0.00     0.349 HD
BRANCH  64  68
ATOM     68  C   UNL A   1      33.908  25.401  24.787  1.00  0.00     0.307 C 
BRANCH  68  69
ATOM     69  C   UNL A   1      33.306  26.364  25.802  1.00  0.00     0.084 A 
ATOM     70  C   UNL A   1      34.055  27.515  26.132  1.00  0.00     0.017 A 
ATOM     71  C   UNL A   1      32.010  26.267  26.354  1.00  0.00     0.278 A 
ATOM     72  C   UNL A   1      33.494  28.566  26.866  1.00  0.00     0.001 A 
ATOM     73  C   UNL A   1      31.427  27.347  27.044  1.00  0.00     0.086 A 
ATOM     74  C   UNL A   1      32.168  28.501  27.282  1.00  0.00     0.007 A 
BRANCH  71  75
ATOM     75  N   UNL A   1      31.193  25.059  26.225  1.00  0.00     0.063 N 
ATOM     76  O   UNL A   1      30.573  24.898  25.163  1.00  0.00    -0.258 OA
ATOM     77  O   UNL A   1      31.146  24.289  27.192  1.00  0.00    -0.258 OA
ENDBRANCH  71  75
ENDBRANCH  68  69
ENDBRANCH  64  68
ENDBRANCH  59  62
ENDBRANCH  57  58
ENDBRANCH   1  57
TORSDOF 13
ENDMDL
MODEL 2
REMARK VINA RESULT:     -10.9      2.012      2.646
REMARK SMILES O=C(NCCCNC(=O)[C@H]1CCC[N@@H+]1Cc1ccccc1[N+](=O)[O-])c1ccc(-c2c3nc(c(-c4ccccc4)c4ccc([nH]4)c(-c4ccccc4)c4nc(c(-c5ccccc5)c5ccc2[nH]5)C=C4)C=C3)cc1
REMARK SMILES IDX 5 1 4 2 3 3 1 4 2 5 25 7 26 8 72 9 27 10 71 11 28 12 29 13
REMARK SMILES IDX 30 14 65 15 31 16 70 17 64 18 66 19 32 20 69 21 63 22 62 23
REMARK SMILES IDX 33 25 55 26 40 27 54 28 41 29 44 30 53 31 67 32 42 33 43 34
REMARK SMILES IDX 52 36 68 37 45 38 34 39 35 40 39 41 36 42 38 43 37 44 56 45
REMARK SMILES IDX 57 46 61 47 58 48 60 49 59 50 46 51 47 52 51 53 48 54 50 55
REMARK SMILES IDX 49 56 6 57 7 58 8 59 9 61 10 62 11 63 14 64 12 65 13 66
REMARK SMILES IDX 15 68 16 69 17 70 21 71 18 72 20 73 19 74 22 75 23 76 24 77
REMARK H PARENT 3 6 66 24 44 35 7 60 14 67
REMARK Flexibility Score: inf
ROOT
ATOM      1  C   UNL A   1      37.664  19.590  24.940  1.00  0.00     0.042 C 
ENDROOT
BRANCH   1   2
ATOM      2  C   UNL A   1      38.858  20.182  25.658  1.00  0.00     0.118 C 
BRANCH   2   3
ATOM      3  N   UNL A   1      39.958  19.216  25.758  1.00  0.00    -0.352 N 
ATOM      4  O   UNL A   1      42.094  18.489  25.768  1.00  0.00    -0.269 OA
ATOM      5  C   UNL A   1      41.299  19.400  25.993  1.00  0.00     0.251 C 
ATOM      6  H   UNL A   1      39.689  18.276  25.637  1.00  0.00     0.163 HD
BRANCH   5   7
ATOM      7  C   UNL A   1      41.782  20.693  26.510  1.00  0.00     0.039 A 
ATOM      8  C   UNL A   1      41.958  21.750  25.625  1.00  0.00     0.014 A 
ATOM      9  C   UNL A   1      42.050  20.872  27.871  1.00  0.00     0.014 A 
ATOM     10  C   UNL A   1      42.632  22.880  26.034  1.00  0.00     0.010 A 
ATOM     11  C   UNL A   1      42.548  22.100  28.321  1.00  0.00     0.010 A 
ATOM     12  C   UNL A   1      42.867  23.105  27.397  1.00  0.00    -0.014 A 
BRANCH  12  13
ATOM     13  C   UNL A   1      43.326  24.460  27.785  1.00  0.00     0.031 A 
ATOM     14  C   UNL A   1      44.755  24.885  27.635  1.00  0.00     0.074 A 
ATOM     15  C   UNL A   1      42.382  25.340  28.183  1.00  0.00     0.049 A 
ATOM     16  N   UNL A   1      45.279  26.065  27.852  1.00  0.00    -0.248 NA
ATOM     17  C   UNL A   1      45.725  23.868  27.199  1.00  0.00     0.031 C 
ATOM     18  C   UNL A   1      40.957  25.024  28.364  1.00  0.00     0.029 A 
ATOM     19  N   UNL A   1      42.451  26.682  28.443  1.00  0.00    -0.354 N 
ATOM     20  C   UNL A   1      46.639  25.929  27.601  1.00  0.00     0.074 A 
ATOM     21  C   UNL A   1      46.864  24.547  27.236  1.00  0.00     0.031 C 
ATOM     22  C   UNL A   1      40.279  26.154  28.598  1.00  0.00     0.029 A 
ATOM     23  C   UNL A   1      41.227  27.250  28.703  1.00  0.00     0.049 A 
ATOM     24  H   UNL A   1      43.295  27.189  28.445  1.00  0.00     0.167 HD
ATOM     25  C   UNL A   1      47.603  26.876  27.670  1.00  0.00     0.031 A 
ATOM     26  C   UNL A   1      40.899  28.513  29.023  1.00  0.00     0.031 A 
ATOM     27  C   UNL A   1      47.361  28.249  28.040  1.00  0.00     0.049 A 
ATOM     28  C   UNL A   1      41.999  29.524  29.128  1.00  0.00     0.074 A 
ATOM     29  C   UNL A   1      48.271  29.287  28.142  1.00  0.00     0.029 A 
ATOM     30  N   UNL A   1      46.119  28.773  28.368  1.00  0.00    -0.354 N 
ATOM     31  N   UNL A   1      43.277  29.377  28.881  1.00  0.00    -0.248 NA
ATOM     32  C   UNL A   1      41.611  30.869  29.562  1.00  0.00     0.031 C 
ATOM     33  C   UNL A   1      47.588  30.426  28.582  1.00  0.00     0.029 A 
ATOM     34  C   UNL A   1      46.242  30.114  28.692  1.00  0.00     0.049 A 
ATOM     35  H   UNL A   1      45.275  28.266  28.369  1.00  0.00     0.167 HD
ATOM     36  C   UNL A   1      43.850  30.615  29.128  1.00  0.00     0.074 A 
ATOM     37  C   UNL A   1      42.770  31.508  29.498  1.00  0.00     0.031 C 
ATOM     38  C   UNL A   1      45.154  30.979  29.068  1.00  0.00     0.031 A 
BRANCH  25  39
ATOM     39  C   UNL A   1      49.017  26.462  27.368  1.00  0.00    -0.014 A 
ATOM     40  C   UNL A   1      49.865  25.970  28.371  1.00  0.00     0.009 A 
ATOM     41  C   UNL A   1      49.487  26.504  26.045  1.00  0.00     0.009 A 
ATOM     42  C   UNL A   1      51.159  25.545  28.061  1.00  0.00     0.001 A 
ATOM     43  C   UNL A   1      50.772  26.055  25.732  1.00  0.00     0.001 A 
ATOM     44  C   UNL A   1      51.608  25.580  26.740  1.00  0.00     0.000 A 
ENDBRANCH  25  39
BRANCH  26  45
ATOM     45  C   UNL A   1      39.488  28.867  29.330  1.00  0.00    -0.014 A 
ATOM     46  C   UNL A   1      38.964  28.705  30.620  1.00  0.00     0.009 A 
ATOM     47  C   UNL A   1      38.650  29.365  28.317  1.00  0.00     0.009 A 
ATOM     48  C   UNL A   1      37.623  28.999  30.880  1.00  0.00     0.001 A 
ATOM     49  C   UNL A   1      37.324  29.697  28.589  1.00  0.00     0.001 A 
ATOM     50  C   UNL A   1      36.806  29.501  29.867  1.00  0.00     0.000 A 
ENDBRANCH  26  45
BRANCH  38  51
ATOM     51  C   UNL A   1      45.461  32.413  29.388  1.00  0.00    -0.014 A 
ATOM     52  C   UNL A   1      45.831  32.806  30.685  1.00  0.00     0.009 A 
ATOM     53  C   UNL A   1      45.366  33.385  28.382  1.00  0.00     0.009 A 
ATOM     54  C   UNL A   1      46.050  34.152  30.976  1.00  0.00     0.001 A 
ATOM     55  C   UNL A   1      45.622  34.725  28.668  1.00  0.00     0.001 A 
ATOM     56  C   UNL A   1      45.948  35.110  29.967  1.00  0.00     0.000 A 
ENDBRANCH  38  51
ENDBRANCH  12  13
ENDBRANCH   5   7
ENDBRANCH   2   3
ENDBRANCH   1   2
BRANCH   1  57
ATOM     57  C   UNL A   1      36.458  20.494  25.109  1.00  0.00     0.118 C 
BRANCH  57  58
ATOM     58  N   UNL A   1      36.522  21.665  24.257  1.00  0.00    -0.351 N 
ATOM     59  C   UNL A   1      35.614  22.567  23.795  1.00  0.00     0.278 C 
ATOM     60  H   UNL A   1      37.435  21.851  23.939  1.00  0.00     0.163 HD
ATOM     61  O   UNL A   1      36.079  23.417  23.022  1.00  0.00    -0.268 OA
BRANCH  59  62
ATOM     62  C   UNL A   1      34.103  22.624  24.187  1.00  0.00     0.274 C 
ATOM     63  C   UNL A   1      33.767  22.749  25.664  1.00  0.00     0.081 C 
ATOM     64  N   UNL A   1      33.492  23.839  23.587  1.00  0.00    -0.321 N 
ATOM     65  C   UNL A   1      33.670  24.259  25.915  1.00  0.00     0.068 C 
ATOM     66  C   UNL A   1      33.766  24.909  24.539  1.00  0.00     0.263 C 
ATOM     67  H   UNL A   1      33.917  24.022  22.677  1.00  0.00     0.349 HD
BRANCH  64  68
ATOM     68  C   UNL A   1      32.084  23.739  23.145  1.00  0.00     0.307 C 
BRANCH  68  69
ATOM     69  C   UNL A   1      31.269  25.021  23.032  1.00  0.00     0.084 A 
ATOM     70  C   UNL A   1      30.215  25.206  23.954  1.00  0.00     0.017 A 
ATOM     71  C   UNL A   1      31.551  26.096  22.162  1.00  0.00     0.278 A 
ATOM     72  C   UNL A   1      29.567  26.440  24.084  1.00  0.00     0.001 A 
ATOM     73  C   UNL A   1      30.937  27.352  22.329  1.00  0.00     0.086 A 
ATOM     74  C   UNL A   1      29.958  27.524  23.304  1.00  0.00     0.007 A 
BRANCH  71  75
ATOM     75  N   UNL A   1      32.505  25.980  21.056  1.00  0.00     0.063 N 
ATOM     76  O   UNL A   1      32.055  25.666  19.944  1.00  0.00    -0.258 OA
ATOM     77  O   UNL A   1      33.701  26.169  21.305  1.00  0.00    -0.258 OA
ENDBRANCH  71  75
ENDBRANCH  68  69
ENDBRANCH  64  68
ENDBRANCH  59  62
ENDBRANCH  57  58
ENDBRANCH   1  57
TORSDOF 13
ENDMDL
MODEL 3
REMARK VINA RESULT:     -10.7      3.352      8.872
REMARK SMILES O=C(NCCCNC(=O)[C@H]1CCC[N@@H+]1Cc1ccccc1[N+](=O)[O-])c1ccc(-c2c3nc(c(-c4ccccc4)c4ccc([nH]4)c(-c4ccccc4)c4nc(c(-c5ccccc5)c5ccc2[nH]5)C=C4)C=C3)cc1
REMARK SMILES IDX 5 1 4 2 3 3 1 4 2 5 25 7 26 8 72 9 27 10 71 11 28 12 29 13
REMARK SMILES IDX 30 14 65 15 31 16 70 17 64 18 66 19 32 20 69 21 63 22 62 23
REMARK SMILES IDX 33 25 55 26 40 27 54 28 41 29 44 30 53 31 67 32 42 33 43 34
REMARK SMILES IDX 52 36 68 37 45 38 34 39 35 40 39 41 36 42 38 43 37 44 56 45
REMARK SMILES IDX 57 46 61 47 58 48 60 49 59 50 46 51 47 52 51 53 48 54 50 55
REMARK SMILES IDX 49 56 6 57 7 58 8 59 9 61 10 62 11 63 14 64 12 65 13 66
REMARK SMILES IDX 15 68 16 69 17 70 21 71 18 72 20 73 19 74 22 75 23 76 24 77
REMARK H PARENT 3 6 66 24 44 35 7 60 14 67
REMARK Flexibility Score: inf
ROOT
ATOM      1  C   UNL A   1      31.339  32.284  26.595  1.00  0.00     0.042 C 
ENDROOT
BRANCH   1   2
ATOM      2  C   UNL A   1      32.664  32.764  27.145  1.00  0.00     0.118 C 
BRANCH   2   3
ATOM      3  N   UNL A   1      32.524  34.053  27.835  1.00  0.00    -0.352 N 
ATOM      4  O   UNL A   1      32.761  35.558  29.498  1.00  0.00    -0.269 OA
ATOM      5  C   UNL A   1      33.211  34.583  28.899  1.00  0.00     0.251 C 
ATOM      6  H   UNL A   1      31.818  34.635  27.472  1.00  0.00     0.163 HD
BRANCH   5   7
ATOM      7  C   UNL A   1      34.486  33.977  29.324  1.00  0.00     0.039 A 
ATOM      8  C   UNL A   1      35.648  34.292  28.629  1.00  0.00     0.014 A 
ATOM      9  C   UNL A   1      34.543  33.108  30.419  1.00  0.00     0.014 A 
ATOM     10  C   UNL A   1      36.795  33.561  28.847  1.00  0.00     0.010 A 
ATOM     11  C   UNL A   1      35.763  32.517  30.768  1.00  0.00     0.010 A 
ATOM     12  C   UNL A   1      36.893  32.722  29.965  1.00  0.00    -0.014 A 
BRANCH  12  13
ATOM     13  C   UNL A   1      38.241  32.201  30.298  1.00  0.00     0.031 A 
ATOM     14  C   UNL A   1      39.113  32.861  31.322  1.00  0.00     0.074 A 
ATOM     15  C   UNL A   1      38.614  31.041  29.716  1.00  0.00     0.049 A 
ATOM     16  N   UNL A   1      40.276  32.465  31.775  1.00  0.00    -0.248 NA
ATOM     17  C   UNL A   1      38.638  34.124  31.908  1.00  0.00     0.031 C 
ATOM     18  C   UNL A   1      37.835  30.317  28.701  1.00  0.00     0.029 A 
ATOM     19  N   UNL A   1      39.696  30.231  29.932  1.00  0.00    -0.354 N 
ATOM     20  C   UNL A   1      40.682  33.437  32.681  1.00  0.00     0.074 A 
ATOM     21  C   UNL A   1      39.652  34.454  32.698  1.00  0.00     0.031 C 
ATOM     22  C   UNL A   1      38.407  29.130  28.466  1.00  0.00     0.029 A 
ATOM     23  C   UNL A   1      39.650  29.058  29.217  1.00  0.00     0.049 A 
ATOM     24  H   UNL A   1      40.435  30.466  30.539  1.00  0.00     0.167 HD
ATOM     25  C   UNL A   1      41.811  33.470  33.426  1.00  0.00     0.031 A 
ATOM     26  C   UNL A   1      40.526  28.042  29.144  1.00  0.00     0.031 A 
ATOM     27  C   UNL A   1      42.829  32.450  33.393  1.00  0.00     0.049 A 
ATOM     28  C   UNL A   1      41.782  28.133  29.954  1.00  0.00     0.074 A 
ATOM     29  C   UNL A   1      44.013  32.391  34.108  1.00  0.00     0.029 A 
ATOM     30  N   UNL A   1      42.784  31.312  32.602  1.00  0.00    -0.354 N 
ATOM     31  N   UNL A   1      42.145  29.058  30.808  1.00  0.00    -0.248 NA
ATOM     32  C   UNL A   1      42.751  27.047  29.782  1.00  0.00     0.031 C 
ATOM     33  C   UNL A   1      44.708  31.244  33.711  1.00  0.00     0.029 A 
ATOM     34  C   UNL A   1      43.927  30.554  32.796  1.00  0.00     0.049 A 
ATOM     35  H   UNL A   1      42.047  31.077  31.993  1.00  0.00     0.167 HD
ATOM     36  C   UNL A   1      43.386  28.663  31.281  1.00  0.00     0.074 A 
ATOM     37  C   UNL A   1      43.688  27.394  30.651  1.00  0.00     0.031 C 
ATOM     38  C   UNL A   1      44.210  29.300  32.149  1.00  0.00     0.031 A 
BRANCH  25  39
ATOM     39  C   UNL A   1      42.026  34.658  34.324  1.00  0.00    -0.014 A 
ATOM     40  C   UNL A   1      42.687  35.808  33.867  1.00  0.00     0.009 A 
ATOM     41  C   UNL A   1      41.500  34.651  35.626  1.00  0.00     0.009 A 
ATOM     42  C   UNL A   1      42.834  36.920  34.701  1.00  0.00     0.001 A 
ATOM     43  C   UNL A   1      41.625  35.773  36.449  1.00  0.00     0.001 A 
ATOM     44  C   UNL A   1      42.296  36.903  35.988  1.00  0.00     0.000 A 
ENDBRANCH  25  39
BRANCH  26  45
ATOM     45  C   UNL A   1      40.274  26.898  28.228  1.00  0.00    -0.014 A 
ATOM     46  C   UNL A   1      40.754  26.906  26.911  1.00  0.00     0.009 A 
ATOM     47  C   UNL A   1      39.536  25.788  28.673  1.00  0.00     0.009 A 
ATOM     48  C   UNL A   1      40.470  25.843  26.049  1.00  0.00     0.001 A 
ATOM     49  C   UNL A   1      39.290  24.710  27.825  1.00  0.00     0.001 A 
ATOM     50  C   UNL A   1      39.743  24.743  26.508  1.00  0.00     0.000 A 
ENDBRANCH  26  45
BRANCH  38  51
ATOM     51  C   UNL A   1      45.501  28.604  32.474  1.00  0.00    -0.014 A 
ATOM     52  C   UNL A   1      46.665  28.844  31.726  1.00  0.00     0.009 A 
ATOM     53  C   UNL A   1      45.548  27.689  33.536  1.00  0.00     0.009 A 
ATOM     54  C   UNL A   1      47.837  28.141  32.004  1.00  0.00     0.001 A 
ATOM     55  C   UNL A   1      46.732  27.015  33.834  1.00  0.00     0.001 A 
ATOM     56  C   UNL A   1      47.870  27.229  33.059  1.00  0.00     0.000 A 
ENDBRANCH  38  51
ENDBRANCH  12  13
ENDBRANCH   5   7
ENDBRANCH   2   3
ENDBRANCH   1   2
BRANCH   1  57
ATOM     57  C   UNL A   1      31.424  30.808  26.256  1.00  0.00     0.118 C 
BRANCH  57  58
ATOM     58  N   UNL A   1      32.573  30.167  26.865  1.00  0.00    -0.351 N 
ATOM     59  C   UNL A   1      33.059  28.896  26.895  1.00  0.00     0.278 C 
ATOM     60  H   UNL A   1      33.130  30.798  27.376  1.00  0.00     0.163 HD
ATOM     61  O   UNL A   1      34.071  28.749  27.596  1.00  0.00    -0.268 OA
BRANCH  59  62
ATOM     62  C   UNL A   1      32.479  27.677  26.110  1.00  0.00     0.274 C 
ATOM     63  C   UNL A   1      31.564  27.973  24.933  1.00  0.00     0.081 C 
ATOM     64  N   UNL A   1      33.600  26.916  25.498  1.00  0.00    -0.321 N 
ATOM     65  C   UNL A   1      32.501  28.037  23.720  1.00  0.00     0.068 C 
ATOM     66  C   UNL A   1      33.865  27.588  24.231  1.00  0.00     0.263 C 
ATOM     67  H   UNL A   1      34.409  26.941  26.119  1.00  0.00     0.349 HD
BRANCH  64  68
ATOM     68  C   UNL A   1      33.449  25.448  25.409  1.00  0.00     0.307 C 
BRANCH  68  69
ATOM     69  C   UNL A   1      34.581  24.641  24.783  1.00  0.00     0.084 A 
ATOM     70  C   UNL A   1      35.713  24.378  25.584  1.00  0.00     0.017 A 
ATOM     71  C   UNL A   1      34.545  24.032  23.511  1.00  0.00     0.278 A 
ATOM     72  C   UNL A   1      36.691  23.459  25.188  1.00  0.00     0.001 A 
ATOM     73  C   UNL A   1      35.498  23.067  23.135  1.00  0.00     0.086 A 
ATOM     74  C   UNL A   1      36.560  22.771  23.985  1.00  0.00     0.007 A 
BRANCH  71  75
ATOM     75  N   UNL A   1      33.512  24.347  22.520  1.00  0.00     0.063 N 
ATOM     76  O   UNL A   1      33.769  25.230  21.688  1.00  0.00    -0.258 OA
ATOM     77  O   UNL A   1      32.439  23.738  22.594  1.00  0.00    -0.258 OA
ENDBRANCH  71  75
ENDBRANCH  68  69
ENDBRANCH  64  68
ENDBRANCH  59  62
ENDBRANCH  57  58
ENDBRANCH   1  57
TORSDOF 13
ENDMDL
