MODEL 1
REMARK VINA RESULT:      -9.4      0.000      0.000
REMARK SMILES C#CC[NH2+]CC(=O)N[C@H](CC)C(=O)NCCCNC(=O)c1ccc(-c2c3nc(c(-c4ccccc4)c4ccc([nH]4)c(-c4ccccc4)c4nc(c(-c5ccccc5)c5ccc2[nH]5)C=C4)C=C3)cc1
REMARK SMILES IDX 12 1 13 2 14 3 9 5 8 6 6 7 7 8 5 10 4 11 3 14 2 15 1 16
REMARK SMILES IDX 10 17 11 18 15 19 16 20 17 21 18 22 19 23 20 25 21 26 22 27
REMARK SMILES IDX 68 28 23 29 67 30 24 31 25 32 26 33 61 34 27 35 66 36 60 37
REMARK SMILES IDX 62 38 28 39 65 40 59 41 58 42 29 44 51 45 36 46 50 47 37 48
REMARK SMILES IDX 40 49 49 50 63 51 38 52 39 53 48 55 64 56 41 57 30 58 31 59
REMARK SMILES IDX 35 60 32 61 34 62 33 63 52 64 53 65 57 66 54 67 56 68 55 69
REMARK SMILES IDX 42 70 43 71 47 72 44 73 46 74 45 75
REMARK H PARENT 14 4 8 9 4 12 4 13 18 24 62 43 40 54
REMARK Flexibility Score: inf
ROOT
ATOM      1  C   UNL A   1      31.067  25.773  25.827  1.00  0.00     0.242 C 
ATOM      2  O   UNL A   1      30.191  25.197  26.480  1.00  0.00    -0.273 OA
ATOM      3  N   UNL A   1      32.327  25.762  26.337  1.00  0.00    -0.354 N 
ATOM      4  H   UNL A   1      32.467  25.104  27.058  1.00  0.00     0.163 HD
ENDROOT
BRANCH   1   5
ATOM      5  C   UNL A   1      30.720  26.519  24.519  1.00  0.00     0.171 C 
BRANCH   5   6
ATOM      6  N   UNL A   1      30.551  27.943  24.829  1.00  0.00    -0.339 N 
ATOM      7  C   UNL A   1      31.039  29.043  24.183  1.00  0.00     0.275 C 
ATOM      8  O   UNL A   1      31.156  30.079  24.843  1.00  0.00    -0.268 OA
ATOM      9  H   UNL A   1      30.001  28.136  25.624  1.00  0.00     0.164 HD
BRANCH   7  10
ATOM     10  C   UNL A   1      31.390  29.007  22.691  1.00  0.00     0.362 C 
BRANCH  10  11
ATOM     11  N   UNL A   1      30.703  30.050  21.896  1.00  0.00    -0.328 N 
ATOM     12  H   UNL A   1      30.911  30.965  22.296  1.00  0.00     0.347 HD
ATOM     13  H   UNL A   1      31.035  29.998  20.933  1.00  0.00     0.347 HD
BRANCH  11  14
ATOM     14  C   UNL A   1      29.264  29.842  21.903  1.00  0.00     0.352 C 
BRANCH  14  15
ATOM     15  C   UNL A   1      28.494  30.805  22.686  1.00  0.00    -0.047 C 
ATOM     16  C   UNL A   1      27.708  31.423  23.348  1.00  0.00     0.010 C 
ENDBRANCH  14  15
ENDBRANCH  11  14
ENDBRANCH  10  11
ENDBRANCH   7  10
ENDBRANCH   5   6
BRANCH   5  17
ATOM     17  C   UNL A   1      29.554  25.898  23.751  1.00  0.00     0.031 C 
ATOM     18  C   UNL A   1      28.293  26.758  23.823  1.00  0.00     0.006 C 
ENDBRANCH   5  17
ENDBRANCH   1   5
BRANCH   3  19
ATOM     19  C   UNL A   1      33.504  26.546  26.010  1.00  0.00     0.117 C 
BRANCH  19  20
ATOM     20  C   UNL A   1      33.546  27.863  26.778  1.00  0.00     0.042 C 
BRANCH  20  21
ATOM     21  C   UNL A   1      34.089  29.027  25.961  1.00  0.00     0.118 C 
BRANCH  21  22
ATOM     22  N   UNL A   1      33.895  30.296  26.647  1.00  0.00    -0.352 N 
ATOM     23  C   UNL A   1      34.564  30.803  27.733  1.00  0.00     0.251 C 
ATOM     24  H   UNL A   1      33.185  30.871  26.281  1.00  0.00     0.163 HD
ATOM     25  O   UNL A   1      34.080  31.729  28.374  1.00  0.00    -0.269 OA
BRANCH  23  26
ATOM     26  C   UNL A   1      35.864  30.224  28.131  1.00  0.00     0.039 A 
ATOM     27  C   UNL A   1      36.934  30.277  27.237  1.00  0.00     0.014 A 
ATOM     28  C   UNL A   1      36.019  29.609  29.376  1.00  0.00     0.014 A 
ATOM     29  C   UNL A   1      38.176  29.761  27.615  1.00  0.00     0.010 A 
ATOM     30  C   UNL A   1      37.278  29.184  29.787  1.00  0.00     0.010 A 
ATOM     31  C   UNL A   1      38.366  29.240  28.906  1.00  0.00    -0.014 A 
BRANCH  31  32
ATOM     32  C   UNL A   1      39.692  28.737  29.345  1.00  0.00     0.031 A 
ATOM     33  C   UNL A   1      40.555  29.573  30.254  1.00  0.00     0.074 A 
ATOM     34  C   UNL A   1      40.139  27.548  28.895  1.00  0.00     0.049 A 
ATOM     35  N   UNL A   1      41.756  29.321  30.712  1.00  0.00    -0.248 NA
ATOM     36  C   UNL A   1      40.008  30.869  30.687  1.00  0.00     0.031 C 
ATOM     37  C   UNL A   1      39.412  26.655  27.990  1.00  0.00     0.029 A 
ATOM     38  N   UNL A   1      41.315  26.884  29.141  1.00  0.00    -0.354 N 
ATOM     39  C   UNL A   1      42.106  30.425  31.480  1.00  0.00     0.074 A 
ATOM     40  C   UNL A   1      41.022  31.377  31.372  1.00  0.00     0.031 C 
ATOM     41  C   UNL A   1      40.139  25.545  27.790  1.00  0.00     0.029 A 
ATOM     42  C   UNL A   1      41.404  25.669  28.505  1.00  0.00     0.049 A 
ATOM     43  H   UNL A   1      42.027  27.245  29.716  1.00  0.00     0.167 HD
ATOM     44  C   UNL A   1      43.214  30.620  32.232  1.00  0.00     0.031 A 
ATOM     45  C   UNL A   1      42.398  24.760  28.493  1.00  0.00     0.031 A 
ATOM     46  C   UNL A   1      44.296  29.677  32.334  1.00  0.00     0.049 A 
ATOM     47  C   UNL A   1      43.648  25.034  29.284  1.00  0.00     0.074 A 
ATOM     48  C   UNL A   1      45.452  29.771  33.091  1.00  0.00     0.029 A 
ATOM     49  N   UNL A   1      44.359  28.472  31.654  1.00  0.00    -0.354 N 
ATOM     50  N   UNL A   1      43.935  26.055  30.054  1.00  0.00    -0.248 NA
ATOM     51  C   UNL A   1      44.707  24.018  29.212  1.00  0.00     0.031 C 
ATOM     52  C   UNL A   1      46.243  28.651  32.816  1.00  0.00     0.029 A 
ATOM     53  C   UNL A   1      45.547  27.824  31.951  1.00  0.00     0.049 A 
ATOM     54  H   UNL A   1      43.663  28.127  31.049  1.00  0.00     0.167 HD
ATOM     55  C   UNL A   1      45.190  25.786  30.586  1.00  0.00     0.074 A 
ATOM     56  C   UNL A   1      45.598  24.498  30.068  1.00  0.00     0.031 C 
ATOM     57  C   UNL A   1      45.937  26.539  31.431  1.00  0.00     0.031 A 
BRANCH  44  58
ATOM     58  C   UNL A   1      43.314  31.911  33.001  1.00  0.00    -0.014 A 
ATOM     59  C   UNL A   1      43.863  33.065  32.417  1.00  0.00     0.009 A 
ATOM     60  C   UNL A   1      42.818  31.987  34.312  1.00  0.00     0.009 A 
ATOM     61  C   UNL A   1      43.948  34.255  33.144  1.00  0.00     0.001 A 
ATOM     62  C   UNL A   1      42.872  33.187  35.023  1.00  0.00     0.001 A 
ATOM     63  C   UNL A   1      43.446  34.317  34.443  1.00  0.00     0.000 A 
ENDBRANCH  44  58
BRANCH  45  64
ATOM     64  C   UNL A   1      42.261  23.503  27.707  1.00  0.00    -0.014 A 
ATOM     65  C   UNL A   1      42.647  23.459  26.357  1.00  0.00     0.009 A 
ATOM     66  C   UNL A   1      41.712  22.351  28.290  1.00  0.00     0.009 A 
ATOM     67  C   UNL A   1      42.443  22.305  25.599  1.00  0.00     0.001 A 
ATOM     68  C   UNL A   1      41.545  21.185  27.539  1.00  0.00     0.001 A 
ATOM     69  C   UNL A   1      41.896  21.167  26.190  1.00  0.00     0.000 A 
ENDBRANCH  45  64
BRANCH  57  70
ATOM     70  C   UNL A   1      47.251  25.964  31.889  1.00  0.00    -0.014 A 
ATOM     71  C   UNL A   1      48.418  26.085  31.118  1.00  0.00     0.009 A 
ATOM     72  C   UNL A   1      47.326  25.321  33.135  1.00  0.00     0.009 A 
ATOM     73  C   UNL A   1      49.621  25.539  31.567  1.00  0.00     0.001 A 
ATOM     74  C   UNL A   1      48.537  24.809  33.599  1.00  0.00     0.001 A 
ATOM     75  C   UNL A   1      49.682  24.907  32.809  1.00  0.00     0.000 A 
ENDBRANCH  57  70
ENDBRANCH  31  32
ENDBRANCH  23  26
ENDBRANCH  21  22
ENDBRANCH  20  21
ENDBRANCH  19  20
ENDBRANCH   3  19
TORSDOF 16
ENDMDL
MODEL 2
REMARK VINA RESULT:      -9.3      3.112      7.468
REMARK SMILES C#CC[NH2+]CC(=O)N[C@H](CC)C(=O)NCCCNC(=O)c1ccc(-c2c3nc(c(-c4ccccc4)c4ccc([nH]4)c(-c4ccccc4)c4nc(c(-c5ccccc5)c5ccc2[nH]5)C=C4)C=C3)cc1
REMARK SMILES IDX 12 1 13 2 14 3 9 5 8 6 6 7 7 8 5 10 4 11 3 14 2 15 1 16
REMARK SMILES IDX 10 17 11 18 15 19 16 20 17 21 18 22 19 23 20 25 21 26 22 27
REMARK SMILES IDX 68 28 23 29 67 30 24 31 25 32 26 33 61 34 27 35 66 36 60 37
REMARK SMILES IDX 62 38 28 39 65 40 59 41 58 42 29 44 51 45 36 46 50 47 37 48
REMARK SMILES IDX 40 49 49 50 63 51 38 52 39 53 48 55 64 56 41 57 30 58 31 59
REMARK SMILES IDX 35 60 32 61 34 62 33 63 52 64 53 65 57 66 54 67 56 68 55 69
REMARK SMILES IDX 42 70 43 71 47 72 44 73 46 74 45 75
REMARK H PARENT 14 4 8 9 4 12 4 13 18 24 62 43 40 54
REMARK Flexibility Score: inf
ROOT
ATOM      1  C   UNL A   1      33.385  20.118  25.238  1.00  0.00     0.242 C 
ATOM      2  O   UNL A   1      32.566  19.239  25.522  1.00  0.00    -0.273 OA
ATOM      3  N   UNL A   1      34.683  19.736  25.101  1.00  0.00    -0.354 N 
ATOM      4  H   UNL A   1      34.810  18.763  25.015  1.00  0.00     0.163 HD
ENDROOT
BRANCH   1   5
ATOM      5  C   UNL A   1      32.949  21.595  25.106  1.00  0.00     0.171 C 
BRANCH   5   6
ATOM      6  N   UNL A   1      31.844  21.837  26.041  1.00  0.00    -0.339 N 
ATOM      7  C   UNL A   1      31.391  23.010  26.576  1.00  0.00     0.275 C 
ATOM      8  O   UNL A   1      30.778  22.943  27.645  1.00  0.00    -0.268 OA
ATOM      9  H   UNL A   1      31.353  21.031  26.325  1.00  0.00     0.164 HD
BRANCH   7  10
ATOM     10  C   UNL A   1      31.600  24.350  25.862  1.00  0.00     0.362 C 
BRANCH  10  11
ATOM     11  N   UNL A   1      30.920  25.486  26.525  1.00  0.00    -0.328 N 
ATOM     12  H   UNL A   1      29.914  25.318  26.527  1.00  0.00     0.347 HD
ATOM     13  H   UNL A   1      31.269  25.562  27.481  1.00  0.00     0.347 HD
BRANCH  11  14
ATOM     14  C   UNL A   1      31.196  26.732  25.829  1.00  0.00     0.352 C 
BRANCH  14  15
ATOM     15  C   UNL A   1      32.416  27.424  26.239  1.00  0.00    -0.047 C 
ATOM     16  C   UNL A   1      33.393  27.870  26.771  1.00  0.00     0.010 C 
ENDBRANCH  14  15
ENDBRANCH  11  14
ENDBRANCH  10  11
ENDBRANCH   7  10
ENDBRANCH   5   6
BRANCH   5  17
ATOM     17  C   UNL A   1      32.663  22.023  23.667  1.00  0.00     0.031 C 
ATOM     18  C   UNL A   1      33.775  22.902  23.096  1.00  0.00     0.006 C 
ENDBRANCH   5  17
ENDBRANCH   1   5
BRANCH   3  19
ATOM     19  C   UNL A   1      35.912  20.505  25.059  1.00  0.00     0.117 C 
BRANCH  19  20
ATOM     20  C   UNL A   1      37.142  19.613  24.926  1.00  0.00     0.042 C 
BRANCH  20  21
ATOM     21  C   UNL A   1      38.447  20.319  25.269  1.00  0.00     0.118 C 
BRANCH  21  22
ATOM     22  N   UNL A   1      39.492  19.367  25.615  1.00  0.00    -0.352 N 
ATOM     23  C   UNL A   1      40.770  19.607  26.051  1.00  0.00     0.251 C 
ATOM     24  H   UNL A   1      39.246  18.418  25.525  1.00  0.00     0.163 HD
ATOM     25  O   UNL A   1      41.613  18.719  26.000  1.00  0.00    -0.269 OA
BRANCH  23  26
ATOM     26  C   UNL A   1      41.129  20.942  26.576  1.00  0.00     0.039 A 
ATOM     27  C   UNL A   1      41.016  21.188  27.945  1.00  0.00     0.014 A 
ATOM     28  C   UNL A   1      41.555  21.956  25.713  1.00  0.00     0.014 A 
ATOM     29  C   UNL A   1      41.381  22.435  28.455  1.00  0.00     0.010 A 
ATOM     30  C   UNL A   1      42.009  23.163  26.233  1.00  0.00     0.010 A 
ATOM     31  C   UNL A   1      41.913  23.422  27.608  1.00  0.00    -0.014 A 
BRANCH  31  32
ATOM     32  C   UNL A   1      42.359  24.734  28.139  1.00  0.00     0.031 A 
ATOM     33  C   UNL A   1      41.365  25.848  28.339  1.00  0.00     0.074 A 
ATOM     34  C   UNL A   1      43.665  24.939  28.403  1.00  0.00     0.049 A 
ATOM     35  N   UNL A   1      41.570  27.073  28.754  1.00  0.00    -0.248 NA
ATOM     36  C   UNL A   1      39.961  25.554  28.009  1.00  0.00     0.031 C 
ATOM     37  C   UNL A   1      44.732  23.952  28.227  1.00  0.00     0.029 A 
ATOM     38  N   UNL A   1      44.317  26.050  28.880  1.00  0.00    -0.354 N 
ATOM     39  C   UNL A   1      40.327  27.692  28.731  1.00  0.00     0.074 A 
ATOM     40  C   UNL A   1      39.386  26.732  28.196  1.00  0.00     0.031 C 
ATOM     41  C   UNL A   1      45.896  24.487  28.628  1.00  0.00     0.029 A 
ATOM     42  C   UNL A   1      45.670  25.869  29.037  1.00  0.00     0.049 A 
ATOM     43  H   UNL A   1      43.858  26.895  29.087  1.00  0.00     0.167 HD
ATOM     44  C   UNL A   1      39.990  28.937  29.142  1.00  0.00     0.031 A 
ATOM     45  C   UNL A   1      46.622  26.724  29.455  1.00  0.00     0.031 A 
ATOM     46  C   UNL A   1      40.927  29.894  29.666  1.00  0.00     0.049 A 
ATOM     47  C   UNL A   1      46.230  28.123  29.843  1.00  0.00     0.074 A 
ATOM     48  C   UNL A   1      40.680  31.173  30.136  1.00  0.00     0.029 A 
ATOM     49  N   UNL A   1      42.291  29.681  29.784  1.00  0.00    -0.354 N 
ATOM     50  N   UNL A   1      45.040  28.672  29.873  1.00  0.00    -0.248 NA
ATOM     51  C   UNL A   1      47.316  29.017  30.268  1.00  0.00     0.031 C 
ATOM     52  C   UNL A   1      41.905  31.756  30.475  1.00  0.00     0.029 A 
ATOM     53  C   UNL A   1      42.904  30.814  30.292  1.00  0.00     0.049 A 
ATOM     54  H   UNL A   1      42.756  28.847  29.542  1.00  0.00     0.167 HD
ATOM     55  C   UNL A   1      45.230  29.961  30.355  1.00  0.00     0.074 A 
ATOM     56  C   UNL A   1      46.646  30.104  30.623  1.00  0.00     0.031 C 
ATOM     57  C   UNL A   1      44.313  30.940  30.559  1.00  0.00     0.031 A 
BRANCH  44  58
ATOM     58  C   UNL A   1      38.542  29.336  29.036  1.00  0.00    -0.014 A 
ATOM     59  C   UNL A   1      37.677  29.235  30.138  1.00  0.00     0.009 A 
ATOM     60  C   UNL A   1      38.043  29.855  27.831  1.00  0.00     0.009 A 
ATOM     61  C   UNL A   1      36.336  29.609  30.024  1.00  0.00     0.001 A 
ATOM     62  C   UNL A   1      36.712  30.261  27.730  1.00  0.00     0.001 A 
ATOM     63  C   UNL A   1      35.857  30.128  28.823  1.00  0.00     0.000 A 
ENDBRANCH  44  58
BRANCH  45  64
ATOM     64  C   UNL A   1      48.045  26.289  29.533  1.00  0.00    -0.014 A 
ATOM     65  C   UNL A   1      48.542  25.675  30.693  1.00  0.00     0.009 A 
ATOM     66  C   UNL A   1      48.922  26.519  28.461  1.00  0.00     0.009 A 
ATOM     67  C   UNL A   1      49.894  25.343  30.796  1.00  0.00     0.001 A 
ATOM     68  C   UNL A   1      50.266  26.150  28.552  1.00  0.00     0.001 A 
ATOM     69  C   UNL A   1      50.755  25.576  29.724  1.00  0.00     0.000 A 
ENDBRANCH  45  64
BRANCH  57  70
ATOM     70  C   UNL A   1      44.806  32.235  31.147  1.00  0.00    -0.014 A 
ATOM     71  C   UNL A   1      45.207  33.308  30.336  1.00  0.00     0.009 A 
ATOM     72  C   UNL A   1      44.833  32.393  32.542  1.00  0.00     0.009 A 
ATOM     73  C   UNL A   1      45.663  34.496  30.911  1.00  0.00     0.001 A 
ATOM     74  C   UNL A   1      45.252  33.594  33.113  1.00  0.00     0.001 A 
ATOM     75  C   UNL A   1      45.679  34.641  32.298  1.00  0.00     0.000 A 
ENDBRANCH  57  70
ENDBRANCH  31  32
ENDBRANCH  23  26
ENDBRANCH  21  22
ENDBRANCH  20  21
ENDBRANCH  19  20
ENDBRANCH   3  19
TORSDOF 16
ENDMDL
MODEL 3
REMARK VINA RESULT:      -9.3      3.079      7.806
REMARK SMILES C#CC[NH2+]CC(=O)N[C@H](CC)C(=O)NCCCNC(=O)c1ccc(-c2c3nc(c(-c4ccccc4)c4ccc([nH]4)c(-c4ccccc4)c4nc(c(-c5ccccc5)c5ccc2[nH]5)C=C4)C=C3)cc1
REMARK SMILES IDX 12 1 13 2 14 3 9 5 8 6 6 7 7 8 5 10 4 11 3 14 2 15 1 16
REMARK SMILES IDX 10 17 11 18 15 19 16 20 17 21 18 22 19 23 20 25 21 26 22 27
REMARK SMILES IDX 68 28 23 29 67 30 24 31 25 32 26 33 61 34 27 35 66 36 60 37
REMARK SMILES IDX 62 38 28 39 65 40 59 41 58 42 29 44 51 45 36 46 50 47 37 48
REMARK SMILES IDX 40 49 49 50 63 51 38 52 39 53 48 55 64 56 41 57 30 58 31 59
REMARK SMILES IDX 35 60 32 61 34 62 33 63 52 64 53 65 57 66 54 67 56 68 55 69
REMARK SMILES IDX 42 70 43 71 47 72 44 73 46 74 45 75
REMARK H PARENT 14 4 8 9 4 12 4 13 18 24 62 43 40 54
REMARK Flexibility Score: inf
ROOT
ATOM      1  C   UNL A   1      33.565  20.241  25.207  1.00  0.00     0.242 C 
ATOM      2  O   UNL A   1      32.744  19.377  25.529  1.00  0.00    -0.273 OA
ATOM      3  N   UNL A   1      34.858  19.844  25.060  1.00  0.00    -0.354 N 
ATOM      4  H   UNL A   1      34.977  18.868  25.000  1.00  0.00     0.163 HD
ENDROOT
BRANCH   1   5
ATOM      5  C   UNL A   1      33.138  21.717  25.038  1.00  0.00     0.171 C 
BRANCH   5   6
ATOM      6  N   UNL A   1      31.909  21.934  25.811  1.00  0.00    -0.339 N 
ATOM      7  C   UNL A   1      31.464  23.057  26.448  1.00  0.00     0.275 C 
ATOM      8  O   UNL A   1      30.669  22.899  27.379  1.00  0.00    -0.268 OA
ATOM      9  H   UNL A   1      31.314  21.152  25.878  1.00  0.00     0.164 HD
BRANCH   7  10
ATOM     10  C   UNL A   1      31.899  24.458  26.004  1.00  0.00     0.362 C 
BRANCH  10  11
ATOM     11  N   UNL A   1      30.767  25.352  25.675  1.00  0.00    -0.328 N 
ATOM     12  H   UNL A   1      30.345  25.048  24.797  1.00  0.00     0.347 HD
ATOM     13  H   UNL A   1      30.084  25.308  26.431  1.00  0.00     0.347 HD
BRANCH  11  14
ATOM     14  C   UNL A   1      31.217  26.728  25.536  1.00  0.00     0.352 C 
BRANCH  14  15
ATOM     15  C   UNL A   1      31.460  27.438  26.790  1.00  0.00    -0.047 C 
ATOM     16  C   UNL A   1      31.656  28.211  27.685  1.00  0.00     0.010 C 
ENDBRANCH  14  15
ENDBRANCH  11  14
ENDBRANCH  10  11
ENDBRANCH   7  10
ENDBRANCH   5   6
BRANCH   5  17
ATOM     17  C   UNL A   1      33.056  22.168  23.581  1.00  0.00     0.031 C 
ATOM     18  C   UNL A   1      32.150  21.262  22.747  1.00  0.00     0.006 C 
ENDBRANCH   5  17
ENDBRANCH   1   5
BRANCH   3  19
ATOM     19  C   UNL A   1      36.092  20.602  24.975  1.00  0.00     0.117 C 
BRANCH  19  20
ATOM     20  C   UNL A   1      37.319  19.696  24.948  1.00  0.00     0.042 C 
BRANCH  20  21
ATOM     21  C   UNL A   1      38.581  20.365  25.477  1.00  0.00     0.118 C 
BRANCH  21  22
ATOM     22  N   UNL A   1      39.644  19.396  25.699  1.00  0.00    -0.352 N 
ATOM     23  C   UNL A   1      40.955  19.613  26.037  1.00  0.00     0.251 C 
ATOM     24  H   UNL A   1      39.384  18.452  25.593  1.00  0.00     0.163 HD
ATOM     25  O   UNL A   1      41.785  18.723  25.882  1.00  0.00    -0.269 OA
BRANCH  23  26
ATOM     26  C   UNL A   1      41.366  20.924  26.582  1.00  0.00     0.039 A 
ATOM     27  C   UNL A   1      41.930  21.870  25.725  1.00  0.00     0.014 A 
ATOM     28  C   UNL A   1      41.214  21.210  27.942  1.00  0.00     0.014 A 
ATOM     29  C   UNL A   1      42.293  23.123  26.223  1.00  0.00     0.010 A 
ATOM     30  C   UNL A   1      41.486  22.489  28.415  1.00  0.00     0.010 A 
ATOM     31  C   UNL A   1      42.043  23.455  27.565  1.00  0.00    -0.014 A 
BRANCH  31  32
ATOM     32  C   UNL A   1      42.370  24.801  28.099  1.00  0.00     0.031 A 
ATOM     33  C   UNL A   1      43.779  25.126  28.521  1.00  0.00     0.074 A 
ATOM     34  C   UNL A   1      41.394  25.718  28.245  1.00  0.00     0.049 A 
ATOM     35  N   UNL A   1      44.250  26.229  29.046  1.00  0.00    -0.248 NA
ATOM     36  C   UNL A   1      44.787  24.066  28.350  1.00  0.00     0.031 C 
ATOM     37  C   UNL A   1      39.984  25.520  27.901  1.00  0.00     0.029 A 
ATOM     38  N   UNL A   1      41.440  27.005  28.722  1.00  0.00    -0.354 N 
ATOM     39  C   UNL A   1      45.601  25.994  29.270  1.00  0.00     0.074 A 
ATOM     40  C   UNL A   1      45.861  24.623  28.889  1.00  0.00     0.031 C 
ATOM     41  C   UNL A   1      39.310  26.656  28.138  1.00  0.00     0.029 A 
ATOM     42  C   UNL A   1      40.223  27.643  28.702  1.00  0.00     0.049 A 
ATOM     43  H   UNL A   1      42.266  27.429  29.047  1.00  0.00     0.167 HD
ATOM     44  C   UNL A   1      46.548  26.848  29.725  1.00  0.00     0.031 A 
ATOM     45  C   UNL A   1      39.880  28.883  29.102  1.00  0.00     0.031 A 
ATOM     46  C   UNL A   1      46.288  28.209  30.111  1.00  0.00     0.049 A 
ATOM     47  C   UNL A   1      40.941  29.788  29.666  1.00  0.00     0.074 A 
ATOM     48  C   UNL A   1      47.186  29.163  30.559  1.00  0.00     0.029 A 
ATOM     49  N   UNL A   1      45.039  28.807  30.101  1.00  0.00    -0.354 N 
ATOM     50  N   UNL A   1      42.225  29.570  29.813  1.00  0.00    -0.248 NA
ATOM     51  C   UNL A   1      40.503  31.119  30.108  1.00  0.00     0.031 C 
ATOM     52  C   UNL A   1      46.467  30.318  30.883  1.00  0.00     0.029 A 
ATOM     53  C   UNL A   1      45.136  30.110  30.562  1.00  0.00     0.049 A 
ATOM     54  H   UNL A   1      44.206  28.372  29.809  1.00  0.00     0.167 HD
ATOM     55  C   UNL A   1      42.752  30.747  30.328  1.00  0.00     0.074 A 
ATOM     56  C   UNL A   1      41.653  31.682  30.449  1.00  0.00     0.031 C 
ATOM     57  C   UNL A   1      44.034  31.030  30.671  1.00  0.00     0.031 A 
BRANCH  44  58
ATOM     58  C   UNL A   1      47.957  26.328  29.834  1.00  0.00    -0.014 A 
ATOM     59  C   UNL A   1      48.431  25.756  31.027  1.00  0.00     0.009 A 
ATOM     60  C   UNL A   1      48.811  26.373  28.720  1.00  0.00     0.009 A 
ATOM     61  C   UNL A   1      49.741  25.279  31.112  1.00  0.00     0.001 A 
ATOM     62  C   UNL A   1      50.107  25.863  28.799  1.00  0.00     0.001 A 
ATOM     63  C   UNL A   1      50.575  25.326  29.997  1.00  0.00     0.000 A 
ENDBRANCH  44  58
BRANCH  45  64
ATOM     64  C   UNL A   1      38.471  29.350  28.987  1.00  0.00    -0.014 A 
ATOM     65  C   UNL A   1      37.604  29.279  30.089  1.00  0.00     0.009 A 
ATOM     66  C   UNL A   1      37.975  29.836  27.767  1.00  0.00     0.009 A 
ATOM     67  C   UNL A   1      36.261  29.640  29.959  1.00  0.00     0.001 A 
ATOM     68  C   UNL A   1      36.642  30.234  27.650  1.00  0.00     0.001 A 
ATOM     69  C   UNL A   1      35.782  30.121  28.741  1.00  0.00     0.000 A 
ENDBRANCH  45  64
BRANCH  57  70
ATOM     70  C   UNL A   1      44.326  32.424  31.159  1.00  0.00    -0.014 A 
ATOM     71  C   UNL A   1      44.216  32.768  32.515  1.00  0.00     0.009 A 
ATOM     72  C   UNL A   1      44.755  33.400  30.245  1.00  0.00     0.009 A 
ATOM     73  C   UNL A   1      44.491  34.070  32.939  1.00  0.00     0.001 A 
ATOM     74  C   UNL A   1      45.065  34.689  30.676  1.00  0.00     0.001 A 
ATOM     75  C   UNL A   1      44.921  35.027  32.020  1.00  0.00     0.000 A 
ENDBRANCH  57  70
ENDBRANCH  31  32
ENDBRANCH  23  26
ENDBRANCH  21  22
ENDBRANCH  20  21
ENDBRANCH  19  20
ENDBRANCH   3  19
TORSDOF 16
ENDMDL
