MODEL 1
REMARK VINA RESULT:     -12.4      0.000      0.000
REMARK SMILES Cc1c(C[NH2+]Cc2cccc(F)c2)c(C(=O)NCCCNC(=O)c2ccc(-c3c4nc(c(-c5ccccc5)c5ccc([nH]5)c(-c5ccccc5)c5nc(c(-c6ccccc6)c6ccc3[nH]6)C=C5)C=C4)cc2)c(C)n1Cc1c(F)cccc1Cl
REMARK SMILES IDX 18 1 17 2 15 3 16 4 14 6 1 7 2 8 3 9 74 10 72 11 73 12 4 13
REMARK SMILES IDX 5 14 6 17 7 18 8 19 13 20 9 21 11 22 10 23 12 24 75 25 76 26
REMARK SMILES IDX 77 27 82 28 78 29 79 30 81 31 83 32 80 33 19 34 20 35 21 36
REMARK SMILES IDX 22 37 23 39 24 40 25 41 71 42 26 43 70 44 27 45 28 46 29 47
REMARK SMILES IDX 64 48 30 49 69 50 63 51 65 52 31 53 68 54 62 55 61 56 32 58
REMARK SMILES IDX 54 59 39 60 53 61 40 62 43 63 52 64 66 65 41 66 42 67 51 69
REMARK SMILES IDX 67 70 44 71 33 72 34 73 38 74 35 75 37 76 36 77 55 78 56 79
REMARK SMILES IDX 60 80 57 81 59 82 58 83 45 84 46 85 50 86 47 87 49 88 48 89
REMARK H PARENT 17 5 5 15 5 16 21 38 65 57 43 68
REMARK Flexibility Score: inf
ROOT
ATOM      1  C   UNL A   1      35.703  22.874  24.038  1.00  0.00     0.118 C 
ENDROOT
BRANCH   1   2
ATOM      2  N   UNL A   1      34.924  23.011  22.821  1.00  0.00    -0.352 N 
ATOM      3  C   UNL A   1      33.651  23.386  22.488  1.00  0.00     0.253 C 
ATOM      4  O   UNL A   1      33.400  23.193  21.285  1.00  0.00    -0.269 OA
ATOM      5  H   UNL A   1      35.452  22.771  22.026  1.00  0.00     0.163 HD
BRANCH   3   6
ATOM      6  C   UNL A   1      32.615  23.865  23.422  1.00  0.00     0.069 A 
ATOM      7  C   UNL A   1      30.113  23.375  26.199  1.00  0.00     0.065 C 
ATOM      8  C   UNL A   1      31.074  23.811  25.142  1.00  0.00     0.025 A 
ATOM      9  C   UNL A   1      31.909  23.008  24.367  1.00  0.00     0.040 A 
ATOM     10  N   UNL A   1      31.257  25.112  24.714  1.00  0.00    -0.343 N 
ATOM     11  C   UNL A   1      31.885  25.057  23.470  1.00  0.00     0.028 A 
ATOM     12  C   UNL A   1      31.605  26.065  22.408  1.00  0.00     0.065 C 
BRANCH   9  13
ATOM     13  C   UNL A   1      31.984  21.498  24.444  1.00  0.00     0.300 C 
BRANCH  13  14
ATOM     14  N   UNL A   1      32.431  21.154  25.791  1.00  0.00    -0.339 N 
ATOM     15  H   UNL A   1      31.671  20.665  26.264  1.00  0.00     0.346 HD
ATOM     16  H   UNL A   1      32.685  22.030  26.247  1.00  0.00     0.346 HD
BRANCH  14  17
ATOM     17  C   UNL A   1      33.613  20.305  25.830  1.00  0.00     0.297 C 
BRANCH  17  18
ATOM     18  C   UNL A   1      33.490  18.931  25.199  1.00  0.00     0.009 A 
ATOM     19  C   UNL A   1      34.109  18.562  23.993  1.00  0.00     0.010 A 
ATOM     20  C   UNL A   1      32.753  17.949  25.885  1.00  0.00     0.048 A 
ATOM     21  C   UNL A   1      33.976  17.270  23.474  1.00  0.00     0.004 A 
ATOM     22  C   UNL A   1      32.631  16.663  25.365  1.00  0.00     0.123 A 
ATOM     23  C   UNL A   1      33.232  16.316  24.163  1.00  0.00     0.039 A 
ATOM     24  F   UNL A   1      31.927  15.744  26.038  1.00  0.00    -0.207 F 
ENDBRANCH  17  18
ENDBRANCH  14  17
ENDBRANCH  13  14
ENDBRANCH   9  13
BRANCH  10  25
ATOM     25  C   UNL A   1      30.704  26.323  25.341  1.00  0.00     0.162 C 
BRANCH  25  26
ATOM     26  C   UNL A   1      31.746  27.396  25.572  1.00  0.00     0.026 A 
ATOM     27  C   UNL A   1      32.900  27.081  26.303  1.00  0.00     0.129 A 
ATOM     28  C   UNL A   1      31.666  28.702  25.061  1.00  0.00     0.048 A 
ATOM     29  F   UNL A   1      33.097  25.835  26.743  1.00  0.00    -0.207 F 
ATOM     30  C   UNL A   1      33.907  28.009  26.562  1.00  0.00     0.040 A 
ATOM     31  C   UNL A   1      32.681  29.642  25.310  1.00  0.00     0.021 A 
ATOM     32  Cl  UNL A   1      30.370  29.231  24.051  1.00  0.00    -0.084 Cl
ATOM     33  C   UNL A   1      33.798  29.299  26.069  1.00  0.00     0.005 A 
ENDBRANCH  25  26
ENDBRANCH  10  25
ENDBRANCH   3   6
ENDBRANCH   1   2
BRANCH   1  34
ATOM     34  C   UNL A   1      35.580  24.059  24.998  1.00  0.00     0.042 C 
BRANCH  34  35
ATOM     35  C   UNL A   1      36.624  24.092  26.125  1.00  0.00     0.118 C 
BRANCH  35  36
ATOM     36  N   UNL A   1      37.655  23.075  25.990  1.00  0.00    -0.352 N 
ATOM     37  C   UNL A   1      38.957  23.131  26.424  1.00  0.00     0.251 C 
ATOM     38  H   UNL A   1      37.387  22.245  25.533  1.00  0.00     0.163 HD
ATOM     39  O   UNL A   1      39.689  22.147  26.265  1.00  0.00    -0.269 OA
BRANCH  37  40
ATOM     40  C   UNL A   1      39.521  24.374  27.013  1.00  0.00     0.039 A 
ATOM     41  C   UNL A   1      39.138  24.716  28.303  1.00  0.00     0.014 A 
ATOM     42  C   UNL A   1      40.243  25.309  26.253  1.00  0.00     0.014 A 
ATOM     43  C   UNL A   1      39.473  25.980  28.821  1.00  0.00     0.010 A 
ATOM     44  C   UNL A   1      40.524  26.615  26.758  1.00  0.00     0.010 A 
ATOM     45  C   UNL A   1      40.105  26.997  28.042  1.00  0.00    -0.014 A 
BRANCH  45  46
ATOM     46  C   UNL A   1      39.757  28.433  28.435  1.00  0.00     0.031 A 
ATOM     47  C   UNL A   1      41.043  29.095  28.791  1.00  0.00     0.074 A 
ATOM     48  C   UNL A   1      38.648  29.209  28.640  1.00  0.00     0.049 A 
ATOM     49  N   UNL A   1      41.824  28.622  29.717  1.00  0.00    -0.248 NA
ATOM     50  C   UNL A   1      41.635  30.128  27.941  1.00  0.00     0.031 C 
ATOM     51  C   UNL A   1      37.238  28.835  28.521  1.00  0.00     0.029 A 
ATOM     52  N   UNL A   1      38.552  30.563  28.997  1.00  0.00    -0.354 N 
ATOM     53  C   UNL A   1      42.896  29.477  29.759  1.00  0.00     0.074 A 
ATOM     54  C   UNL A   1      42.828  30.244  28.527  1.00  0.00     0.031 C 
ATOM     55  C   UNL A   1      36.442  29.930  28.675  1.00  0.00     0.029 A 
ATOM     56  C   UNL A   1      37.253  31.108  28.959  1.00  0.00     0.049 A 
ATOM     57  H   UNL A   1      39.339  31.096  29.255  1.00  0.00     0.167 HD
ATOM     58  C   UNL A   1      43.381  29.866  30.968  1.00  0.00     0.031 A 
ATOM     59  C   UNL A   1      36.848  32.398  29.175  1.00  0.00     0.031 A 
ATOM     60  C   UNL A   1      43.210  31.274  31.201  1.00  0.00     0.049 A 
ATOM     61  C   UNL A   1      37.919  33.137  29.866  1.00  0.00     0.074 A 
ATOM     62  C   UNL A   1      43.491  32.429  30.500  1.00  0.00     0.029 A 
ATOM     63  N   UNL A   1      42.256  31.615  32.137  1.00  0.00    -0.354 N 
ATOM     64  N   UNL A   1      38.101  33.036  31.145  1.00  0.00    -0.248 NA
ATOM     65  C   UNL A   1      38.774  34.106  29.190  1.00  0.00     0.031 C 
ATOM     66  C   UNL A   1      42.400  33.310  30.747  1.00  0.00     0.029 A 
ATOM     67  C   UNL A   1      41.573  32.735  31.704  1.00  0.00     0.049 A 
ATOM     68  H   UNL A   1      42.088  31.135  32.980  1.00  0.00     0.167 HD
ATOM     69  C   UNL A   1      39.349  33.546  31.343  1.00  0.00     0.074 A 
ATOM     70  C   UNL A   1      39.597  34.400  30.200  1.00  0.00     0.031 C 
ATOM     71  C   UNL A   1      40.205  32.879  32.156  1.00  0.00     0.031 A 
BRANCH  58  72
ATOM     72  C   UNL A   1      43.333  28.834  32.058  1.00  0.00    -0.014 A 
ATOM     73  C   UNL A   1      44.249  27.777  32.040  1.00  0.00     0.009 A 
ATOM     74  C   UNL A   1      42.330  28.833  33.050  1.00  0.00     0.009 A 
ATOM     75  C   UNL A   1      44.129  26.720  32.949  1.00  0.00     0.001 A 
ATOM     76  C   UNL A   1      42.196  27.768  33.940  1.00  0.00     0.001 A 
ATOM     77  C   UNL A   1      43.091  26.706  33.883  1.00  0.00     0.000 A 
ENDBRANCH  58  72
BRANCH  59  78
ATOM     78  C   UNL A   1      35.605  33.238  29.048  1.00  0.00    -0.014 A 
ATOM     79  C   UNL A   1      34.820  33.472  30.212  1.00  0.00     0.009 A 
ATOM     80  C   UNL A   1      35.382  34.090  27.964  1.00  0.00     0.009 A 
ATOM     81  C   UNL A   1      33.955  34.565  30.337  1.00  0.00     0.001 A 
ATOM     82  C   UNL A   1      34.482  35.172  28.076  1.00  0.00     0.001 A 
ATOM     83  C   UNL A   1      33.800  35.430  29.268  1.00  0.00     0.000 A 
ENDBRANCH  59  78
BRANCH  71  84
ATOM     84  C   UNL A   1      39.615  32.061  33.304  1.00  0.00    -0.014 A 
ATOM     85  C   UNL A   1      39.159  30.727  33.207  1.00  0.00     0.009 A 
ATOM     86  C   UNL A   1      39.503  32.671  34.563  1.00  0.00     0.009 A 
ATOM     87  C   UNL A   1      38.541  30.071  34.277  1.00  0.00     0.001 A 
ATOM     88  C   UNL A   1      38.936  31.997  35.653  1.00  0.00     0.001 A 
ATOM     89  C   UNL A   1      38.432  30.707  35.504  1.00  0.00     0.000 A 
ENDBRANCH  71  84
ENDBRANCH  45  46
ENDBRANCH  37  40
ENDBRANCH  35  36
ENDBRANCH  34  35
ENDBRANCH   1  34
TORSDOF 16
ENDMDL
MODEL 2
REMARK VINA RESULT:     -12.3      3.672      9.104
REMARK SMILES Cc1c(C[NH2+]Cc2cccc(F)c2)c(C(=O)NCCCNC(=O)c2ccc(-c3c4nc(c(-c5ccccc5)c5ccc([nH]5)c(-c5ccccc5)c5nc(c(-c6ccccc6)c6ccc3[nH]6)C=C5)C=C4)cc2)c(C)n1Cc1c(F)cccc1Cl
REMARK SMILES IDX 18 1 17 2 15 3 16 4 14 6 1 7 2 8 3 9 74 10 72 11 73 12 4 13
REMARK SMILES IDX 5 14 6 17 7 18 8 19 13 20 9 21 11 22 10 23 12 24 75 25 76 26
REMARK SMILES IDX 77 27 82 28 78 29 79 30 81 31 83 32 80 33 19 34 20 35 21 36
REMARK SMILES IDX 22 37 23 39 24 40 25 41 71 42 26 43 70 44 27 45 28 46 29 47
REMARK SMILES IDX 64 48 30 49 69 50 63 51 65 52 31 53 68 54 62 55 61 56 32 58
REMARK SMILES IDX 54 59 39 60 53 61 40 62 43 63 52 64 66 65 41 66 42 67 51 69
REMARK SMILES IDX 67 70 44 71 33 72 34 73 38 74 35 75 37 76 36 77 55 78 56 79
REMARK SMILES IDX 60 80 57 81 59 82 58 83 45 84 46 85 50 86 47 87 49 88 48 89
REMARK H PARENT 17 5 5 15 5 16 21 38 65 57 43 68
REMARK Flexibility Score: inf
ROOT
ATOM      1  C   UNL A   1      32.155  30.012  25.976  1.00  0.00     0.118 C 
ENDROOT
BRANCH   1   2
ATOM      2  N   UNL A   1      32.840  29.808  24.714  1.00  0.00    -0.352 N 
ATOM      3  C   UNL A   1      33.116  28.753  23.887  1.00  0.00     0.253 C 
ATOM      4  O   UNL A   1      33.886  29.065  22.961  1.00  0.00    -0.269 OA
ATOM      5  H   UNL A   1      33.201  30.652  24.358  1.00  0.00     0.163 HD
BRANCH   3   6
ATOM      6  C   UNL A   1      32.673  27.360  24.082  1.00  0.00     0.069 A 
ATOM      7  C   UNL A   1      30.423  24.421  23.365  1.00  0.00     0.065 C 
ATOM      8  C   UNL A   1      31.461  25.420  23.761  1.00  0.00     0.025 A 
ATOM      9  C   UNL A   1      31.526  26.765  23.404  1.00  0.00     0.040 A 
ATOM     10  N   UNL A   1      32.524  25.177  24.609  1.00  0.00    -0.343 N 
ATOM     11  C   UNL A   1      32.988  26.411  25.059  1.00  0.00     0.028 A 
ATOM     12  C   UNL A   1      33.545  26.584  26.431  1.00  0.00     0.065 C 
BRANCH   9  13
ATOM     13  C   UNL A   1      30.516  27.488  22.539  1.00  0.00     0.300 C 
BRANCH  13  14
ATOM     14  N   UNL A   1      29.495  28.036  23.427  1.00  0.00    -0.339 N 
ATOM     15  H   UNL A   1      29.923  28.770  23.991  1.00  0.00     0.346 HD
ATOM     16  H   UNL A   1      29.147  27.258  23.986  1.00  0.00     0.346 HD
BRANCH  14  17
ATOM     17  C   UNL A   1      28.345  28.602  22.738  1.00  0.00     0.297 C 
BRANCH  17  18
ATOM     18  C   UNL A   1      28.354  30.102  22.512  1.00  0.00     0.009 A 
ATOM     19  C   UNL A   1      28.563  31.049  23.528  1.00  0.00     0.010 A 
ATOM     20  C   UNL A   1      28.192  30.576  21.197  1.00  0.00     0.048 A 
ATOM     21  C   UNL A   1      28.583  32.420  23.251  1.00  0.00     0.004 A 
ATOM     22  C   UNL A   1      28.221  31.943  20.929  1.00  0.00     0.123 A 
ATOM     23  C   UNL A   1      28.410  32.869  21.944  1.00  0.00     0.039 A 
ATOM     24  F   UNL A   1      28.068  32.370  19.668  1.00  0.00    -0.207 F 
ENDBRANCH  17  18
ENDBRANCH  14  17
ENDBRANCH  13  14
ENDBRANCH   9  13
BRANCH  10  25
ATOM     25  C   UNL A   1      32.952  23.863  25.117  1.00  0.00     0.162 C 
BRANCH  25  26
ATOM     26  C   UNL A   1      34.382  23.528  24.753  1.00  0.00     0.026 A 
ATOM     27  C   UNL A   1      35.332  23.393  25.775  1.00  0.00     0.129 A 
ATOM     28  C   UNL A   1      34.832  23.293  23.444  1.00  0.00     0.048 A 
ATOM     29  F   UNL A   1      34.965  23.507  27.054  1.00  0.00    -0.207 F 
ATOM     30  C   UNL A   1      36.670  23.087  25.527  1.00  0.00     0.040 A 
ATOM     31  C   UNL A   1      36.177  22.976  23.186  1.00  0.00     0.021 A 
ATOM     32  Cl  UNL A   1      33.779  23.311  22.077  1.00  0.00    -0.084 Cl
ATOM     33  C   UNL A   1      37.099  22.882  24.226  1.00  0.00     0.005 A 
ENDBRANCH  25  26
ENDBRANCH  10  25
ENDBRANCH   3   6
ENDBRANCH   1   2
BRANCH   1  34
ATOM     34  C   UNL A   1      32.793  31.075  26.873  1.00  0.00     0.042 C 
BRANCH  34  35
ATOM     35  C   UNL A   1      34.174  30.705  27.436  1.00  0.00     0.118 C 
BRANCH  35  36
ATOM     36  N   UNL A   1      34.416  31.232  28.770  1.00  0.00    -0.352 N 
ATOM     37  C   UNL A   1      35.611  31.305  29.444  1.00  0.00     0.251 C 
ATOM     38  H   UNL A   1      33.628  31.578  29.248  1.00  0.00     0.163 HD
ATOM     39  O   UNL A   1      35.641  31.830  30.563  1.00  0.00    -0.269 OA
BRANCH  37  40
ATOM     40  C   UNL A   1      36.850  30.701  28.886  1.00  0.00     0.039 A 
ATOM     41  C   UNL A   1      36.741  29.484  28.226  1.00  0.00     0.014 A 
ATOM     42  C   UNL A   1      38.130  31.197  29.180  1.00  0.00     0.014 A 
ATOM     43  C   UNL A   1      37.903  28.775  27.870  1.00  0.00     0.010 A 
ATOM     44  C   UNL A   1      39.304  30.444  28.875  1.00  0.00     0.010 A 
ATOM     45  C   UNL A   1      39.215  29.190  28.251  1.00  0.00    -0.014 A 
BRANCH  45  46
ATOM     46  C   UNL A   1      40.226  28.061  28.454  1.00  0.00     0.031 A 
ATOM     47  C   UNL A   1      41.225  28.564  29.437  1.00  0.00     0.074 A 
ATOM     48  C   UNL A   1      40.513  26.826  27.940  1.00  0.00     0.049 A 
ATOM     49  N   UNL A   1      41.904  29.654  29.227  1.00  0.00    -0.248 NA
ATOM     50  C   UNL A   1      41.295  28.036  30.799  1.00  0.00     0.031 C 
ATOM     51  C   UNL A   1      39.824  26.099  26.872  1.00  0.00     0.029 A 
ATOM     52  N   UNL A   1      41.519  25.915  28.298  1.00  0.00    -0.354 N 
ATOM     53  C   UNL A   1      42.706  29.799  30.331  1.00  0.00     0.074 A 
ATOM     54  C   UNL A   1      42.147  28.911  31.336  1.00  0.00     0.031 C 
ATOM     55  C   UNL A   1      40.335  24.843  26.747  1.00  0.00     0.029 A 
ATOM     56  C   UNL A   1      41.435  24.648  27.684  1.00  0.00     0.049 A 
ATOM     57  H   UNL A   1      42.234  26.144  28.935  1.00  0.00     0.167 HD
ATOM     58  C   UNL A   1      44.005  30.163  30.157  1.00  0.00     0.031 A 
ATOM     59  C   UNL A   1      42.210  23.537  27.882  1.00  0.00     0.031 A 
ATOM     60  C   UNL A   1      44.923  29.133  30.559  1.00  0.00     0.049 A 
ATOM     61  C   UNL A   1      43.457  23.926  28.564  1.00  0.00     0.074 A 
ATOM     62  C   UNL A   1      45.091  28.347  31.682  1.00  0.00     0.029 A 
ATOM     63  N   UNL A   1      45.585  28.488  29.536  1.00  0.00    -0.354 N 
ATOM     64  N   UNL A   1      44.455  24.442  27.917  1.00  0.00    -0.248 NA
ATOM     65  C   UNL A   1      43.700  23.665  29.977  1.00  0.00     0.031 C 
ATOM     66  C   UNL A   1      45.475  27.062  31.204  1.00  0.00     0.029 A 
ATOM     67  C   UNL A   1      45.680  27.142  29.832  1.00  0.00     0.049 A 
ATOM     68  H   UNL A   1      45.934  28.919  28.722  1.00  0.00     0.167 HD
ATOM     69  C   UNL A   1      45.237  24.984  28.892  1.00  0.00     0.074 A 
ATOM     70  C   UNL A   1      44.882  24.273  30.103  1.00  0.00     0.031 C 
ATOM     71  C   UNL A   1      45.739  26.231  28.709  1.00  0.00     0.031 A 
BRANCH  58  72
ATOM     72  C   UNL A   1      44.274  31.119  29.030  1.00  0.00    -0.014 A 
ATOM     73  C   UNL A   1      44.634  32.439  29.325  1.00  0.00     0.009 A 
ATOM     74  C   UNL A   1      44.079  30.764  27.680  1.00  0.00     0.009 A 
ATOM     75  C   UNL A   1      44.738  33.389  28.302  1.00  0.00     0.001 A 
ATOM     76  C   UNL A   1      44.158  31.717  26.665  1.00  0.00     0.001 A 
ATOM     77  C   UNL A   1      44.478  33.033  26.978  1.00  0.00     0.000 A 
ENDBRANCH  58  72
BRANCH  59  78
ATOM     78  C   UNL A   1      42.236  22.083  27.493  1.00  0.00    -0.014 A 
ATOM     79  C   UNL A   1      41.117  21.269  27.828  1.00  0.00     0.009 A 
ATOM     80  C   UNL A   1      43.104  21.581  26.520  1.00  0.00     0.009 A 
ATOM     81  C   UNL A   1      40.808  20.086  27.147  1.00  0.00     0.001 A 
ATOM     82  C   UNL A   1      42.812  20.368  25.858  1.00  0.00     0.001 A 
ATOM     83  C   UNL A   1      41.653  19.644  26.143  1.00  0.00     0.000 A 
ENDBRANCH  59  78
BRANCH  71  84
ATOM     84  C   UNL A   1      46.023  26.686  27.278  1.00  0.00    -0.014 A 
ATOM     85  C   UNL A   1      47.271  26.588  26.622  1.00  0.00     0.009 A 
ATOM     86  C   UNL A   1      44.972  27.256  26.543  1.00  0.00     0.009 A 
ATOM     87  C   UNL A   1      47.484  27.113  25.343  1.00  0.00     0.001 A 
ATOM     88  C   UNL A   1      45.168  27.732  25.240  1.00  0.00     0.001 A 
ATOM     89  C   UNL A   1      46.428  27.684  24.649  1.00  0.00     0.000 A 
ENDBRANCH  71  84
ENDBRANCH  45  46
ENDBRANCH  37  40
ENDBRANCH  35  36
ENDBRANCH  34  35
ENDBRANCH   1  34
TORSDOF 16
ENDMDL
MODEL 3
REMARK VINA RESULT:     -12.1      3.568      8.683
REMARK SMILES Cc1c(C[NH2+]Cc2cccc(F)c2)c(C(=O)NCCCNC(=O)c2ccc(-c3c4nc(c(-c5ccccc5)c5ccc([nH]5)c(-c5ccccc5)c5nc(c(-c6ccccc6)c6ccc3[nH]6)C=C5)C=C4)cc2)c(C)n1Cc1c(F)cccc1Cl
REMARK SMILES IDX 18 1 17 2 15 3 16 4 14 6 1 7 2 8 3 9 74 10 72 11 73 12 4 13
REMARK SMILES IDX 5 14 6 17 7 18 8 19 13 20 9 21 11 22 10 23 12 24 75 25 76 26
REMARK SMILES IDX 77 27 82 28 78 29 79 30 81 31 83 32 80 33 19 34 20 35 21 36
REMARK SMILES IDX 22 37 23 39 24 40 25 41 71 42 26 43 70 44 27 45 28 46 29 47
REMARK SMILES IDX 64 48 30 49 69 50 63 51 65 52 31 53 68 54 62 55 61 56 32 58
REMARK SMILES IDX 54 59 39 60 53 61 40 62 43 63 52 64 66 65 41 66 42 67 51 69
REMARK SMILES IDX 67 70 44 71 33 72 34 73 38 74 35 75 37 76 36 77 55 78 56 79
REMARK SMILES IDX 60 80 57 81 59 82 58 83 45 84 46 85 50 86 47 87 49 88 48 89
REMARK H PARENT 17 5 5 15 5 16 21 38 65 57 43 68
REMARK Flexibility Score: inf
ROOT
ATOM      1  C   UNL A   1      31.611  30.061  25.607  1.00  0.00     0.118 C 
ENDROOT
BRANCH   1   2
ATOM      2  N   UNL A   1      32.548  29.812  24.528  1.00  0.00    -0.352 N 
ATOM      3  C   UNL A   1      33.022  28.722  23.848  1.00  0.00     0.253 C 
ATOM      4  O   UNL A   1      33.956  29.013  23.080  1.00  0.00    -0.269 OA
ATOM      5  H   UNL A   1      32.948  30.648  24.197  1.00  0.00     0.163 HD
BRANCH   3   6
ATOM      6  C   UNL A   1      32.592  27.325  24.042  1.00  0.00     0.069 A 
ATOM      7  C   UNL A   1      30.364  24.368  23.329  1.00  0.00     0.065 C 
ATOM      8  C   UNL A   1      31.395  25.375  23.723  1.00  0.00     0.025 A 
ATOM      9  C   UNL A   1      31.447  26.722  23.368  1.00  0.00     0.040 A 
ATOM     10  N   UNL A   1      32.463  25.140  24.567  1.00  0.00    -0.343 N 
ATOM     11  C   UNL A   1      32.919  26.378  25.017  1.00  0.00     0.028 A 
ATOM     12  C   UNL A   1      33.480  26.552  26.387  1.00  0.00     0.065 C 
BRANCH   9  13
ATOM     13  C   UNL A   1      30.428  27.438  22.508  1.00  0.00     0.300 C 
BRANCH  13  14
ATOM     14  N   UNL A   1      29.387  27.944  23.398  1.00  0.00    -0.339 N 
ATOM     15  H   UNL A   1      29.802  28.650  24.006  1.00  0.00     0.346 HD
ATOM     16  H   UNL A   1      29.025  27.140  23.912  1.00  0.00     0.346 HD
BRANCH  14  17
ATOM     17  C   UNL A   1      28.252  28.543  22.711  1.00  0.00     0.297 C 
BRANCH  17  18
ATOM     18  C   UNL A   1      28.293  30.046  22.505  1.00  0.00     0.009 A 
ATOM     19  C   UNL A   1      28.564  30.971  23.527  1.00  0.00     0.010 A 
ATOM     20  C   UNL A   1      28.098  30.543  21.204  1.00  0.00     0.048 A 
ATOM     21  C   UNL A   1      28.611  32.345  23.268  1.00  0.00     0.004 A 
ATOM     22  C   UNL A   1      28.154  31.912  20.954  1.00  0.00     0.123 A 
ATOM     23  C   UNL A   1      28.403  32.818  21.975  1.00  0.00     0.039 A 
ATOM     24  F   UNL A   1      27.968  32.362  19.706  1.00  0.00    -0.207 F 
ENDBRANCH  17  18
ENDBRANCH  14  17
ENDBRANCH  13  14
ENDBRANCH   9  13
BRANCH  10  25
ATOM     25  C   UNL A   1      32.906  23.829  25.070  1.00  0.00     0.162 C 
BRANCH  25  26
ATOM     26  C   UNL A   1      34.321  23.486  24.659  1.00  0.00     0.026 A 
ATOM     27  C   UNL A   1      35.315  23.401  25.644  1.00  0.00     0.129 A 
ATOM     28  C   UNL A   1      34.716  23.197  23.343  1.00  0.00     0.048 A 
ATOM     29  F   UNL A   1      35.002  23.569  26.932  1.00  0.00    -0.207 F 
ATOM     30  C   UNL A   1      36.643  23.092  25.352  1.00  0.00     0.040 A 
ATOM     31  C   UNL A   1      36.051  22.876  23.041  1.00  0.00     0.021 A 
ATOM     32  Cl  UNL A   1      33.604  23.149  22.024  1.00  0.00    -0.084 Cl
ATOM     33  C   UNL A   1      37.017  22.832  24.043  1.00  0.00     0.005 A 
ENDBRANCH  25  26
ENDBRANCH  10  25
ENDBRANCH   3   6
ENDBRANCH   1   2
BRANCH   1  34
ATOM     34  C   UNL A   1      32.136  31.005  26.691  1.00  0.00     0.042 C 
BRANCH  34  35
ATOM     35  C   UNL A   1      33.477  30.593  27.317  1.00  0.00     0.118 C 
BRANCH  35  36
ATOM     36  N   UNL A   1      33.898  31.458  28.407  1.00  0.00    -0.352 N 
ATOM     37  C   UNL A   1      35.113  31.477  29.049  1.00  0.00     0.251 C 
ATOM     38  H   UNL A   1      33.231  32.109  28.725  1.00  0.00     0.163 HD
ATOM     39  O   UNL A   1      35.316  32.319  29.932  1.00  0.00    -0.269 OA
BRANCH  37  40
ATOM     40  C   UNL A   1      36.157  30.461  28.752  1.00  0.00     0.039 A 
ATOM     41  C   UNL A   1      36.595  29.654  29.794  1.00  0.00     0.014 A 
ATOM     42  C   UNL A   1      36.857  30.432  27.536  1.00  0.00     0.014 A 
ATOM     43  C   UNL A   1      37.722  28.831  29.615  1.00  0.00     0.010 A 
ATOM     44  C   UNL A   1      38.039  29.645  27.379  1.00  0.00     0.010 A 
ATOM     45  C   UNL A   1      38.525  28.857  28.435  1.00  0.00    -0.014 A 
BRANCH  45  46
ATOM     46  C   UNL A   1      40.003  28.525  28.642  1.00  0.00     0.031 A 
ATOM     47  C   UNL A   1      40.411  29.197  29.907  1.00  0.00     0.074 A 
ATOM     48  C   UNL A   1      41.026  27.905  27.977  1.00  0.00     0.049 A 
ATOM     49  N   UNL A   1      40.279  30.480  30.075  1.00  0.00    -0.248 NA
ATOM     50  C   UNL A   1      40.709  28.434  31.119  1.00  0.00     0.031 C 
ATOM     51  C   UNL A   1      41.005  27.269  26.659  1.00  0.00     0.029 A 
ATOM     52  N   UNL A   1      42.355  27.690  28.374  1.00  0.00    -0.354 N 
ATOM     53  C   UNL A   1      40.747  30.730  31.340  1.00  0.00     0.074 A 
ATOM     54  C   UNL A   1      40.797  29.435  31.997  1.00  0.00     0.031 C 
ATOM     55  C   UNL A   1      42.192  26.647  26.413  1.00  0.00     0.029 A 
ATOM     56  C   UNL A   1      43.114  26.860  27.522  1.00  0.00     0.049 A 
ATOM     57  H   UNL A   1      42.732  28.090  29.190  1.00  0.00     0.167 HD
ATOM     58  C   UNL A   1      41.547  31.810  31.545  1.00  0.00     0.031 A 
ATOM     59  C   UNL A   1      44.397  26.407  27.674  1.00  0.00     0.031 A 
ATOM     60  C   UNL A   1      42.879  31.441  31.939  1.00  0.00     0.049 A 
ATOM     61  C   UNL A   1      45.088  27.224  28.686  1.00  0.00     0.074 A 
ATOM     62  C   UNL A   1      43.428  30.611  32.895  1.00  0.00     0.029 A 
ATOM     63  N   UNL A   1      43.860  31.636  30.990  1.00  0.00    -0.354 N 
ATOM     64  N   UNL A   1      45.589  28.385  28.400  1.00  0.00    -0.248 NA
ATOM     65  C   UNL A   1      45.352  26.749  30.039  1.00  0.00     0.031 C 
ATOM     66  C   UNL A   1      44.555  29.997  32.279  1.00  0.00     0.029 A 
ATOM     67  C   UNL A   1      44.751  30.581  31.033  1.00  0.00     0.049 A 
ATOM     68  H   UNL A   1      43.916  32.406  30.378  1.00  0.00     0.167 HD
ATOM     69  C   UNL A   1      45.802  28.962  29.616  1.00  0.00     0.074 A 
ATOM     70  C   UNL A   1      45.890  27.860  30.550  1.00  0.00     0.031 C 
ATOM     71  C   UNL A   1      45.433  30.254  29.799  1.00  0.00     0.031 A 
BRANCH  58  72
ATOM     72  C   UNL A   1      41.234  33.025  30.718  1.00  0.00    -0.014 A 
ATOM     73  C   UNL A   1      39.911  33.472  30.633  1.00  0.00     0.009 A 
ATOM     74  C   UNL A   1      42.212  33.676  29.938  1.00  0.00     0.009 A 
ATOM     75  C   UNL A   1      39.567  34.501  29.750  1.00  0.00     0.001 A 
ATOM     76  C   UNL A   1      41.864  34.685  29.040  1.00  0.00     0.001 A 
ATOM     77  C   UNL A   1      40.538  35.091  28.940  1.00  0.00     0.000 A 
ENDBRANCH  58  72
BRANCH  59  78
ATOM     78  C   UNL A   1      45.344  25.432  27.027  1.00  0.00    -0.014 A 
ATOM     79  C   UNL A   1      45.183  24.044  27.300  1.00  0.00     0.009 A 
ATOM     80  C   UNL A   1      46.115  25.762  25.909  1.00  0.00     0.009 A 
ATOM     81  C   UNL A   1      45.654  23.042  26.443  1.00  0.00     0.001 A 
ATOM     82  C   UNL A   1      46.622  24.751  25.064  1.00  0.00     0.001 A 
ATOM     83  C   UNL A   1      46.362  23.400  25.309  1.00  0.00     0.000 A 
ENDBRANCH  59  78
BRANCH  71  84
ATOM     84  C   UNL A   1      45.462  31.187  28.588  1.00  0.00    -0.014 A 
ATOM     85  C   UNL A   1      46.584  31.928  28.155  1.00  0.00     0.009 A 
ATOM     86  C   UNL A   1      44.285  31.336  27.838  1.00  0.00     0.009 A 
ATOM     87  C   UNL A   1      46.512  32.838  27.094  1.00  0.00     0.001 A 
ATOM     88  C   UNL A   1      44.225  32.203  26.739  1.00  0.00     0.001 A 
ATOM     89  C   UNL A   1      45.329  32.972  26.382  1.00  0.00     0.000 A 
ENDBRANCH  71  84
ENDBRANCH  45  46
ENDBRANCH  37  40
ENDBRANCH  35  36
ENDBRANCH  34  35
ENDBRANCH   1  34
TORSDOF 16
ENDMDL
