MODEL 1
REMARK VINA RESULT:     -11.2      0.000      0.000
REMARK SMILES CC(C)[C@H](C)n1c(SCC(=O)NCCCNC(=O)c2ccc(-c3c4nc(c(-c5ccccc5)c5ccc([nH]5)c(-c5ccccc5)c5nc(c(-c6ccccc6)c6ccc3[nH]6)C=C5)C=C4)cc2)nc2cc(Br)cnc21
REMARK SMILES IDX 13 1 12 2 10 3 11 4 9 6 8 7 7 8 6 9 74 10 67 11 68 12 73 13
REMARK SMILES IDX 69 14 72 15 70 16 71 17 4 18 5 19 2 20 1 21 3 22 14 23 15 24
REMARK SMILES IDX 16 25 17 26 18 28 19 29 20 30 66 31 21 32 65 33 22 34 23 35
REMARK SMILES IDX 24 36 59 37 25 38 64 39 58 40 60 41 26 42 63 43 57 44 56 45
REMARK SMILES IDX 27 47 49 48 34 49 48 50 35 51 38 52 47 53 61 54 36 55 37 56
REMARK SMILES IDX 46 58 62 59 39 60 28 61 29 62 33 63 30 64 32 65 31 66 50 67
REMARK SMILES IDX 51 68 55 69 52 70 54 71 53 72 40 73 41 74 45 75 42 76 44 77
REMARK SMILES IDX 43 78
REMARK H PARENT 12 5 16 27 60 46 38 57
REMARK Flexibility Score: inf
ROOT
ATOM      1  C   UNL A   1      36.048  20.503  25.290  1.00  0.00     0.117 C 
ENDROOT
BRANCH   1   2
ATOM      2  N   UNL A   1      34.738  19.883  25.134  1.00  0.00    -0.355 N 
ATOM      3  C   UNL A   1      33.508  20.279  25.566  1.00  0.00     0.230 C 
ATOM      4  O   UNL A   1      32.535  19.674  25.102  1.00  0.00    -0.274 OA
ATOM      5  H   UNL A   1      34.743  19.036  24.631  1.00  0.00     0.163 HD
BRANCH   3   6
ATOM      6  C   UNL A   1      33.299  21.435  26.525  1.00  0.00     0.178 C 
BRANCH   6   7
ATOM      7  S   UNL A   1      31.837  22.406  26.234  1.00  0.00    -0.078 SA
BRANCH   7   8
ATOM      8  C   UNL A   1      32.061  23.875  25.341  1.00  0.00     0.171 A 
ATOM      9  N   UNL A   1      33.075  24.342  24.493  1.00  0.00    -0.301 N 
ATOM     10  C   UNL A   1      32.607  25.548  23.996  1.00  0.00     0.161 A 
ATOM     11  N   UNL A   1      31.007  24.669  25.317  1.00  0.00    -0.221 NA
ATOM     12  C   UNL A   1      31.316  25.689  24.484  1.00  0.00     0.110 A 
ATOM     13  N   UNL A   1      33.215  26.406  23.161  1.00  0.00    -0.235 NA
ATOM     14  C   UNL A   1      30.538  26.774  24.059  1.00  0.00     0.049 A 
ATOM     15  C   UNL A   1      32.466  27.485  22.833  1.00  0.00     0.129 A 
ATOM     16  C   UNL A   1      31.151  27.695  23.218  1.00  0.00     0.038 A 
ATOM     17  Br  UNL A   1      30.201  29.201  22.597  1.00  0.00    -0.049 Br
BRANCH   9  18
ATOM     18  C   UNL A   1      34.173  23.549  23.942  1.00  0.00     0.091 C 
ATOM     19  C   UNL A   1      33.816  23.191  22.484  1.00  0.00     0.032 C 
BRANCH  18  20
ATOM     20  C   UNL A   1      35.721  23.896  23.990  1.00  0.00     0.006 C 
ATOM     21  C   UNL A   1      36.470  24.017  25.309  1.00  0.00     0.009 C 
ATOM     22  C   UNL A   1      36.522  22.936  23.089  1.00  0.00     0.009 C 
ENDBRANCH  18  20
ENDBRANCH   9  18
ENDBRANCH   7   8
ENDBRANCH   6   7
ENDBRANCH   3   6
ENDBRANCH   1   2
BRANCH   1  23
ATOM     23  C   UNL A   1      37.231  19.584  24.967  1.00  0.00     0.042 C 
BRANCH  23  24
ATOM     24  C   UNL A   1      38.561  20.125  25.448  1.00  0.00     0.118 C 
BRANCH  24  25
ATOM     25  N   UNL A   1      39.639  19.142  25.542  1.00  0.00    -0.352 N 
ATOM     26  C   UNL A   1      40.971  19.348  25.876  1.00  0.00     0.251 C 
ATOM     27  H   UNL A   1      39.387  18.211  25.343  1.00  0.00     0.163 HD
ATOM     28  O   UNL A   1      41.798  18.468  25.693  1.00  0.00    -0.269 OA
BRANCH  26  29
ATOM     29  C   UNL A   1      41.383  20.649  26.455  1.00  0.00     0.039 A 
ATOM     30  C   UNL A   1      41.928  21.672  25.674  1.00  0.00     0.014 A 
ATOM     31  C   UNL A   1      41.214  20.842  27.821  1.00  0.00     0.014 A 
ATOM     32  C   UNL A   1      42.262  22.880  26.290  1.00  0.00     0.010 A 
ATOM     33  C   UNL A   1      41.293  22.088  28.365  1.00  0.00     0.010 A 
ATOM     34  C   UNL A   1      41.937  23.071  27.644  1.00  0.00    -0.014 A 
BRANCH  34  35
ATOM     35  C   UNL A   1      42.193  24.313  28.348  1.00  0.00     0.031 A 
ATOM     36  C   UNL A   1      41.162  25.346  28.123  1.00  0.00     0.074 A 
ATOM     37  C   UNL A   1      43.155  24.450  29.290  1.00  0.00     0.049 A 
ATOM     38  N   UNL A   1      41.287  26.413  27.413  1.00  0.00    -0.248 NA
ATOM     39  C   UNL A   1      39.794  25.091  28.600  1.00  0.00     0.031 C 
ATOM     40  C   UNL A   1      44.046  23.432  29.865  1.00  0.00     0.029 A 
ATOM     41  N   UNL A   1      43.469  25.553  30.017  1.00  0.00    -0.354 N 
ATOM     42  C   UNL A   1      40.075  27.080  27.517  1.00  0.00     0.074 A 
ATOM     43  C   UNL A   1      39.145  26.141  28.094  1.00  0.00     0.031 C 
ATOM     44  C   UNL A   1      44.625  23.912  30.991  1.00  0.00     0.029 A 
ATOM     45  C   UNL A   1      44.292  25.319  31.114  1.00  0.00     0.049 A 
ATOM     46  H   UNL A   1      43.138  26.451  29.786  1.00  0.00     0.167 HD
ATOM     47  C   UNL A   1      40.009  28.429  27.356  1.00  0.00     0.031 A 
ATOM     48  C   UNL A   1      44.657  26.228  32.052  1.00  0.00     0.031 A 
ATOM     49  C   UNL A   1      41.226  28.952  26.781  1.00  0.00     0.049 A 
ATOM     50  C   UNL A   1      44.464  27.566  31.450  1.00  0.00     0.074 A 
ATOM     51  C   UNL A   1      41.904  28.752  25.595  1.00  0.00     0.029 A 
ATOM     52  N   UNL A   1      42.141  29.490  27.655  1.00  0.00    -0.354 N 
ATOM     53  N   UNL A   1      45.167  28.007  30.449  1.00  0.00    -0.248 NA
ATOM     54  C   UNL A   1      43.186  28.227  31.659  1.00  0.00     0.031 C 
ATOM     55  C   UNL A   1      43.283  28.729  25.960  1.00  0.00     0.029 A 
ATOM     56  C   UNL A   1      43.377  28.995  27.328  1.00  0.00     0.049 A 
ATOM     57  H   UNL A   1      41.944  30.120  28.385  1.00  0.00     0.167 HD
ATOM     58  C   UNL A   1      44.252  28.664  29.641  1.00  0.00     0.074 A 
ATOM     59  C   UNL A   1      43.071  28.854  30.484  1.00  0.00     0.031 C 
ATOM     60  C   UNL A   1      44.428  28.734  28.288  1.00  0.00     0.031 A 
BRANCH  47  61
ATOM     61  C   UNL A   1      39.041  29.310  28.100  1.00  0.00    -0.014 A 
ATOM     62  C   UNL A   1      37.785  29.562  27.520  1.00  0.00     0.009 A 
ATOM     63  C   UNL A   1      39.407  30.113  29.196  1.00  0.00     0.009 A 
ATOM     64  C   UNL A   1      36.975  30.611  27.970  1.00  0.00     0.001 A 
ATOM     65  C   UNL A   1      38.582  31.134  29.674  1.00  0.00     0.001 A 
ATOM     66  C   UNL A   1      37.377  31.401  29.042  1.00  0.00     0.000 A 
ENDBRANCH  47  61
BRANCH  48  67
ATOM     67  C   UNL A   1      44.867  26.056  33.507  1.00  0.00    -0.014 A 
ATOM     68  C   UNL A   1      43.882  25.444  34.302  1.00  0.00     0.009 A 
ATOM     69  C   UNL A   1      46.153  26.198  34.057  1.00  0.00     0.009 A 
ATOM     70  C   UNL A   1      44.190  24.935  35.572  1.00  0.00     0.001 A 
ATOM     71  C   UNL A   1      46.460  25.692  35.326  1.00  0.00     0.001 A 
ATOM     72  C   UNL A   1      45.483  25.042  36.075  1.00  0.00     0.000 A 
ENDBRANCH  48  67
BRANCH  60  73
ATOM     73  C   UNL A   1      45.752  28.272  27.722  1.00  0.00    -0.014 A 
ATOM     74  C   UNL A   1      46.023  26.935  27.377  1.00  0.00     0.009 A 
ATOM     75  C   UNL A   1      46.695  29.249  27.371  1.00  0.00     0.009 A 
ATOM     76  C   UNL A   1      47.210  26.589  26.717  1.00  0.00     0.001 A 
ATOM     77  C   UNL A   1      47.868  28.908  26.695  1.00  0.00     0.001 A 
ATOM     78  C   UNL A   1      48.127  27.579  26.370  1.00  0.00     0.000 A 
ENDBRANCH  60  73
ENDBRANCH  34  35
ENDBRANCH  26  29
ENDBRANCH  24  25
ENDBRANCH  23  24
ENDBRANCH   1  23
TORSDOF 14
ENDMDL
MODEL 2
REMARK VINA RESULT:     -11.1      1.702      2.403
REMARK SMILES CC(C)[C@H](C)n1c(SCC(=O)NCCCNC(=O)c2ccc(-c3c4nc(c(-c5ccccc5)c5ccc([nH]5)c(-c5ccccc5)c5nc(c(-c6ccccc6)c6ccc3[nH]6)C=C5)C=C4)cc2)nc2cc(Br)cnc21
REMARK SMILES IDX 13 1 12 2 10 3 11 4 9 6 8 7 7 8 6 9 74 10 67 11 68 12 73 13
REMARK SMILES IDX 69 14 72 15 70 16 71 17 4 18 5 19 2 20 1 21 3 22 14 23 15 24
REMARK SMILES IDX 16 25 17 26 18 28 19 29 20 30 66 31 21 32 65 33 22 34 23 35
REMARK SMILES IDX 24 36 59 37 25 38 64 39 58 40 60 41 26 42 63 43 57 44 56 45
REMARK SMILES IDX 27 47 49 48 34 49 48 50 35 51 38 52 47 53 61 54 36 55 37 56
REMARK SMILES IDX 46 58 62 59 39 60 28 61 29 62 33 63 30 64 32 65 31 66 50 67
REMARK SMILES IDX 51 68 55 69 52 70 54 71 53 72 40 73 41 74 45 75 42 76 44 77
REMARK SMILES IDX 43 78
REMARK H PARENT 12 5 16 27 60 46 38 57
REMARK Flexibility Score: inf
ROOT
ATOM      1  C   UNL A   1      37.069  20.548  24.884  1.00  0.00     0.117 C 
ENDROOT
BRANCH   1   2
ATOM      2  N   UNL A   1      37.483  21.833  25.435  1.00  0.00    -0.355 N 
ATOM      3  C   UNL A   1      37.042  23.095  25.176  1.00  0.00     0.230 C 
ATOM      4  O   UNL A   1      37.418  23.984  25.949  1.00  0.00    -0.274 OA
ATOM      5  H   UNL A   1      38.201  21.778  26.106  1.00  0.00     0.163 HD
BRANCH   3   6
ATOM      6  C   UNL A   1      36.094  23.426  24.039  1.00  0.00     0.178 C 
BRANCH   6   7
ATOM      7  S   UNL A   1      34.413  23.749  24.524  1.00  0.00    -0.078 SA
BRANCH   7   8
ATOM      8  C   UNL A   1      33.947  25.417  24.601  1.00  0.00     0.171 A 
ATOM      9  N   UNL A   1      33.101  26.218  23.820  1.00  0.00    -0.301 N 
ATOM     10  C   UNL A   1      33.056  27.441  24.471  1.00  0.00     0.161 A 
ATOM     11  N   UNL A   1      34.335  26.046  25.695  1.00  0.00    -0.221 NA
ATOM     12  C   UNL A   1      33.783  27.280  25.641  1.00  0.00     0.110 A 
ATOM     13  N   UNL A   1      32.405  28.560  24.114  1.00  0.00    -0.235 NA
ATOM     14  C   UNL A   1      33.826  28.328  26.570  1.00  0.00     0.049 A 
ATOM     15  C   UNL A   1      32.532  29.580  24.994  1.00  0.00     0.129 A 
ATOM     16  C   UNL A   1      33.186  29.509  26.214  1.00  0.00     0.038 A 
ATOM     17  Br  UNL A   1      33.193  30.989  27.383  1.00  0.00    -0.049 Br
BRANCH   9  18
ATOM     18  C   UNL A   1      32.165  25.747  22.801  1.00  0.00     0.091 C 
ATOM     19  C   UNL A   1      32.983  25.088  21.672  1.00  0.00     0.032 C 
BRANCH  18  20
ATOM     20  C   UNL A   1      30.862  24.870  23.031  1.00  0.00     0.006 C 
ATOM     21  C   UNL A   1      30.949  23.413  23.461  1.00  0.00     0.009 C 
ATOM     22  C   UNL A   1      29.892  25.580  23.993  1.00  0.00     0.009 C 
ENDBRANCH  18  20
ENDBRANCH   9  18
ENDBRANCH   7   8
ENDBRANCH   6   7
ENDBRANCH   3   6
ENDBRANCH   1   2
BRANCH   1  23
ATOM     23  C   UNL A   1      38.116  19.435  25.005  1.00  0.00     0.042 C 
BRANCH  23  24
ATOM     24  C   UNL A   1      39.249  19.776  25.951  1.00  0.00     0.118 C 
BRANCH  24  25
ATOM     25  N   UNL A   1      40.487  19.029  25.737  1.00  0.00    -0.352 N 
ATOM     26  C   UNL A   1      41.797  19.480  25.834  1.00  0.00     0.251 C 
ATOM     27  H   UNL A   1      40.379  18.081  25.494  1.00  0.00     0.163 HD
ATOM     28  O   UNL A   1      42.718  18.802  25.408  1.00  0.00    -0.269 OA
BRANCH  26  29
ATOM     29  C   UNL A   1      42.068  20.798  26.457  1.00  0.00     0.039 A 
ATOM     30  C   UNL A   1      42.578  21.876  25.727  1.00  0.00     0.014 A 
ATOM     31  C   UNL A   1      41.800  20.951  27.811  1.00  0.00     0.014 A 
ATOM     32  C   UNL A   1      42.776  23.093  26.380  1.00  0.00     0.010 A 
ATOM     33  C   UNL A   1      41.746  22.189  28.378  1.00  0.00     0.010 A 
ATOM     34  C   UNL A   1      42.353  23.233  27.713  1.00  0.00    -0.014 A 
BRANCH  34  35
ATOM     35  C   UNL A   1      42.467  24.477  28.450  1.00  0.00     0.031 A 
ATOM     36  C   UNL A   1      41.387  25.441  28.155  1.00  0.00     0.074 A 
ATOM     37  C   UNL A   1      43.339  24.663  29.467  1.00  0.00     0.049 A 
ATOM     38  N   UNL A   1      41.493  26.526  27.470  1.00  0.00    -0.248 NA
ATOM     39  C   UNL A   1      40.007  25.085  28.518  1.00  0.00     0.031 C 
ATOM     40  C   UNL A   1      44.251  23.699  30.099  1.00  0.00     0.029 A 
ATOM     41  N   UNL A   1      43.518  25.773  30.229  1.00  0.00    -0.354 N 
ATOM     42  C   UNL A   1      40.234  27.107  27.484  1.00  0.00     0.074 A 
ATOM     43  C   UNL A   1      39.328  26.097  27.974  1.00  0.00     0.031 C 
ATOM     44  C   UNL A   1      44.704  24.199  31.273  1.00  0.00     0.029 A 
ATOM     45  C   UNL A   1      44.266  25.576  31.386  1.00  0.00     0.049 A 
ATOM     46  H   UNL A   1      43.144  26.650  29.983  1.00  0.00     0.167 HD
ATOM     47  C   UNL A   1      40.088  28.451  27.334  1.00  0.00     0.031 A 
ATOM     48  C   UNL A   1      44.492  26.492  32.361  1.00  0.00     0.031 A 
ATOM     49  C   UNL A   1      41.306  29.065  26.864  1.00  0.00     0.049 A 
ATOM     50  C   UNL A   1      44.254  27.824  31.761  1.00  0.00     0.074 A 
ATOM     51  C   UNL A   1      42.088  28.932  25.734  1.00  0.00     0.029 A 
ATOM     52  N   UNL A   1      42.110  29.649  27.815  1.00  0.00    -0.354 N 
ATOM     53  N   UNL A   1      45.002  28.329  30.824  1.00  0.00    -0.248 NA
ATOM     54  C   UNL A   1      42.921  28.392  31.874  1.00  0.00     0.031 C 
ATOM     55  C   UNL A   1      43.432  28.998  26.208  1.00  0.00     0.029 A 
ATOM     56  C   UNL A   1      43.400  29.246  27.582  1.00  0.00     0.049 A 
ATOM     57  H   UNL A   1      41.813  30.252  28.534  1.00  0.00     0.167 HD
ATOM     58  C   UNL A   1      44.110  28.936  29.954  1.00  0.00     0.074 A 
ATOM     59  C   UNL A   1      42.856  29.030  30.702  1.00  0.00     0.031 C 
ATOM     60  C   UNL A   1      44.387  29.041  28.620  1.00  0.00     0.031 A 
BRANCH  47  61
ATOM     61  C   UNL A   1      39.004  29.251  28.009  1.00  0.00    -0.014 A 
ATOM     62  C   UNL A   1      39.025  29.356  29.411  1.00  0.00     0.009 A 
ATOM     63  C   UNL A   1      37.828  29.666  27.358  1.00  0.00     0.009 A 
ATOM     64  C   UNL A   1      37.900  29.786  30.123  1.00  0.00     0.001 A 
ATOM     65  C   UNL A   1      36.717  30.134  28.064  1.00  0.00     0.001 A 
ATOM     66  C   UNL A   1      36.744  30.168  29.450  1.00  0.00     0.000 A 
ENDBRANCH  47  61
BRANCH  48  67
ATOM     67  C   UNL A   1      44.598  26.311  33.826  1.00  0.00    -0.014 A 
ATOM     68  C   UNL A   1      45.449  27.132  34.585  1.00  0.00     0.009 A 
ATOM     69  C   UNL A   1      43.632  25.557  34.516  1.00  0.00     0.009 A 
ATOM     70  C   UNL A   1      45.297  27.242  35.975  1.00  0.00     0.001 A 
ATOM     71  C   UNL A   1      43.482  25.666  35.904  1.00  0.00     0.001 A 
ATOM     72  C   UNL A   1      44.302  26.525  36.631  1.00  0.00     0.000 A 
ENDBRANCH  48  67
BRANCH  60  73
ATOM     73  C   UNL A   1      45.781  28.680  28.156  1.00  0.00    -0.014 A 
ATOM     74  C   UNL A   1      46.187  27.363  27.873  1.00  0.00     0.009 A 
ATOM     75  C   UNL A   1      46.659  29.725  27.835  1.00  0.00     0.009 A 
ATOM     76  C   UNL A   1      47.440  27.103  27.303  1.00  0.00     0.001 A 
ATOM     77  C   UNL A   1      47.899  29.469  27.248  1.00  0.00     0.001 A 
ATOM     78  C   UNL A   1      48.292  28.158  26.983  1.00  0.00     0.000 A 
ENDBRANCH  60  73
ENDBRANCH  34  35
ENDBRANCH  26  29
ENDBRANCH  24  25
ENDBRANCH  23  24
ENDBRANCH   1  23
TORSDOF 14
ENDMDL
MODEL 3
REMARK VINA RESULT:     -11.0      4.443      9.109
REMARK SMILES CC(C)[C@H](C)n1c(SCC(=O)NCCCNC(=O)c2ccc(-c3c4nc(c(-c5ccccc5)c5ccc([nH]5)c(-c5ccccc5)c5nc(c(-c6ccccc6)c6ccc3[nH]6)C=C5)C=C4)cc2)nc2cc(Br)cnc21
REMARK SMILES IDX 13 1 12 2 10 3 11 4 9 6 8 7 7 8 6 9 74 10 67 11 68 12 73 13
REMARK SMILES IDX 69 14 72 15 70 16 71 17 4 18 5 19 2 20 1 21 3 22 14 23 15 24
REMARK SMILES IDX 16 25 17 26 18 28 19 29 20 30 66 31 21 32 65 33 22 34 23 35
REMARK SMILES IDX 24 36 59 37 25 38 64 39 58 40 60 41 26 42 63 43 57 44 56 45
REMARK SMILES IDX 27 47 49 48 34 49 48 50 35 51 38 52 47 53 61 54 36 55 37 56
REMARK SMILES IDX 46 58 62 59 39 60 28 61 29 62 33 63 30 64 32 65 31 66 50 67
REMARK SMILES IDX 51 68 55 69 52 70 54 71 53 72 40 73 41 74 45 75 42 76 44 77
REMARK SMILES IDX 43 78
REMARK H PARENT 12 5 16 27 60 46 38 57
REMARK Flexibility Score: inf
ROOT
ATOM      1  C   UNL A   1      31.482  30.659  25.770  1.00  0.00     0.117 C 
ENDROOT
BRANCH   1   2
ATOM      2  N   UNL A   1      32.315  29.728  26.523  1.00  0.00    -0.355 N 
ATOM      3  C   UNL A   1      32.453  28.377  26.423  1.00  0.00     0.230 C 
ATOM      4  O   UNL A   1      33.396  27.868  27.040  1.00  0.00    -0.274 OA
ATOM      5  H   UNL A   1      32.870  30.147  27.220  1.00  0.00     0.163 HD
BRANCH   3   6
ATOM      6  C   UNL A   1      31.551  27.512  25.563  1.00  0.00     0.178 C 
BRANCH   6   7
ATOM      7  S   UNL A   1      31.389  25.822  26.096  1.00  0.00    -0.078 SA
BRANCH   7   8
ATOM      8  C   UNL A   1      32.600  24.721  25.523  1.00  0.00     0.171 A 
ATOM      9  N   UNL A   1      32.805  24.067  24.300  1.00  0.00    -0.301 N 
ATOM     10  C   UNL A   1      34.020  23.414  24.437  1.00  0.00     0.161 A 
ATOM     11  N   UNL A   1      33.631  24.569  26.332  1.00  0.00    -0.221 NA
ATOM     12  C   UNL A   1      34.519  23.787  25.676  1.00  0.00     0.110 A 
ATOM     13  N   UNL A   1      34.654  22.624  23.555  1.00  0.00    -0.235 NA
ATOM     14  C   UNL A   1      35.799  23.364  26.054  1.00  0.00     0.049 A 
ATOM     15  C   UNL A   1      35.854  22.167  23.982  1.00  0.00     0.129 A 
ATOM     16  C   UNL A   1      36.468  22.521  25.174  1.00  0.00     0.038 A 
ATOM     17  Br  UNL A   1      38.192  21.881  25.589  1.00  0.00    -0.049 Br
BRANCH   9  18
ATOM     18  C   UNL A   1      32.113  24.349  23.043  1.00  0.00     0.091 C 
ATOM     19  C   UNL A   1      30.616  24.035  23.244  1.00  0.00     0.032 C 
BRANCH  18  20
ATOM     20  C   UNL A   1      32.218  25.669  22.169  1.00  0.00     0.006 C 
ATOM     21  C   UNL A   1      31.144  26.746  22.220  1.00  0.00     0.009 C 
ATOM     22  C   UNL A   1      33.577  26.359  22.387  1.00  0.00     0.009 C 
ENDBRANCH  18  20
ENDBRANCH   9  18
ENDBRANCH   7   8
ENDBRANCH   6   7
ENDBRANCH   3   6
ENDBRANCH   1   2
BRANCH   1  23
ATOM     23  C   UNL A   1      31.205  31.986  26.483  1.00  0.00     0.042 C 
BRANCH  23  24
ATOM     24  C   UNL A   1      32.442  32.606  27.102  1.00  0.00     0.118 C 
BRANCH  24  25
ATOM     25  N   UNL A   1      32.262  33.952  27.643  1.00  0.00    -0.352 N 
ATOM     26  C   UNL A   1      33.028  34.610  28.597  1.00  0.00     0.251 C 
ATOM     27  H   UNL A   1      31.498  34.459  27.285  1.00  0.00     0.163 HD
ATOM     28  O   UNL A   1      32.624  35.641  29.111  1.00  0.00    -0.269 OA
BRANCH  26  29
ATOM     29  C   UNL A   1      34.342  34.047  28.989  1.00  0.00     0.039 A 
ATOM     30  C   UNL A   1      34.542  33.408  30.217  1.00  0.00     0.014 A 
ATOM     31  C   UNL A   1      35.400  34.165  28.096  1.00  0.00     0.014 A 
ATOM     32  C   UNL A   1      35.802  32.877  30.497  1.00  0.00     0.010 A 
ATOM     33  C   UNL A   1      36.535  33.430  28.255  1.00  0.00     0.010 A 
ATOM     34  C   UNL A   1      36.792  32.898  29.501  1.00  0.00    -0.014 A 
BRANCH  34  35
ATOM     35  C   UNL A   1      38.110  32.318  29.686  1.00  0.00     0.031 A 
ATOM     36  C   UNL A   1      38.174  30.878  29.360  1.00  0.00     0.074 A 
ATOM     37  C   UNL A   1      39.221  33.052  29.919  1.00  0.00     0.049 A 
ATOM     38  N   UNL A   1      38.278  29.906  30.198  1.00  0.00    -0.248 NA
ATOM     39  C   UNL A   1      37.932  30.459  27.971  1.00  0.00     0.031 C 
ATOM     40  C   UNL A   1      39.382  34.513  29.943  1.00  0.00     0.029 A 
ATOM     41  N   UNL A   1      40.496  32.617  30.090  1.00  0.00    -0.354 N 
ATOM     42  C   UNL A   1      38.325  28.750  29.433  1.00  0.00     0.074 A 
ATOM     43  C   UNL A   1      37.921  29.131  28.101  1.00  0.00     0.031 C 
ATOM     44  C   UNL A   1      40.698  34.830  29.890  1.00  0.00     0.029 A 
ATOM     45  C   UNL A   1      41.470  33.608  30.013  1.00  0.00     0.049 A 
ATOM     46  H   UNL A   1      40.715  31.672  30.256  1.00  0.00     0.167 HD
ATOM     47  C   UNL A   1      38.940  27.631  29.901  1.00  0.00     0.031 A 
ATOM     48  C   UNL A   1      42.812  33.418  30.040  1.00  0.00     0.031 A 
ATOM     49  C   UNL A   1      39.207  27.730  31.316  1.00  0.00     0.049 A 
ATOM     50  C   UNL A   1      43.045  32.094  30.662  1.00  0.00     0.074 A 
ATOM     51  C   UNL A   1      38.425  27.884  32.445  1.00  0.00     0.029 A 
ATOM     52  N   UNL A   1      40.477  28.110  31.680  1.00  0.00    -0.354 N 
ATOM     53  N   UNL A   1      42.772  31.832  31.906  1.00  0.00    -0.248 NA
ATOM     54  C   UNL A   1      43.145  30.940  29.784  1.00  0.00     0.031 C 
ATOM     55  C   UNL A   1      39.152  28.790  33.273  1.00  0.00     0.029 A 
ATOM     56  C   UNL A   1      40.367  29.077  32.647  1.00  0.00     0.049 A 
ATOM     57  H   UNL A   1      41.317  27.752  31.313  1.00  0.00     0.167 HD
ATOM     58  C   UNL A   1      42.223  30.559  31.883  1.00  0.00     0.074 A 
ATOM     59  C   UNL A   1      42.571  30.021  30.566  1.00  0.00     0.031 C 
ATOM     60  C   UNL A   1      41.299  30.172  32.811  1.00  0.00     0.031 A 
BRANCH  47  61
ATOM     61  C   UNL A   1      39.672  26.653  29.021  1.00  0.00    -0.014 A 
ATOM     62  C   UNL A   1      40.845  27.082  28.375  1.00  0.00     0.009 A 
ATOM     63  C   UNL A   1      39.117  25.435  28.587  1.00  0.00     0.009 A 
ATOM     64  C   UNL A   1      41.388  26.364  27.303  1.00  0.00     0.001 A 
ATOM     65  C   UNL A   1      39.680  24.694  27.545  1.00  0.00     0.001 A 
ATOM     66  C   UNL A   1      40.801  25.175  26.885  1.00  0.00     0.000 A 
ENDBRANCH  47  61
BRANCH  48  67
ATOM     67  C   UNL A   1      43.887  34.131  29.314  1.00  0.00    -0.014 A 
ATOM     68  C   UNL A   1      43.937  34.102  27.909  1.00  0.00     0.009 A 
ATOM     69  C   UNL A   1      44.665  35.098  29.974  1.00  0.00     0.009 A 
ATOM     70  C   UNL A   1      44.688  35.044  27.193  1.00  0.00     0.001 A 
ATOM     71  C   UNL A   1      45.416  36.038  29.258  1.00  0.00     0.001 A 
ATOM     72  C   UNL A   1      45.411  36.024  27.866  1.00  0.00     0.000 A 
ENDBRANCH  48  67
BRANCH  60  73
ATOM     73  C   UNL A   1      41.056  31.086  33.991  1.00  0.00    -0.014 A 
ATOM     74  C   UNL A   1      40.126  32.142  33.974  1.00  0.00     0.009 A 
ATOM     75  C   UNL A   1      41.666  30.763  35.212  1.00  0.00     0.009 A 
ATOM     76  C   UNL A   1      39.832  32.860  35.142  1.00  0.00     0.001 A 
ATOM     77  C   UNL A   1      41.359  31.464  36.379  1.00  0.00     0.001 A 
ATOM     78  C   UNL A   1      40.444  32.514  36.344  1.00  0.00     0.000 A 
ENDBRANCH  60  73
ENDBRANCH  34  35
ENDBRANCH  26  29
ENDBRANCH  24  25
ENDBRANCH  23  24
ENDBRANCH   1  23
TORSDOF 14
ENDMDL
