MODEL 1
REMARK VINA RESULT:     -11.3      0.000      0.000
REMARK SMILES CCOC(=O)c1c(NC(=O)[C@@H]2[C@@H]3CC[C@@H](C3)[C@@H]2C(=O)NCCCNC(=O)c2ccc(-c3c4nc(c(-c5ccccc5)c5ccc([nH]5)c(-c5ccccc5)c5nc(c(-c6ccccc6)c6ccc3[nH]6)C=C5)C=C4)cc2)sc2c1CCCC2
REMARK SMILES IDX 18 1 19 2 20 3 17 5 11 6 12 7 13 8 16 9 15 10 14 11 9 12
REMARK SMILES IDX 8 13 10 15 7 16 6 17 77 18 75 19 76 20 78 21 81 22 79 23
REMARK SMILES IDX 80 24 4 25 5 26 3 27 2 28 1 29 21 30 22 31 23 32 24 33 25 34
REMARK SMILES IDX 26 36 27 37 28 38 74 39 29 40 73 41 30 42 31 43 32 44 67 45
REMARK SMILES IDX 33 46 72 47 66 48 68 49 34 50 71 51 65 52 64 53 35 55 57 56
REMARK SMILES IDX 42 57 56 58 43 59 46 60 55 61 69 62 44 63 45 64 54 66 70 67
REMARK SMILES IDX 47 68 36 69 37 70 41 71 38 72 40 73 39 74 58 75 59 76 63 77
REMARK SMILES IDX 60 78 62 79 61 80 48 81 49 82 53 83 50 84 52 85 51 86
REMARK H PARENT 20 4 8 14 24 35 68 54 46 65
REMARK Flexibility Score: inf
ROOT
ATOM      1  C   UNL A   1      33.696  25.783  23.378  1.00  0.00     0.224 C 
ATOM      2  O   UNL A   1      33.517  26.564  22.447  1.00  0.00    -0.275 OA
ATOM      3  N   UNL A   1      34.356  24.618  23.109  1.00  0.00    -0.356 N 
ATOM      4  H   UNL A   1      34.587  24.481  22.163  1.00  0.00     0.163 HD
ENDROOT
BRANCH   1   5
ATOM      5  C   UNL A   1      33.253  26.067  24.808  1.00  0.00     0.094 C 
ATOM      6  C   UNL A   1      31.735  26.065  25.128  1.00  0.00     0.094 C 
ATOM      7  C   UNL A   1      31.503  27.524  25.619  1.00  0.00     0.002 C 
ATOM      8  C   UNL A   1      31.731  28.566  24.504  1.00  0.00     0.005 C 
ATOM      9  C   UNL A   1      32.753  27.727  26.477  1.00  0.00     0.009 C 
ATOM     10  C   UNL A   1      33.703  27.475  25.304  1.00  0.00     0.002 C 
ATOM     11  C   UNL A   1      33.251  28.570  24.327  1.00  0.00     0.005 C 
BRANCH   6  12
ATOM     12  C   UNL A   1      30.724  25.591  24.103  1.00  0.00     0.229 C 
ATOM     13  N   UNL A   1      30.685  24.322  23.626  1.00  0.00    -0.317 N 
ATOM     14  H   UNL A   1      30.124  24.246  22.819  1.00  0.00     0.170 HD
ATOM     15  O   UNL A   1      29.865  26.363  23.660  1.00  0.00    -0.274 OA
BRANCH  13  16
ATOM     16  C   UNL A   1      31.231  23.116  23.989  1.00  0.00     0.110 A 
ATOM     17  C   UNL A   1      31.566  22.407  25.129  1.00  0.00     0.098 A 
ATOM     18  C   UNL A   1      32.118  21.105  24.787  1.00  0.00    -0.017 A 
ATOM     19  S   UNL A   1      31.519  22.206  22.560  1.00  0.00    -0.122 S 
ATOM     20  C   UNL A   1      32.108  20.881  23.425  1.00  0.00     0.011 A 
ATOM     21  C   UNL A   1      32.528  20.024  25.753  1.00  0.00     0.038 C 
ATOM     22  C   UNL A   1      32.528  19.615  22.748  1.00  0.00     0.047 C 
ATOM     23  C   UNL A   1      33.231  18.849  25.057  1.00  0.00     0.005 C 
ATOM     24  C   UNL A   1      32.531  18.453  23.751  1.00  0.00     0.006 C 
BRANCH  17  25
ATOM     25  C   UNL A   1      31.293  22.786  26.502  1.00  0.00     0.341 C 
ATOM     26  O   UNL A   1      30.222  22.578  27.061  1.00  0.00    -0.246 OA
BRANCH  25  27
ATOM     27  O   UNL A   1      32.384  23.350  27.095  1.00  0.00    -0.462 OA
BRANCH  27  28
ATOM     28  C   UNL A   1      33.098  22.497  28.001  1.00  0.00     0.230 C 
ATOM     29  C   UNL A   1      34.565  22.531  27.617  1.00  0.00     0.049 C 
ENDBRANCH  27  28
ENDBRANCH  25  27
ENDBRANCH  17  25
ENDBRANCH  13  16
ENDBRANCH   6  12
ENDBRANCH   1   5
BRANCH   3  30
ATOM     30  C   UNL A   1      34.770  23.551  24.002  1.00  0.00     0.117 C 
BRANCH  30  31
ATOM     31  C   UNL A   1      36.259  23.233  23.904  1.00  0.00     0.042 C 
BRANCH  31  32
ATOM     32  C   UNL A   1      37.106  23.704  25.085  1.00  0.00     0.118 C 
BRANCH  32  33
ATOM     33  N   UNL A   1      38.178  22.782  25.423  1.00  0.00    -0.352 N 
ATOM     34  C   UNL A   1      39.341  22.979  26.123  1.00  0.00     0.251 C 
ATOM     35  H   UNL A   1      38.048  21.863  25.094  1.00  0.00     0.163 HD
ATOM     36  O   UNL A   1      40.167  22.071  26.177  1.00  0.00    -0.269 OA
BRANCH  34  37
ATOM     37  C   UNL A   1      39.635  24.265  26.798  1.00  0.00     0.039 A 
ATOM     38  C   UNL A   1      39.144  24.456  28.096  1.00  0.00     0.014 A 
ATOM     39  C   UNL A   1      40.316  25.303  26.156  1.00  0.00     0.014 A 
ATOM     40  C   UNL A   1      39.383  25.657  28.768  1.00  0.00     0.010 A 
ATOM     41  C   UNL A   1      40.586  26.491  26.841  1.00  0.00     0.010 A 
ATOM     42  C   UNL A   1      40.124  26.675  28.153  1.00  0.00    -0.014 A 
BRANCH  42  43
ATOM     43  C   UNL A   1      40.430  27.934  28.871  1.00  0.00     0.031 A 
ATOM     44  C   UNL A   1      41.743  28.112  29.576  1.00  0.00     0.074 A 
ATOM     45  C   UNL A   1      39.503  28.908  28.930  1.00  0.00     0.049 A 
ATOM     46  N   UNL A   1      42.136  29.095  30.346  1.00  0.00    -0.248 NA
ATOM     47  C   UNL A   1      42.737  27.042  29.404  1.00  0.00     0.031 C 
ATOM     48  C   UNL A   1      38.182  28.863  28.301  1.00  0.00     0.029 A 
ATOM     49  N   UNL A   1      39.534  30.127  29.561  1.00  0.00    -0.354 N 
ATOM     50  C   UNL A   1      43.408  28.747  30.780  1.00  0.00     0.074 A 
ATOM     51  C   UNL A   1      43.724  27.467  30.181  1.00  0.00     0.031 C 
ATOM     52  C   UNL A   1      37.531  30.008  28.569  1.00  0.00     0.029 A 
ATOM     53  C   UNL A   1      38.380  30.853  29.404  1.00  0.00     0.049 A 
ATOM     54  H   UNL A   1      40.309  30.450  30.074  1.00  0.00     0.167 HD
ATOM     55  C   UNL A   1      44.238  29.427  31.606  1.00  0.00     0.031 A 
ATOM     56  C   UNL A   1      38.037  32.060  29.889  1.00  0.00     0.031 A 
ATOM     57  C   UNL A   1      43.953  30.713  32.182  1.00  0.00     0.049 A 
ATOM     58  C   UNL A   1      38.991  32.814  30.764  1.00  0.00     0.074 A 
ATOM     59  C   UNL A   1      44.746  31.479  33.019  1.00  0.00     0.029 A 
ATOM     60  N   UNL A   1      42.788  31.429  31.967  1.00  0.00    -0.354 N 
ATOM     61  N   UNL A   1      40.181  32.460  31.180  1.00  0.00    -0.248 NA
ATOM     62  C   UNL A   1      38.548  34.133  31.241  1.00  0.00     0.031 C 
ATOM     63  C   UNL A   1      44.057  32.662  33.314  1.00  0.00     0.029 A 
ATOM     64  C   UNL A   1      42.841  32.631  32.652  1.00  0.00     0.049 A 
ATOM     65  H   UNL A   1      42.035  31.129  31.410  1.00  0.00     0.167 HD
ATOM     66  C   UNL A   1      40.631  33.509  31.968  1.00  0.00     0.074 A 
ATOM     67  C   UNL A   1      39.590  34.518  31.966  1.00  0.00     0.031 C 
ATOM     68  C   UNL A   1      41.801  33.622  32.639  1.00  0.00     0.031 A 
BRANCH  55  69
ATOM     69  C   UNL A   1      45.539  28.771  31.950  1.00  0.00    -0.014 A 
ATOM     70  C   UNL A   1      45.639  27.910  33.052  1.00  0.00     0.009 A 
ATOM     71  C   UNL A   1      46.668  29.000  31.149  1.00  0.00     0.009 A 
ATOM     72  C   UNL A   1      46.859  27.304  33.359  1.00  0.00     0.001 A 
ATOM     73  C   UNL A   1      47.883  28.385  31.455  1.00  0.00     0.001 A 
ATOM     74  C   UNL A   1      47.978  27.542  32.560  1.00  0.00     0.000 A 
ENDBRANCH  55  69
BRANCH  56  75
ATOM     75  C   UNL A   1      36.712  32.631  29.557  1.00  0.00    -0.014 A 
ATOM     76  C   UNL A   1      35.653  32.530  30.470  1.00  0.00     0.009 A 
ATOM     77  C   UNL A   1      36.508  33.284  28.334  1.00  0.00     0.009 A 
ATOM     78  C   UNL A   1      34.403  33.068  30.157  1.00  0.00     0.001 A 
ATOM     79  C   UNL A   1      35.259  33.826  28.028  1.00  0.00     0.001 A 
ATOM     80  C   UNL A   1      34.207  33.715  28.938  1.00  0.00     0.000 A 
ENDBRANCH  56  75
BRANCH  68  81
ATOM     81  C   UNL A   1      42.013  34.882  33.419  1.00  0.00    -0.014 A 
ATOM     82  C   UNL A   1      41.369  35.074  34.649  1.00  0.00     0.009 A 
ATOM     83  C   UNL A   1      42.875  35.874  32.930  1.00  0.00     0.009 A 
ATOM     84  C   UNL A   1      41.573  36.250  35.372  1.00  0.00     0.001 A 
ATOM     85  C   UNL A   1      43.080  37.047  33.658  1.00  0.00     0.001 A 
ATOM     86  C   UNL A   1      42.428  37.235  34.877  1.00  0.00     0.000 A 
ENDBRANCH  68  81
ENDBRANCH  42  43
ENDBRANCH  34  37
ENDBRANCH  32  33
ENDBRANCH  31  32
ENDBRANCH  30  31
ENDBRANCH   3  30
TORSDOF 15
ENDMDL
MODEL 2
REMARK VINA RESULT:     -11.1      2.508      7.501
REMARK SMILES CCOC(=O)c1c(NC(=O)[C@@H]2[C@@H]3CC[C@@H](C3)[C@@H]2C(=O)NCCCNC(=O)c2ccc(-c3c4nc(c(-c5ccccc5)c5ccc([nH]5)c(-c5ccccc5)c5nc(c(-c6ccccc6)c6ccc3[nH]6)C=C5)C=C4)cc2)sc2c1CCCC2
REMARK SMILES IDX 18 1 19 2 20 3 17 5 11 6 12 7 13 8 16 9 15 10 14 11 9 12
REMARK SMILES IDX 8 13 10 15 7 16 6 17 77 18 75 19 76 20 78 21 81 22 79 23
REMARK SMILES IDX 80 24 4 25 5 26 3 27 2 28 1 29 21 30 22 31 23 32 24 33 25 34
REMARK SMILES IDX 26 36 27 37 28 38 74 39 29 40 73 41 30 42 31 43 32 44 67 45
REMARK SMILES IDX 33 46 72 47 66 48 68 49 34 50 71 51 65 52 64 53 35 55 57 56
REMARK SMILES IDX 42 57 56 58 43 59 46 60 55 61 69 62 44 63 45 64 54 66 70 67
REMARK SMILES IDX 47 68 36 69 37 70 41 71 38 72 40 73 39 74 58 75 59 76 63 77
REMARK SMILES IDX 60 78 62 79 61 80 48 81 49 82 53 83 50 84 52 85 51 86
REMARK H PARENT 20 4 8 14 24 35 68 54 46 65
REMARK Flexibility Score: inf
ROOT
ATOM      1  C   UNL A   1      35.142  22.806  26.384  1.00  0.00     0.224 C 
ATOM      2  O   UNL A   1      34.670  22.735  27.516  1.00  0.00    -0.275 OA
ATOM      3  N   UNL A   1      36.502  22.794  26.263  1.00  0.00    -0.356 N 
ATOM      4  H   UNL A   1      36.994  22.783  27.115  1.00  0.00     0.163 HD
ENDROOT
BRANCH   1   5
ATOM      5  C   UNL A   1      34.290  22.869  25.123  1.00  0.00     0.094 C 
ATOM      6  C   UNL A   1      32.780  23.197  25.264  1.00  0.00     0.094 C 
ATOM      7  C   UNL A   1      32.112  21.916  24.685  1.00  0.00     0.002 C 
ATOM      8  C   UNL A   1      32.388  20.665  25.546  1.00  0.00     0.005 C 
ATOM      9  C   UNL A   1      33.018  21.655  23.480  1.00  0.00     0.009 C 
ATOM     10  C   UNL A   1      34.272  21.518  24.345  1.00  0.00     0.002 C 
ATOM     11  C   UNL A   1      33.861  20.361  25.268  1.00  0.00     0.005 C 
BRANCH   6  12
ATOM     12  C   UNL A   1      32.203  23.648  26.591  1.00  0.00     0.229 C 
ATOM     13  N   UNL A   1      31.728  24.899  26.811  1.00  0.00    -0.317 N 
ATOM     14  H   UNL A   1      31.602  25.084  27.771  1.00  0.00     0.170 HD
ATOM     15  O   UNL A   1      32.127  22.864  27.546  1.00  0.00    -0.274 OA
BRANCH  13  16
ATOM     16  C   UNL A   1      31.380  25.972  26.030  1.00  0.00     0.110 A 
ATOM     17  C   UNL A   1      31.886  27.197  25.629  1.00  0.00     0.098 A 
ATOM     18  C   UNL A   1      30.963  27.868  24.726  1.00  0.00    -0.017 A 
ATOM     19  S   UNL A   1      29.870  25.627  25.286  1.00  0.00    -0.122 S 
ATOM     20  C   UNL A   1      29.855  27.093  24.448  1.00  0.00     0.011 A 
ATOM     21  C   UNL A   1      31.194  29.181  24.024  1.00  0.00     0.038 C 
ATOM     22  C   UNL A   1      28.758  27.451  23.496  1.00  0.00     0.047 C 
ATOM     23  C   UNL A   1      29.943  29.680  23.285  1.00  0.00     0.005 C 
ATOM     24  C   UNL A   1      29.231  28.548  22.532  1.00  0.00     0.006 C 
BRANCH  17  25
ATOM     25  C   UNL A   1      33.205  27.728  25.910  1.00  0.00     0.341 C 
ATOM     26  O   UNL A   1      34.116  27.748  25.089  1.00  0.00    -0.246 OA
BRANCH  25  27
ATOM     27  O   UNL A   1      33.283  28.241  27.171  1.00  0.00    -0.462 OA
BRANCH  27  28
ATOM     28  C   UNL A   1      32.328  29.268  27.475  1.00  0.00     0.230 C 
ATOM     29  C   UNL A   1      32.906  30.594  27.018  1.00  0.00     0.049 C 
ENDBRANCH  27  28
ENDBRANCH  25  27
ENDBRANCH  17  25
ENDBRANCH  13  16
ENDBRANCH   6  12
ENDBRANCH   1   5
BRANCH   3  30
ATOM     30  C   UNL A   1      37.336  22.795  25.075  1.00  0.00     0.117 C 
BRANCH  30  31
ATOM     31  C   UNL A   1      37.848  21.407  24.703  1.00  0.00     0.042 C 
BRANCH  31  32
ATOM     32  C   UNL A   1      38.093  20.464  25.879  1.00  0.00     0.118 C 
BRANCH  32  33
ATOM     33  N   UNL A   1      39.260  19.617  25.700  1.00  0.00    -0.352 N 
ATOM     34  C   UNL A   1      40.590  19.865  25.930  1.00  0.00     0.251 C 
ATOM     35  H   UNL A   1      39.064  18.715  25.356  1.00  0.00     0.163 HD
ATOM     36  O   UNL A   1      41.421  19.030  25.582  1.00  0.00    -0.269 OA
BRANCH  34  37
ATOM     37  C   UNL A   1      41.049  21.121  26.567  1.00  0.00     0.039 A 
ATOM     38  C   UNL A   1      41.519  22.147  25.738  1.00  0.00     0.014 A 
ATOM     39  C   UNL A   1      41.093  21.277  27.956  1.00  0.00     0.014 A 
ATOM     40  C   UNL A   1      41.977  23.345  26.292  1.00  0.00     0.010 A 
ATOM     41  C   UNL A   1      41.517  22.488  28.509  1.00  0.00     0.010 A 
ATOM     42  C   UNL A   1      41.958  23.532  27.682  1.00  0.00    -0.014 A 
BRANCH  42  43
ATOM     43  C   UNL A   1      42.392  24.815  28.283  1.00  0.00     0.031 A 
ATOM     44  C   UNL A   1      41.399  25.910  28.544  1.00  0.00     0.074 A 
ATOM     45  C   UNL A   1      43.695  25.016  28.553  1.00  0.00     0.049 A 
ATOM     46  N   UNL A   1      41.615  27.134  28.957  1.00  0.00    -0.248 NA
ATOM     47  C   UNL A   1      39.985  25.593  28.299  1.00  0.00     0.031 C 
ATOM     48  C   UNL A   1      44.768  24.043  28.338  1.00  0.00     0.029 A 
ATOM     49  N   UNL A   1      44.337  26.117  29.062  1.00  0.00    -0.354 N 
ATOM     50  C   UNL A   1      40.369  27.745  28.987  1.00  0.00     0.074 A 
ATOM     51  C   UNL A   1      39.401  26.756  28.559  1.00  0.00     0.031 C 
ATOM     52  C   UNL A   1      45.934  24.587  28.723  1.00  0.00     0.029 A 
ATOM     53  C   UNL A   1      45.693  25.950  29.188  1.00  0.00     0.049 A 
ATOM     54  H   UNL A   1      43.870  26.946  29.315  1.00  0.00     0.167 HD
ATOM     55  C   UNL A   1      40.056  29.016  29.333  1.00  0.00     0.031 A 
ATOM     56  C   UNL A   1      46.640  26.803  29.619  1.00  0.00     0.031 A 
ATOM     57  C   UNL A   1      40.999  30.000  29.792  1.00  0.00     0.049 A 
ATOM     58  C   UNL A   1      46.263  28.190  30.041  1.00  0.00     0.074 A 
ATOM     59  C   UNL A   1      40.764  31.308  30.177  1.00  0.00     0.029 A 
ATOM     60  N   UNL A   1      42.357  29.776  29.939  1.00  0.00    -0.354 N 
ATOM     61  N   UNL A   1      45.083  28.757  30.043  1.00  0.00    -0.248 NA
ATOM     62  C   UNL A   1      47.353  29.056  30.514  1.00  0.00     0.031 C 
ATOM     63  C   UNL A   1      41.984  31.880  30.558  1.00  0.00     0.029 A 
ATOM     64  C   UNL A   1      42.973  30.921  30.415  1.00  0.00     0.049 A 
ATOM     65  H   UNL A   1      42.816  28.930  29.737  1.00  0.00     0.167 HD
ATOM     66  C   UNL A   1      45.285  30.045  30.515  1.00  0.00     0.074 A 
ATOM     67  C   UNL A   1      46.701  30.175  30.799  1.00  0.00     0.031 C 
ATOM     68  C   UNL A   1      44.379  31.034  30.692  1.00  0.00     0.031 A 
BRANCH  55  69
ATOM     69  C   UNL A   1      38.619  29.418  29.209  1.00  0.00    -0.014 A 
ATOM     70  C   UNL A   1      37.751  29.326  30.306  1.00  0.00     0.009 A 
ATOM     71  C   UNL A   1      38.138  29.913  27.988  1.00  0.00     0.009 A 
ATOM     72  C   UNL A   1      36.414  29.707  30.174  1.00  0.00     0.001 A 
ATOM     73  C   UNL A   1      36.803  30.300  27.864  1.00  0.00     0.001 A 
ATOM     74  C   UNL A   1      35.942  30.193  28.955  1.00  0.00     0.000 A 
ENDBRANCH  55  69
BRANCH  56  75
ATOM     75  C   UNL A   1      48.053  26.363  29.666  1.00  0.00    -0.014 A 
ATOM     76  C   UNL A   1      48.558  25.738  30.815  1.00  0.00     0.009 A 
ATOM     77  C   UNL A   1      48.894  26.560  28.562  1.00  0.00     0.009 A 
ATOM     78  C   UNL A   1      49.891  25.325  30.860  1.00  0.00     0.001 A 
ATOM     79  C   UNL A   1      50.223  26.139  28.609  1.00  0.00     0.001 A 
ATOM     80  C   UNL A   1      50.721  25.524  29.758  1.00  0.00     0.000 A 
ENDBRANCH  56  75
BRANCH  68  81
ATOM     81  C   UNL A   1      44.894  32.337  31.219  1.00  0.00    -0.014 A 
ATOM     82  C   UNL A   1      45.310  33.346  30.339  1.00  0.00     0.009 A 
ATOM     83  C   UNL A   1      44.947  32.563  32.602  1.00  0.00     0.009 A 
ATOM     84  C   UNL A   1      45.787  34.559  30.837  1.00  0.00     0.001 A 
ATOM     85  C   UNL A   1      45.421  33.779  33.096  1.00  0.00     0.001 A 
ATOM     86  C   UNL A   1      45.843  34.775  32.214  1.00  0.00     0.000 A 
ENDBRANCH  68  81
ENDBRANCH  42  43
ENDBRANCH  34  37
ENDBRANCH  32  33
ENDBRANCH  31  32
ENDBRANCH  30  31
ENDBRANCH   3  30
TORSDOF 15
ENDMDL
MODEL 3
REMARK VINA RESULT:     -11.0      0.740      5.721
REMARK SMILES CCOC(=O)c1c(NC(=O)[C@@H]2[C@@H]3CC[C@@H](C3)[C@@H]2C(=O)NCCCNC(=O)c2ccc(-c3c4nc(c(-c5ccccc5)c5ccc([nH]5)c(-c5ccccc5)c5nc(c(-c6ccccc6)c6ccc3[nH]6)C=C5)C=C4)cc2)sc2c1CCCC2
REMARK SMILES IDX 18 1 19 2 20 3 17 5 11 6 12 7 13 8 16 9 15 10 14 11 9 12
REMARK SMILES IDX 8 13 10 15 7 16 6 17 77 18 75 19 76 20 78 21 81 22 79 23
REMARK SMILES IDX 80 24 4 25 5 26 3 27 2 28 1 29 21 30 22 31 23 32 24 33 25 34
REMARK SMILES IDX 26 36 27 37 28 38 74 39 29 40 73 41 30 42 31 43 32 44 67 45
REMARK SMILES IDX 33 46 72 47 66 48 68 49 34 50 71 51 65 52 64 53 35 55 57 56
REMARK SMILES IDX 42 57 56 58 43 59 46 60 55 61 69 62 44 63 45 64 54 66 70 67
REMARK SMILES IDX 47 68 36 69 37 70 41 71 38 72 40 73 39 74 58 75 59 76 63 77
REMARK SMILES IDX 60 78 62 79 61 80 48 81 49 82 53 83 50 84 52 85 51 86
REMARK H PARENT 20 4 8 14 24 35 68 54 46 65
REMARK Flexibility Score: inf
ROOT
ATOM      1  C   UNL A   1      33.650  25.784  23.371  1.00  0.00     0.224 C 
ATOM      2  O   UNL A   1      33.388  26.557  22.453  1.00  0.00    -0.275 OA
ATOM      3  N   UNL A   1      34.259  24.604  23.048  1.00  0.00    -0.356 N 
ATOM      4  H   UNL A   1      34.387  24.453  22.085  1.00  0.00     0.163 HD
ENDROOT
BRANCH   1   5
ATOM      5  C   UNL A   1      33.365  26.091  24.835  1.00  0.00     0.094 C 
ATOM      6  C   UNL A   1      31.890  26.109  25.315  1.00  0.00     0.094 C 
ATOM      7  C   UNL A   1      31.725  27.576  25.807  1.00  0.00     0.002 C 
ATOM      8  C   UNL A   1      31.842  28.601  24.660  1.00  0.00     0.005 C 
ATOM      9  C   UNL A   1      33.060  27.777  26.525  1.00  0.00     0.009 C 
ATOM     10  C   UNL A   1      33.878  27.499  25.261  1.00  0.00     0.002 C 
ATOM     11  C   UNL A   1      33.335  28.586  24.322  1.00  0.00     0.005 C 
BRANCH   6  12
ATOM     12  C   UNL A   1      30.771  25.632  24.409  1.00  0.00     0.229 C 
ATOM     13  N   UNL A   1      30.654  24.350  23.980  1.00  0.00    -0.317 N 
ATOM     14  H   UNL A   1      30.014  24.267  23.235  1.00  0.00     0.170 HD
ATOM     15  O   UNL A   1      29.892  26.414  24.027  1.00  0.00    -0.274 OA
BRANCH  13  16
ATOM     16  C   UNL A   1      31.203  23.142  24.327  1.00  0.00     0.110 A 
ATOM     17  C   UNL A   1      31.544  22.421  25.458  1.00  0.00     0.098 A 
ATOM     18  C   UNL A   1      32.095  21.123  25.098  1.00  0.00    -0.017 A 
ATOM     19  S   UNL A   1      31.483  22.247  22.887  1.00  0.00    -0.122 S 
ATOM     20  C   UNL A   1      32.078  20.914  23.735  1.00  0.00     0.011 A 
ATOM     21  C   UNL A   1      32.512  20.033  26.051  1.00  0.00     0.038 C 
ATOM     22  C   UNL A   1      32.495  19.655  23.042  1.00  0.00     0.047 C 
ATOM     23  C   UNL A   1      33.212  18.865  25.339  1.00  0.00     0.005 C 
ATOM     24  C   UNL A   1      32.505  18.483  24.033  1.00  0.00     0.006 C 
BRANCH  17  25
ATOM     25  C   UNL A   1      31.280  22.786  26.836  1.00  0.00     0.341 C 
ATOM     26  O   UNL A   1      30.194  23.199  27.230  1.00  0.00    -0.246 OA
BRANCH  25  27
ATOM     27  O   UNL A   1      32.363  22.564  27.633  1.00  0.00    -0.462 OA
BRANCH  27  28
ATOM     28  C   UNL A   1      33.510  23.377  27.349  1.00  0.00     0.230 C 
ATOM     29  C   UNL A   1      34.747  22.513  27.511  1.00  0.00     0.049 C 
ENDBRANCH  27  28
ENDBRANCH  25  27
ENDBRANCH  17  25
ENDBRANCH  13  16
ENDBRANCH   6  12
ENDBRANCH   1   5
BRANCH   3  30
ATOM     30  C   UNL A   1      34.746  23.538  23.906  1.00  0.00     0.117 C 
BRANCH  30  31
ATOM     31  C   UNL A   1      36.250  23.315  23.786  1.00  0.00     0.042 C 
BRANCH  31  32
ATOM     32  C   UNL A   1      37.071  23.731  25.005  1.00  0.00     0.118 C 
BRANCH  32  33
ATOM     33  N   UNL A   1      38.074  22.749  25.381  1.00  0.00    -0.352 N 
ATOM     34  C   UNL A   1      39.240  22.886  26.091  1.00  0.00     0.251 C 
ATOM     35  H   UNL A   1      37.885  21.832  25.076  1.00  0.00     0.163 HD
ATOM     36  O   UNL A   1      40.001  21.926  26.180  1.00  0.00    -0.269 OA
BRANCH  34  37
ATOM     37  C   UNL A   1      39.614  24.168  26.734  1.00  0.00     0.039 A 
ATOM     38  C   UNL A   1      39.194  24.391  28.052  1.00  0.00     0.014 A 
ATOM     39  C   UNL A   1      40.301  25.172  26.046  1.00  0.00     0.014 A 
ATOM     40  C   UNL A   1      39.509  25.590  28.696  1.00  0.00     0.010 A 
ATOM     41  C   UNL A   1      40.646  26.357  26.702  1.00  0.00     0.010 A 
ATOM     42  C   UNL A   1      40.257  26.573  28.032  1.00  0.00    -0.014 A 
BRANCH  42  43
ATOM     43  C   UNL A   1      40.643  27.828  28.719  1.00  0.00     0.031 A 
ATOM     44  C   UNL A   1      39.643  28.930  28.915  1.00  0.00     0.074 A 
ATOM     45  C   UNL A   1      41.914  27.998  29.128  1.00  0.00     0.049 A 
ATOM     46  N   UNL A   1      39.832  30.136  29.389  1.00  0.00    -0.248 NA
ATOM     47  C   UNL A   1      38.258  28.645  28.515  1.00  0.00     0.031 C 
ATOM     48  C   UNL A   1      42.990  27.014  28.991  1.00  0.00     0.029 A 
ATOM     49  N   UNL A   1      42.515  29.070  29.739  1.00  0.00    -0.354 N 
ATOM     50  C   UNL A   1      38.598  30.766  29.313  1.00  0.00     0.074 A 
ATOM     51  C   UNL A   1      37.666  29.808  28.754  1.00  0.00     0.031 C 
ATOM     52  C   UNL A   1      44.118  27.526  29.512  1.00  0.00     0.029 A 
ATOM     53  C   UNL A   1      43.848  28.877  29.997  1.00  0.00     0.049 A 
ATOM     54  H   UNL A   1      42.035  29.898  29.970  1.00  0.00     0.167 HD
ATOM     55  C   UNL A   1      38.268  32.030  29.669  1.00  0.00     0.031 A 
ATOM     56  C   UNL A   1      44.757  29.698  30.552  1.00  0.00     0.031 A 
ATOM     57  C   UNL A   1      39.172  32.982  30.255  1.00  0.00     0.049 A 
ATOM     58  C   UNL A   1      44.357  31.077  30.981  1.00  0.00     0.074 A 
ATOM     59  C   UNL A   1      38.915  34.281  30.659  1.00  0.00     0.029 A 
ATOM     60  N   UNL A   1      40.504  32.731  30.534  1.00  0.00    -0.354 N 
ATOM     61  N   UNL A   1      43.190  31.663  30.881  1.00  0.00    -0.248 NA
ATOM     62  C   UNL A   1      45.404  31.908  31.593  1.00  0.00     0.031 C 
ATOM     63  C   UNL A   1      40.097  34.819  31.183  1.00  0.00     0.029 A 
ATOM     64  C   UNL A   1      41.083  33.849  31.109  1.00  0.00     0.049 A 
ATOM     65  H   UNL A   1      40.970  31.885  30.351  1.00  0.00     0.167 HD
ATOM     66  C   UNL A   1      43.361  32.931  31.416  1.00  0.00     0.074 A 
ATOM     67  C   UNL A   1      44.741  33.028  31.848  1.00  0.00     0.031 C 
ATOM     68  C   UNL A   1      42.454  33.929  31.533  1.00  0.00     0.031 A 
BRANCH  55  69
ATOM     69  C   UNL A   1      36.857  32.460  29.412  1.00  0.00    -0.014 A 
ATOM     70  C   UNL A   1      35.865  32.290  30.388  1.00  0.00     0.009 A 
ATOM     71  C   UNL A   1      36.524  33.061  28.188  1.00  0.00     0.009 A 
ATOM     72  C   UNL A   1      34.555  32.698  30.134  1.00  0.00     0.001 A 
ATOM     73  C   UNL A   1      35.214  33.475  27.942  1.00  0.00     0.001 A 
ATOM     74  C   UNL A   1      34.231  33.289  28.913  1.00  0.00     0.000 A 
ENDBRANCH  55  69
BRANCH  56  75
ATOM     75  C   UNL A   1      46.151  29.233  30.729  1.00  0.00    -0.014 A 
ATOM     76  C   UNL A   1      47.099  29.446  29.717  1.00  0.00     0.009 A 
ATOM     77  C   UNL A   1      46.538  28.585  31.910  1.00  0.00     0.009 A 
ATOM     78  C   UNL A   1      48.413  29.006  29.883  1.00  0.00     0.001 A 
ATOM     79  C   UNL A   1      47.855  28.153  32.074  1.00  0.00     0.001 A 
ATOM     80  C   UNL A   1      48.790  28.361  31.060  1.00  0.00     0.000 A 
ENDBRANCH  56  75
BRANCH  68  81
ATOM     81  C   UNL A   1      42.929  35.205  32.155  1.00  0.00    -0.014 A 
ATOM     82  C   UNL A   1      43.623  36.154  31.390  1.00  0.00     0.009 A 
ATOM     83  C   UNL A   1      42.667  35.468  33.507  1.00  0.00     0.009 A 
ATOM     84  C   UNL A   1      44.062  37.342  31.976  1.00  0.00     0.001 A 
ATOM     85  C   UNL A   1      43.104  36.659  34.088  1.00  0.00     0.001 A 
ATOM     86  C   UNL A   1      43.803  37.594  33.324  1.00  0.00     0.000 A 
ENDBRANCH  68  81
ENDBRANCH  42  43
ENDBRANCH  34  37
ENDBRANCH  32  33
ENDBRANCH  31  32
ENDBRANCH  30  31
ENDBRANCH   3  30
TORSDOF 15
ENDMDL
