MODEL 1
REMARK VINA RESULT:     -11.5      0.000      0.000
REMARK SMILES CC1([C@@H]2C[C@H](C(F)(F)F)n3nc(C(=O)NCCCNC(=O)c4ccc(-c5c6nc(c(-c7ccccc7)c7ccc([nH]7)c(-c7ccccc7)c7nc(c(-c8ccccc8)c8ccc5[nH]8)C=C7)C=C6)cc4)cc3N2)CC1
REMARK SMILES IDX 17 1 16 2 15 3 13 4 14 5 12 7 3 8 4 9 72 10 5 11 71 12 10 14
REMARK SMILES IDX 70 15 11 16 2 17 1 18 73 19 74 20 6 21 7 22 8 23 9 24 18 25
REMARK SMILES IDX 19 26 20 27 21 29 22 30 23 31 69 32 24 33 68 34 25 35 26 36
REMARK SMILES IDX 27 37 62 38 28 39 67 40 61 41 63 42 29 43 66 44 60 45 59 46
REMARK SMILES IDX 30 48 52 49 37 50 51 51 38 52 41 53 50 54 64 55 39 56 40 57
REMARK SMILES IDX 49 59 65 60 42 61 31 62 32 63 36 64 33 65 35 66 34 67 53 68
REMARK SMILES IDX 54 69 58 70 55 71 57 72 56 73 43 74 44 75 48 76 45 77 47 78
REMARK SMILES IDX 46 79
REMARK H PARENT 15 6 72 13 19 28 63 47 41 58
REMARK Flexibility Score: inf
ROOT
ATOM      1  C   UNL A   1      33.986  28.234  25.872  1.00  0.00     0.042 C 
ENDROOT
BRANCH   1   2
ATOM      2  C   UNL A   1      33.113  28.932  24.828  1.00  0.00     0.118 C 
BRANCH   2   3
ATOM      3  N   UNL A   1      33.737  28.944  23.522  1.00  0.00    -0.351 N 
ATOM      4  C   UNL A   1      33.760  28.012  22.507  1.00  0.00     0.271 C 
ATOM      5  O   UNL A   1      34.279  28.385  21.453  1.00  0.00    -0.267 OA
ATOM      6  H   UNL A   1      34.237  29.767  23.323  1.00  0.00     0.163 HD
BRANCH   4   7
ATOM      7  C   UNL A   1      33.205  26.654  22.685  1.00  0.00     0.152 A 
ATOM      8  C   UNL A   1      31.465  22.649  23.989  1.00  0.00     0.089 C 
ATOM      9  C   UNL A   1      32.590  22.134  23.070  1.00  0.00     0.062 C 
ATOM     10  N   UNL A   1      31.039  23.961  23.530  1.00  0.00    -0.367 N 
ATOM     11  C   UNL A   1      33.709  23.159  22.764  1.00  0.00     0.216 C 
ATOM     12  C   UNL A   1      31.954  24.877  23.167  1.00  0.00     0.126 A 
ATOM     13  H   UNL A   1      30.080  24.178  23.485  1.00  0.00     0.162 HD
ATOM     14  N   UNL A   1      33.229  24.523  22.840  1.00  0.00    -0.237 N 
ATOM     15  C   UNL A   1      31.911  26.242  23.113  1.00  0.00     0.082 A 
ATOM     16  N   UNL A   1      33.985  25.568  22.475  1.00  0.00    -0.165 NA
BRANCH   8  17
ATOM     17  C   UNL A   1      31.769  22.633  25.497  1.00  0.00    -0.012 C 
ATOM     18  C   UNL A   1      32.571  21.432  25.949  1.00  0.00     0.013 C 
ATOM     19  C   UNL A   1      30.694  23.125  26.468  1.00  0.00     0.009 C 
ATOM     20  C   UNL A   1      31.957  23.908  26.315  1.00  0.00     0.009 C 
ENDBRANCH   8  17
BRANCH  11  21
ATOM     21  C   UNL A   1      34.938  22.906  23.612  1.00  0.00     0.410 C 
ATOM     22  F   UNL A   1      34.951  21.596  23.992  1.00  0.00    -0.169 F 
ATOM     23  F   UNL A   1      36.102  23.114  22.967  1.00  0.00    -0.169 F 
ATOM     24  F   UNL A   1      34.963  23.625  24.751  1.00  0.00    -0.169 F 
ENDBRANCH  11  21
ENDBRANCH   4   7
ENDBRANCH   2   3
ENDBRANCH   1   2
BRANCH   1  25
ATOM     25  C   UNL A   1      33.561  28.526  27.311  1.00  0.00     0.118 C 
BRANCH  25  26
ATOM     26  N   UNL A   1      33.569  29.953  27.602  1.00  0.00    -0.352 N 
ATOM     27  C   UNL A   1      34.513  30.736  28.216  1.00  0.00     0.251 C 
ATOM     28  H   UNL A   1      32.763  30.437  27.308  1.00  0.00     0.163 HD
ATOM     29  O   UNL A   1      34.218  31.879  28.552  1.00  0.00    -0.269 OA
BRANCH  27  30
ATOM     30  C   UNL A   1      35.873  30.225  28.482  1.00  0.00     0.039 A 
ATOM     31  C   UNL A   1      36.815  30.259  27.448  1.00  0.00     0.014 A 
ATOM     32  C   UNL A   1      36.209  29.651  29.712  1.00  0.00     0.014 A 
ATOM     33  C   UNL A   1      38.104  29.767  27.662  1.00  0.00     0.010 A 
ATOM     34  C   UNL A   1      37.514  29.219  29.944  1.00  0.00     0.010 A 
ATOM     35  C   UNL A   1      38.472  29.268  28.921  1.00  0.00    -0.014 A 
BRANCH  35  36
ATOM     36  C   UNL A   1      39.854  28.796  29.186  1.00  0.00     0.031 A 
ATOM     37  C   UNL A   1      40.862  29.717  29.820  1.00  0.00     0.074 A 
ATOM     38  C   UNL A   1      40.220  27.560  28.795  1.00  0.00     0.049 A 
ATOM     39  N   UNL A   1      42.133  29.512  30.055  1.00  0.00    -0.248 NA
ATOM     40  C   UNL A   1      40.386  31.051  30.221  1.00  0.00     0.031 C 
ATOM     41  C   UNL A   1      39.347  26.585  28.137  1.00  0.00     0.029 A 
ATOM     42  N   UNL A   1      41.430  26.916  28.881  1.00  0.00    -0.354 N 
ATOM     43  C   UNL A   1      42.612  30.694  30.606  1.00  0.00     0.074 A 
ATOM     44  C   UNL A   1      41.505  31.625  30.638  1.00  0.00     0.031 C 
ATOM     45  C   UNL A   1      40.045  25.463  27.896  1.00  0.00     0.029 A 
ATOM     46  C   UNL A   1      41.420  25.653  28.343  1.00  0.00     0.049 A 
ATOM     47  H   UNL A   1      42.228  27.323  29.290  1.00  0.00     0.167 HD
ATOM     48  C   UNL A   1      43.857  30.974  31.056  1.00  0.00     0.031 A 
ATOM     49  C   UNL A   1      42.412  24.751  28.211  1.00  0.00     0.031 A 
ATOM     50  C   UNL A   1      44.952  30.041  31.046  1.00  0.00     0.049 A 
ATOM     51  C   UNL A   1      43.785  25.092  28.722  1.00  0.00     0.074 A 
ATOM     52  C   UNL A   1      46.233  30.211  31.542  1.00  0.00     0.029 A 
ATOM     53  N   UNL A   1      44.894  28.763  30.515  1.00  0.00    -0.354 N 
ATOM     54  N   UNL A   1      44.201  26.190  29.305  1.00  0.00    -0.248 NA
ATOM     55  C   UNL A   1      44.821  24.062  28.566  1.00  0.00     0.031 C 
ATOM     56  C   UNL A   1      46.965  29.052  31.268  1.00  0.00     0.029 A 
ATOM     57  C   UNL A   1      46.123  28.141  30.650  1.00  0.00     0.049 A 
ATOM     58  H   UNL A   1      44.098  28.358  30.102  1.00  0.00     0.167 HD
ATOM     59  C   UNL A   1      45.537  25.970  29.613  1.00  0.00     0.074 A 
ATOM     60  C   UNL A   1      45.857  24.630  29.168  1.00  0.00     0.031 C 
ATOM     61  C   UNL A   1      46.421  26.804  30.211  1.00  0.00     0.031 A 
BRANCH  48  62
ATOM     62  C   UNL A   1      44.112  32.353  31.601  1.00  0.00    -0.014 A 
ATOM     63  C   UNL A   1      44.485  33.411  30.758  1.00  0.00     0.009 A 
ATOM     64  C   UNL A   1      43.913  32.610  32.966  1.00  0.00     0.009 A 
ATOM     65  C   UNL A   1      44.676  34.693  31.275  1.00  0.00     0.001 A 
ATOM     66  C   UNL A   1      44.080  33.899  33.477  1.00  0.00     0.001 A 
ATOM     67  C   UNL A   1      44.468  34.937  32.632  1.00  0.00     0.000 A 
ENDBRANCH  48  62
BRANCH  49  68
ATOM     68  C   UNL A   1      42.151  23.436  27.572  1.00  0.00    -0.014 A 
ATOM     69  C   UNL A   1      41.686  22.352  28.333  1.00  0.00     0.009 A 
ATOM     70  C   UNL A   1      42.392  23.248  26.202  1.00  0.00     0.009 A 
ATOM     71  C   UNL A   1      41.505  21.099  27.744  1.00  0.00     0.001 A 
ATOM     72  C   UNL A   1      42.180  22.001  25.609  1.00  0.00     0.001 A 
ATOM     73  C   UNL A   1      41.750  20.925  26.383  1.00  0.00     0.000 A 
ENDBRANCH  49  68
BRANCH  61  74
ATOM     74  C   UNL A   1      47.804  26.275  30.460  1.00  0.00    -0.014 A 
ATOM     75  C   UNL A   1      48.797  26.332  29.470  1.00  0.00     0.009 A 
ATOM     76  C   UNL A   1      48.128  25.748  31.721  1.00  0.00     0.009 A 
ATOM     77  C   UNL A   1      50.079  25.841  29.727  1.00  0.00     0.001 A 
ATOM     78  C   UNL A   1      49.417  25.285  31.984  1.00  0.00     0.001 A 
ATOM     79  C   UNL A   1      50.388  25.323  30.984  1.00  0.00     0.000 A 
ENDBRANCH  61  74
ENDBRANCH  35  36
ENDBRANCH  27  30
ENDBRANCH  25  26
ENDBRANCH   1  25
TORSDOF 12
ENDMDL
MODEL 2
REMARK VINA RESULT:     -11.5      2.761      7.323
REMARK SMILES CC1([C@@H]2C[C@H](C(F)(F)F)n3nc(C(=O)NCCCNC(=O)c4ccc(-c5c6nc(c(-c7ccccc7)c7ccc([nH]7)c(-c7ccccc7)c7nc(c(-c8ccccc8)c8ccc5[nH]8)C=C7)C=C6)cc4)cc3N2)CC1
REMARK SMILES IDX 17 1 16 2 15 3 13 4 14 5 12 7 3 8 4 9 72 10 5 11 71 12 10 14
REMARK SMILES IDX 70 15 11 16 2 17 1 18 73 19 74 20 6 21 7 22 8 23 9 24 18 25
REMARK SMILES IDX 19 26 20 27 21 29 22 30 23 31 69 32 24 33 68 34 25 35 26 36
REMARK SMILES IDX 27 37 62 38 28 39 67 40 61 41 63 42 29 43 66 44 60 45 59 46
REMARK SMILES IDX 30 48 52 49 37 50 51 51 38 52 41 53 50 54 64 55 39 56 40 57
REMARK SMILES IDX 49 59 65 60 42 61 31 62 32 63 36 64 33 65 35 66 34 67 53 68
REMARK SMILES IDX 54 69 58 70 55 71 57 72 56 73 43 74 44 75 48 76 45 77 47 78
REMARK SMILES IDX 46 79
REMARK H PARENT 15 6 72 13 19 28 63 47 41 58
REMARK Flexibility Score: inf
ROOT
ATOM      1  C   UNL A   1      37.406  19.766  24.632  1.00  0.00     0.042 C 
ENDROOT
BRANCH   1   2
ATOM      2  C   UNL A   1      35.999  20.243  24.994  1.00  0.00     0.118 C 
BRANCH   2   3
ATOM      3  N   UNL A   1      35.035  19.164  24.947  1.00  0.00    -0.351 N 
ATOM      4  C   UNL A   1      33.698  19.141  24.615  1.00  0.00     0.271 C 
ATOM      5  O   UNL A   1      33.184  18.022  24.548  1.00  0.00    -0.267 OA
ATOM      6  H   UNL A   1      35.401  18.286  25.200  1.00  0.00     0.163 HD
BRANCH   4   7
ATOM      7  C   UNL A   1      32.936  20.383  24.368  1.00  0.00     0.152 A 
ATOM      8  C   UNL A   1      31.267  24.501  23.355  1.00  0.00     0.089 C 
ATOM      9  C   UNL A   1      30.646  24.328  24.754  1.00  0.00     0.062 C 
ATOM     10  N   UNL A   1      31.462  23.191  22.755  1.00  0.00    -0.367 N 
ATOM     11  C   UNL A   1      31.316  23.252  25.643  1.00  0.00     0.216 C 
ATOM     12  C   UNL A   1      31.962  22.182  23.490  1.00  0.00     0.126 A 
ATOM     13  H   UNL A   1      31.225  23.042  21.811  1.00  0.00     0.162 HD
ATOM     14  N   UNL A   1      31.939  22.209  24.853  1.00  0.00    -0.237 N 
ATOM     15  C   UNL A   1      32.627  21.040  23.143  1.00  0.00     0.082 A 
ATOM     16  N   UNL A   1      32.455  21.103  25.408  1.00  0.00    -0.165 NA
BRANCH   8  17
ATOM     17  C   UNL A   1      32.539  25.364  23.286  1.00  0.00    -0.012 C 
ATOM     18  C   UNL A   1      32.514  26.568  24.203  1.00  0.00     0.013 C 
ATOM     19  C   UNL A   1      33.215  25.570  21.929  1.00  0.00     0.009 C 
ATOM     20  C   UNL A   1      33.917  24.781  22.986  1.00  0.00     0.009 C 
ENDBRANCH   8  17
BRANCH  11  21
ATOM     21  C   UNL A   1      32.250  23.875  26.659  1.00  0.00     0.410 C 
ATOM     22  F   UNL A   1      31.783  25.113  26.988  1.00  0.00    -0.169 F 
ATOM     23  F   UNL A   1      32.335  23.193  27.817  1.00  0.00    -0.169 F 
ATOM     24  F   UNL A   1      33.502  24.061  26.195  1.00  0.00    -0.169 F 
ENDBRANCH  11  21
ENDBRANCH   4   7
ENDBRANCH   2   3
ENDBRANCH   1   2
BRANCH   1  25
ATOM     25  C   UNL A   1      38.486  20.300  25.574  1.00  0.00     0.118 C 
BRANCH  25  26
ATOM     26  N   UNL A   1      39.613  19.384  25.685  1.00  0.00    -0.352 N 
ATOM     27  C   UNL A   1      40.921  19.611  26.026  1.00  0.00     0.251 C 
ATOM     28  H   UNL A   1      39.400  18.444  25.482  1.00  0.00     0.163 HD
ATOM     29  O   UNL A   1      41.752  18.726  25.844  1.00  0.00    -0.269 OA
BRANCH  27  30
ATOM     30  C   UNL A   1      41.346  20.904  26.603  1.00  0.00     0.039 A 
ATOM     31  C   UNL A   1      41.874  21.877  25.747  1.00  0.00     0.014 A 
ATOM     32  C   UNL A   1      41.295  21.140  27.980  1.00  0.00     0.014 A 
ATOM     33  C   UNL A   1      42.302  23.102  26.263  1.00  0.00     0.010 A 
ATOM     34  C   UNL A   1      41.663  22.386  28.485  1.00  0.00     0.010 A 
ATOM     35  C   UNL A   1      42.174  23.377  27.634  1.00  0.00    -0.014 A 
BRANCH  35  36
ATOM     36  C   UNL A   1      42.567  24.694  28.192  1.00  0.00     0.031 A 
ATOM     37  C   UNL A   1      41.532  25.768  28.404  1.00  0.00     0.074 A 
ATOM     38  C   UNL A   1      43.865  24.948  28.445  1.00  0.00     0.049 A 
ATOM     39  N   UNL A   1      41.696  27.003  28.804  1.00  0.00    -0.248 NA
ATOM     40  C   UNL A   1      40.134  25.414  28.106  1.00  0.00     0.031 C 
ATOM     41  C   UNL A   1      44.968  24.004  28.247  1.00  0.00     0.029 A 
ATOM     42  N   UNL A   1      44.480  26.083  28.912  1.00  0.00    -0.354 N 
ATOM     43  C   UNL A   1      40.432  27.579  28.782  1.00  0.00     0.074 A 
ATOM     44  C   UNL A   1      39.516  26.570  28.295  1.00  0.00     0.031 C 
ATOM     45  C   UNL A   1      46.121  24.593  28.607  1.00  0.00     0.029 A 
ATOM     46  C   UNL A   1      45.844  25.965  29.020  1.00  0.00     0.049 A 
ATOM     47  H   UNL A   1      43.989  26.904  29.147  1.00  0.00     0.167 HD
ATOM     48  C   UNL A   1      40.065  28.830  29.147  1.00  0.00     0.031 A 
ATOM     49  C   UNL A   1      46.772  26.865  29.396  1.00  0.00     0.031 A 
ATOM     50  C   UNL A   1      40.972  29.825  29.653  1.00  0.00     0.049 A 
ATOM     51  C   UNL A   1      46.334  28.247  29.796  1.00  0.00     0.074 A 
ATOM     52  C   UNL A   1      40.684  31.099  30.111  1.00  0.00     0.029 A 
ATOM     53  N   UNL A   1      42.343  29.657  29.769  1.00  0.00    -0.354 N 
ATOM     54  N   UNL A   1      45.124  28.751  29.836  1.00  0.00    -0.248 NA
ATOM     55  C   UNL A   1      47.390  29.180  30.214  1.00  0.00     0.031 C 
ATOM     56  C   UNL A   1      41.887  31.720  30.461  1.00  0.00     0.029 A 
ATOM     57  C   UNL A   1      42.917  30.813  30.271  1.00  0.00     0.049 A 
ATOM     58  H   UNL A   1      42.834  28.839  29.531  1.00  0.00     0.167 HD
ATOM     59  C   UNL A   1      45.271  30.047  30.313  1.00  0.00     0.074 A 
ATOM     60  C   UNL A   1      46.684  30.246  30.563  1.00  0.00     0.031 C 
ATOM     61  C   UNL A   1      44.322  30.989  30.524  1.00  0.00     0.031 A 
BRANCH  48  62
ATOM     62  C   UNL A   1      38.615  29.203  29.011  1.00  0.00    -0.014 A 
ATOM     63  C   UNL A   1      37.728  29.082  30.092  1.00  0.00     0.009 A 
ATOM     64  C   UNL A   1      38.145  29.746  27.805  1.00  0.00     0.009 A 
ATOM     65  C   UNL A   1      36.394  29.473  29.960  1.00  0.00     0.001 A 
ATOM     66  C   UNL A   1      36.818  30.161  27.683  1.00  0.00     0.001 A 
ATOM     67  C   UNL A   1      35.942  30.017  28.758  1.00  0.00     0.000 A 
ENDBRANCH  48  62
BRANCH  49  68
ATOM     68  C   UNL A   1      48.211  26.495  29.419  1.00  0.00    -0.014 A 
ATOM     69  C   UNL A   1      48.783  25.920  30.565  1.00  0.00     0.009 A 
ATOM     70  C   UNL A   1      49.029  26.742  28.305  1.00  0.00     0.009 A 
ATOM     71  C   UNL A   1      50.149  25.635  30.608  1.00  0.00     0.001 A 
ATOM     72  C   UNL A   1      50.389  26.426  28.340  1.00  0.00     0.001 A 
ATOM     73  C   UNL A   1      50.950  25.886  29.496  1.00  0.00     0.000 A 
ENDBRANCH  49  68
BRANCH  61  74
ATOM     74  C   UNL A   1      44.772  32.303  31.095  1.00  0.00    -0.014 A 
ATOM     75  C   UNL A   1      45.130  33.376  30.264  1.00  0.00     0.009 A 
ATOM     76  C   UNL A   1      44.799  32.481  32.487  1.00  0.00     0.009 A 
ATOM     77  C   UNL A   1      45.539  34.591  30.818  1.00  0.00     0.001 A 
ATOM     78  C   UNL A   1      45.180  33.705  33.037  1.00  0.00     0.001 A 
ATOM     79  C   UNL A   1      45.558  34.755  32.202  1.00  0.00     0.000 A 
ENDBRANCH  61  74
ENDBRANCH  35  36
ENDBRANCH  27  30
ENDBRANCH  25  26
ENDBRANCH   1  25
TORSDOF 12
ENDMDL
MODEL 3
REMARK VINA RESULT:     -11.4      1.401      2.287
REMARK SMILES CC1([C@@H]2C[C@H](C(F)(F)F)n3nc(C(=O)NCCCNC(=O)c4ccc(-c5c6nc(c(-c7ccccc7)c7ccc([nH]7)c(-c7ccccc7)c7nc(c(-c8ccccc8)c8ccc5[nH]8)C=C7)C=C6)cc4)cc3N2)CC1
REMARK SMILES IDX 17 1 16 2 15 3 13 4 14 5 12 7 3 8 4 9 72 10 5 11 71 12 10 14
REMARK SMILES IDX 70 15 11 16 2 17 1 18 73 19 74 20 6 21 7 22 8 23 9 24 18 25
REMARK SMILES IDX 19 26 20 27 21 29 22 30 23 31 69 32 24 33 68 34 25 35 26 36
REMARK SMILES IDX 27 37 62 38 28 39 67 40 61 41 63 42 29 43 66 44 60 45 59 46
REMARK SMILES IDX 30 48 52 49 37 50 51 51 38 52 41 53 50 54 64 55 39 56 40 57
REMARK SMILES IDX 49 59 65 60 42 61 31 62 32 63 36 64 33 65 35 66 34 67 53 68
REMARK SMILES IDX 54 69 58 70 55 71 57 72 56 73 43 74 44 75 48 76 45 77 47 78
REMARK SMILES IDX 46 79
REMARK H PARENT 15 6 72 13 19 28 63 47 41 58
REMARK Flexibility Score: inf
ROOT
ATOM      1  C   UNL A   1      32.219  28.065  27.511  1.00  0.00     0.042 C 
ENDROOT
BRANCH   1   2
ATOM      2  C   UNL A   1      31.487  27.583  26.258  1.00  0.00     0.118 C 
BRANCH   2   3
ATOM      3  N   UNL A   1      32.305  27.716  25.071  1.00  0.00    -0.351 N 
ATOM      4  C   UNL A   1      33.155  26.834  24.439  1.00  0.00     0.271 C 
ATOM      5  O   UNL A   1      33.609  27.213  23.357  1.00  0.00    -0.267 OA
ATOM      6  H   UNL A   1      32.244  28.596  24.635  1.00  0.00     0.163 HD
BRANCH   4   7
ATOM      7  C   UNL A   1      33.500  25.525  25.032  1.00  0.00     0.152 A 
ATOM      8  C   UNL A   1      35.218  21.546  26.440  1.00  0.00     0.089 C 
ATOM      9  C   UNL A   1      33.786  21.085  26.108  1.00  0.00     0.062 C 
ATOM     10  N   UNL A   1      35.192  22.951  26.813  1.00  0.00    -0.367 N 
ATOM     11  C   UNL A   1      32.989  22.033  25.180  1.00  0.00     0.216 C 
ATOM     12  C   UNL A   1      34.454  23.822  26.102  1.00  0.00     0.126 A 
ATOM     13  H   UNL A   1      35.713  23.264  27.587  1.00  0.00     0.162 HD
ATOM     14  N   UNL A   1      33.436  23.406  25.296  1.00  0.00    -0.237 N 
ATOM     15  C   UNL A   1      34.547  25.174  25.931  1.00  0.00     0.082 A 
ATOM     16  N   UNL A   1      32.797  24.419  24.694  1.00  0.00    -0.165 NA
BRANCH   8  17
ATOM     17  C   UNL A   1      36.285  21.251  25.371  1.00  0.00    -0.012 C 
ATOM     18  C   UNL A   1      36.199  19.856  24.787  1.00  0.00     0.013 C 
ATOM     19  C   UNL A   1      37.695  21.810  25.566  1.00  0.00     0.009 C 
ATOM     20  C   UNL A   1      36.849  22.327  24.448  1.00  0.00     0.009 C 
ENDBRANCH   8  17
BRANCH  11  21
ATOM     21  C   UNL A   1      32.971  21.525  23.753  1.00  0.00     0.410 C 
ATOM     22  F   UNL A   1      33.985  22.118  23.061  1.00  0.00    -0.169 F 
ATOM     23  F   UNL A   1      33.173  20.198  23.640  1.00  0.00    -0.169 F 
ATOM     24  F   UNL A   1      31.839  21.829  23.088  1.00  0.00    -0.169 F 
ENDBRANCH  11  21
ENDBRANCH   4   7
ENDBRANCH   2   3
ENDBRANCH   1   2
BRANCH   1  25
ATOM     25  C   UNL A   1      33.563  28.728  27.210  1.00  0.00     0.118 C 
BRANCH  25  26
ATOM     26  N   UNL A   1      33.573  30.135  27.588  1.00  0.00    -0.352 N 
ATOM     27  C   UNL A   1      34.512  30.874  28.260  1.00  0.00     0.251 C 
ATOM     28  H   UNL A   1      32.772  30.639  27.315  1.00  0.00     0.163 HD
ATOM     29  O   UNL A   1      34.218  31.996  28.663  1.00  0.00    -0.269 OA
BRANCH  27  30
ATOM     30  C   UNL A   1      35.868  30.341  28.511  1.00  0.00     0.039 A 
ATOM     31  C   UNL A   1      36.806  30.384  27.473  1.00  0.00     0.014 A 
ATOM     32  C   UNL A   1      36.201  29.740  29.728  1.00  0.00     0.014 A 
ATOM     33  C   UNL A   1      38.089  29.872  27.672  1.00  0.00     0.010 A 
ATOM     34  C   UNL A   1      37.502  29.288  29.946  1.00  0.00     0.010 A 
ATOM     35  C   UNL A   1      38.456  29.344  28.920  1.00  0.00    -0.014 A 
BRANCH  35  36
ATOM     36  C   UNL A   1      39.833  28.850  29.170  1.00  0.00     0.031 A 
ATOM     37  C   UNL A   1      40.870  29.764  29.767  1.00  0.00     0.074 A 
ATOM     38  C   UNL A   1      40.168  27.600  28.798  1.00  0.00     0.049 A 
ATOM     39  N   UNL A   1      42.141  29.539  29.983  1.00  0.00    -0.248 NA
ATOM     40  C   UNL A   1      40.428  31.115  30.149  1.00  0.00     0.031 C 
ATOM     41  C   UNL A   1      39.264  26.629  28.176  1.00  0.00     0.029 A 
ATOM     42  N   UNL A   1      41.366  26.934  28.876  1.00  0.00    -0.354 N 
ATOM     43  C   UNL A   1      42.653  30.721  30.501  1.00  0.00     0.074 A 
ATOM     44  C   UNL A   1      41.565  31.675  30.534  1.00  0.00     0.031 C 
ATOM     45  C   UNL A   1      39.935  25.488  27.945  1.00  0.00     0.029 A 
ATOM     46  C   UNL A   1      41.322  25.660  28.364  1.00  0.00     0.049 A 
ATOM     47  H   UNL A   1      42.180  27.333  29.262  1.00  0.00     0.167 HD
ATOM     48  C   UNL A   1      43.912  30.986  30.923  1.00  0.00     0.031 A 
ATOM     49  C   UNL A   1      42.293  24.737  28.234  1.00  0.00     0.031 A 
ATOM     50  C   UNL A   1      44.988  30.031  30.913  1.00  0.00     0.049 A 
ATOM     51  C   UNL A   1      43.682  25.060  28.713  1.00  0.00     0.074 A 
ATOM     52  C   UNL A   1      46.280  30.186  31.383  1.00  0.00     0.029 A 
ATOM     53  N   UNL A   1      44.895  28.744  30.409  1.00  0.00    -0.354 N 
ATOM     54  N   UNL A   1      44.130  26.161  29.265  1.00  0.00    -0.248 NA
ATOM     55  C   UNL A   1      44.695  24.006  28.559  1.00  0.00     0.031 C 
ATOM     56  C   UNL A   1      46.985  29.007  31.119  1.00  0.00     0.029 A 
ATOM     57  C   UNL A   1      46.114  28.100  30.535  1.00  0.00     0.049 A 
ATOM     58  H   UNL A   1      44.084  28.346  30.019  1.00  0.00     0.167 HD
ATOM     59  C   UNL A   1      45.467  25.921  29.554  1.00  0.00     0.074 A 
ATOM     60  C   UNL A   1      45.753  24.566  29.131  1.00  0.00     0.031 C 
ATOM     61  C   UNL A   1      46.378  26.749  30.118  1.00  0.00     0.031 A 
BRANCH  48  62
ATOM     62  C   UNL A   1      44.204  32.370  31.435  1.00  0.00    -0.014 A 
ATOM     63  C   UNL A   1      44.068  32.686  32.796  1.00  0.00     0.009 A 
ATOM     64  C   UNL A   1      44.684  33.351  30.554  1.00  0.00     0.009 A 
ATOM     65  C   UNL A   1      44.384  33.964  33.259  1.00  0.00     0.001 A 
ATOM     66  C   UNL A   1      45.024  34.621  31.025  1.00  0.00     0.001 A 
ATOM     67  C   UNL A   1      44.867  34.928  32.375  1.00  0.00     0.000 A 
ENDBRANCH  48  62
BRANCH  49  68
ATOM     68  C   UNL A   1      41.995  23.414  27.626  1.00  0.00    -0.014 A 
ATOM     69  C   UNL A   1      42.253  23.178  26.267  1.00  0.00     0.009 A 
ATOM     70  C   UNL A   1      41.423  22.389  28.396  1.00  0.00     0.009 A 
ATOM     71  C   UNL A   1      41.910  21.957  25.682  1.00  0.00     0.001 A 
ATOM     72  C   UNL A   1      41.110  21.157  27.815  1.00  0.00     0.001 A 
ATOM     73  C   UNL A   1      41.341  20.947  26.457  1.00  0.00     0.000 A 
ENDBRANCH  49  68
BRANCH  61  74
ATOM     74  C   UNL A   1      47.755  26.198  30.354  1.00  0.00    -0.014 A 
ATOM     75  C   UNL A   1      48.150  25.737  31.619  1.00  0.00     0.009 A 
ATOM     76  C   UNL A   1      48.656  26.104  29.281  1.00  0.00     0.009 A 
ATOM     77  C   UNL A   1      49.434  25.222  31.812  1.00  0.00     0.001 A 
ATOM     78  C   UNL A   1      49.927  25.562  29.471  1.00  0.00     0.001 A 
ATOM     79  C   UNL A   1      50.318  25.131  30.738  1.00  0.00     0.000 A 
ENDBRANCH  61  74
ENDBRANCH  35  36
ENDBRANCH  27  30
ENDBRANCH  25  26
ENDBRANCH   1  25
TORSDOF 12
ENDMDL
