MODEL 1
REMARK VINA RESULT:     -10.9      0.000      0.000
REMARK SMILES O=C(NCCCNC(=O)c1cc(SCC(=O)N2CCOCC2)ccn1)c1ccc(-c2c3nc(c(-c4ccccc4)c4ccc([nH]4)c(-c4ccccc4)c4nc(c(-c5ccccc5)c5ccc2[nH]5)C=C4)C=C3)cc1
REMARK SMILES IDX 5 1 4 2 3 3 1 4 2 5 26 7 27 8 73 9 28 10 72 11 29 12 30 13
REMARK SMILES IDX 31 14 66 15 32 16 71 17 65 18 67 19 33 20 70 21 64 22 63 23
REMARK SMILES IDX 34 25 56 26 41 27 55 28 42 29 45 30 54 31 68 32 43 33 44 34
REMARK SMILES IDX 53 36 69 37 46 38 35 39 36 40 40 41 37 42 39 43 38 44 57 45
REMARK SMILES IDX 58 46 62 47 59 48 61 49 60 50 47 51 48 52 52 53 49 54 51 55
REMARK SMILES IDX 50 56 6 57 7 58 8 59 9 61 10 62 11 63 25 64 12 65 24 66
REMARK SMILES IDX 23 67 13 68 14 69 15 70 16 71 17 72 18 73 22 74 19 75 21 76
REMARK SMILES IDX 20 77
REMARK H PARENT 3 6 67 24 45 35 7 60
REMARK Flexibility Score: inf
ROOT
ATOM      1  C   UNL A   1      38.141  19.843  24.887  1.00  0.00     0.042 C 
ENDROOT
BRANCH   1   2
ATOM      2  C   UNL A   1      39.115  19.990  26.039  1.00  0.00     0.118 C 
BRANCH   2   3
ATOM      3  N   UNL A   1      40.282  19.123  25.908  1.00  0.00    -0.352 N 
ATOM      4  O   UNL A   1      42.452  18.550  25.711  1.00  0.00    -0.269 OA
ATOM      5  C   UNL A   1      41.623  19.397  26.031  1.00  0.00     0.251 C 
ATOM      6  H   UNL A   1      40.074  18.185  25.697  1.00  0.00     0.163 HD
BRANCH   5   7
ATOM      7  C   UNL A   1      42.077  20.718  26.517  1.00  0.00     0.039 A 
ATOM      8  C   UNL A   1      42.167  20.983  27.881  1.00  0.00     0.014 A 
ATOM      9  C   UNL A   1      42.432  21.708  25.593  1.00  0.00     0.014 A 
ATOM     10  C   UNL A   1      42.407  22.278  28.318  1.00  0.00     0.010 A 
ATOM     11  C   UNL A   1      42.802  22.981  26.039  1.00  0.00     0.010 A 
ATOM     12  C   UNL A   1      42.752  23.288  27.406  1.00  0.00    -0.014 A 
BRANCH  12  13
ATOM     13  C   UNL A   1      43.118  24.624  27.942  1.00  0.00     0.031 A 
ATOM     14  C   UNL A   1      44.551  25.069  28.040  1.00  0.00     0.074 A 
ATOM     15  C   UNL A   1      42.122  25.473  28.263  1.00  0.00     0.049 A 
ATOM     16  N   UNL A   1      45.021  26.242  28.386  1.00  0.00    -0.248 NA
ATOM     17  C   UNL A   1      45.590  24.079  27.719  1.00  0.00     0.031 C 
ATOM     18  C   UNL A   1      40.692  25.147  28.225  1.00  0.00     0.029 A 
ATOM     19  N   UNL A   1      42.150  26.792  28.634  1.00  0.00    -0.354 N 
ATOM     20  C   UNL A   1      46.404  26.128  28.340  1.00  0.00     0.074 A 
ATOM     21  C   UNL A   1      46.701  24.764  27.958  1.00  0.00     0.031 C 
ATOM     22  C   UNL A   1      39.981  26.254  28.476  1.00  0.00     0.029 A 
ATOM     23  C   UNL A   1      40.900  27.348  28.762  1.00  0.00     0.049 A 
ATOM     24  H   UNL A   1      42.982  27.291  28.794  1.00  0.00     0.167 HD
ATOM     25  C   UNL A   1      47.340  27.077  28.585  1.00  0.00     0.031 A 
ATOM     26  C   UNL A   1      40.527  28.601  29.077  1.00  0.00     0.031 A 
ATOM     27  C   UNL A   1      47.043  28.434  28.965  1.00  0.00     0.049 A 
ATOM     28  C   UNL A   1      41.585  29.627  29.342  1.00  0.00     0.074 A 
ATOM     29  C   UNL A   1      47.924  29.467  29.236  1.00  0.00     0.029 A 
ATOM     30  N   UNL A   1      45.765  28.947  29.124  1.00  0.00    -0.354 N 
ATOM     31  N   UNL A   1      42.888  29.502  29.280  1.00  0.00    -0.248 NA
ATOM     32  C   UNL A   1      41.122  30.968  29.719  1.00  0.00     0.031 C 
ATOM     33  C   UNL A   1      47.179  30.596  29.595  1.00  0.00     0.029 A 
ATOM     34  C   UNL A   1      45.833  30.279  29.501  1.00  0.00     0.049 A 
ATOM     35  H   UNL A   1      44.932  28.440  28.990  1.00  0.00     0.167 HD
ATOM     36  C   UNL A   1      43.402  30.746  29.612  1.00  0.00     0.074 A 
ATOM     37  C   UNL A   1      42.268  31.621  29.835  1.00  0.00     0.031 C 
ATOM     38  C   UNL A   1      44.696  31.128  29.734  1.00  0.00     0.031 A 
BRANCH  25  39
ATOM     39  C   UNL A   1      48.785  26.674  28.468  1.00  0.00    -0.014 A 
ATOM     40  C   UNL A   1      49.497  26.194  29.579  1.00  0.00     0.009 A 
ATOM     41  C   UNL A   1      49.425  26.722  27.220  1.00  0.00     0.009 A 
ATOM     42  C   UNL A   1      50.829  25.794  29.445  1.00  0.00     0.001 A 
ATOM     43  C   UNL A   1      50.749  26.299  27.084  1.00  0.00     0.001 A 
ATOM     44  C   UNL A   1      51.451  25.840  28.198  1.00  0.00     0.000 A 
ENDBRANCH  25  39
BRANCH  26  45
ATOM     45  C   UNL A   1      39.084  28.938  29.178  1.00  0.00    -0.014 A 
ATOM     46  C   UNL A   1      38.379  29.423  28.067  1.00  0.00     0.009 A 
ATOM     47  C   UNL A   1      38.402  28.759  30.393  1.00  0.00     0.009 A 
ATOM     48  C   UNL A   1      37.023  29.742  28.177  1.00  0.00     0.001 A 
ATOM     49  C   UNL A   1      37.041  29.049  30.490  1.00  0.00     0.001 A 
ATOM     50  C   UNL A   1      36.354  29.550  29.386  1.00  0.00     0.000 A 
ENDBRANCH  26  45
BRANCH  38  51
ATOM     51  C   UNL A   1      44.940  32.557  30.121  1.00  0.00    -0.014 A 
ATOM     52  C   UNL A   1      45.052  33.560  29.145  1.00  0.00     0.009 A 
ATOM     53  C   UNL A   1      45.056  32.904  31.475  1.00  0.00     0.009 A 
ATOM     54  C   UNL A   1      45.319  34.878  29.518  1.00  0.00     0.001 A 
ATOM     55  C   UNL A   1      45.297  34.227  31.845  1.00  0.00     0.001 A 
ATOM     56  C   UNL A   1      45.440  35.211  30.867  1.00  0.00     0.000 A 
ENDBRANCH  38  51
ENDBRANCH  12  13
ENDBRANCH   5   7
ENDBRANCH   2   3
ENDBRANCH   1   2
BRANCH   1  57
ATOM     57  C   UNL A   1      37.435  21.139  24.534  1.00  0.00     0.118 C 
BRANCH  57  58
ATOM     58  N   UNL A   1      37.901  22.273  25.314  1.00  0.00    -0.351 N 
ATOM     59  C   UNL A   1      37.247  23.449  25.612  1.00  0.00     0.269 C 
ATOM     60  H   UNL A   1      38.811  22.190  25.681  1.00  0.00     0.163 HD
ATOM     61  O   UNL A   1      37.839  24.336  26.222  1.00  0.00    -0.268 OA
BRANCH  59  62
ATOM     62  C   UNL A   1      35.831  23.625  25.187  1.00  0.00     0.129 A 
ATOM     63  C   UNL A   1      34.822  22.907  25.822  1.00  0.00     0.049 A 
ATOM     64  N   UNL A   1      35.631  24.445  24.125  1.00  0.00    -0.251 NA
ATOM     65  C   UNL A   1      33.550  22.949  25.271  1.00  0.00     0.012 A 
ATOM     66  C   UNL A   1      34.371  24.541  23.671  1.00  0.00     0.113 A 
ATOM     67  C   UNL A   1      33.318  23.810  24.193  1.00  0.00     0.035 A 
BRANCH  65  68
ATOM     68  S   UNL A   1      32.161  21.985  25.821  1.00  0.00    -0.116 SA
BRANCH  68  69
ATOM     69  C   UNL A   1      32.642  20.247  25.657  1.00  0.00     0.175 C 
BRANCH  69  70
ATOM     70  C   UNL A   1      32.384  19.487  24.365  1.00  0.00     0.233 C 
ATOM     71  O   UNL A   1      32.186  20.152  23.339  1.00  0.00    -0.274 OA
ATOM     72  N   UNL A   1      32.565  18.123  24.273  1.00  0.00    -0.337 N 
ATOM     73  C   UNL A   1      32.396  17.121  25.325  1.00  0.00     0.148 C 
ATOM     74  C   UNL A   1      32.927  17.527  22.978  1.00  0.00     0.148 C 
ATOM     75  C   UNL A   1      33.629  16.222  25.424  1.00  0.00     0.181 C 
ATOM     76  C   UNL A   1      34.166  16.636  23.155  1.00  0.00     0.181 C 
ATOM     77  O   UNL A   1      33.937  15.628  24.154  1.00  0.00    -0.378 OA
ENDBRANCH  69  70
ENDBRANCH  68  69
ENDBRANCH  65  68
ENDBRANCH  59  62
ENDBRANCH  57  58
ENDBRANCH   1  57
TORSDOF 13
ENDMDL
MODEL 2
REMARK VINA RESULT:     -10.8      1.893      3.430
REMARK SMILES O=C(NCCCNC(=O)c1cc(SCC(=O)N2CCOCC2)ccn1)c1ccc(-c2c3nc(c(-c4ccccc4)c4ccc([nH]4)c(-c4ccccc4)c4nc(c(-c5ccccc5)c5ccc2[nH]5)C=C4)C=C3)cc1
REMARK SMILES IDX 5 1 4 2 3 3 1 4 2 5 26 7 27 8 73 9 28 10 72 11 29 12 30 13
REMARK SMILES IDX 31 14 66 15 32 16 71 17 65 18 67 19 33 20 70 21 64 22 63 23
REMARK SMILES IDX 34 25 56 26 41 27 55 28 42 29 45 30 54 31 68 32 43 33 44 34
REMARK SMILES IDX 53 36 69 37 46 38 35 39 36 40 40 41 37 42 39 43 38 44 57 45
REMARK SMILES IDX 58 46 62 47 59 48 61 49 60 50 47 51 48 52 52 53 49 54 51 55
REMARK SMILES IDX 50 56 6 57 7 58 8 59 9 61 10 62 11 63 25 64 12 65 24 66
REMARK SMILES IDX 23 67 13 68 14 69 15 70 16 71 17 72 18 73 22 74 19 75 21 76
REMARK SMILES IDX 20 77
REMARK H PARENT 3 6 67 24 45 35 7 60
REMARK Flexibility Score: inf
ROOT
ATOM      1  C   UNL A   1      37.942  19.678  24.922  1.00  0.00     0.042 C 
ENDROOT
BRANCH   1   2
ATOM      2  C   UNL A   1      39.070  20.178  25.805  1.00  0.00     0.118 C 
BRANCH   2   3
ATOM      3  N   UNL A   1      40.243  19.309  25.771  1.00  0.00    -0.352 N 
ATOM      4  O   UNL A   1      42.421  18.733  25.774  1.00  0.00    -0.269 OA
ATOM      5  C   UNL A   1      41.565  19.576  26.030  1.00  0.00     0.251 C 
ATOM      6  H   UNL A   1      40.055  18.376  25.521  1.00  0.00     0.163 HD
BRANCH   5   7
ATOM      7  C   UNL A   1      41.971  20.885  26.584  1.00  0.00     0.039 A 
ATOM      8  C   UNL A   1      42.034  21.087  27.961  1.00  0.00     0.014 A 
ATOM      9  C   UNL A   1      42.309  21.928  25.715  1.00  0.00     0.014 A 
ATOM     10  C   UNL A   1      42.228  22.366  28.463  1.00  0.00     0.010 A 
ATOM     11  C   UNL A   1      42.634  23.189  26.227  1.00  0.00     0.010 A 
ATOM     12  C   UNL A   1      42.555  23.429  27.605  1.00  0.00    -0.014 A 
BRANCH  12  13
ATOM     13  C   UNL A   1      42.872  24.747  28.210  1.00  0.00     0.031 A 
ATOM     14  C   UNL A   1      44.288  25.165  28.496  1.00  0.00     0.074 A 
ATOM     15  C   UNL A   1      41.857  25.609  28.422  1.00  0.00     0.049 A 
ATOM     16  N   UNL A   1      44.729  26.323  28.921  1.00  0.00    -0.248 NA
ATOM     17  C   UNL A   1      45.343  24.162  28.286  1.00  0.00     0.031 C 
ATOM     18  C   UNL A   1      40.438  25.309  28.199  1.00  0.00     0.029 A 
ATOM     19  N   UNL A   1      41.859  26.919  28.820  1.00  0.00    -0.354 N 
ATOM     20  C   UNL A   1      46.105  26.184  29.045  1.00  0.00     0.074 A 
ATOM     21  C   UNL A   1      46.426  24.822  28.676  1.00  0.00     0.031 C 
ATOM     22  C   UNL A   1      39.719  26.424  28.382  1.00  0.00     0.029 A 
ATOM     23  C   UNL A   1      40.612  27.496  28.802  1.00  0.00     0.049 A 
ATOM     24  H   UNL A   1      42.673  27.401  29.093  1.00  0.00     0.167 HD
ATOM     25  C   UNL A   1      47.018  27.111  29.425  1.00  0.00     0.031 A 
ATOM     26  C   UNL A   1      40.222  28.749  29.095  1.00  0.00     0.031 A 
ATOM     27  C   UNL A   1      46.698  28.466  29.793  1.00  0.00     0.049 A 
ATOM     28  C   UNL A   1      41.255  29.751  29.510  1.00  0.00     0.074 A 
ATOM     29  C   UNL A   1      47.554  29.477  30.192  1.00  0.00     0.029 A 
ATOM     30  N   UNL A   1      45.418  28.999  29.801  1.00  0.00    -0.354 N 
ATOM     31  N   UNL A   1      42.553  29.603  29.609  1.00  0.00    -0.248 NA
ATOM     32  C   UNL A   1      40.769  31.093  29.854  1.00  0.00     0.031 C 
ATOM     33  C   UNL A   1      46.787  30.614  30.478  1.00  0.00     0.029 A 
ATOM     34  C   UNL A   1      45.460  30.322  30.211  1.00  0.00     0.049 A 
ATOM     35  H   UNL A   1      44.601  28.510  29.554  1.00  0.00     0.167 HD
ATOM     36  C   UNL A   1      43.041  30.832  30.028  1.00  0.00     0.074 A 
ATOM     37  C   UNL A   1      41.902  31.723  30.125  1.00  0.00     0.031 C 
ATOM     38  C   UNL A   1      44.316  31.188  30.318  1.00  0.00     0.031 A 
BRANCH  25  39
ATOM     39  C   UNL A   1      48.460  26.684  29.481  1.00  0.00    -0.014 A 
ATOM     40  C   UNL A   1      49.313  26.863  28.380  1.00  0.00     0.009 A 
ATOM     41  C   UNL A   1      48.985  26.149  30.667  1.00  0.00     0.009 A 
ATOM     42  C   UNL A   1      50.657  26.490  28.460  1.00  0.00     0.001 A 
ATOM     43  C   UNL A   1      50.335  25.800  30.752  1.00  0.00     0.001 A 
ATOM     44  C   UNL A   1      51.168  25.966  29.647  1.00  0.00     0.000 A 
ENDBRANCH  25  39
BRANCH  26  45
ATOM     45  C   UNL A   1      38.783  29.111  29.021  1.00  0.00    -0.014 A 
ATOM     46  C   UNL A   1      38.208  29.536  27.815  1.00  0.00     0.009 A 
ATOM     47  C   UNL A   1      37.974  29.016  30.165  1.00  0.00     0.009 A 
ATOM     48  C   UNL A   1      36.855  29.879  27.762  1.00  0.00     0.001 A 
ATOM     49  C   UNL A   1      36.616  29.329  30.101  1.00  0.00     0.001 A 
ATOM     50  C   UNL A   1      36.059  29.770  28.902  1.00  0.00     0.000 A 
ENDBRANCH  26  45
BRANCH  38  51
ATOM     51  C   UNL A   1      44.531  32.604  30.761  1.00  0.00    -0.014 A 
ATOM     52  C   UNL A   1      44.487  32.951  32.121  1.00  0.00     0.009 A 
ATOM     53  C   UNL A   1      44.783  33.603  29.809  1.00  0.00     0.009 A 
ATOM     54  C   UNL A   1      44.649  34.280  32.515  1.00  0.00     0.001 A 
ATOM     55  C   UNL A   1      44.970  34.927  30.208  1.00  0.00     0.001 A 
ATOM     56  C   UNL A   1      44.892  35.266  31.558  1.00  0.00     0.000 A 
ENDBRANCH  38  51
ENDBRANCH  12  13
ENDBRANCH   5   7
ENDBRANCH   2   3
ENDBRANCH   1   2
BRANCH   1  57
ATOM     57  C   UNL A   1      36.858  20.715  24.697  1.00  0.00     0.118 C 
BRANCH  57  58
ATOM     58  N   UNL A   1      36.065  20.978  25.886  1.00  0.00    -0.351 N 
ATOM     59  C   UNL A   1      34.763  21.422  25.981  1.00  0.00     0.269 C 
ATOM     60  H   UNL A   1      36.520  20.817  26.744  1.00  0.00     0.163 HD
ATOM     61  O   UNL A   1      34.284  21.668  27.085  1.00  0.00    -0.268 OA
BRANCH  59  62
ATOM     62  C   UNL A   1      33.959  21.598  24.741  1.00  0.00     0.129 A 
ATOM     63  C   UNL A   1      34.050  22.785  24.018  1.00  0.00     0.049 A 
ATOM     64  N   UNL A   1      33.113  20.583  24.436  1.00  0.00    -0.251 NA
ATOM     65  C   UNL A   1      33.147  22.987  22.987  1.00  0.00     0.012 A 
ATOM     66  C   UNL A   1      32.315  20.768  23.372  1.00  0.00     0.113 A 
ATOM     67  C   UNL A   1      32.284  21.942  22.640  1.00  0.00     0.035 A 
BRANCH  65  68
ATOM     68  S   UNL A   1      32.979  24.489  22.049  1.00  0.00    -0.116 SA
BRANCH  68  69
ATOM     69  C   UNL A   1      33.643  25.820  23.082  1.00  0.00     0.175 C 
BRANCH  69  70
ATOM     70  C   UNL A   1      32.715  26.715  23.888  1.00  0.00     0.233 C 
ATOM     71  O   UNL A   1      32.317  27.758  23.352  1.00  0.00    -0.274 OA
ATOM     72  N   UNL A   1      32.162  26.303  25.083  1.00  0.00    -0.337 N 
ATOM     73  C   UNL A   1      32.733  25.387  26.070  1.00  0.00     0.148 C 
ATOM     74  C   UNL A   1      30.862  26.848  25.503  1.00  0.00     0.148 C 
ATOM     75  C   UNL A   1      31.734  24.289  26.434  1.00  0.00     0.181 C 
ATOM     76  C   UNL A   1      29.915  25.692  25.858  1.00  0.00     0.181 C 
ATOM     77  O   UNL A   1      30.487  24.850  26.873  1.00  0.00    -0.378 OA
ENDBRANCH  69  70
ENDBRANCH  68  69
ENDBRANCH  65  68
ENDBRANCH  59  62
ENDBRANCH  57  58
ENDBRANCH   1  57
TORSDOF 13
ENDMDL
MODEL 3
REMARK VINA RESULT:     -10.7      2.149      3.976
REMARK SMILES O=C(NCCCNC(=O)c1cc(SCC(=O)N2CCOCC2)ccn1)c1ccc(-c2c3nc(c(-c4ccccc4)c4ccc([nH]4)c(-c4ccccc4)c4nc(c(-c5ccccc5)c5ccc2[nH]5)C=C4)C=C3)cc1
REMARK SMILES IDX 5 1 4 2 3 3 1 4 2 5 26 7 27 8 73 9 28 10 72 11 29 12 30 13
REMARK SMILES IDX 31 14 66 15 32 16 71 17 65 18 67 19 33 20 70 21 64 22 63 23
REMARK SMILES IDX 34 25 56 26 41 27 55 28 42 29 45 30 54 31 68 32 43 33 44 34
REMARK SMILES IDX 53 36 69 37 46 38 35 39 36 40 40 41 37 42 39 43 38 44 57 45
REMARK SMILES IDX 58 46 62 47 59 48 61 49 60 50 47 51 48 52 52 53 49 54 51 55
REMARK SMILES IDX 50 56 6 57 7 58 8 59 9 61 10 62 11 63 25 64 12 65 24 66
REMARK SMILES IDX 23 67 13 68 14 69 15 70 16 71 17 72 18 73 22 74 19 75 21 76
REMARK SMILES IDX 20 77
REMARK H PARENT 3 6 67 24 45 35 7 60
REMARK Flexibility Score: inf
ROOT
ATOM      1  C   UNL A   1      37.663  19.717  25.031  1.00  0.00     0.042 C 
ENDROOT
BRANCH   1   2
ATOM      2  C   UNL A   1      38.870  20.285  25.752  1.00  0.00     0.118 C 
BRANCH   2   3
ATOM      3  N   UNL A   1      40.019  19.384  25.728  1.00  0.00    -0.352 N 
ATOM      4  O   UNL A   1      42.179  18.746  25.756  1.00  0.00    -0.269 OA
ATOM      5  C   UNL A   1      41.345  19.612  26.006  1.00  0.00     0.251 C 
ATOM      6  H   UNL A   1      39.808  18.458  25.470  1.00  0.00     0.163 HD
BRANCH   5   7
ATOM      7  C   UNL A   1      41.780  20.906  26.574  1.00  0.00     0.039 A 
ATOM      8  C   UNL A   1      41.811  21.105  27.952  1.00  0.00     0.014 A 
ATOM      9  C   UNL A   1      42.178  21.937  25.716  1.00  0.00     0.014 A 
ATOM     10  C   UNL A   1      42.035  22.375  28.461  1.00  0.00     0.010 A 
ATOM     11  C   UNL A   1      42.532  23.185  26.238  1.00  0.00     0.010 A 
ATOM     12  C   UNL A   1      42.422  23.427  27.614  1.00  0.00    -0.014 A 
BRANCH  12  13
ATOM     13  C   UNL A   1      42.768  24.733  28.230  1.00  0.00     0.031 A 
ATOM     14  C   UNL A   1      44.193  25.122  28.509  1.00  0.00     0.074 A 
ATOM     15  C   UNL A   1      41.771  25.611  28.457  1.00  0.00     0.049 A 
ATOM     16  N   UNL A   1      44.659  26.267  28.943  1.00  0.00    -0.248 NA
ATOM     17  C   UNL A   1      45.228  24.102  28.283  1.00  0.00     0.031 C 
ATOM     18  C   UNL A   1      40.345  25.339  28.242  1.00  0.00     0.029 A 
ATOM     19  N   UNL A   1      41.799  26.918  28.868  1.00  0.00    -0.354 N 
ATOM     20  C   UNL A   1      46.033  26.102  29.056  1.00  0.00     0.074 A 
ATOM     21  C   UNL A   1      46.326  24.738  28.671  1.00  0.00     0.031 C 
ATOM     22  C   UNL A   1      39.647  26.466  28.440  1.00  0.00     0.029 A 
ATOM     23  C   UNL A   1      40.563  27.517  28.865  1.00  0.00     0.049 A 
ATOM     24  H   UNL A   1      42.623  27.381  29.140  1.00  0.00     0.167 HD
ATOM     25  C   UNL A   1      46.965  27.008  29.439  1.00  0.00     0.031 A 
ATOM     26  C   UNL A   1      40.198  28.774  29.172  1.00  0.00     0.031 A 
ATOM     27  C   UNL A   1      46.672  28.365  29.822  1.00  0.00     0.049 A 
ATOM     28  C   UNL A   1      41.252  29.753  29.590  1.00  0.00     0.074 A 
ATOM     29  C   UNL A   1      47.549  29.357  30.225  1.00  0.00     0.029 A 
ATOM     30  N   UNL A   1      45.402  28.922  29.845  1.00  0.00    -0.354 N 
ATOM     31  N   UNL A   1      42.548  29.580  29.678  1.00  0.00    -0.248 NA
ATOM     32  C   UNL A   1      40.794  31.100  29.951  1.00  0.00     0.031 C 
ATOM     33  C   UNL A   1      46.806  30.504  30.528  1.00  0.00     0.029 A 
ATOM     34  C   UNL A   1      45.471  30.240  30.267  1.00  0.00     0.049 A 
ATOM     35  H   UNL A   1      44.575  28.451  29.598  1.00  0.00     0.167 HD
ATOM     36  C   UNL A   1      43.061  30.795  30.106  1.00  0.00     0.074 A 
ATOM     37  C   UNL A   1      41.940  31.706  30.220  1.00  0.00     0.031 C 
ATOM     38  C   UNL A   1      44.344  31.125  30.391  1.00  0.00     0.031 A 
BRANCH  25  39
ATOM     39  C   UNL A   1      48.399  26.555  29.480  1.00  0.00    -0.014 A 
ATOM     40  C   UNL A   1      49.256  26.758  28.388  1.00  0.00     0.009 A 
ATOM     41  C   UNL A   1      48.913  25.968  30.647  1.00  0.00     0.009 A 
ATOM     42  C   UNL A   1      50.594  26.359  28.455  1.00  0.00     0.001 A 
ATOM     43  C   UNL A   1      50.256  25.592  30.720  1.00  0.00     0.001 A 
ATOM     44  C   UNL A   1      51.094  25.783  29.623  1.00  0.00     0.000 A 
ENDBRANCH  25  39
BRANCH  26  45
ATOM     45  C   UNL A   1      38.766  29.163  29.112  1.00  0.00    -0.014 A 
ATOM     46  C   UNL A   1      38.192  29.617  27.916  1.00  0.00     0.009 A 
ATOM     47  C   UNL A   1      37.961  29.065  30.259  1.00  0.00     0.009 A 
ATOM     48  C   UNL A   1      36.845  29.985  27.876  1.00  0.00     0.001 A 
ATOM     49  C   UNL A   1      36.609  29.404  30.207  1.00  0.00     0.001 A 
ATOM     50  C   UNL A   1      36.054  29.873  29.018  1.00  0.00     0.000 A 
ENDBRANCH  26  45
BRANCH  38  51
ATOM     51  C   UNL A   1      44.589  32.533  30.846  1.00  0.00    -0.014 A 
ATOM     52  C   UNL A   1      44.523  32.875  32.207  1.00  0.00     0.009 A 
ATOM     53  C   UNL A   1      44.890  33.529  29.905  1.00  0.00     0.009 A 
ATOM     54  C   UNL A   1      44.713  34.196  32.611  1.00  0.00     0.001 A 
ATOM     55  C   UNL A   1      45.105  34.845  30.315  1.00  0.00     0.001 A 
ATOM     56  C   UNL A   1      45.005  35.180  31.666  1.00  0.00     0.000 A 
ENDBRANCH  38  51
ENDBRANCH  12  13
ENDBRANCH   5   7
ENDBRANCH   2   3
ENDBRANCH   1   2
BRANCH   1  57
ATOM     57  C   UNL A   1      36.517  20.706  24.920  1.00  0.00     0.118 C 
BRANCH  57  58
ATOM     58  N   UNL A   1      36.917  22.076  25.193  1.00  0.00    -0.351 N 
ATOM     59  C   UNL A   1      36.151  23.132  25.639  1.00  0.00     0.269 C 
ATOM     60  H   UNL A   1      37.867  22.279  25.038  1.00  0.00     0.163 HD
ATOM     61  O   UNL A   1      36.652  24.249  25.733  1.00  0.00    -0.268 OA
BRANCH  59  62
ATOM     62  C   UNL A   1      34.724  22.899  25.997  1.00  0.00     0.129 A 
ATOM     63  C   UNL A   1      33.721  23.210  25.084  1.00  0.00     0.049 A 
ATOM     64  N   UNL A   1      34.497  22.454  27.258  1.00  0.00    -0.251 NA
ATOM     65  C   UNL A   1      32.407  23.164  25.523  1.00  0.00     0.012 A 
ATOM     66  C   UNL A   1      33.212  22.329  27.626  1.00  0.00     0.113 A 
ATOM     67  C   UNL A   1      32.150  22.683  26.812  1.00  0.00     0.035 A 
BRANCH  65  68
ATOM     68  S   UNL A   1      30.990  23.677  24.579  1.00  0.00    -0.116 SA
BRANCH  68  69
ATOM     69  C   UNL A   1      31.044  25.485  24.508  1.00  0.00     0.175 C 
BRANCH  69  70
ATOM     70  C   UNL A   1      30.804  26.320  25.756  1.00  0.00     0.233 C 
ATOM     71  O   UNL A   1      30.281  25.760  26.729  1.00  0.00    -0.274 OA
ATOM     72  N   UNL A   1      31.326  27.590  25.896  1.00  0.00    -0.337 N 
ATOM     73  C   UNL A   1      31.593  28.572  24.845  1.00  0.00     0.148 C 
ATOM     74  C   UNL A   1      31.631  28.102  27.240  1.00  0.00     0.148 C 
ATOM     75  C   UNL A   1      33.021  29.108  24.952  1.00  0.00     0.181 C 
ATOM     76  C   UNL A   1      33.074  28.627  27.271  1.00  0.00     0.181 C 
ATOM     77  O   UNL A   1      33.279  29.633  26.263  1.00  0.00    -0.378 OA
ENDBRANCH  69  70
ENDBRANCH  68  69
ENDBRANCH  65  68
ENDBRANCH  59  62
ENDBRANCH  57  58
ENDBRANCH   1  57
TORSDOF 13
ENDMDL
