MODEL 1
REMARK VINA RESULT:     -11.0      0.000      0.000
REMARK SMILES COC(=O)CNC(=O)N1[C@@H](C(=O)NCCCNC(=O)c2ccc(-c3c4nc(c(-c5ccccc5)c5ccc([nH]5)c(-c5ccccc5)c5nc(c(-c6ccccc6)c6ccc3[nH]6)C=C5)C=C4)cc2)CC[C@@H]2CCCC[C@H]21
REMARK SMILES IDX 14 1 13 2 11 3 12 4 10 6 9 7 75 8 68 9 70 10 74 11 69 12
REMARK SMILES IDX 71 13 73 14 72 15 7 16 6 17 8 19 5 20 3 21 4 22 2 23 1 24
REMARK SMILES IDX 15 25 16 26 17 27 18 28 19 30 20 31 21 32 67 33 22 34 66 35
REMARK SMILES IDX 23 36 24 37 25 38 60 39 26 40 65 41 59 42 61 43 27 44 64 45
REMARK SMILES IDX 58 46 57 47 28 49 50 50 35 51 49 52 36 53 39 54 48 55 62 56
REMARK SMILES IDX 37 57 38 58 47 60 63 61 40 62 29 63 30 64 34 65 31 66 33 67
REMARK SMILES IDX 32 68 51 69 52 70 56 71 53 72 55 73 54 74 41 75 42 76 46 77
REMARK SMILES IDX 43 78 45 79 44 80
REMARK H PARENT 13 5 6 18 17 29 61 48 39 59
REMARK Flexibility Score: inf
ROOT
ATOM      1  C   UNL A   1      36.958  20.546  24.726  1.00  0.00     0.117 C 
ENDROOT
BRANCH   1   2
ATOM      2  N   UNL A   1      35.641  20.045  25.076  1.00  0.00    -0.354 N 
ATOM      3  C   UNL A   1      34.418  20.596  24.857  1.00  0.00     0.242 C 
ATOM      4  O   UNL A   1      33.450  20.076  25.424  1.00  0.00    -0.273 OA
ATOM      5  H   UNL A   1      35.632  19.178  25.542  1.00  0.00     0.163 HD
BRANCH   3   6
ATOM      6  C   UNL A   1      34.241  21.896  24.041  1.00  0.00     0.176 C 
ATOM      7  N   UNL A   1      34.208  23.168  24.810  1.00  0.00    -0.310 N 
ATOM      8  C   UNL A   1      33.701  24.360  24.066  1.00  0.00     0.091 C 
ATOM      9  C   UNL A   1      32.955  21.650  23.221  1.00  0.00     0.036 C 
ATOM     10  C   UNL A   1      32.350  24.068  23.373  1.00  0.00     0.012 C 
ATOM     11  C   UNL A   1      33.614  25.686  24.852  1.00  0.00     0.025 C 
ATOM     12  C   UNL A   1      32.487  22.862  22.444  1.00  0.00     0.008 C 
ATOM     13  C   UNL A   1      31.831  25.265  22.560  1.00  0.00     0.006 C 
ATOM     14  C   UNL A   1      33.133  26.849  23.993  1.00  0.00     0.002 C 
ATOM     15  C   UNL A   1      31.775  26.546  23.379  1.00  0.00     0.000 C 
BRANCH   7  16
ATOM     16  C   UNL A   1      34.808  23.345  26.033  1.00  0.00     0.318 C 
ATOM     17  N   UNL A   1      34.153  23.230  27.197  1.00  0.00    -0.327 N 
ATOM     18  H   UNL A   1      34.616  23.691  27.934  1.00  0.00     0.166 HD
ATOM     19  O   UNL A   1      35.984  23.701  26.144  1.00  0.00    -0.249 OA
BRANCH  17  20
ATOM     20  C   UNL A   1      32.919  22.587  27.633  1.00  0.00     0.240 C 
BRANCH  20  21
ATOM     21  C   UNL A   1      31.682  23.009  26.855  1.00  0.00     0.325 C 
ATOM     22  O   UNL A   1      31.061  22.253  26.116  1.00  0.00    -0.250 OA
BRANCH  21  23
ATOM     23  O   UNL A   1      31.267  24.256  27.213  1.00  0.00    -0.468 OA
ATOM     24  C   UNL A   1      30.292  24.817  26.334  1.00  0.00     0.282 C 
ENDBRANCH  21  23
ENDBRANCH  20  21
ENDBRANCH  17  20
ENDBRANCH   7  16
ENDBRANCH   3   6
ENDBRANCH   1   2
BRANCH   1  25
ATOM     25  C   UNL A   1      38.024  19.506  25.023  1.00  0.00     0.042 C 
BRANCH  25  26
ATOM     26  C   UNL A   1      39.162  20.047  25.870  1.00  0.00     0.118 C 
BRANCH  26  27
ATOM     27  N   UNL A   1      40.346  19.200  25.818  1.00  0.00    -0.352 N 
ATOM     28  C   UNL A   1      41.657  19.543  26.018  1.00  0.00     0.251 C 
ATOM     29  H   UNL A   1      40.181  18.253  25.611  1.00  0.00     0.163 HD
ATOM     30  O   UNL A   1      42.556  18.749  25.752  1.00  0.00    -0.269 OA
BRANCH  28  31
ATOM     31  C   UNL A   1      41.984  20.884  26.538  1.00  0.00     0.039 A 
ATOM     32  C   UNL A   1      42.328  21.896  25.641  1.00  0.00     0.014 A 
ATOM     33  C   UNL A   1      41.938  21.142  27.912  1.00  0.00     0.014 A 
ATOM     34  C   UNL A   1      42.584  23.180  26.119  1.00  0.00     0.010 A 
ATOM     35  C   UNL A   1      42.092  22.441  28.374  1.00  0.00     0.010 A 
ATOM     36  C   UNL A   1      42.443  23.468  27.486  1.00  0.00    -0.014 A 
BRANCH  36  37
ATOM     37  C   UNL A   1      42.716  24.823  28.023  1.00  0.00     0.031 A 
ATOM     38  C   UNL A   1      44.118  25.193  28.426  1.00  0.00     0.074 A 
ATOM     39  C   UNL A   1      41.706  25.697  28.191  1.00  0.00     0.049 A 
ATOM     40  N   UNL A   1      44.556  26.299  28.972  1.00  0.00    -0.248 NA
ATOM     41  C   UNL A   1      45.163  24.177  28.211  1.00  0.00     0.031 C 
ATOM     42  C   UNL A   1      40.299  25.447  27.868  1.00  0.00     0.029 A 
ATOM     43  N   UNL A   1      41.710  26.979  28.679  1.00  0.00    -0.354 N 
ATOM     44  C   UNL A   1      45.916  26.101  29.180  1.00  0.00     0.074 A 
ATOM     45  C   UNL A   1      46.220  24.752  28.763  1.00  0.00     0.031 C 
ATOM     46  C   UNL A   1      39.583  26.553  28.133  1.00  0.00     0.029 A 
ATOM     47  C   UNL A   1      40.471  27.572  28.685  1.00  0.00     0.049 A 
ATOM     48  H   UNL A   1      42.525  27.432  28.995  1.00  0.00     0.167 HD
ATOM     49  C   UNL A   1      46.838  26.974  29.647  1.00  0.00     0.031 A 
ATOM     50  C   UNL A   1      40.095  28.799  29.091  1.00  0.00     0.031 A 
ATOM     51  C   UNL A   1      46.540  28.322  30.047  1.00  0.00     0.049 A 
ATOM     52  C   UNL A   1      41.137  29.740  29.630  1.00  0.00     0.074 A 
ATOM     53  C   UNL A   1      47.408  29.299  30.501  1.00  0.00     0.029 A 
ATOM     54  N   UNL A   1      45.272  28.883  30.033  1.00  0.00    -0.354 N 
ATOM     55  N   UNL A   1      42.427  29.556  29.771  1.00  0.00    -0.248 NA
ATOM     56  C   UNL A   1      40.668  31.068  30.051  1.00  0.00     0.031 C 
ATOM     57  C   UNL A   1      46.658  30.439  30.807  1.00  0.00     0.029 A 
ATOM     58  C   UNL A   1      45.333  30.191  30.482  1.00  0.00     0.049 A 
ATOM     59  H   UNL A   1      44.452  28.421  29.745  1.00  0.00     0.167 HD
ATOM     60  C   UNL A   1      42.930  30.757  30.257  1.00  0.00     0.074 A 
ATOM     61  C   UNL A   1      41.808  31.665  30.372  1.00  0.00     0.031 C 
ATOM     62  C   UNL A   1      44.206  31.082  30.576  1.00  0.00     0.031 A 
BRANCH  49  63
ATOM     63  C   UNL A   1      48.260  26.493  29.746  1.00  0.00    -0.014 A 
ATOM     64  C   UNL A   1      49.170  26.695  28.695  1.00  0.00     0.009 A 
ATOM     65  C   UNL A   1      48.706  25.859  30.916  1.00  0.00     0.009 A 
ATOM     66  C   UNL A   1      50.485  26.239  28.800  1.00  0.00     0.001 A 
ATOM     67  C   UNL A   1      50.031  25.433  31.030  1.00  0.00     0.001 A 
ATOM     68  C   UNL A   1      50.916  25.615  29.969  1.00  0.00     0.000 A 
ENDBRANCH  49  63
BRANCH  50  69
ATOM     69  C   UNL A   1      38.673  29.223  28.991  1.00  0.00    -0.014 A 
ATOM     70  C   UNL A   1      37.814  29.095  30.094  1.00  0.00     0.009 A 
ATOM     71  C   UNL A   1      38.156  29.723  27.787  1.00  0.00     0.009 A 
ATOM     72  C   UNL A   1      36.459  29.418  29.980  1.00  0.00     0.001 A 
ATOM     73  C   UNL A   1      36.809  30.078  27.686  1.00  0.00     0.001 A 
ATOM     74  C   UNL A   1      35.959  29.912  28.778  1.00  0.00     0.000 A 
ENDBRANCH  50  69
BRANCH  62  75
ATOM     75  C   UNL A   1      44.466  32.495  31.019  1.00  0.00    -0.014 A 
ATOM     76  C   UNL A   1      44.431  32.860  32.374  1.00  0.00     0.009 A 
ATOM     77  C   UNL A   1      44.784  33.470  30.060  1.00  0.00     0.009 A 
ATOM     78  C   UNL A   1      44.668  34.182  32.753  1.00  0.00     0.001 A 
ATOM     79  C   UNL A   1      45.055  34.782  30.446  1.00  0.00     0.001 A 
ATOM     80  C   UNL A   1      44.984  35.140  31.791  1.00  0.00     0.000 A 
ENDBRANCH  62  75
ENDBRANCH  36  37
ENDBRANCH  28  31
ENDBRANCH  26  27
ENDBRANCH  25  26
ENDBRANCH   1  25
TORSDOF 14
ENDMDL
MODEL 2
REMARK VINA RESULT:     -11.0      1.300      2.358
REMARK SMILES COC(=O)CNC(=O)N1[C@@H](C(=O)NCCCNC(=O)c2ccc(-c3c4nc(c(-c5ccccc5)c5ccc([nH]5)c(-c5ccccc5)c5nc(c(-c6ccccc6)c6ccc3[nH]6)C=C5)C=C4)cc2)CC[C@@H]2CCCC[C@H]21
REMARK SMILES IDX 14 1 13 2 11 3 12 4 10 6 9 7 75 8 68 9 70 10 74 11 69 12
REMARK SMILES IDX 71 13 73 14 72 15 7 16 6 17 8 19 5 20 3 21 4 22 2 23 1 24
REMARK SMILES IDX 15 25 16 26 17 27 18 28 19 30 20 31 21 32 67 33 22 34 66 35
REMARK SMILES IDX 23 36 24 37 25 38 60 39 26 40 65 41 59 42 61 43 27 44 64 45
REMARK SMILES IDX 58 46 57 47 28 49 50 50 35 51 49 52 36 53 39 54 48 55 62 56
REMARK SMILES IDX 37 57 38 58 47 60 63 61 40 62 29 63 30 64 34 65 31 66 33 67
REMARK SMILES IDX 32 68 51 69 52 70 56 71 53 72 55 73 54 74 41 75 42 76 46 77
REMARK SMILES IDX 43 78 45 79 44 80
REMARK H PARENT 13 5 6 18 17 29 61 48 39 59
REMARK Flexibility Score: inf
ROOT
ATOM      1  C   UNL A   1      36.539  20.496  24.983  1.00  0.00     0.117 C 
ENDROOT
BRANCH   1   2
ATOM      2  N   UNL A   1      36.659  21.519  23.959  1.00  0.00    -0.354 N 
ATOM      3  C   UNL A   1      35.961  22.674  23.803  1.00  0.00     0.242 C 
ATOM      4  O   UNL A   1      36.109  23.288  22.740  1.00  0.00    -0.273 OA
ATOM      5  H   UNL A   1      37.347  21.349  23.277  1.00  0.00     0.163 HD
BRANCH   3   6
ATOM      6  C   UNL A   1      34.924  23.151  24.844  1.00  0.00     0.176 C 
ATOM      7  N   UNL A   1      33.491  22.972  24.489  1.00  0.00    -0.310 N 
ATOM      8  C   UNL A   1      32.518  23.733  25.329  1.00  0.00     0.091 C 
ATOM      9  C   UNL A   1      35.304  24.626  25.102  1.00  0.00     0.036 C 
ATOM     10  C   UNL A   1      32.904  25.226  25.439  1.00  0.00     0.012 C 
ATOM     11  C   UNL A   1      31.025  23.601  24.955  1.00  0.00     0.025 C 
ATOM     12  C   UNL A   1      34.323  25.361  25.990  1.00  0.00     0.008 C 
ATOM     13  C   UNL A   1      31.943  26.021  26.338  1.00  0.00     0.006 C 
ATOM     14  C   UNL A   1      30.112  24.374  25.900  1.00  0.00     0.002 C 
ATOM     15  C   UNL A   1      30.487  25.847  25.933  1.00  0.00     0.000 C 
BRANCH   7  16
ATOM     16  C   UNL A   1      33.025  22.011  23.625  1.00  0.00     0.318 C 
ATOM     17  N   UNL A   1      32.891  20.721  23.963  1.00  0.00    -0.327 N 
ATOM     18  H   UNL A   1      32.865  20.128  23.177  1.00  0.00     0.166 HD
ATOM     19  O   UNL A   1      32.769  22.257  22.443  1.00  0.00    -0.249 OA
BRANCH  17  20
ATOM     20  C   UNL A   1      32.774  19.984  25.217  1.00  0.00     0.240 C 
BRANCH  20  21
ATOM     21  C   UNL A   1      32.932  18.478  25.076  1.00  0.00     0.325 C 
ATOM     22  O   UNL A   1      32.118  17.673  25.513  1.00  0.00    -0.250 OA
BRANCH  21  23
ATOM     23  O   UNL A   1      33.981  18.158  24.268  1.00  0.00    -0.468 OA
ATOM     24  C   UNL A   1      33.697  17.115  23.335  1.00  0.00     0.282 C 
ENDBRANCH  21  23
ENDBRANCH  20  21
ENDBRANCH  17  20
ENDBRANCH   7  16
ENDBRANCH   3   6
ENDBRANCH   1   2
BRANCH   1  25
ATOM     25  C   UNL A   1      37.757  19.591  24.984  1.00  0.00     0.042 C 
BRANCH  25  26
ATOM     26  C   UNL A   1      38.939  20.185  25.731  1.00  0.00     0.118 C 
BRANCH  26  27
ATOM     27  N   UNL A   1      40.080  19.281  25.777  1.00  0.00    -0.352 N 
ATOM     28  C   UNL A   1      41.388  19.564  26.066  1.00  0.00     0.251 C 
ATOM     29  H   UNL A   1      39.883  18.339  25.573  1.00  0.00     0.163 HD
ATOM     30  O   UNL A   1      42.263  18.722  25.877  1.00  0.00    -0.269 OA
BRANCH  28  31
ATOM     31  C   UNL A   1      41.743  20.897  26.589  1.00  0.00     0.039 A 
ATOM     32  C   UNL A   1      42.171  21.884  25.699  1.00  0.00     0.014 A 
ATOM     33  C   UNL A   1      41.641  21.172  27.956  1.00  0.00     0.014 A 
ATOM     34  C   UNL A   1      42.454  23.163  26.178  1.00  0.00     0.010 A 
ATOM     35  C   UNL A   1      41.825  22.469  28.413  1.00  0.00     0.010 A 
ATOM     36  C   UNL A   1      42.259  23.471  27.534  1.00  0.00    -0.014 A 
BRANCH  36  37
ATOM     37  C   UNL A   1      42.560  24.820  28.071  1.00  0.00     0.031 A 
ATOM     38  C   UNL A   1      43.972  25.168  28.457  1.00  0.00     0.074 A 
ATOM     39  C   UNL A   1      41.565  25.709  28.253  1.00  0.00     0.049 A 
ATOM     40  N   UNL A   1      44.435  26.265  29.001  1.00  0.00    -0.248 NA
ATOM     41  C   UNL A   1      44.999  24.135  28.227  1.00  0.00     0.031 C 
ATOM     42  C   UNL A   1      40.151  25.483  27.946  1.00  0.00     0.029 A 
ATOM     43  N   UNL A   1      41.596  26.990  28.744  1.00  0.00    -0.354 N 
ATOM     44  C   UNL A   1      45.793  26.045  29.192  1.00  0.00     0.074 A 
ATOM     45  C   UNL A   1      46.071  24.692  28.768  1.00  0.00     0.031 C 
ATOM     46  C   UNL A   1      39.456  26.599  28.223  1.00  0.00     0.029 A 
ATOM     47  C   UNL A   1      40.366  27.602  28.766  1.00  0.00     0.049 A 
ATOM     48  H   UNL A   1      42.422  27.430  29.051  1.00  0.00     0.167 HD
ATOM     49  C   UNL A   1      46.735  26.903  29.650  1.00  0.00     0.031 A 
ATOM     50  C   UNL A   1      40.014  28.834  29.180  1.00  0.00     0.031 A 
ATOM     51  C   UNL A   1      46.463  28.254  30.056  1.00  0.00     0.049 A 
ATOM     52  C   UNL A   1      41.077  29.758  29.708  1.00  0.00     0.074 A 
ATOM     53  C   UNL A   1      47.351  29.216  30.502  1.00  0.00     0.029 A 
ATOM     54  N   UNL A   1      45.204  28.834  30.058  1.00  0.00    -0.354 N 
ATOM     55  N   UNL A   1      42.367  29.553  29.833  1.00  0.00    -0.248 NA
ATOM     56  C   UNL A   1      40.635  31.092  30.138  1.00  0.00     0.031 C 
ATOM     57  C   UNL A   1      46.623  30.366  30.819  1.00  0.00     0.029 A 
ATOM     58  C   UNL A   1      45.290  30.140  30.510  1.00  0.00     0.049 A 
ATOM     59  H   UNL A   1      44.373  28.386  29.779  1.00  0.00     0.167 HD
ATOM     60  C   UNL A   1      42.894  30.744  30.315  1.00  0.00     0.074 A 
ATOM     61  C   UNL A   1      41.788  31.669  30.447  1.00  0.00     0.031 C 
ATOM     62  C   UNL A   1      44.179  31.049  30.620  1.00  0.00     0.031 A 
BRANCH  49  63
ATOM     63  C   UNL A   1      48.150  26.398  29.730  1.00  0.00    -0.014 A 
ATOM     64  C   UNL A   1      49.036  26.545  28.650  1.00  0.00     0.009 A 
ATOM     65  C   UNL A   1      48.615  25.799  30.910  1.00  0.00     0.009 A 
ATOM     66  C   UNL A   1      50.345  26.069  28.737  1.00  0.00     0.001 A 
ATOM     67  C   UNL A   1      49.935  25.353  31.007  1.00  0.00     0.001 A 
ATOM     68  C   UNL A   1      50.794  25.480  29.918  1.00  0.00     0.000 A 
ENDBRANCH  49  63
BRANCH  50  69
ATOM     69  C   UNL A   1      38.598  29.281  29.098  1.00  0.00    -0.014 A 
ATOM     70  C   UNL A   1      38.109  29.882  27.928  1.00  0.00     0.009 A 
ATOM     71  C   UNL A   1      37.738  29.143  30.198  1.00  0.00     0.009 A 
ATOM     72  C   UNL A   1      36.802  30.373  27.876  1.00  0.00     0.001 A 
ATOM     73  C   UNL A   1      36.422  29.605  30.131  1.00  0.00     0.001 A 
ATOM     74  C   UNL A   1      35.959  30.233  28.976  1.00  0.00     0.000 A 
ENDBRANCH  50  69
BRANCH  62  75
ATOM     75  C   UNL A   1      44.466  32.456  31.063  1.00  0.00    -0.014 A 
ATOM     76  C   UNL A   1      44.505  32.806  32.422  1.00  0.00     0.009 A 
ATOM     77  C   UNL A   1      44.735  33.440  30.098  1.00  0.00     0.009 A 
ATOM     78  C   UNL A   1      44.766  34.124  32.801  1.00  0.00     0.001 A 
ATOM     79  C   UNL A   1      45.030  34.748  30.483  1.00  0.00     0.001 A 
ATOM     80  C   UNL A   1      45.033  35.092  31.833  1.00  0.00     0.000 A 
ENDBRANCH  62  75
ENDBRANCH  36  37
ENDBRANCH  28  31
ENDBRANCH  26  27
ENDBRANCH  25  26
ENDBRANCH   1  25
TORSDOF 14
ENDMDL
MODEL 3
REMARK VINA RESULT:     -11.0      1.795      6.458
REMARK SMILES COC(=O)CNC(=O)N1[C@@H](C(=O)NCCCNC(=O)c2ccc(-c3c4nc(c(-c5ccccc5)c5ccc([nH]5)c(-c5ccccc5)c5nc(c(-c6ccccc6)c6ccc3[nH]6)C=C5)C=C4)cc2)CC[C@@H]2CCCC[C@H]21
REMARK SMILES IDX 14 1 13 2 11 3 12 4 10 6 9 7 75 8 68 9 70 10 74 11 69 12
REMARK SMILES IDX 71 13 73 14 72 15 7 16 6 17 8 19 5 20 3 21 4 22 2 23 1 24
REMARK SMILES IDX 15 25 16 26 17 27 18 28 19 30 20 31 21 32 67 33 22 34 66 35
REMARK SMILES IDX 23 36 24 37 25 38 60 39 26 40 65 41 59 42 61 43 27 44 64 45
REMARK SMILES IDX 58 46 57 47 28 49 50 50 35 51 49 52 36 53 39 54 48 55 62 56
REMARK SMILES IDX 37 57 38 58 47 60 63 61 40 62 29 63 30 64 34 65 31 66 33 67
REMARK SMILES IDX 32 68 51 69 52 70 56 71 53 72 55 73 54 74 41 75 42 76 46 77
REMARK SMILES IDX 43 78 45 79 44 80
REMARK H PARENT 13 5 6 18 17 29 61 48 39 59
REMARK Flexibility Score: inf
ROOT
ATOM      1  C   UNL A   1      36.605  20.600  25.068  1.00  0.00     0.117 C 
ENDROOT
BRANCH   1   2
ATOM      2  N   UNL A   1      36.701  21.598  24.018  1.00  0.00    -0.354 N 
ATOM      3  C   UNL A   1      35.974  22.731  23.830  1.00  0.00     0.242 C 
ATOM      4  O   UNL A   1      36.109  23.321  22.752  1.00  0.00    -0.273 OA
ATOM      5  H   UNL A   1      37.395  21.429  23.340  1.00  0.00     0.163 HD
BRANCH   3   6
ATOM      6  C   UNL A   1      34.923  23.208  24.857  1.00  0.00     0.176 C 
ATOM      7  N   UNL A   1      33.495  23.021  24.486  1.00  0.00    -0.310 N 
ATOM      8  C   UNL A   1      32.509  23.782  25.311  1.00  0.00     0.091 C 
ATOM      9  C   UNL A   1      35.294  24.686  25.113  1.00  0.00     0.036 C 
ATOM     10  C   UNL A   1      32.887  25.277  25.419  1.00  0.00     0.012 C 
ATOM     11  C   UNL A   1      31.021  23.641  24.921  1.00  0.00     0.025 C 
ATOM     12  C   UNL A   1      34.299  25.421  25.986  1.00  0.00     0.008 C 
ATOM     13  C   UNL A   1      31.913  26.072  26.303  1.00  0.00     0.006 C 
ATOM     14  C   UNL A   1      30.094  24.415  25.851  1.00  0.00     0.002 C 
ATOM     15  C   UNL A   1      30.462  25.890  25.883  1.00  0.00     0.000 C 
BRANCH   7  16
ATOM     16  C   UNL A   1      33.044  22.055  23.622  1.00  0.00     0.318 C 
ATOM     17  N   UNL A   1      32.963  20.756  23.946  1.00  0.00    -0.327 N 
ATOM     18  H   UNL A   1      32.940  20.173  23.153  1.00  0.00     0.166 HD
ATOM     19  O   UNL A   1      32.751  22.305  22.449  1.00  0.00    -0.249 OA
BRANCH  17  20
ATOM     20  C   UNL A   1      32.903  20.001  25.193  1.00  0.00     0.240 C 
BRANCH  20  21
ATOM     21  C   UNL A   1      33.019  18.494  25.019  1.00  0.00     0.325 C 
ATOM     22  O   UNL A   1      32.153  17.707  25.383  1.00  0.00    -0.250 OA
BRANCH  21  23
ATOM     23  O   UNL A   1      34.105  18.160  24.268  1.00  0.00    -0.468 OA
ATOM     24  C   UNL A   1      33.926  16.979  23.485  1.00  0.00     0.282 C 
ENDBRANCH  21  23
ENDBRANCH  20  21
ENDBRANCH  17  20
ENDBRANCH   7  16
ENDBRANCH   3   6
ENDBRANCH   1   2
BRANCH   1  25
ATOM     25  C   UNL A   1      37.770  19.630  24.994  1.00  0.00     0.042 C 
BRANCH  25  26
ATOM     26  C   UNL A   1      38.995  20.115  25.749  1.00  0.00     0.118 C 
BRANCH  26  27
ATOM     27  N   UNL A   1      40.015  19.082  25.878  1.00  0.00    -0.352 N 
ATOM     28  C   UNL A   1      41.361  19.226  26.083  1.00  0.00     0.251 C 
ATOM     29  H   UNL A   1      39.691  18.156  25.809  1.00  0.00     0.163 HD
ATOM     30  O   UNL A   1      42.113  18.259  25.980  1.00  0.00    -0.269 OA
BRANCH  28  31
ATOM     31  C   UNL A   1      41.907  20.556  26.411  1.00  0.00     0.039 A 
ATOM     32  C   UNL A   1      42.213  21.439  25.374  1.00  0.00     0.014 A 
ATOM     33  C   UNL A   1      42.103  20.933  27.743  1.00  0.00     0.014 A 
ATOM     34  C   UNL A   1      42.677  22.719  25.677  1.00  0.00     0.010 A 
ATOM     35  C   UNL A   1      42.465  22.239  28.043  1.00  0.00     0.010 A 
ATOM     36  C   UNL A   1      42.782  23.137  27.013  1.00  0.00    -0.014 A 
BRANCH  36  37
ATOM     37  C   UNL A   1      43.278  24.489  27.364  1.00  0.00     0.031 A 
ATOM     38  C   UNL A   1      42.300  25.549  27.796  1.00  0.00     0.074 A 
ATOM     39  C   UNL A   1      44.588  24.776  27.251  1.00  0.00     0.049 A 
ATOM     40  N   UNL A   1      42.519  26.807  28.085  1.00  0.00    -0.248 NA
ATOM     41  C   UNL A   1      40.884  25.151  27.890  1.00  0.00     0.031 C 
ATOM     42  C   UNL A   1      45.631  23.845  26.815  1.00  0.00     0.029 A 
ATOM     43  N   UNL A   1      45.268  25.942  27.497  1.00  0.00    -0.354 N 
ATOM     44  C   UNL A   1      41.272  27.347  28.374  1.00  0.00     0.074 A 
ATOM     45  C   UNL A   1      40.295  26.304  28.165  1.00  0.00     0.031 C 
ATOM     46  C   UNL A   1      46.822  24.466  26.858  1.00  0.00     0.029 A 
ATOM     47  C   UNL A   1      46.622  25.848  27.281  1.00  0.00     0.049 A 
ATOM     48  H   UNL A   1      44.827  26.769  27.800  1.00  0.00     0.167 HD
ATOM     49  C   UNL A   1      40.968  28.593  28.807  1.00  0.00     0.031 A 
ATOM     50  C   UNL A   1      47.590  26.774  27.410  1.00  0.00     0.031 A 
ATOM     51  C   UNL A   1      41.940  29.627  29.032  1.00  0.00     0.049 A 
ATOM     52  C   UNL A   1      47.220  28.158  27.868  1.00  0.00     0.074 A 
ATOM     53  C   UNL A   1      41.740  30.912  29.502  1.00  0.00     0.029 A 
ATOM     54  N   UNL A   1      43.301  29.487  28.804  1.00  0.00    -0.354 N 
ATOM     55  N   UNL A   1      46.042  28.638  28.189  1.00  0.00    -0.248 NA
ATOM     56  C   UNL A   1      48.320  29.124  27.998  1.00  0.00     0.031 C 
ATOM     57  C   UNL A   1      42.975  31.567  29.516  1.00  0.00     0.029 A 
ATOM     58  C   UNL A   1      43.952  30.669  29.115  1.00  0.00     0.049 A 
ATOM     59  H   UNL A   1      43.739  28.670  28.474  1.00  0.00     0.167 HD
ATOM     60  C   UNL A   1      46.266  29.948  28.597  1.00  0.00     0.074 A 
ATOM     61  C   UNL A   1      47.692  30.180  28.497  1.00  0.00     0.031 C 
ATOM     62  C   UNL A   1      45.374  30.875  29.021  1.00  0.00     0.031 A 
BRANCH  49  63
ATOM     63  C   UNL A   1      39.518  28.900  29.069  1.00  0.00    -0.014 A 
ATOM     64  C   UNL A   1      38.945  28.678  30.332  1.00  0.00     0.009 A 
ATOM     65  C   UNL A   1      38.723  29.449  28.051  1.00  0.00     0.009 A 
ATOM     66  C   UNL A   1      37.598  28.964  30.559  1.00  0.00     0.001 A 
ATOM     67  C   UNL A   1      37.384  29.764  28.291  1.00  0.00     0.001 A 
ATOM     68  C   UNL A   1      36.821  29.513  29.541  1.00  0.00     0.000 A 
ENDBRANCH  49  63
BRANCH  50  69
ATOM     69  C   UNL A   1      49.007  26.428  27.121  1.00  0.00    -0.014 A 
ATOM     70  C   UNL A   1      49.514  26.538  25.817  1.00  0.00     0.009 A 
ATOM     71  C   UNL A   1      49.851  25.951  28.136  1.00  0.00     0.009 A 
ATOM     72  C   UNL A   1      50.822  26.140  25.528  1.00  0.00     0.001 A 
ATOM     73  C   UNL A   1      51.168  25.586  27.851  1.00  0.00     0.001 A 
ATOM     74  C   UNL A   1      51.647  25.666  26.544  1.00  0.00     0.000 A 
ENDBRANCH  50  69
BRANCH  62  75
ATOM     75  C   UNL A   1      45.920  32.203  29.468  1.00  0.00    -0.014 A 
ATOM     76  C   UNL A   1      46.056  33.279  28.577  1.00  0.00     0.009 A 
ATOM     77  C   UNL A   1      46.272  32.383  30.815  1.00  0.00     0.009 A 
ATOM     78  C   UNL A   1      46.575  34.497  29.021  1.00  0.00     0.001 A 
ATOM     79  C   UNL A   1      46.757  33.612  31.261  1.00  0.00     0.001 A 
ATOM     80  C   UNL A   1      46.920  34.664  30.361  1.00  0.00     0.000 A 
ENDBRANCH  62  75
ENDBRANCH  36  37
ENDBRANCH  28  31
ENDBRANCH  26  27
ENDBRANCH  25  26
ENDBRANCH   1  25
TORSDOF 14
ENDMDL
