MODEL 1
REMARK VINA RESULT:     -13.3      0.000      0.000
REMARK SMILES O=C1C[C@@H](c2cccc(O)c2)c2c(c(C(=O)NCCCNC(=O)c3ccc(-c4c5nc(c(-c6ccccc6)c6ccc([nH]6)c(-c6ccccc6)c6nc(c(-c7ccccc7)c7ccc4[nH]7)C=C6)C=C5)cc3)cn2-c2cccc(C(F)(F)F)c2)N1
REMARK SMILES IDX 19 1 18 2 17 3 15 4 16 5 14 7 1 8 2 9 3 10 84 11 4 12 13 13
REMARK SMILES IDX 12 15 73 16 72 17 5 18 6 19 11 20 7 21 9 22 8 23 10 24 74 26
REMARK SMILES IDX 75 27 83 28 76 29 78 30 77 31 79 32 80 33 81 34 82 35 20 36
REMARK SMILES IDX 21 37 22 38 23 40 24 41 25 42 71 43 26 44 70 45 27 46 28 47
REMARK SMILES IDX 29 48 64 49 30 50 69 51 63 52 65 53 31 54 68 55 62 56 61 57
REMARK SMILES IDX 32 59 54 60 39 61 53 62 40 63 43 64 52 65 66 66 41 67 42 68
REMARK SMILES IDX 51 70 67 71 44 72 33 73 34 74 38 75 35 76 37 77 36 78 55 79
REMARK SMILES IDX 56 80 60 81 57 82 59 83 58 84 45 85 46 86 50 87 47 88 49 89
REMARK SMILES IDX 48 90
REMARK H PARENT 17 6 84 14 10 25 21 39 65 58 43 69
REMARK Flexibility Score: inf
ROOT
ATOM      1  C   UNL A   1      36.965  21.423  25.417  1.00  0.00     0.042 C 
ENDROOT
BRANCH   1   2
ATOM      2  C   UNL A   1      35.803  22.345  25.819  1.00  0.00     0.118 C 
BRANCH   2   3
ATOM      3  N   UNL A   1      34.506  21.816  25.428  1.00  0.00    -0.352 N 
ATOM      4  C   UNL A   1      33.373  22.442  24.968  1.00  0.00     0.254 C 
ATOM      5  O   UNL A   1      32.431  21.726  24.617  1.00  0.00    -0.269 OA
ATOM      6  H   UNL A   1      34.427  20.838  25.505  1.00  0.00     0.163 HD
BRANCH   4   7
ATOM      7  C   UNL A   1      33.277  23.895  24.882  1.00  0.00     0.081 A 
ATOM      8  O   UNL A   1      32.847  24.721  20.182  1.00  0.00    -0.275 OA
ATOM      9  C   UNL A   1      33.052  25.116  21.330  1.00  0.00     0.225 C 
ATOM     10  C   UNL A   1      33.432  26.563  21.625  1.00  0.00     0.115 C 
ATOM     11  N   UNL A   1      33.071  24.239  22.387  1.00  0.00    -0.324 N 
ATOM     12  C   UNL A   1      32.937  27.090  22.987  1.00  0.00     0.078 C 
ATOM     13  C   UNL A   1      33.145  24.662  23.693  1.00  0.00     0.076 A 
ATOM     14  H   UNL A   1      33.029  23.273  22.203  1.00  0.00     0.170 HD
ATOM     15  C   UNL A   1      33.051  25.999  24.008  1.00  0.00     0.055 A 
ATOM     16  N   UNL A   1      33.135  26.112  25.376  1.00  0.00    -0.317 N 
ATOM     17  C   UNL A   1      33.256  24.837  25.893  1.00  0.00     0.107 A 
BRANCH  12  18
ATOM     18  C   UNL A   1      31.532  27.657  22.886  1.00  0.00    -0.035 A 
ATOM     19  C   UNL A   1      30.406  26.945  23.332  1.00  0.00     0.005 A 
ATOM     20  C   UNL A   1      31.353  28.963  22.402  1.00  0.00     0.050 A 
ATOM     21  C   UNL A   1      29.144  27.544  23.342  1.00  0.00     0.004 A 
ATOM     22  C   UNL A   1      30.099  29.559  22.448  1.00  0.00     0.115 A 
ATOM     23  C   UNL A   1      28.991  28.861  22.913  1.00  0.00     0.046 A 
BRANCH  22  24
ATOM     24  O   UNL A   1      30.010  30.866  22.071  1.00  0.00    -0.508 OA
ATOM     25  H   UNL A   1      30.672  31.242  21.525  1.00  0.00     0.293 HD
ENDBRANCH  22  24
ENDBRANCH  12  18
BRANCH  16  26
ATOM     26  C   UNL A   1      33.014  27.234  26.224  1.00  0.00     0.046 A 
ATOM     27  C   UNL A   1      31.736  27.716  26.533  1.00  0.00     0.026 A 
ATOM     28  C   UNL A   1      34.147  27.975  26.563  1.00  0.00     0.039 A 
ATOM     29  C   UNL A   1      31.599  28.911  27.237  1.00  0.00     0.003 A 
ATOM     30  C   UNL A   1      34.017  29.185  27.259  1.00  0.00     0.058 A 
ATOM     31  C   UNL A   1      32.733  29.637  27.604  1.00  0.00     0.013 A 
BRANCH  30  32
ATOM     32  C   UNL A   1      35.229  30.017  27.606  1.00  0.00     0.416 C 
ATOM     33  F   UNL A   1      35.047  31.336  27.313  1.00  0.00    -0.166 F 
ATOM     34  F   UNL A   1      35.534  29.970  28.931  1.00  0.00    -0.166 F 
ATOM     35  F   UNL A   1      36.361  29.652  26.943  1.00  0.00    -0.166 F 
ENDBRANCH  30  32
ENDBRANCH  16  26
ENDBRANCH   4   7
ENDBRANCH   2   3
ENDBRANCH   1   2
BRANCH   1  36
ATOM     36  C   UNL A   1      38.281  22.175  25.371  1.00  0.00     0.118 C 
BRANCH  36  37
ATOM     37  N   UNL A   1      39.344  21.519  26.163  1.00  0.00    -0.352 N 
ATOM     38  C   UNL A   1      40.399  22.077  26.869  1.00  0.00     0.251 C 
ATOM     39  H   UNL A   1      39.295  20.536  26.194  1.00  0.00     0.163 HD
ATOM     40  O   UNL A   1      41.367  21.392  27.212  1.00  0.00    -0.269 OA
BRANCH  38  41
ATOM     41  C   UNL A   1      40.341  23.500  27.222  1.00  0.00     0.039 A 
ATOM     42  C   UNL A   1      39.193  24.298  27.197  1.00  0.00     0.014 A 
ATOM     43  C   UNL A   1      41.519  24.013  27.713  1.00  0.00     0.014 A 
ATOM     44  C   UNL A   1      39.298  25.601  27.688  1.00  0.00     0.010 A 
ATOM     45  C   UNL A   1      41.397  24.969  28.656  1.00  0.00     0.010 A 
ATOM     46  C   UNL A   1      40.455  25.932  28.396  1.00  0.00    -0.014 A 
BRANCH  46  47
ATOM     47  C   UNL A   1      40.782  27.231  28.946  1.00  0.00     0.031 A 
ATOM     48  C   UNL A   1      41.884  27.921  28.255  1.00  0.00     0.074 A 
ATOM     49  C   UNL A   1      39.940  27.886  29.783  1.00  0.00     0.049 A 
ATOM     50  N   UNL A   1      43.078  28.114  28.695  1.00  0.00    -0.248 NA
ATOM     51  C   UNL A   1      41.685  28.305  26.849  1.00  0.00     0.031 C 
ATOM     52  C   UNL A   1      38.598  27.504  30.262  1.00  0.00     0.029 A 
ATOM     53  N   UNL A   1      40.074  29.135  30.290  1.00  0.00    -0.354 N 
ATOM     54  C   UNL A   1      43.730  28.830  27.701  1.00  0.00     0.074 A 
ATOM     55  C   UNL A   1      42.908  28.727  26.523  1.00  0.00     0.031 C 
ATOM     56  C   UNL A   1      37.970  28.588  30.774  1.00  0.00     0.029 A 
ATOM     57  C   UNL A   1      38.915  29.687  30.820  1.00  0.00     0.049 A 
ATOM     58  H   UNL A   1      40.932  29.617  30.285  1.00  0.00     0.167 HD
ATOM     59  C   UNL A   1      44.757  29.673  27.998  1.00  0.00     0.031 A 
ATOM     60  C   UNL A   1      38.753  30.973  31.220  1.00  0.00     0.031 A 
ATOM     61  C   UNL A   1      45.202  29.513  29.360  1.00  0.00     0.049 A 
ATOM     62  C   UNL A   1      40.114  31.529  31.443  1.00  0.00     0.074 A 
ATOM     63  C   UNL A   1      45.701  28.455  30.097  1.00  0.00     0.029 A 
ATOM     64  N   UNL A   1      44.728  30.419  30.284  1.00  0.00    -0.354 N 
ATOM     65  N   UNL A   1      40.918  31.086  32.370  1.00  0.00    -0.248 NA
ATOM     66  C   UNL A   1      40.765  32.193  30.322  1.00  0.00     0.031 C 
ATOM     67  C   UNL A   1      45.035  28.546  31.357  1.00  0.00     0.029 A 
ATOM     68  C   UNL A   1      44.242  29.697  31.347  1.00  0.00     0.049 A 
ATOM     69  H   UNL A   1      44.736  31.400  30.199  1.00  0.00     0.167 HD
ATOM     70  C   UNL A   1      42.165  31.015  31.761  1.00  0.00     0.074 A 
ATOM     71  C   UNL A   1      42.025  31.792  30.527  1.00  0.00     0.031 C 
ATOM     72  C   UNL A   1      43.099  30.092  32.145  1.00  0.00     0.031 A 
BRANCH  59  73
ATOM     73  C   UNL A   1      45.074  30.909  27.202  1.00  0.00    -0.014 A 
ATOM     74  C   UNL A   1      46.419  31.283  27.050  1.00  0.00     0.009 A 
ATOM     75  C   UNL A   1      44.103  31.858  26.828  1.00  0.00     0.009 A 
ATOM     76  C   UNL A   1      46.770  32.562  26.606  1.00  0.00     0.001 A 
ATOM     77  C   UNL A   1      44.449  33.120  26.345  1.00  0.00     0.001 A 
ATOM     78  C   UNL A   1      45.785  33.483  26.261  1.00  0.00     0.000 A 
ENDBRANCH  59  73
BRANCH  60  79
ATOM     79  C   UNL A   1      37.544  31.817  31.069  1.00  0.00    -0.014 A 
ATOM     80  C   UNL A   1      37.337  32.608  29.928  1.00  0.00     0.009 A 
ATOM     81  C   UNL A   1      36.453  31.644  31.944  1.00  0.00     0.009 A 
ATOM     82  C   UNL A   1      36.081  33.178  29.662  1.00  0.00     0.001 A 
ATOM     83  C   UNL A   1      35.201  32.209  31.679  1.00  0.00     0.001 A 
ATOM     84  C   UNL A   1      35.011  32.967  30.530  1.00  0.00     0.000 A 
ENDBRANCH  60  79
BRANCH  72  85
ATOM     85  C   UNL A   1      42.797  29.232  33.354  1.00  0.00    -0.014 A 
ATOM     86  C   UNL A   1      43.161  29.594  34.664  1.00  0.00     0.009 A 
ATOM     87  C   UNL A   1      41.968  28.114  33.189  1.00  0.00     0.009 A 
ATOM     88  C   UNL A   1      42.731  28.848  35.769  1.00  0.00     0.001 A 
ATOM     89  C   UNL A   1      41.524  27.378  34.292  1.00  0.00     0.001 A 
ATOM     90  C   UNL A   1      41.908  27.741  35.581  1.00  0.00     0.000 A 
ENDBRANCH  72  85
ENDBRANCH  46  47
ENDBRANCH  38  41
ENDBRANCH  36  37
ENDBRANCH   1  36
TORSDOF 14
ENDMDL
MODEL 2
REMARK VINA RESULT:     -13.2      2.582      7.776
REMARK SMILES O=C1C[C@@H](c2cccc(O)c2)c2c(c(C(=O)NCCCNC(=O)c3ccc(-c4c5nc(c(-c6ccccc6)c6ccc([nH]6)c(-c6ccccc6)c6nc(c(-c7ccccc7)c7ccc4[nH]7)C=C6)C=C5)cc3)cn2-c2cccc(C(F)(F)F)c2)N1
REMARK SMILES IDX 19 1 18 2 17 3 15 4 16 5 14 7 1 8 2 9 3 10 84 11 4 12 13 13
REMARK SMILES IDX 12 15 73 16 72 17 5 18 6 19 11 20 7 21 9 22 8 23 10 24 74 26
REMARK SMILES IDX 75 27 83 28 76 29 78 30 77 31 79 32 80 33 81 34 82 35 20 36
REMARK SMILES IDX 21 37 22 38 23 40 24 41 25 42 71 43 26 44 70 45 27 46 28 47
REMARK SMILES IDX 29 48 64 49 30 50 69 51 63 52 65 53 31 54 68 55 62 56 61 57
REMARK SMILES IDX 32 59 54 60 39 61 53 62 40 63 43 64 52 65 66 66 41 67 42 68
REMARK SMILES IDX 51 70 67 71 44 72 33 73 34 74 38 75 35 76 37 77 36 78 55 79
REMARK SMILES IDX 56 80 60 81 57 82 59 83 58 84 45 85 46 86 50 87 47 88 49 89
REMARK SMILES IDX 48 90
REMARK H PARENT 17 6 84 14 10 25 21 39 65 58 43 69
REMARK Flexibility Score: inf
ROOT
ATOM      1  C   UNL A   1      32.261  29.990  27.078  1.00  0.00     0.042 C 
ENDROOT
BRANCH   1   2
ATOM      2  C   UNL A   1      31.931  28.533  26.715  1.00  0.00     0.118 C 
BRANCH   2   3
ATOM      3  N   UNL A   1      31.591  28.369  25.310  1.00  0.00    -0.352 N 
ATOM      4  C   UNL A   1      31.792  27.321  24.444  1.00  0.00     0.254 C 
ATOM      5  O   UNL A   1      31.309  27.419  23.313  1.00  0.00    -0.269 OA
ATOM      6  H   UNL A   1      31.136  29.145  24.910  1.00  0.00     0.163 HD
BRANCH   4   7
ATOM      7  C   UNL A   1      32.535  26.129  24.838  1.00  0.00     0.081 A 
ATOM      8  O   UNL A   1      29.291  23.507  27.197  1.00  0.00    -0.275 OA
ATOM      9  C   UNL A   1      30.455  23.744  26.876  1.00  0.00     0.225 C 
ATOM     10  C   UNL A   1      31.624  22.950  27.449  1.00  0.00     0.115 C 
ATOM     11  N   UNL A   1      30.765  24.821  26.081  1.00  0.00    -0.324 N 
ATOM     12  C   UNL A   1      32.826  22.800  26.495  1.00  0.00     0.078 C 
ATOM     13  C   UNL A   1      32.029  25.028  25.580  1.00  0.00     0.076 A 
ATOM     14  H   UNL A   1      30.056  25.467  25.861  1.00  0.00     0.170 HD
ATOM     15  C   UNL A   1      33.012  24.076  25.732  1.00  0.00     0.055 A 
ATOM     16  N   UNL A   1      34.147  24.548  25.115  1.00  0.00    -0.317 N 
ATOM     17  C   UNL A   1      33.843  25.779  24.569  1.00  0.00     0.107 A 
BRANCH  12  18
ATOM     18  C   UNL A   1      32.668  21.590  25.590  1.00  0.00    -0.035 A 
ATOM     19  C   UNL A   1      32.165  21.697  24.282  1.00  0.00     0.005 A 
ATOM     20  C   UNL A   1      33.107  20.335  26.040  1.00  0.00     0.050 A 
ATOM     21  C   UNL A   1      32.150  20.588  23.433  1.00  0.00     0.004 A 
ATOM     22  C   UNL A   1      33.119  19.247  25.175  1.00  0.00     0.115 A 
ATOM     23  C   UNL A   1      32.643  19.362  23.875  1.00  0.00     0.046 A 
BRANCH  22  24
ATOM     24  O   UNL A   1      33.661  18.085  25.635  1.00  0.00    -0.508 OA
ATOM     25  H   UNL A   1      33.694  17.331  25.079  1.00  0.00     0.293 HD
ENDBRANCH  22  24
ENDBRANCH  12  18
BRANCH  16  26
ATOM     26  C   UNL A   1      35.407  23.946  24.904  1.00  0.00     0.046 A 
ATOM     27  C   UNL A   1      35.514  22.906  23.972  1.00  0.00     0.026 A 
ATOM     28  C   UNL A   1      36.468  24.232  25.764  1.00  0.00     0.039 A 
ATOM     29  C   UNL A   1      36.707  22.196  23.861  1.00  0.00     0.003 A 
ATOM     30  C   UNL A   1      37.667  23.513  25.668  1.00  0.00     0.058 A 
ATOM     31  C   UNL A   1      37.780  22.502  24.700  1.00  0.00     0.013 A 
BRANCH  30  32
ATOM     32  C   UNL A   1      38.816  23.786  26.611  1.00  0.00     0.416 C 
ATOM     33  F   UNL A   1      39.295  22.643  27.180  1.00  0.00    -0.166 F 
ATOM     34  F   UNL A   1      39.878  24.364  25.988  1.00  0.00    -0.166 F 
ATOM     35  F   UNL A   1      38.495  24.603  27.653  1.00  0.00    -0.166 F 
ENDBRANCH  30  32
ENDBRANCH  16  26
ENDBRANCH   4   7
ENDBRANCH   2   3
ENDBRANCH   1   2
BRANCH   1  36
ATOM     36  C   UNL A   1      33.754  30.250  27.033  1.00  0.00     0.118 C 
BRANCH  36  37
ATOM     37  N   UNL A   1      34.128  31.546  27.638  1.00  0.00    -0.352 N 
ATOM     38  C   UNL A   1      35.128  31.845  28.552  1.00  0.00     0.251 C 
ATOM     39  H   UNL A   1      33.585  32.315  27.348  1.00  0.00     0.163 HD
ATOM     40  O   UNL A   1      35.110  32.902  29.190  1.00  0.00    -0.269 OA
BRANCH  38  41
ATOM     41  C   UNL A   1      36.225  30.889  28.740  1.00  0.00     0.039 A 
ATOM     42  C   UNL A   1      36.318  29.630  28.139  1.00  0.00     0.014 A 
ATOM     43  C   UNL A   1      37.271  31.364  29.495  1.00  0.00     0.014 A 
ATOM     44  C   UNL A   1      37.496  28.905  28.332  1.00  0.00     0.010 A 
ATOM     45  C   UNL A   1      38.497  30.924  29.147  1.00  0.00     0.010 A 
ATOM     46  C   UNL A   1      38.584  29.579  28.888  1.00  0.00    -0.014 A 
BRANCH  46  47
ATOM     47  C   UNL A   1      39.874  29.006  29.212  1.00  0.00     0.031 A 
ATOM     48  C   UNL A   1      40.108  28.818  30.654  1.00  0.00     0.074 A 
ATOM     49  C   UNL A   1      40.639  28.391  28.276  1.00  0.00     0.049 A 
ATOM     50  N   UNL A   1      40.904  29.494  31.407  1.00  0.00    -0.248 NA
ATOM     51  C   UNL A   1      39.243  27.874  31.377  1.00  0.00     0.031 C 
ATOM     52  C   UNL A   1      40.363  28.137  26.850  1.00  0.00     0.029 A 
ATOM     53  N   UNL A   1      41.810  27.734  28.457  1.00  0.00    -0.354 N 
ATOM     54  C   UNL A   1      40.797  28.925  32.668  1.00  0.00     0.074 A 
ATOM     55  C   UNL A   1      39.621  28.094  32.638  1.00  0.00     0.031 C 
ATOM     56  C   UNL A   1      41.212  27.192  26.382  1.00  0.00     0.029 A 
ATOM     57  C   UNL A   1      42.192  26.904  27.412  1.00  0.00     0.049 A 
ATOM     58  H   UNL A   1      42.352  27.838  29.272  1.00  0.00     0.167 HD
ATOM     59  C   UNL A   1      41.831  28.969  33.552  1.00  0.00     0.031 A 
ATOM     60  C   UNL A   1      43.218  26.017  27.429  1.00  0.00     0.031 A 
ATOM     61  C   UNL A   1      42.872  29.865  33.110  1.00  0.00     0.049 A 
ATOM     62  C   UNL A   1      44.123  26.428  28.536  1.00  0.00     0.074 A 
ATOM     63  C   UNL A   1      42.924  31.210  32.799  1.00  0.00     0.029 A 
ATOM     64  N   UNL A   1      43.963  29.297  32.486  1.00  0.00    -0.354 N 
ATOM     65  N   UNL A   1      44.777  27.557  28.534  1.00  0.00    -0.248 NA
ATOM     66  C   UNL A   1      43.890  25.847  29.851  1.00  0.00     0.031 C 
ATOM     67  C   UNL A   1      43.712  31.277  31.609  1.00  0.00     0.029 A 
ATOM     68  C   UNL A   1      44.166  29.988  31.317  1.00  0.00     0.049 A 
ATOM     69  H   UNL A   1      44.496  28.538  32.818  1.00  0.00     0.167 HD
ATOM     70  C   UNL A   1      44.655  28.045  29.829  1.00  0.00     0.074 A 
ATOM     71  C   UNL A   1      44.172  26.907  30.616  1.00  0.00     0.031 C 
ATOM     72  C   UNL A   1      44.656  29.388  30.092  1.00  0.00     0.031 A 
BRANCH  59  73
ATOM     73  C   UNL A   1      42.086  27.910  34.587  1.00  0.00    -0.014 A 
ATOM     74  C   UNL A   1      42.649  26.690  34.176  1.00  0.00     0.009 A 
ATOM     75  C   UNL A   1      41.556  27.959  35.891  1.00  0.00     0.009 A 
ATOM     76  C   UNL A   1      42.622  25.563  35.005  1.00  0.00     0.001 A 
ATOM     77  C   UNL A   1      41.565  26.849  36.736  1.00  0.00     0.001 A 
ATOM     78  C   UNL A   1      42.073  25.642  36.282  1.00  0.00     0.000 A 
ENDBRANCH  59  73
BRANCH  60  79
ATOM     79  C   UNL A   1      43.259  24.676  26.800  1.00  0.00    -0.014 A 
ATOM     80  C   UNL A   1      42.705  23.551  27.431  1.00  0.00     0.009 A 
ATOM     81  C   UNL A   1      43.618  24.547  25.444  1.00  0.00     0.009 A 
ATOM     82  C   UNL A   1      42.495  22.356  26.723  1.00  0.00     0.001 A 
ATOM     83  C   UNL A   1      43.408  23.358  24.737  1.00  0.00     0.001 A 
ATOM     84  C   UNL A   1      42.834  22.265  25.373  1.00  0.00     0.000 A 
ENDBRANCH  60  79
BRANCH  72  85
ATOM     85  C   UNL A   1      44.938  30.338  28.948  1.00  0.00    -0.014 A 
ATOM     86  C   UNL A   1      43.950  30.758  28.037  1.00  0.00     0.009 A 
ATOM     87  C   UNL A   1      46.190  30.965  28.891  1.00  0.00     0.009 A 
ATOM     88  C   UNL A   1      44.215  31.753  27.087  1.00  0.00     0.001 A 
ATOM     89  C   UNL A   1      46.451  31.970  27.955  1.00  0.00     0.001 A 
ATOM     90  C   UNL A   1      45.466  32.361  27.050  1.00  0.00     0.000 A 
ENDBRANCH  72  85
ENDBRANCH  46  47
ENDBRANCH  38  41
ENDBRANCH  36  37
ENDBRANCH   1  36
TORSDOF 14
ENDMDL
MODEL 3
REMARK VINA RESULT:     -13.0      4.406      8.514
REMARK SMILES O=C1C[C@@H](c2cccc(O)c2)c2c(c(C(=O)NCCCNC(=O)c3ccc(-c4c5nc(c(-c6ccccc6)c6ccc([nH]6)c(-c6ccccc6)c6nc(c(-c7ccccc7)c7ccc4[nH]7)C=C6)C=C5)cc3)cn2-c2cccc(C(F)(F)F)c2)N1
REMARK SMILES IDX 19 1 18 2 17 3 15 4 16 5 14 7 1 8 2 9 3 10 84 11 4 12 13 13
REMARK SMILES IDX 12 15 73 16 72 17 5 18 6 19 11 20 7 21 9 22 8 23 10 24 74 26
REMARK SMILES IDX 75 27 83 28 76 29 78 30 77 31 79 32 80 33 81 34 82 35 20 36
REMARK SMILES IDX 21 37 22 38 23 40 24 41 25 42 71 43 26 44 70 45 27 46 28 47
REMARK SMILES IDX 29 48 64 49 30 50 69 51 63 52 65 53 31 54 68 55 62 56 61 57
REMARK SMILES IDX 32 59 54 60 39 61 53 62 40 63 43 64 52 65 66 66 41 67 42 68
REMARK SMILES IDX 51 70 67 71 44 72 33 73 34 74 38 75 35 76 37 77 36 78 55 79
REMARK SMILES IDX 56 80 60 81 57 82 59 83 58 84 45 85 46 86 50 87 47 88 49 89
REMARK SMILES IDX 48 90
REMARK H PARENT 17 6 84 14 10 25 21 39 65 58 43 69
REMARK Flexibility Score: inf
ROOT
ATOM      1  C   UNL A   1      47.646  25.933  29.112  1.00  0.00     0.042 C 
ENDROOT
BRANCH   1   2
ATOM      2  C   UNL A   1      47.847  27.140  28.181  1.00  0.00     0.118 C 
BRANCH   2   3
ATOM      3  N   UNL A   1      48.466  26.776  26.917  1.00  0.00    -0.352 N 
ATOM      4  C   UNL A   1      47.925  26.311  25.742  1.00  0.00     0.254 C 
ATOM      5  O   UNL A   1      48.688  26.170  24.783  1.00  0.00    -0.269 OA
ATOM      6  H   UNL A   1      49.445  26.882  26.899  1.00  0.00     0.163 HD
BRANCH   4   7
ATOM      7  C   UNL A   1      46.505  26.004  25.619  1.00  0.00     0.081 A 
ATOM      8  O   UNL A   1      46.449  21.315  24.635  1.00  0.00    -0.275 OA
ATOM      9  C   UNL A   1      45.886  22.407  24.701  1.00  0.00     0.225 C 
ATOM     10  C   UNL A   1      44.449  22.599  24.230  1.00  0.00     0.115 C 
ATOM     11  N   UNL A   1      46.570  23.533  25.087  1.00  0.00    -0.324 N 
ATOM     12  C   UNL A   1      43.658  23.673  25.004  1.00  0.00     0.078 C 
ATOM     13  C   UNL A   1      45.941  24.734  25.318  1.00  0.00     0.076 A 
ATOM     14  H   UNL A   1      47.546  23.479  25.204  1.00  0.00     0.170 HD
ATOM     15  C   UNL A   1      44.567  24.822  25.318  1.00  0.00     0.055 A 
ATOM     16  N   UNL A   1      44.233  26.126  25.598  1.00  0.00    -0.317 N 
ATOM     17  C   UNL A   1      45.408  26.825  25.791  1.00  0.00     0.107 A 
BRANCH  12  18
ATOM     18  C   UNL A   1      42.996  23.090  26.241  1.00  0.00    -0.035 A 
ATOM     19  C   UNL A   1      43.600  23.149  27.508  1.00  0.00     0.005 A 
ATOM     20  C   UNL A   1      41.708  22.543  26.135  1.00  0.00     0.050 A 
ATOM     21  C   UNL A   1      42.911  22.719  28.644  1.00  0.00     0.004 A 
ATOM     22  C   UNL A   1      41.019  22.150  27.277  1.00  0.00     0.115 A 
ATOM     23  C   UNL A   1      41.611  22.231  28.532  1.00  0.00     0.046 A 
BRANCH  22  24
ATOM     24  O   UNL A   1      39.731  21.733  27.122  1.00  0.00    -0.508 OA
ATOM     25  H   UNL A   1      39.376  21.618  26.262  1.00  0.00     0.293 HD
ENDBRANCH  22  24
ENDBRANCH  12  18
BRANCH  16  26
ATOM     26  C   UNL A   1      42.977  26.741  25.797  1.00  0.00     0.046 A 
ATOM     27  C   UNL A   1      42.853  28.117  25.571  1.00  0.00     0.026 A 
ATOM     28  C   UNL A   1      41.947  26.033  26.416  1.00  0.00     0.039 A 
ATOM     29  C   UNL A   1      41.669  28.770  25.911  1.00  0.00     0.003 A 
ATOM     30  C   UNL A   1      40.758  26.685  26.773  1.00  0.00     0.058 A 
ATOM     31  C   UNL A   1      40.625  28.056  26.501  1.00  0.00     0.013 A 
BRANCH  30  32
ATOM     32  C   UNL A   1      39.643  25.943  27.473  1.00  0.00     0.416 C 
ATOM     33  F   UNL A   1      40.040  25.435  28.674  1.00  0.00    -0.166 F 
ATOM     34  F   UNL A   1      38.573  26.739  27.742  1.00  0.00    -0.166 F 
ATOM     35  F   UNL A   1      39.159  24.880  26.772  1.00  0.00    -0.166 F 
ENDBRANCH  30  32
ENDBRANCH  16  26
ENDBRANCH   4   7
ENDBRANCH   2   3
ENDBRANCH   1   2
BRANCH   1  36
ATOM     36  C   UNL A   1      47.190  26.366  30.492  1.00  0.00     0.118 C 
BRANCH  36  37
ATOM     37  N   UNL A   1      46.347  25.352  31.161  1.00  0.00    -0.352 N 
ATOM     38  C   UNL A   1      45.037  25.442  31.608  1.00  0.00     0.251 C 
ATOM     39  H   UNL A   1      46.780  24.481  31.311  1.00  0.00     0.163 HD
ATOM     40  O   UNL A   1      44.585  24.624  32.416  1.00  0.00    -0.269 OA
BRANCH  38  41
ATOM     41  C   UNL A   1      44.183  26.517  31.091  1.00  0.00     0.039 A 
ATOM     42  C   UNL A   1      43.491  26.493  29.877  1.00  0.00     0.014 A 
ATOM     43  C   UNL A   1      43.999  27.566  31.961  1.00  0.00     0.014 A 
ATOM     44  C   UNL A   1      42.623  27.551  29.604  1.00  0.00     0.010 A 
ATOM     45  C   UNL A   1      42.793  28.166  31.914  1.00  0.00     0.010 A 
ATOM     46  C   UNL A   1      42.314  28.419  30.653  1.00  0.00    -0.014 A 
BRANCH  46  47
ATOM     47  C   UNL A   1      41.478  29.599  30.572  1.00  0.00     0.031 A 
ATOM     48  C   UNL A   1      42.195  30.823  30.179  1.00  0.00     0.074 A 
ATOM     49  C   UNL A   1      40.126  29.514  30.527  1.00  0.00     0.049 A 
ATOM     50  N   UNL A   1      42.486  31.828  30.929  1.00  0.00    -0.248 NA
ATOM     51  C   UNL A   1      42.797  30.871  28.838  1.00  0.00     0.031 C 
ATOM     52  C   UNL A   1      39.253  28.325  30.506  1.00  0.00     0.029 A 
ATOM     53  N   UNL A   1      39.234  30.520  30.357  1.00  0.00    -0.354 N 
ATOM     54  C   UNL A   1      43.131  32.736  30.101  1.00  0.00     0.074 A 
ATOM     55  C   UNL A   1      43.483  32.013  28.906  1.00  0.00     0.031 C 
ATOM     56  C   UNL A   1      38.012  28.677  30.094  1.00  0.00     0.029 A 
ATOM     57  C   UNL A   1      37.954  30.123  29.994  1.00  0.00     0.049 A 
ATOM     58  H   UNL A   1      39.475  31.466  30.482  1.00  0.00     0.167 HD
ATOM     59  C   UNL A   1      43.087  34.073  30.350  1.00  0.00     0.031 A 
ATOM     60  C   UNL A   1      36.945  30.938  29.597  1.00  0.00     0.031 A 
ATOM     61  C   UNL A   1      42.538  34.355  31.655  1.00  0.00     0.049 A 
ATOM     62  C   UNL A   1      37.285  32.305  30.074  1.00  0.00     0.074 A 
ATOM     63  C   UNL A   1      42.884  34.005  32.946  1.00  0.00     0.029 A 
ATOM     64  N   UNL A   1      41.208  34.713  31.709  1.00  0.00    -0.354 N 
ATOM     65  N   UNL A   1      37.365  32.615  31.340  1.00  0.00    -0.248 NA
ATOM     66  C   UNL A   1      38.039  33.167  29.175  1.00  0.00     0.031 C 
ATOM     67  C   UNL A   1      41.645  33.672  33.574  1.00  0.00     0.029 A 
ATOM     68  C   UNL A   1      40.615  33.923  32.663  1.00  0.00     0.049 A 
ATOM     69  H   UNL A   1      40.766  35.406  31.166  1.00  0.00     0.167 HD
ATOM     70  C   UNL A   1      38.499  33.410  31.444  1.00  0.00     0.074 A 
ATOM     71  C   UNL A   1      38.823  33.787  30.065  1.00  0.00     0.031 C 
ATOM     72  C   UNL A   1      39.250  33.441  32.587  1.00  0.00     0.031 A 
BRANCH  59  73
ATOM     73  C   UNL A   1      43.149  35.122  29.275  1.00  0.00    -0.014 A 
ATOM     74  C   UNL A   1      41.993  35.379  28.520  1.00  0.00     0.009 A 
ATOM     75  C   UNL A   1      44.355  35.672  28.800  1.00  0.00     0.009 A 
ATOM     76  C   UNL A   1      42.055  36.095  27.319  1.00  0.00     0.001 A 
ATOM     77  C   UNL A   1      44.414  36.423  27.625  1.00  0.00     0.001 A 
ATOM     78  C   UNL A   1      43.267  36.610  26.869  1.00  0.00     0.000 A 
ENDBRANCH  59  73
BRANCH  60  79
ATOM     79  C   UNL A   1      35.929  30.670  28.552  1.00  0.00    -0.014 A 
ATOM     80  C   UNL A   1      35.882  29.445  27.869  1.00  0.00     0.009 A 
ATOM     81  C   UNL A   1      34.828  31.537  28.404  1.00  0.00     0.009 A 
ATOM     82  C   UNL A   1      34.765  29.092  27.094  1.00  0.00     0.001 A 
ATOM     83  C   UNL A   1      33.714  31.186  27.634  1.00  0.00     0.001 A 
ATOM     84  C   UNL A   1      33.677  29.957  26.988  1.00  0.00     0.000 A 
ENDBRANCH  60  79
BRANCH  72  85
ATOM     85  C   UNL A   1      38.737  32.692  33.798  1.00  0.00    -0.014 A 
ATOM     86  C   UNL A   1      38.968  31.319  34.007  1.00  0.00     0.009 A 
ATOM     87  C   UNL A   1      38.157  33.425  34.842  1.00  0.00     0.009 A 
ATOM     88  C   UNL A   1      38.608  30.698  35.210  1.00  0.00     0.001 A 
ATOM     89  C   UNL A   1      37.813  32.809  36.050  1.00  0.00     0.001 A 
ATOM     90  C   UNL A   1      38.034  31.446  36.233  1.00  0.00     0.000 A 
ENDBRANCH  72  85
ENDBRANCH  46  47
ENDBRANCH  38  41
ENDBRANCH  36  37
ENDBRANCH   1  36
TORSDOF 14
ENDMDL
