MODEL 1
REMARK VINA RESULT:     -12.3      0.000      0.000
REMARK SMILES O=C(NCCCNC(=O)[C@H]1Cc2ccc(Cl)cc2C[N@@H+]1Cc1ccc(Cl)cc1)c1ccc(-c2c3nc(c(-c4ccccc4)c4ccc([nH]4)c(-c4ccccc4)c4nc(c(-c5ccccc5)c5ccc2[nH]5)C=C4)C=C3)cc1
REMARK SMILES IDX 5 1 4 2 3 3 1 4 2 5 29 7 30 8 76 9 31 10 75 11 32 12 33 13
REMARK SMILES IDX 34 14 69 15 35 16 74 17 68 18 70 19 36 20 73 21 67 22 66 23
REMARK SMILES IDX 37 25 59 26 44 27 58 28 45 29 48 30 57 31 71 32 46 33 47 34
REMARK SMILES IDX 56 36 72 37 49 38 38 39 39 40 43 41 40 42 42 43 41 44 60 45
REMARK SMILES IDX 61 46 65 47 62 48 64 49 63 50 50 51 51 52 55 53 52 54 54 55
REMARK SMILES IDX 53 56 6 57 7 58 8 59 9 61 10 62 11 63 20 64 12 65 19 66
REMARK SMILES IDX 13 68 18 69 14 70 17 71 15 72 16 73 21 74 22 75 23 76 28 77
REMARK SMILES IDX 24 78 27 79 25 80 26 81
REMARK H PARENT 3 6 70 24 48 35 7 60 20 67
REMARK Flexibility Score: inf
ROOT
ATOM      1  C   UNL A   1      33.812  28.945  25.911  1.00  0.00     0.042 C 
ENDROOT
BRANCH   1   2
ATOM      2  C   UNL A   1      33.224  29.310  27.276  1.00  0.00     0.118 C 
BRANCH   2   3
ATOM      3  N   UNL A   1      33.643  30.640  27.687  1.00  0.00    -0.352 N 
ATOM      4  O   UNL A   1      34.672  32.126  29.008  1.00  0.00    -0.269 OA
ATOM      5  C   UNL A   1      34.717  31.039  28.440  1.00  0.00     0.251 C 
ATOM      6  H   UNL A   1      33.063  31.371  27.375  1.00  0.00     0.163 HD
BRANCH   5   7
ATOM      7  C   UNL A   1      35.946  30.218  28.532  1.00  0.00     0.039 A 
ATOM      8  C   UNL A   1      36.254  29.611  29.756  1.00  0.00     0.014 A 
ATOM      9  C   UNL A   1      36.877  30.195  27.491  1.00  0.00     0.014 A 
ATOM     10  C   UNL A   1      37.500  29.005  29.945  1.00  0.00     0.010 A 
ATOM     11  C   UNL A   1      38.095  29.542  27.659  1.00  0.00     0.010 A 
ATOM     12  C   UNL A   1      38.436  28.986  28.903  1.00  0.00    -0.014 A 
BRANCH  12  13
ATOM     13  C   UNL A   1      39.831  28.529  29.115  1.00  0.00     0.031 A 
ATOM     14  C   UNL A   1      40.838  29.508  29.658  1.00  0.00     0.074 A 
ATOM     15  C   UNL A   1      40.210  27.284  28.777  1.00  0.00     0.049 A 
ATOM     16  N   UNL A   1      42.139  29.402  29.729  1.00  0.00    -0.248 NA
ATOM     17  C   UNL A   1      40.310  30.788  30.164  1.00  0.00     0.031 C 
ATOM     18  C   UNL A   1      39.327  26.238  28.264  1.00  0.00     0.029 A 
ATOM     19  N   UNL A   1      41.450  26.697  28.800  1.00  0.00    -0.354 N 
ATOM     20  C   UNL A   1      42.586  30.613  30.244  1.00  0.00     0.074 A 
ATOM     21  C   UNL A   1      41.424  31.447  30.452  1.00  0.00     0.031 C 
ATOM     22  C   UNL A   1      40.055  25.135  28.019  1.00  0.00     0.029 A 
ATOM     23  C   UNL A   1      41.459  25.414  28.314  1.00  0.00     0.049 A 
ATOM     24  H   UNL A   1      42.257  27.154  29.134  1.00  0.00     0.167 HD
ATOM     25  C   UNL A   1      43.853  30.993  30.524  1.00  0.00     0.031 A 
ATOM     26  C   UNL A   1      42.486  24.567  28.102  1.00  0.00     0.031 A 
ATOM     27  C   UNL A   1      45.001  30.145  30.364  1.00  0.00     0.049 A 
ATOM     28  C   UNL A   1      43.887  25.010  28.424  1.00  0.00     0.074 A 
ATOM     29  C   UNL A   1      46.324  30.428  30.652  1.00  0.00     0.029 A 
ATOM     30  N   UNL A   1      44.957  28.843  29.893  1.00  0.00    -0.354 N 
ATOM     31  N   UNL A   1      44.297  26.162  28.897  1.00  0.00    -0.248 NA
ATOM     32  C   UNL A   1      44.967  24.040  28.185  1.00  0.00     0.031 C 
ATOM     33  C   UNL A   1      47.086  29.304  30.330  1.00  0.00     0.029 A 
ATOM     34  C   UNL A   1      46.232  28.310  29.881  1.00  0.00     0.049 A 
ATOM     35  H   UNL A   1      44.142  28.370  29.611  1.00  0.00     0.167 HD
ATOM     36  C   UNL A   1      45.675  26.050  29.028  1.00  0.00     0.074 A 
ATOM     37  C   UNL A   1      46.033  24.715  28.595  1.00  0.00     0.031 C 
ATOM     38  C   UNL A   1      46.563  26.973  29.465  1.00  0.00     0.031 A 
BRANCH  25  39
ATOM     39  C   UNL A   1      44.077  32.385  31.037  1.00  0.00    -0.014 A 
ATOM     40  C   UNL A   1      44.364  33.421  30.134  1.00  0.00     0.009 A 
ATOM     41  C   UNL A   1      44.091  32.656  32.414  1.00  0.00     0.009 A 
ATOM     42  C   UNL A   1      44.671  34.700  30.601  1.00  0.00     0.001 A 
ATOM     43  C   UNL A   1      44.375  33.942  32.876  1.00  0.00     0.001 A 
ATOM     44  C   UNL A   1      44.673  34.961  31.971  1.00  0.00     0.000 A 
ENDBRANCH  25  39
BRANCH  26  45
ATOM     45  C   UNL A   1      42.220  23.216  27.546  1.00  0.00    -0.014 A 
ATOM     46  C   UNL A   1      42.363  22.967  26.173  1.00  0.00     0.009 A 
ATOM     47  C   UNL A   1      41.793  22.175  28.384  1.00  0.00     0.009 A 
ATOM     48  C   UNL A   1      42.073  21.707  25.646  1.00  0.00     0.001 A 
ATOM     49  C   UNL A   1      41.527  20.908  27.858  1.00  0.00     0.001 A 
ATOM     50  C   UNL A   1      41.660  20.677  26.490  1.00  0.00     0.000 A 
ENDBRANCH  26  45
BRANCH  38  51
ATOM     51  C   UNL A   1      48.009  26.585  29.537  1.00  0.00    -0.014 A 
ATOM     52  C   UNL A   1      48.824  26.737  28.404  1.00  0.00     0.009 A 
ATOM     53  C   UNL A   1      48.523  25.938  30.669  1.00  0.00     0.009 A 
ATOM     54  C   UNL A   1      50.124  26.231  28.396  1.00  0.00     0.001 A 
ATOM     55  C   UNL A   1      49.830  25.448  30.664  1.00  0.00     0.001 A 
ATOM     56  C   UNL A   1      50.625  25.586  29.526  1.00  0.00     0.000 A 
ENDBRANCH  38  51
ENDBRANCH  12  13
ENDBRANCH   5   7
ENDBRANCH   2   3
ENDBRANCH   1   2
BRANCH   1  57
ATOM     57  C   UNL A   1      33.952  27.435  25.708  1.00  0.00     0.118 C 
BRANCH  57  58
ATOM     58  N   UNL A   1      32.900  26.708  26.395  1.00  0.00    -0.351 N 
ATOM     59  C   UNL A   1      32.192  25.574  26.185  1.00  0.00     0.278 C 
ATOM     60  H   UNL A   1      32.634  27.155  27.231  1.00  0.00     0.163 HD
ATOM     61  O   UNL A   1      31.167  25.537  26.882  1.00  0.00    -0.268 OA
BRANCH  59  62
ATOM     62  C   UNL A   1      32.540  24.377  25.240  1.00  0.00     0.279 C 
ATOM     63  C   UNL A   1      32.269  23.015  25.894  1.00  0.00     0.111 C 
ATOM     64  N   UNL A   1      31.838  24.474  23.921  1.00  0.00    -0.317 N 
ATOM     65  C   UNL A   1      32.438  21.818  25.006  1.00  0.00    -0.033 A 
ATOM     66  C   UNL A   1      32.188  23.354  23.021  1.00  0.00     0.300 C 
ATOM     67  H   UNL A   1      30.853  24.414  24.181  1.00  0.00     0.349 HD
ATOM     68  C   UNL A   1      32.605  20.539  25.556  1.00  0.00     0.006 A 
ATOM     69  C   UNL A   1      32.243  21.975  23.632  1.00  0.00     0.011 A 
ATOM     70  C   UNL A   1      32.590  19.416  24.730  1.00  0.00     0.021 A 
ATOM     71  C   UNL A   1      32.227  20.840  22.809  1.00  0.00     0.030 A 
ATOM     72  C   UNL A   1      32.393  19.570  23.361  1.00  0.00     0.041 A 
ATOM     73  Cl  UNL A   1      32.355  18.183  22.343  1.00  0.00    -0.084 Cl
BRANCH  64  74
ATOM     74  C   UNL A   1      31.978  25.771  23.200  1.00  0.00     0.299 C 
BRANCH  74  75
ATOM     75  C   UNL A   1      30.804  26.746  23.215  1.00  0.00     0.006 A 
ATOM     76  C   UNL A   1      29.530  26.364  23.669  1.00  0.00     0.011 A 
ATOM     77  C   UNL A   1      30.971  28.078  22.805  1.00  0.00     0.011 A 
ATOM     78  C   UNL A   1      28.443  27.241  23.596  1.00  0.00     0.021 A 
ATOM     79  C   UNL A   1      29.890  28.962  22.739  1.00  0.00     0.021 A 
ATOM     80  C   UNL A   1      28.624  28.532  23.113  1.00  0.00     0.041 A 
ATOM     81  Cl  UNL A   1      27.283  29.602  22.992  1.00  0.00    -0.084 Cl
ENDBRANCH  74  75
ENDBRANCH  64  74
ENDBRANCH  59  62
ENDBRANCH  57  58
ENDBRANCH   1  57
TORSDOF 12
ENDMDL
MODEL 2
REMARK VINA RESULT:     -12.2      1.531      2.119
REMARK SMILES O=C(NCCCNC(=O)[C@H]1Cc2ccc(Cl)cc2C[N@@H+]1Cc1ccc(Cl)cc1)c1ccc(-c2c3nc(c(-c4ccccc4)c4ccc([nH]4)c(-c4ccccc4)c4nc(c(-c5ccccc5)c5ccc2[nH]5)C=C4)C=C3)cc1
REMARK SMILES IDX 5 1 4 2 3 3 1 4 2 5 29 7 30 8 76 9 31 10 75 11 32 12 33 13
REMARK SMILES IDX 34 14 69 15 35 16 74 17 68 18 70 19 36 20 73 21 67 22 66 23
REMARK SMILES IDX 37 25 59 26 44 27 58 28 45 29 48 30 57 31 71 32 46 33 47 34
REMARK SMILES IDX 56 36 72 37 49 38 38 39 39 40 43 41 40 42 42 43 41 44 60 45
REMARK SMILES IDX 61 46 65 47 62 48 64 49 63 50 50 51 51 52 55 53 52 54 54 55
REMARK SMILES IDX 53 56 6 57 7 58 8 59 9 61 10 62 11 63 20 64 12 65 19 66
REMARK SMILES IDX 13 68 18 69 14 70 17 71 15 72 16 73 21 74 22 75 23 76 28 77
REMARK SMILES IDX 24 78 27 79 25 80 26 81
REMARK H PARENT 3 6 70 24 48 35 7 60 20 67
REMARK Flexibility Score: inf
ROOT
ATOM      1  C   UNL A   1      32.162  29.920  26.877  1.00  0.00     0.042 C 
ENDROOT
BRANCH   1   2
ATOM      2  C   UNL A   1      33.628  29.760  27.284  1.00  0.00     0.118 C 
BRANCH   2   3
ATOM      3  N   UNL A   1      34.090  30.915  28.036  1.00  0.00    -0.352 N 
ATOM      4  O   UNL A   1      35.133  31.953  29.725  1.00  0.00    -0.269 OA
ATOM      5  C   UNL A   1      35.150  31.047  28.896  1.00  0.00     0.251 C 
ATOM      6  H   UNL A   1      33.557  31.733  27.908  1.00  0.00     0.163 HD
BRANCH   5   7
ATOM      7  C   UNL A   1      36.336  30.165  28.806  1.00  0.00     0.039 A 
ATOM      8  C   UNL A   1      36.807  29.557  29.976  1.00  0.00     0.014 A 
ATOM      9  C   UNL A   1      37.083  30.079  27.629  1.00  0.00     0.014 A 
ATOM     10  C   UNL A   1      38.036  28.889  29.975  1.00  0.00     0.010 A 
ATOM     11  C   UNL A   1      38.279  29.365  27.613  1.00  0.00     0.010 A 
ATOM     12  C   UNL A   1      38.788  28.808  28.796  1.00  0.00    -0.014 A 
BRANCH  12  13
ATOM     13  C   UNL A   1      40.174  28.281  28.791  1.00  0.00     0.031 A 
ATOM     14  C   UNL A   1      41.312  29.237  29.034  1.00  0.00     0.074 A 
ATOM     15  C   UNL A   1      40.421  26.988  28.517  1.00  0.00     0.049 A 
ATOM     16  N   UNL A   1      42.596  29.052  28.872  1.00  0.00    -0.248 NA
ATOM     17  C   UNL A   1      40.953  30.590  29.496  1.00  0.00     0.031 C 
ATOM     18  C   UNL A   1      39.408  25.961  28.286  1.00  0.00     0.029 A 
ATOM     19  N   UNL A   1      41.614  26.325  28.368  1.00  0.00    -0.354 N 
ATOM     20  C   UNL A   1      43.191  30.273  29.168  1.00  0.00     0.074 A 
ATOM     21  C   UNL A   1      42.131  31.197  29.502  1.00  0.00     0.031 C 
ATOM     22  C   UNL A   1      40.023  24.794  28.024  1.00  0.00     0.029 A 
ATOM     23  C   UNL A   1      41.468  25.005  28.022  1.00  0.00     0.049 A 
ATOM     24  H   UNL A   1      42.490  26.756  28.497  1.00  0.00     0.167 HD
ATOM     25  C   UNL A   1      44.504  30.592  29.167  1.00  0.00     0.031 A 
ATOM     26  C   UNL A   1      42.394  24.076  27.711  1.00  0.00     0.031 A 
ATOM     27  C   UNL A   1      45.559  29.659  28.883  1.00  0.00     0.049 A 
ATOM     28  C   UNL A   1      43.850  24.453  27.719  1.00  0.00     0.074 A 
ATOM     29  C   UNL A   1      46.925  29.879  28.889  1.00  0.00     0.029 A 
ATOM     30  N   UNL A   1      45.363  28.325  28.564  1.00  0.00    -0.354 N 
ATOM     31  N   UNL A   1      44.398  25.614  27.987  1.00  0.00    -0.248 NA
ATOM     32  C   UNL A   1      44.817  23.396  27.383  1.00  0.00     0.031 C 
ATOM     33  C   UNL A   1      47.557  28.683  28.547  1.00  0.00     0.029 A 
ATOM     34  C   UNL A   1      46.586  27.710  28.369  1.00  0.00     0.049 A 
ATOM     35  H   UNL A   1      44.488  27.883  28.489  1.00  0.00     0.167 HD
ATOM     36  C   UNL A   1      45.768  25.424  27.870  1.00  0.00     0.074 A 
ATOM     37  C   UNL A   1      45.973  24.034  27.517  1.00  0.00     0.031 C 
ATOM     38  C   UNL A   1      46.766  26.322  28.038  1.00  0.00     0.031 A 
BRANCH  25  39
ATOM     39  C   UNL A   1      44.889  32.007  29.485  1.00  0.00    -0.014 A 
ATOM     40  C   UNL A   1      44.893  32.972  28.465  1.00  0.00     0.009 A 
ATOM     41  C   UNL A   1      45.330  32.368  30.767  1.00  0.00     0.009 A 
ATOM     42  C   UNL A   1      45.341  34.269  28.721  1.00  0.00     0.001 A 
ATOM     43  C   UNL A   1      45.755  33.671  31.025  1.00  0.00     0.001 A 
ATOM     44  C   UNL A   1      45.768  34.619  30.002  1.00  0.00     0.000 A 
ENDBRANCH  25  39
BRANCH  26  45
ATOM     45  C   UNL A   1      41.963  22.701  27.355  1.00  0.00    -0.014 A 
ATOM     46  C   UNL A   1      41.830  21.714  28.343  1.00  0.00     0.009 A 
ATOM     47  C   UNL A   1      41.709  22.361  26.018  1.00  0.00     0.009 A 
ATOM     48  C   UNL A   1      41.464  20.411  28.001  1.00  0.00     0.001 A 
ATOM     49  C   UNL A   1      41.318  21.062  25.680  1.00  0.00     0.001 A 
ATOM     50  C   UNL A   1      41.203  20.088  26.670  1.00  0.00     0.000 A 
ENDBRANCH  26  45
BRANCH  38  51
ATOM     51  C   UNL A   1      48.180  25.847  27.878  1.00  0.00    -0.014 A 
ATOM     52  C   UNL A   1      48.923  25.487  29.014  1.00  0.00     0.009 A 
ATOM     53  C   UNL A   1      48.815  25.896  26.630  1.00  0.00     0.009 A 
ATOM     54  C   UNL A   1      50.284  25.203  28.905  1.00  0.00     0.001 A 
ATOM     55  C   UNL A   1      50.174  25.594  26.522  1.00  0.00     0.001 A 
ATOM     56  C   UNL A   1      50.908  25.258  27.659  1.00  0.00     0.000 A 
ENDBRANCH  38  51
ENDBRANCH  12  13
ENDBRANCH   5   7
ENDBRANCH   2   3
ENDBRANCH   1   2
BRANCH   1  57
ATOM     57  C   UNL A   1      31.771  29.029  25.696  1.00  0.00     0.118 C 
BRANCH  57  58
ATOM     58  N   UNL A   1      32.709  29.164  24.597  1.00  0.00    -0.351 N 
ATOM     59  C   UNL A   1      33.486  28.334  23.863  1.00  0.00     0.278 C 
ATOM     60  H   UNL A   1      32.805  30.102  24.312  1.00  0.00     0.163 HD
ATOM     61  O   UNL A   1      34.371  28.953  23.253  1.00  0.00    -0.268 OA
BRANCH  59  62
ATOM     62  C   UNL A   1      33.358  26.784  23.695  1.00  0.00     0.279 C 
ATOM     63  C   UNL A   1      33.846  26.018  24.933  1.00  0.00     0.111 C 
ATOM     64  N   UNL A   1      31.967  26.365  23.334  1.00  0.00    -0.317 N 
ATOM     65  C   UNL A   1      33.624  24.535  24.913  1.00  0.00    -0.033 A 
ATOM     66  C   UNL A   1      31.856  24.902  23.153  1.00  0.00     0.300 C 
ATOM     67  H   UNL A   1      31.423  26.656  24.147  1.00  0.00     0.349 HD
ATOM     68  C   UNL A   1      34.350  23.693  25.768  1.00  0.00     0.006 A 
ATOM     69  C   UNL A   1      32.559  24.031  24.165  1.00  0.00     0.011 A 
ATOM     70  C   UNL A   1      34.019  22.342  25.865  1.00  0.00     0.021 A 
ATOM     71  C   UNL A   1      32.231  22.671  24.270  1.00  0.00     0.030 A 
ATOM     72  C   UNL A   1      32.956  21.838  25.122  1.00  0.00     0.041 A 
ATOM     73  Cl  UNL A   1      32.534  20.176  25.256  1.00  0.00    -0.084 Cl
BRANCH  64  74
ATOM     74  C   UNL A   1      31.353  27.071  22.174  1.00  0.00     0.299 C 
BRANCH  74  75
ATOM     75  C   UNL A   1      30.302  28.145  22.445  1.00  0.00     0.006 A 
ATOM     76  C   UNL A   1      30.462  29.467  21.998  1.00  0.00     0.011 A 
ATOM     77  C   UNL A   1      29.115  27.832  23.126  1.00  0.00     0.011 A 
ATOM     78  C   UNL A   1      29.534  30.461  22.329  1.00  0.00     0.021 A 
ATOM     79  C   UNL A   1      28.179  28.818  23.451  1.00  0.00     0.021 A 
ATOM     80  C   UNL A   1      28.403  30.134  23.071  1.00  0.00     0.041 A 
ATOM     81  Cl  UNL A   1      27.277  31.359  23.506  1.00  0.00    -0.084 Cl
ENDBRANCH  74  75
ENDBRANCH  64  74
ENDBRANCH  59  62
ENDBRANCH  57  58
ENDBRANCH   1  57
TORSDOF 12
ENDMDL
MODEL 3
REMARK VINA RESULT:     -12.2      2.228      7.605
REMARK SMILES O=C(NCCCNC(=O)[C@H]1Cc2ccc(Cl)cc2C[N@@H+]1Cc1ccc(Cl)cc1)c1ccc(-c2c3nc(c(-c4ccccc4)c4ccc([nH]4)c(-c4ccccc4)c4nc(c(-c5ccccc5)c5ccc2[nH]5)C=C4)C=C3)cc1
REMARK SMILES IDX 5 1 4 2 3 3 1 4 2 5 29 7 30 8 76 9 31 10 75 11 32 12 33 13
REMARK SMILES IDX 34 14 69 15 35 16 74 17 68 18 70 19 36 20 73 21 67 22 66 23
REMARK SMILES IDX 37 25 59 26 44 27 58 28 45 29 48 30 57 31 71 32 46 33 47 34
REMARK SMILES IDX 56 36 72 37 49 38 38 39 39 40 43 41 40 42 42 43 41 44 60 45
REMARK SMILES IDX 61 46 65 47 62 48 64 49 63 50 50 51 51 52 55 53 52 54 54 55
REMARK SMILES IDX 53 56 6 57 7 58 8 59 9 61 10 62 11 63 20 64 12 65 19 66
REMARK SMILES IDX 13 68 18 69 14 70 17 71 15 72 16 73 21 74 22 75 23 76 28 77
REMARK SMILES IDX 24 78 27 79 25 80 26 81
REMARK H PARENT 3 6 70 24 48 35 7 60 20 67
REMARK Flexibility Score: inf
ROOT
ATOM      1  C   UNL A   1      37.574  22.226  26.167  1.00  0.00     0.042 C 
ENDROOT
BRANCH   1   2
ATOM      2  C   UNL A   1      38.184  21.501  24.966  1.00  0.00     0.118 C 
BRANCH   2   3
ATOM      3  N   UNL A   1      38.836  20.269  25.375  1.00  0.00    -0.352 N 
ATOM      4  O   UNL A   1      40.588  18.916  25.720  1.00  0.00    -0.269 OA
ATOM      5  C   UNL A   1      40.115  20.045  25.816  1.00  0.00     0.251 C 
ATOM      6  H   UNL A   1      38.269  19.465  25.328  1.00  0.00     0.163 HD
BRANCH   5   7
ATOM      7  C   UNL A   1      40.911  21.116  26.458  1.00  0.00     0.039 A 
ATOM      8  C   UNL A   1      40.814  21.280  27.845  1.00  0.00     0.014 A 
ATOM      9  C   UNL A   1      41.598  22.061  25.692  1.00  0.00     0.014 A 
ATOM     10  C   UNL A   1      41.381  22.401  28.461  1.00  0.00     0.010 A 
ATOM     11  C   UNL A   1      42.211  23.148  26.312  1.00  0.00     0.010 A 
ATOM     12  C   UNL A   1      42.065  23.352  27.693  1.00  0.00    -0.014 A 
BRANCH  12  13
ATOM     13  C   UNL A   1      42.512  24.643  28.269  1.00  0.00     0.031 A 
ATOM     14  C   UNL A   1      41.490  25.725  28.501  1.00  0.00     0.074 A 
ATOM     15  C   UNL A   1      43.812  24.872  28.526  1.00  0.00     0.049 A 
ATOM     16  N   UNL A   1      41.672  26.986  28.793  1.00  0.00    -0.248 NA
ATOM     17  C   UNL A   1      40.075  25.338  28.360  1.00  0.00     0.031 C 
ATOM     18  C   UNL A   1      44.893  23.902  28.365  1.00  0.00     0.029 A 
ATOM     19  N   UNL A   1      44.443  26.010  28.962  1.00  0.00    -0.354 N 
ATOM     20  C   UNL A   1      40.403  27.550  28.826  1.00  0.00     0.074 A 
ATOM     21  C   UNL A   1      39.459  26.503  28.509  1.00  0.00     0.031 C 
ATOM     22  C   UNL A   1      46.057  24.487  28.698  1.00  0.00     0.029 A 
ATOM     23  C   UNL A   1      45.806  25.883  29.048  1.00  0.00     0.049 A 
ATOM     24  H   UNL A   1      43.963  26.840  29.191  1.00  0.00     0.167 HD
ATOM     25  C   UNL A   1      40.055  28.827  29.103  1.00  0.00     0.031 A 
ATOM     26  C   UNL A   1      46.752  26.796  29.349  1.00  0.00     0.031 A 
ATOM     27  C   UNL A   1      40.991  29.854  29.467  1.00  0.00     0.049 A 
ATOM     28  C   UNL A   1      46.342  28.209  29.657  1.00  0.00     0.074 A 
ATOM     29  C   UNL A   1      40.733  31.172  29.799  1.00  0.00     0.029 A 
ATOM     30  N   UNL A   1      42.360  29.670  29.568  1.00  0.00    -0.354 N 
ATOM     31  N   UNL A   1      45.140  28.733  29.671  1.00  0.00    -0.248 NA
ATOM     32  C   UNL A   1      47.415  29.160  29.990  1.00  0.00     0.031 C 
ATOM     33  C   UNL A   1      41.951  31.795  30.076  1.00  0.00     0.029 A 
ATOM     34  C   UNL A   1      42.961  30.853  29.955  1.00  0.00     0.049 A 
ATOM     35  H   UNL A   1      42.833  28.825  29.392  1.00  0.00     0.167 HD
ATOM     36  C   UNL A   1      45.310  30.064  30.030  1.00  0.00     0.074 A 
ATOM     37  C   UNL A   1      46.728  30.268  30.235  1.00  0.00     0.031 C 
ATOM     38  C   UNL A   1      44.372  31.029  30.173  1.00  0.00     0.031 A 
BRANCH  25  39
ATOM     39  C   UNL A   1      38.603  29.197  29.029  1.00  0.00    -0.014 A 
ATOM     40  C   UNL A   1      38.079  29.719  27.836  1.00  0.00     0.009 A 
ATOM     41  C   UNL A   1      37.776  29.113  30.159  1.00  0.00     0.009 A 
ATOM     42  C   UNL A   1      36.755  30.159  27.780  1.00  0.00     0.001 A 
ATOM     43  C   UNL A   1      36.447  29.532  30.092  1.00  0.00     0.001 A 
ATOM     44  C   UNL A   1      35.939  30.062  28.906  1.00  0.00     0.000 A 
ENDBRANCH  25  39
BRANCH  26  45
ATOM     45  C   UNL A   1      48.182  26.394  29.361  1.00  0.00    -0.014 A 
ATOM     46  C   UNL A   1      48.784  25.932  30.541  1.00  0.00     0.009 A 
ATOM     47  C   UNL A   1      48.958  26.499  28.197  1.00  0.00     0.009 A 
ATOM     48  C   UNL A   1      50.139  25.594  30.559  1.00  0.00     0.001 A 
ATOM     49  C   UNL A   1      50.307  26.137  28.213  1.00  0.00     0.001 A 
ATOM     50  C   UNL A   1      50.898  25.691  29.395  1.00  0.00     0.000 A 
ENDBRANCH  26  45
BRANCH  38  51
ATOM     51  C   UNL A   1      44.822  32.394  30.601  1.00  0.00    -0.014 A 
ATOM     52  C   UNL A   1      44.820  32.728  31.965  1.00  0.00     0.009 A 
ATOM     53  C   UNL A   1      45.103  33.386  29.651  1.00  0.00     0.009 A 
ATOM     54  C   UNL A   1      45.075  34.039  32.370  1.00  0.00     0.001 A 
ATOM     55  C   UNL A   1      45.375  34.692  30.062  1.00  0.00     0.001 A 
ATOM     56  C   UNL A   1      45.351  35.019  31.418  1.00  0.00     0.000 A 
ENDBRANCH  38  51
ENDBRANCH  12  13
ENDBRANCH   5   7
ENDBRANCH   2   3
ENDBRANCH   1   2
BRANCH   1  57
ATOM     57  C   UNL A   1      36.759  23.458  25.768  1.00  0.00     0.118 C 
BRANCH  57  58
ATOM     58  N   UNL A   1      36.419  23.434  24.357  1.00  0.00    -0.351 N 
ATOM     59  C   UNL A   1      35.308  23.639  23.611  1.00  0.00     0.278 C 
ATOM     60  H   UNL A   1      37.199  23.211  23.797  1.00  0.00     0.163 HD
ATOM     61  O   UNL A   1      35.432  23.178  22.467  1.00  0.00    -0.268 OA
BRANCH  59  62
ATOM     62  C   UNL A   1      33.993  24.382  24.018  1.00  0.00     0.279 C 
ATOM     63  C   UNL A   1      33.550  25.409  22.967  1.00  0.00     0.111 C 
ATOM     64  N   UNL A   1      32.878  23.432  24.325  1.00  0.00    -0.317 N 
ATOM     65  C   UNL A   1      32.222  26.062  23.210  1.00  0.00    -0.033 A 
ATOM     66  C   UNL A   1      31.643  24.137  24.733  1.00  0.00     0.300 C 
ATOM     67  H   UNL A   1      32.728  22.960  23.433  1.00  0.00     0.349 HD
ATOM     68  C   UNL A   1      31.888  27.263  22.568  1.00  0.00     0.006 A 
ATOM     69  C   UNL A   1      31.259  25.361  23.939  1.00  0.00     0.011 A 
ATOM     70  C   UNL A   1      30.594  27.772  22.665  1.00  0.00     0.021 A 
ATOM     71  C   UNL A   1      29.959  25.879  24.030  1.00  0.00     0.030 A 
ATOM     72  C   UNL A   1      29.632  27.073  23.388  1.00  0.00     0.041 A 
ATOM     73  Cl  UNL A   1      28.029  27.690  23.493  1.00  0.00    -0.084 Cl
BRANCH  64  74
ATOM     74  C   UNL A   1      33.192  22.348  25.299  1.00  0.00     0.299 C 
BRANCH  74  75
ATOM     75  C   UNL A   1      33.373  20.926  24.776  1.00  0.00     0.006 A 
ATOM     76  C   UNL A   1      32.376  20.282  24.023  1.00  0.00     0.011 A 
ATOM     77  C   UNL A   1      34.567  20.223  25.002  1.00  0.00     0.011 A 
ATOM     78  C   UNL A   1      32.519  18.948  23.624  1.00  0.00     0.021 A 
ATOM     79  C   UNL A   1      34.719  18.894  24.598  1.00  0.00     0.021 A 
ATOM     80  C   UNL A   1      33.684  18.253  23.930  1.00  0.00     0.041 A 
ATOM     81  Cl  UNL A   1      33.849  16.605  23.469  1.00  0.00    -0.084 Cl
ENDBRANCH  74  75
ENDBRANCH  64  74
ENDBRANCH  59  62
ENDBRANCH  57  58
ENDBRANCH   1  57
TORSDOF 12
ENDMDL
