MODEL 1
REMARK VINA RESULT:      -7.5      0.000      0.000
REMARK SMILES CC(C)C[C@H](NC(=O)CNC(=O)[C@@H](NC(=O)OCc1ccccc1)C(C)C)C(=O)NCCCNC(=O)c1ccc(-c2c3nc(c(-c4ccccc4)c4ccc([nH]4)c(-c4ccccc4)c4nc(c(-c5ccccc5)c5ccc2[nH]5)C=C4)C=C3)cc1
REMARK SMILES IDX 5 1 4 2 2 3 1 4 3 5 28 6 29 7 30 8 31 10 32 11 33 12 34 13
REMARK SMILES IDX 35 14 36 16 37 17 38 18 84 19 39 20 83 21 40 22 41 23 42 24
REMARK SMILES IDX 77 25 43 26 82 27 76 28 78 29 44 30 81 31 75 32 74 33 45 35
REMARK SMILES IDX 67 36 52 37 66 38 53 39 56 40 65 41 79 42 54 43 55 44 64 46
REMARK SMILES IDX 80 47 57 48 46 49 47 50 51 51 48 52 50 53 49 54 68 55 69 56
REMARK SMILES IDX 73 57 70 58 72 59 71 60 58 61 59 62 63 63 60 64 62 65 61 66
REMARK SMILES IDX 6 67 7 68 8 70 9 71 10 72 11 73 12 75 13 76 14 77 15 78
REMARK SMILES IDX 16 80 17 81 18 82 19 83 20 84 24 85 21 86 23 87 22 88 25 89
REMARK SMILES IDX 26 90 27 91
REMARK H PARENT 30 9 34 15 78 34 56 45 6 69 10 74 14 79
REMARK Flexibility Score: inf
ROOT
ATOM      1  C   UNL A   1      35.905  32.876  30.274  1.00  0.00     0.171 C 
ENDROOT
BRANCH   1   2
ATOM      2  C   UNL A   1      36.940  33.974  29.989  1.00  0.00     0.038 C 
BRANCH   2   3
ATOM      3  C   UNL A   1      38.408  33.727  30.387  1.00  0.00    -0.015 C 
ATOM      4  C   UNL A   1      38.827  34.562  31.598  1.00  0.00     0.007 C 
ATOM      5  C   UNL A   1      38.583  32.237  30.706  1.00  0.00     0.007 C 
ENDBRANCH   2   3
ENDBRANCH   1   2
BRANCH   1   6
ATOM      6  C   UNL A   1      34.690  33.481  30.996  1.00  0.00     0.242 C 
ATOM      7  O   UNL A   1      33.667  33.819  30.402  1.00  0.00    -0.273 OA
ATOM      8  N   UNL A   1      34.718  33.586  32.358  1.00  0.00    -0.354 N 
ATOM      9  H   UNL A   1      33.930  34.009  32.769  1.00  0.00     0.163 HD
BRANCH   8  10
ATOM     10  C   UNL A   1      35.757  33.158  33.278  1.00  0.00     0.117 C 
BRANCH  10  11
ATOM     11  C   UNL A   1      35.974  34.162  34.384  1.00  0.00     0.042 C 
BRANCH  11  12
ATOM     12  C   UNL A   1      37.355  34.059  34.993  1.00  0.00     0.118 C 
BRANCH  12  13
ATOM     13  N   UNL A   1      37.403  33.144  36.127  1.00  0.00    -0.352 N 
ATOM     14  C   UNL A   1      38.151  32.002  36.268  1.00  0.00     0.251 C 
ATOM     15  H   UNL A   1      36.826  33.376  36.890  1.00  0.00     0.163 HD
ATOM     16  O   UNL A   1      37.955  31.231  37.200  1.00  0.00    -0.269 OA
BRANCH  14  17
ATOM     17  C   UNL A   1      39.175  31.714  35.250  1.00  0.00     0.039 A 
ATOM     18  C   UNL A   1      40.488  32.126  35.469  1.00  0.00     0.014 A 
ATOM     19  C   UNL A   1      38.836  30.950  34.129  1.00  0.00     0.014 A 
ATOM     20  C   UNL A   1      41.481  31.711  34.585  1.00  0.00     0.010 A 
ATOM     21  C   UNL A   1      39.841  30.438  33.328  1.00  0.00     0.010 A 
ATOM     22  C   UNL A   1      41.169  30.832  33.532  1.00  0.00    -0.014 A 
BRANCH  22  23
ATOM     23  C   UNL A   1      42.221  30.335  32.617  1.00  0.00     0.031 A 
ATOM     24  C   UNL A   1      42.711  31.211  31.498  1.00  0.00     0.074 A 
ATOM     25  C   UNL A   1      42.695  29.083  32.766  1.00  0.00     0.049 A 
ATOM     26  N   UNL A   1      43.627  30.962  30.597  1.00  0.00    -0.248 NA
ATOM     27  C   UNL A   1      42.063  32.526  31.343  1.00  0.00     0.031 C 
ATOM     28  C   UNL A   1      42.240  28.113  33.767  1.00  0.00     0.029 A 
ATOM     29  N   UNL A   1      43.672  28.414  32.077  1.00  0.00    -0.354 N 
ATOM     30  C   UNL A   1      43.647  32.074  29.766  1.00  0.00     0.074 A 
ATOM     31  C   UNL A   1      42.608  32.967  30.222  1.00  0.00     0.031 C 
ATOM     32  C   UNL A   1      42.976  26.995  33.662  1.00  0.00     0.029 A 
ATOM     33  C   UNL A   1      43.928  27.158  32.570  1.00  0.00     0.049 A 
ATOM     34  H   UNL A   1      44.146  28.798  31.304  1.00  0.00     0.167 HD
ATOM     35  C   UNL A   1      44.480  32.344  28.734  1.00  0.00     0.031 A 
ATOM     36  C   UNL A   1      44.844  26.248  32.192  1.00  0.00     0.031 A 
ATOM     37  C   UNL A   1      45.529  31.466  28.302  1.00  0.00     0.049 A 
ATOM     38  C   UNL A   1      45.785  26.588  31.070  1.00  0.00     0.074 A 
ATOM     39  C   UNL A   1      46.471  31.667  27.309  1.00  0.00     0.029 A 
ATOM     40  N   UNL A   1      45.775  30.213  28.844  1.00  0.00    -0.354 N 
ATOM     41  N   UNL A   1      45.847  27.680  30.347  1.00  0.00    -0.248 NA
ATOM     42  C   UNL A   1      46.795  25.578  30.730  1.00  0.00     0.031 C 
ATOM     43  C   UNL A   1      47.265  30.518  27.225  1.00  0.00     0.029 A 
ATOM     44  C   UNL A   1      46.848  29.624  28.200  1.00  0.00     0.049 A 
ATOM     45  H   UNL A   1      45.263  29.804  29.579  1.00  0.00     0.167 HD
ATOM     46  C   UNL A   1      46.919  27.501  29.483  1.00  0.00     0.074 A 
ATOM     47  C   UNL A   1      47.489  26.203  29.790  1.00  0.00     0.031 C 
ATOM     48  C   UNL A   1      47.392  28.331  28.521  1.00  0.00     0.031 A 
BRANCH  35  49
ATOM     49  C   UNL A   1      44.282  33.651  28.017  1.00  0.00    -0.014 A 
ATOM     50  C   UNL A   1      43.550  33.722  26.821  1.00  0.00     0.009 A 
ATOM     51  C   UNL A   1      44.827  34.830  28.549  1.00  0.00     0.009 A 
ATOM     52  C   UNL A   1      43.402  34.937  26.151  1.00  0.00     0.001 A 
ATOM     53  C   UNL A   1      44.650  36.050  27.893  1.00  0.00     0.001 A 
ATOM     54  C   UNL A   1      43.947  36.100  26.689  1.00  0.00     0.000 A 
ENDBRANCH  35  49
BRANCH  36  55
ATOM     55  C   UNL A   1      44.951  24.953  32.912  1.00  0.00    -0.014 A 
ATOM     56  C   UNL A   1      45.860  24.804  33.972  1.00  0.00     0.009 A 
ATOM     57  C   UNL A   1      44.148  23.862  32.547  1.00  0.00     0.009 A 
ATOM     58  C   UNL A   1      45.983  23.579  34.631  1.00  0.00     0.001 A 
ATOM     59  C   UNL A   1      44.254  22.647  33.227  1.00  0.00     0.001 A 
ATOM     60  C   UNL A   1      45.178  22.502  34.262  1.00  0.00     0.000 A 
ENDBRANCH  36  55
BRANCH  48  61
ATOM     61  C   UNL A   1      48.600  27.867  27.760  1.00  0.00    -0.014 A 
ATOM     62  C   UNL A   1      49.899  28.171  28.199  1.00  0.00     0.009 A 
ATOM     63  C   UNL A   1      48.434  27.100  26.597  1.00  0.00     0.009 A 
ATOM     64  C   UNL A   1      51.006  27.752  27.462  1.00  0.00     0.001 A 
ATOM     65  C   UNL A   1      49.545  26.655  25.879  1.00  0.00     0.001 A 
ATOM     66  C   UNL A   1      50.829  26.992  26.305  1.00  0.00     0.000 A 
ENDBRANCH  48  61
ENDBRANCH  22  23
ENDBRANCH  14  17
ENDBRANCH  12  13
ENDBRANCH  11  12
ENDBRANCH  10  11
ENDBRANCH   8  10
ENDBRANCH   1   6
BRANCH   1  67
ATOM     67  N   UNL A   1      35.360  32.167  29.094  1.00  0.00    -0.343 N 
ATOM     68  C   UNL A   1      35.547  31.008  28.431  1.00  0.00     0.240 C 
ATOM     69  H   UNL A   1      34.649  32.699  28.669  1.00  0.00     0.164 HD
ATOM     70  O   UNL A   1      34.702  30.764  27.556  1.00  0.00    -0.273 OA
BRANCH  68  71
ATOM     71  C   UNL A   1      36.614  29.953  28.733  1.00  0.00     0.216 C 
BRANCH  71  72
ATOM     72  N   UNL A   1      37.822  29.963  27.943  1.00  0.00    -0.345 N 
ATOM     73  C   UNL A   1      38.796  29.041  27.748  1.00  0.00     0.243 C 
ATOM     74  H   UNL A   1      37.965  30.802  27.449  1.00  0.00     0.164 HD
ATOM     75  O   UNL A   1      39.609  29.307  26.854  1.00  0.00    -0.273 OA
BRANCH  73  76
ATOM     76  C   UNL A   1      38.926  27.703  28.540  1.00  0.00     0.177 C 
BRANCH  76  77
ATOM     77  N   UNL A   1      39.376  26.567  27.722  1.00  0.00    -0.309 N 
ATOM     78  C   UNL A   1      40.557  26.243  27.142  1.00  0.00     0.408 C 
ATOM     79  H   UNL A   1      38.668  25.900  27.560  1.00  0.00     0.167 HD
ATOM     80  O   UNL A   1      40.593  25.417  26.240  1.00  0.00    -0.225 OA
BRANCH  78  81
ATOM     81  O   UNL A   1      41.628  26.867  27.673  1.00  0.00    -0.445 OA
BRANCH  81  82
ATOM     82  C   UNL A   1      42.276  26.161  28.742  1.00  0.00     0.270 C 
BRANCH  82  83
ATOM     83  C   UNL A   1      43.504  25.357  28.352  1.00  0.00    -0.011 A 
ATOM     84  C   UNL A   1      44.358  25.880  27.369  1.00  0.00     0.007 A 
ATOM     85  C   UNL A   1      43.801  24.092  28.880  1.00  0.00     0.007 A 
ATOM     86  C   UNL A   1      45.454  25.146  26.910  1.00  0.00     0.000 A 
ATOM     87  C   UNL A   1      44.883  23.348  28.406  1.00  0.00     0.000 A 
ATOM     88  C   UNL A   1      45.708  23.874  27.419  1.00  0.00     0.000 A 
ENDBRANCH  82  83
ENDBRANCH  81  82
ENDBRANCH  78  81
ENDBRANCH  76  77
BRANCH  76  89
ATOM     89  C   UNL A   1      39.573  27.879  29.929  1.00  0.00     0.015 C 
ATOM     90  C   UNL A   1      40.397  29.173  30.012  1.00  0.00     0.010 C 
ATOM     91  C   UNL A   1      38.503  27.947  31.028  1.00  0.00     0.010 C 
ENDBRANCH  76  89
ENDBRANCH  73  76
ENDBRANCH  71  72
ENDBRANCH  68  71
ENDBRANCH   1  67
TORSDOF 21
ENDMDL
MODEL 2
REMARK VINA RESULT:      -6.9      7.584     12.398
REMARK SMILES CC(C)C[C@H](NC(=O)CNC(=O)[C@@H](NC(=O)OCc1ccccc1)C(C)C)C(=O)NCCCNC(=O)c1ccc(-c2c3nc(c(-c4ccccc4)c4ccc([nH]4)c(-c4ccccc4)c4nc(c(-c5ccccc5)c5ccc2[nH]5)C=C4)C=C3)cc1
REMARK SMILES IDX 5 1 4 2 2 3 1 4 3 5 28 6 29 7 30 8 31 10 32 11 33 12 34 13
REMARK SMILES IDX 35 14 36 16 37 17 38 18 84 19 39 20 83 21 40 22 41 23 42 24
REMARK SMILES IDX 77 25 43 26 82 27 76 28 78 29 44 30 81 31 75 32 74 33 45 35
REMARK SMILES IDX 67 36 52 37 66 38 53 39 56 40 65 41 79 42 54 43 55 44 64 46
REMARK SMILES IDX 80 47 57 48 46 49 47 50 51 51 48 52 50 53 49 54 68 55 69 56
REMARK SMILES IDX 73 57 70 58 72 59 71 60 58 61 59 62 63 63 60 64 62 65 61 66
REMARK SMILES IDX 6 67 7 68 8 70 9 71 10 72 11 73 12 75 13 76 14 77 15 78
REMARK SMILES IDX 16 80 17 81 18 82 19 83 20 84 24 85 21 86 23 87 22 88 25 89
REMARK SMILES IDX 26 90 27 91
REMARK H PARENT 30 9 34 15 78 34 56 45 6 69 10 74 14 79
REMARK Flexibility Score: inf
ROOT
ATOM      1  C   UNL A   1      44.794  41.882  26.046  1.00  0.00     0.171 C 
ENDROOT
BRANCH   1   2
ATOM      2  C   UNL A   1      45.254  43.337  25.875  1.00  0.00     0.038 C 
BRANCH   2   3
ATOM      3  C   UNL A   1      45.855  44.070  27.090  1.00  0.00    -0.015 C 
ATOM      4  C   UNL A   1      45.891  45.586  26.891  1.00  0.00     0.007 C 
ATOM      5  C   UNL A   1      45.013  43.735  28.327  1.00  0.00     0.007 C 
ENDBRANCH   2   3
ENDBRANCH   1   2
BRANCH   1   6
ATOM      6  C   UNL A   1      43.345  41.732  25.554  1.00  0.00     0.242 C 
ATOM      7  O   UNL A   1      42.928  42.291  24.541  1.00  0.00    -0.273 OA
ATOM      8  N   UNL A   1      42.505  40.892  26.229  1.00  0.00    -0.354 N 
ATOM      9  H   UNL A   1      41.579  40.855  25.894  1.00  0.00     0.163 HD
BRANCH   8  10
ATOM     10  C   UNL A   1      42.795  40.047  27.374  1.00  0.00     0.117 C 
BRANCH  10  11
ATOM     11  C   UNL A   1      43.394  38.726  26.958  1.00  0.00     0.042 C 
BRANCH  11  12
ATOM     12  C   UNL A   1      43.526  37.762  28.116  1.00  0.00     0.118 C 
BRANCH  12  13
ATOM     13  N   UNL A   1      42.263  37.122  28.463  1.00  0.00    -0.352 N 
ATOM     14  C   UNL A   1      41.903  35.807  28.302  1.00  0.00     0.251 C 
ATOM     15  H   UNL A   1      41.581  37.707  28.864  1.00  0.00     0.163 HD
ATOM     16  O   UNL A   1      40.744  35.446  28.469  1.00  0.00    -0.269 OA
BRANCH  14  17
ATOM     17  C   UNL A   1      42.943  34.849  27.894  1.00  0.00     0.039 A 
ATOM     18  C   UNL A   1      43.238  34.697  26.541  1.00  0.00     0.014 A 
ATOM     19  C   UNL A   1      43.685  34.179  28.873  1.00  0.00     0.014 A 
ATOM     20  C   UNL A   1      44.330  33.916  26.172  1.00  0.00     0.010 A 
ATOM     21  C   UNL A   1      44.840  33.509  28.509  1.00  0.00     0.010 A 
ATOM     22  C   UNL A   1      45.160  33.350  27.155  1.00  0.00    -0.014 A 
BRANCH  22  23
ATOM     23  C   UNL A   1      46.357  32.563  26.783  1.00  0.00     0.031 A 
ATOM     24  C   UNL A   1      47.654  33.268  26.497  1.00  0.00     0.074 A 
ATOM     25  C   UNL A   1      46.261  31.225  26.658  1.00  0.00     0.049 A 
ATOM     26  N   UNL A   1      48.812  32.759  26.164  1.00  0.00    -0.248 NA
ATOM     27  C   UNL A   1      47.643  34.741  26.555  1.00  0.00     0.031 C 
ATOM     28  C   UNL A   1      45.038  30.438  26.835  1.00  0.00     0.029 A 
ATOM     29  N   UNL A   1      47.216  30.289  26.359  1.00  0.00    -0.354 N 
ATOM     30  C   UNL A   1      49.652  33.845  25.955  1.00  0.00     0.074 A 
ATOM     31  C   UNL A   1      48.858  35.039  26.129  1.00  0.00     0.031 C 
ATOM     32  C   UNL A   1      45.329  29.135  26.695  1.00  0.00     0.029 A 
ATOM     33  C   UNL A   1      46.748  28.999  26.389  1.00  0.00     0.049 A 
ATOM     34  H   UNL A   1      48.150  30.521  26.145  1.00  0.00     0.167 HD
ATOM     35  C   UNL A   1      50.976  33.850  25.678  1.00  0.00     0.031 A 
ATOM     36  C   UNL A   1      47.399  27.835  26.208  1.00  0.00     0.031 A 
ATOM     37  C   UNL A   1      51.767  32.661  25.533  1.00  0.00     0.049 A 
ATOM     38  C   UNL A   1      48.878  27.865  25.942  1.00  0.00     0.074 A 
ATOM     39  C   UNL A   1      53.128  32.549  25.315  1.00  0.00     0.029 A 
ATOM     40  N   UNL A   1      51.262  31.371  25.598  1.00  0.00    -0.354 N 
ATOM     41  N   UNL A   1      49.676  28.899  25.830  1.00  0.00    -0.248 NA
ATOM     42  C   UNL A   1      49.546  26.565  25.799  1.00  0.00     0.031 C 
ATOM     43  C   UNL A   1      53.441  31.190  25.209  1.00  0.00     0.029 A 
ATOM     44  C   UNL A   1      52.282  30.456  25.413  1.00  0.00     0.049 A 
ATOM     45  H   UNL A   1      50.317  31.141  25.754  1.00  0.00     0.167 HD
ATOM     46  C   UNL A   1      50.947  28.375  25.631  1.00  0.00     0.074 A 
ATOM     47  C   UNL A   1      50.812  26.932  25.658  1.00  0.00     0.031 C 
ATOM     48  C   UNL A   1      52.121  29.026  25.439  1.00  0.00     0.031 A 
BRANCH  35  49
ATOM     49  C   UNL A   1      51.640  35.190  25.523  1.00  0.00    -0.014 A 
ATOM     50  C   UNL A   1      51.765  35.799  24.264  1.00  0.00     0.009 A 
ATOM     51  C   UNL A   1      52.140  35.857  26.651  1.00  0.00     0.009 A 
ATOM     52  C   UNL A   1      52.412  37.029  24.132  1.00  0.00     0.001 A 
ATOM     53  C   UNL A   1      52.759  37.103  26.521  1.00  0.00     0.001 A 
ATOM     54  C   UNL A   1      52.903  37.682  25.261  1.00  0.00     0.000 A 
ENDBRANCH  35  49
BRANCH  36  55
ATOM     55  C   UNL A   1      46.670  26.547  26.325  1.00  0.00    -0.014 A 
ATOM     56  C   UNL A   1      46.597  25.881  27.559  1.00  0.00     0.009 A 
ATOM     57  C   UNL A   1      46.042  25.975  25.207  1.00  0.00     0.009 A 
ATOM     58  C   UNL A   1      45.937  24.655  27.664  1.00  0.00     0.001 A 
ATOM     59  C   UNL A   1      45.359  24.762  25.322  1.00  0.00     0.001 A 
ATOM     60  C   UNL A   1      45.315  24.098  26.548  1.00  0.00     0.000 A 
ENDBRANCH  36  55
BRANCH  48  61
ATOM     61  C   UNL A   1      53.348  28.177  25.279  1.00  0.00    -0.014 A 
ATOM     62  C   UNL A   1      53.810  27.793  24.010  1.00  0.00     0.009 A 
ATOM     63  C   UNL A   1      54.063  27.771  26.417  1.00  0.00     0.009 A 
ATOM     64  C   UNL A   1      54.938  26.983  23.887  1.00  0.00     0.001 A 
ATOM     65  C   UNL A   1      55.210  26.987  26.289  1.00  0.00     0.001 A 
ATOM     66  C   UNL A   1      55.638  26.583  25.025  1.00  0.00     0.000 A 
ENDBRANCH  48  61
ENDBRANCH  22  23
ENDBRANCH  14  17
ENDBRANCH  12  13
ENDBRANCH  11  12
ENDBRANCH  10  11
ENDBRANCH   8  10
ENDBRANCH   1   6
BRANCH   1  67
ATOM     67  N   UNL A   1      45.575  40.858  25.315  1.00  0.00    -0.343 N 
ATOM     68  C   UNL A   1      46.481  40.792  24.318  1.00  0.00     0.240 C 
ATOM     69  H   UNL A   1      45.374  39.958  25.661  1.00  0.00     0.164 HD
ATOM     70  O   UNL A   1      46.999  39.677  24.156  1.00  0.00    -0.273 OA
BRANCH  68  71
ATOM     71  C   UNL A   1      46.986  41.965  23.475  1.00  0.00     0.216 C 
BRANCH  71  72
ATOM     72  N   UNL A   1      47.000  41.812  22.039  1.00  0.00    -0.345 N 
ATOM     73  C   UNL A   1      46.327  42.442  21.045  1.00  0.00     0.243 C 
ATOM     74  H   UNL A   1      47.619  41.116  21.721  1.00  0.00     0.164 HD
ATOM     75  O   UNL A   1      46.715  42.189  19.898  1.00  0.00    -0.273 OA
BRANCH  73  76
ATOM     76  C   UNL A   1      45.156  43.450  21.263  1.00  0.00     0.177 C 
BRANCH  76  77
ATOM     77  N   UNL A   1      43.885  42.815  21.641  1.00  0.00    -0.309 N 
ATOM     78  C   UNL A   1      42.699  42.651  21.007  1.00  0.00     0.408 C 
ATOM     79  H   UNL A   1      43.898  42.428  22.547  1.00  0.00     0.167 HD
ATOM     80  O   UNL A   1      41.692  42.383  21.649  1.00  0.00    -0.225 OA
BRANCH  78  81
ATOM     81  O   UNL A   1      42.763  42.765  19.666  1.00  0.00    -0.445 OA
BRANCH  81  82
ATOM     82  C   UNL A   1      41.737  43.576  19.074  1.00  0.00     0.270 C 
BRANCH  82  83
ATOM     83  C   UNL A   1      42.218  44.803  18.320  1.00  0.00    -0.011 A 
ATOM     84  C   UNL A   1      41.535  45.179  17.154  1.00  0.00     0.007 A 
ATOM     85  C   UNL A   1      43.346  45.550  18.695  1.00  0.00     0.007 A 
ATOM     86  C   UNL A   1      41.986  46.246  16.373  1.00  0.00     0.000 A 
ATOM     87  C   UNL A   1      43.809  46.602  17.904  1.00  0.00     0.000 A 
ATOM     88  C   UNL A   1      43.131  46.949  16.742  1.00  0.00     0.000 A 
ENDBRANCH  82  83
ENDBRANCH  81  82
ENDBRANCH  78  81
ENDBRANCH  76  77
BRANCH  76  89
ATOM     89  C   UNL A   1      45.578  44.714  22.040  1.00  0.00     0.015 C 
ATOM     90  C   UNL A   1      46.001  45.848  21.093  1.00  0.00     0.010 C 
ATOM     91  C   UNL A   1      44.421  45.243  22.899  1.00  0.00     0.010 C 
ENDBRANCH  76  89
ENDBRANCH  73  76
ENDBRANCH  71  72
ENDBRANCH  68  71
ENDBRANCH   1  67
TORSDOF 21
ENDMDL
MODEL 3
REMARK VINA RESULT:      -6.8      6.550     13.126
REMARK SMILES CC(C)C[C@H](NC(=O)CNC(=O)[C@@H](NC(=O)OCc1ccccc1)C(C)C)C(=O)NCCCNC(=O)c1ccc(-c2c3nc(c(-c4ccccc4)c4ccc([nH]4)c(-c4ccccc4)c4nc(c(-c5ccccc5)c5ccc2[nH]5)C=C4)C=C3)cc1
REMARK SMILES IDX 5 1 4 2 2 3 1 4 3 5 28 6 29 7 30 8 31 10 32 11 33 12 34 13
REMARK SMILES IDX 35 14 36 16 37 17 38 18 84 19 39 20 83 21 40 22 41 23 42 24
REMARK SMILES IDX 77 25 43 26 82 27 76 28 78 29 44 30 81 31 75 32 74 33 45 35
REMARK SMILES IDX 67 36 52 37 66 38 53 39 56 40 65 41 79 42 54 43 55 44 64 46
REMARK SMILES IDX 80 47 57 48 46 49 47 50 51 51 48 52 50 53 49 54 68 55 69 56
REMARK SMILES IDX 73 57 70 58 72 59 71 60 58 61 59 62 63 63 60 64 62 65 61 66
REMARK SMILES IDX 6 67 7 68 8 70 9 71 10 72 11 73 12 75 13 76 14 77 15 78
REMARK SMILES IDX 16 80 17 81 18 82 19 83 20 84 24 85 21 86 23 87 22 88 25 89
REMARK SMILES IDX 26 90 27 91
REMARK H PARENT 30 9 34 15 78 34 56 45 6 69 10 74 14 79
REMARK Flexibility Score: inf
ROOT
ATOM      1  C   UNL A   1      44.677  40.149  27.670  1.00  0.00     0.171 C 
ENDROOT
BRANCH   1   2
ATOM      2  C   UNL A   1      43.306  39.499  27.906  1.00  0.00     0.038 C 
BRANCH   2   3
ATOM      3  C   UNL A   1      42.039  40.273  27.493  1.00  0.00    -0.015 C 
ATOM      4  C   UNL A   1      41.292  39.590  26.347  1.00  0.00     0.007 C 
ATOM      5  C   UNL A   1      41.116  40.382  28.713  1.00  0.00     0.007 C 
ENDBRANCH   2   3
ENDBRANCH   1   2
BRANCH   1   6
ATOM      6  C   UNL A   1      45.067  40.023  26.189  1.00  0.00     0.242 C 
ATOM      7  O   UNL A   1      44.836  40.906  25.365  1.00  0.00    -0.273 OA
ATOM      8  N   UNL A   1      45.757  38.916  25.782  1.00  0.00    -0.354 N 
ATOM      9  H   UNL A   1      45.955  38.867  24.819  1.00  0.00     0.163 HD
BRANCH   8  10
ATOM     10  C   UNL A   1      46.236  37.803  26.582  1.00  0.00     0.117 C 
BRANCH  10  11
ATOM     11  C   UNL A   1      47.127  36.882  25.783  1.00  0.00     0.042 C 
BRANCH  11  12
ATOM     12  C   UNL A   1      46.835  35.422  26.050  1.00  0.00     0.118 C 
BRANCH  12  13
ATOM     13  N   UNL A   1      46.023  34.810  25.004  1.00  0.00    -0.352 N 
ATOM     14  C   UNL A   1      44.812  34.175  25.129  1.00  0.00     0.251 C 
ATOM     15  H   UNL A   1      46.389  34.860  24.092  1.00  0.00     0.163 HD
ATOM     16  O   UNL A   1      44.330  33.548  24.194  1.00  0.00    -0.269 OA
BRANCH  14  17
ATOM     17  C   UNL A   1      44.124  34.244  26.429  1.00  0.00     0.039 A 
ATOM     18  C   UNL A   1      44.306  33.217  27.351  1.00  0.00     0.014 A 
ATOM     19  C   UNL A   1      43.380  35.382  26.754  1.00  0.00     0.014 A 
ATOM     20  C   UNL A   1      43.788  33.365  28.636  1.00  0.00     0.010 A 
ATOM     21  C   UNL A   1      42.977  35.579  28.063  1.00  0.00     0.010 A 
ATOM     22  C   UNL A   1      43.155  34.563  29.010  1.00  0.00    -0.014 A 
BRANCH  22  23
ATOM     23  C   UNL A   1      42.648  34.761  30.387  1.00  0.00     0.031 A 
ATOM     24  C   UNL A   1      41.225  34.406  30.716  1.00  0.00     0.074 A 
ATOM     25  C   UNL A   1      43.455  35.302  31.321  1.00  0.00     0.049 A 
ATOM     26  N   UNL A   1      40.597  34.498  31.860  1.00  0.00    -0.248 NA
ATOM     27  C   UNL A   1      40.383  33.918  29.609  1.00  0.00     0.031 C 
ATOM     28  C   UNL A   1      44.830  35.757  31.099  1.00  0.00     0.029 A 
ATOM     29  N   UNL A   1      43.233  35.553  32.649  1.00  0.00    -0.354 N 
ATOM     30  C   UNL A   1      39.291  34.102  31.603  1.00  0.00     0.074 A 
ATOM     31  C   UNL A   1      39.196  33.837  30.186  1.00  0.00     0.031 C 
ATOM     32  C   UNL A   1      45.346  36.180  32.264  1.00  0.00     0.029 A 
ATOM     33  C   UNL A   1      44.330  36.056  33.304  1.00  0.00     0.049 A 
ATOM     34  H   UNL A   1      42.369  35.387  33.092  1.00  0.00     0.167 HD
ATOM     35  C   UNL A   1      38.268  33.940  32.474  1.00  0.00     0.031 A 
ATOM     36  C   UNL A   1      44.501  36.364  34.602  1.00  0.00     0.031 A 
ATOM     37  C   UNL A   1      38.374  34.178  33.885  1.00  0.00     0.049 A 
ATOM     38  C   UNL A   1      43.363  36.136  35.557  1.00  0.00     0.074 A 
ATOM     39  C   UNL A   1      37.421  33.986  34.869  1.00  0.00     0.029 A 
ATOM     40  N   UNL A   1      39.512  34.661  34.515  1.00  0.00    -0.354 N 
ATOM     41  N   UNL A   1      42.159  35.680  35.313  1.00  0.00    -0.248 NA
ATOM     42  C   UNL A   1      43.620  36.444  36.970  1.00  0.00     0.031 C 
ATOM     43  C   UNL A   1      37.971  34.389  36.090  1.00  0.00     0.029 A 
ATOM     44  C   UNL A   1      39.282  34.784  35.873  1.00  0.00     0.049 A 
ATOM     45  H   UNL A   1      40.358  34.882  34.062  1.00  0.00     0.167 HD
ATOM     46  C   UNL A   1      41.520  35.622  36.545  1.00  0.00     0.074 A 
ATOM     47  C   UNL A   1      42.481  36.069  37.534  1.00  0.00     0.031 C 
ATOM     48  C   UNL A   1      40.253  35.236  36.835  1.00  0.00     0.031 A 
BRANCH  35  49
ATOM     49  C   UNL A   1      36.954  33.474  31.911  1.00  0.00    -0.014 A 
ATOM     50  C   UNL A   1      36.698  32.110  31.693  1.00  0.00     0.009 A 
ATOM     51  C   UNL A   1      35.955  34.409  31.602  1.00  0.00     0.009 A 
ATOM     52  C   UNL A   1      35.485  31.696  31.140  1.00  0.00     0.001 A 
ATOM     53  C   UNL A   1      34.730  33.989  31.078  1.00  0.00     0.001 A 
ATOM     54  C   UNL A   1      34.501  32.635  30.838  1.00  0.00     0.000 A 
ENDBRANCH  35  49
BRANCH  36  55
ATOM     55  C   UNL A   1      45.813  36.869  35.083  1.00  0.00    -0.014 A 
ATOM     56  C   UNL A   1      46.083  38.246  35.091  1.00  0.00     0.009 A 
ATOM     57  C   UNL A   1      46.800  35.980  35.536  1.00  0.00     0.009 A 
ATOM     58  C   UNL A   1      47.326  38.721  35.515  1.00  0.00     0.001 A 
ATOM     59  C   UNL A   1      48.032  36.461  35.986  1.00  0.00     0.001 A 
ATOM     60  C   UNL A   1      48.298  37.830  35.966  1.00  0.00     0.000 A 
ENDBRANCH  36  55
BRANCH  48  61
ATOM     61  C   UNL A   1      39.854  35.251  38.282  1.00  0.00    -0.014 A 
ATOM     62  C   UNL A   1      39.366  36.418  38.891  1.00  0.00     0.009 A 
ATOM     63  C   UNL A   1      39.952  34.075  39.040  1.00  0.00     0.009 A 
ATOM     64  C   UNL A   1      39.025  36.416  40.244  1.00  0.00     0.001 A 
ATOM     65  C   UNL A   1      39.580  34.067  40.385  1.00  0.00     0.001 A 
ATOM     66  C   UNL A   1      39.130  35.240  40.988  1.00  0.00     0.000 A 
ENDBRANCH  48  61
ENDBRANCH  22  23
ENDBRANCH  14  17
ENDBRANCH  12  13
ENDBRANCH  11  12
ENDBRANCH  10  11
ENDBRANCH   8  10
ENDBRANCH   1   6
BRANCH   1  67
ATOM     67  N   UNL A   1      44.782  41.591  27.993  1.00  0.00    -0.343 N 
ATOM     68  C   UNL A   1      45.738  42.505  28.259  1.00  0.00     0.240 C 
ATOM     69  H   UNL A   1      43.889  42.005  28.019  1.00  0.00     0.164 HD
ATOM     70  O   UNL A   1      45.340  43.678  28.306  1.00  0.00    -0.273 OA
BRANCH  68  71
ATOM     71  C   UNL A   1      47.239  42.234  28.391  1.00  0.00     0.216 C 
BRANCH  71  72
ATOM     72  N   UNL A   1      48.000  43.060  29.298  1.00  0.00    -0.345 N 
ATOM     73  C   UNL A   1      48.118  43.068  30.648  1.00  0.00     0.243 C 
ATOM     74  H   UNL A   1      48.539  43.750  28.848  1.00  0.00     0.164 HD
ATOM     75  O   UNL A   1      49.007  43.801  31.099  1.00  0.00    -0.273 OA
BRANCH  73  76
ATOM     76  C   UNL A   1      47.246  42.217  31.623  1.00  0.00     0.177 C 
BRANCH  76  77
ATOM     77  N   UNL A   1      47.550  40.778  31.593  1.00  0.00    -0.309 N 
ATOM     78  C   UNL A   1      46.796  39.668  31.408  1.00  0.00     0.408 C 
ATOM     79  H   UNL A   1      48.504  40.580  31.740  1.00  0.00     0.167 HD
ATOM     80  O   UNL A   1      47.219  38.573  31.756  1.00  0.00    -0.225 OA
BRANCH  78  81
ATOM     81  O   UNL A   1      45.618  39.891  30.794  1.00  0.00    -0.445 OA
BRANCH  81  82
ATOM     82  C   UNL A   1      44.455  39.546  31.562  1.00  0.00     0.270 C 
BRANCH  82  83
ATOM     83  C   UNL A   1      43.626  40.715  32.064  1.00  0.00    -0.011 A 
ATOM     84  C   UNL A   1      43.430  41.809  31.208  1.00  0.00     0.007 A 
ATOM     85  C   UNL A   1      43.093  40.787  33.360  1.00  0.00     0.007 A 
ATOM     86  C   UNL A   1      42.750  42.949  31.646  1.00  0.00     0.000 A 
ATOM     87  C   UNL A   1      42.433  41.933  33.806  1.00  0.00     0.000 A 
ATOM     88  C   UNL A   1      42.263  43.015  32.950  1.00  0.00     0.000 A 
ENDBRANCH  82  83
ENDBRANCH  81  82
ENDBRANCH  78  81
ENDBRANCH  76  77
BRANCH  76  89
ATOM     89  C   UNL A   1      47.060  42.876  33.004  1.00  0.00     0.015 C 
ATOM     90  C   UNL A   1      45.950  43.938  32.982  1.00  0.00     0.010 C 
ATOM     91  C   UNL A   1      46.673  41.833  34.063  1.00  0.00     0.010 C 
ENDBRANCH  76  89
ENDBRANCH  73  76
ENDBRANCH  71  72
ENDBRANCH  68  71
ENDBRANCH   1  67
TORSDOF 21
ENDMDL
