MODEL 1
REMARK VINA RESULT:     -12.5      0.000      0.000
REMARK SMILES Cc1cccc(S(=O)(=O)Nc2cc(C(=O)NCCCNC(=O)c3ccc(-c4c5nc(c(-c6ccccc6)c6ccc([nH]6)c(-c6ccccc6)c6nc(c(-c7ccccc7)c7ccc4[nH]7)C=C6)C=C5)cc3)ccc2N2CCC[C@H](C[NH+]3CCCC3)C2)c1
REMARK SMILES IDX 17 1 16 2 14 3 15 4 13 6 11 7 12 8 73 9 72 10 71 11 10 12
REMARK SMILES IDX 7 14 8 15 9 16 6 17 1 18 2 19 3 20 86 21 4 22 5 23 74 24
REMARK SMILES IDX 75 25 85 26 76 27 78 28 77 29 79 30 80 31 81 32 84 33 82 35
REMARK SMILES IDX 83 36 18 37 19 38 20 39 21 40 22 42 23 43 24 44 70 45 25 46
REMARK SMILES IDX 69 47 26 48 27 49 28 50 63 51 29 52 68 53 62 54 64 55 30 56
REMARK SMILES IDX 67 57 61 58 60 59 31 61 53 62 38 63 52 64 39 65 42 66 51 67
REMARK SMILES IDX 65 68 40 69 41 70 50 72 66 73 43 74 32 75 33 76 37 77 34 78
REMARK SMILES IDX 36 79 35 80 54 81 55 82 59 83 56 84 58 85 57 86 44 87 45 88
REMARK SMILES IDX 49 89 46 90 48 91 47 92
REMARK H PARENT 16 5 10 13 80 34 20 41 64 60 42 71
REMARK Flexibility Score: inf
ROOT
ATOM      1  C   UNL A   1      34.793  30.869  28.007  1.00  0.00     0.118 C 
ENDROOT
BRANCH   1   2
ATOM      2  N   UNL A   1      33.562  31.484  27.526  1.00  0.00    -0.352 N 
ATOM      3  C   UNL A   1      32.419  30.951  26.969  1.00  0.00     0.251 C 
ATOM      4  O   UNL A   1      31.460  31.703  26.794  1.00  0.00    -0.269 OA
ATOM      5  H   UNL A   1      33.542  32.464  27.619  1.00  0.00     0.163 HD
BRANCH   3   6
ATOM      6  C   UNL A   1      32.267  29.511  26.603  1.00  0.00     0.042 A 
ATOM      7  C   UNL A   1      32.598  27.617  25.125  1.00  0.00     0.073 A 
ATOM      8  C   UNL A   1      32.615  28.985  25.366  1.00  0.00     0.042 A 
ATOM      9  C   UNL A   1      32.044  26.724  26.055  1.00  0.00     0.061 A 
ATOM     10  C   UNL A   1      31.604  27.261  27.272  1.00  0.00     0.029 A 
ATOM     11  C   UNL A   1      31.742  28.628  27.557  1.00  0.00     0.016 A 
BRANCH   7  12
ATOM     12  N   UNL A   1      33.150  27.134  23.907  1.00  0.00    -0.277 N 
ATOM     13  H   UNL A   1      33.941  26.550  23.948  1.00  0.00     0.180 HD
BRANCH  12  14
ATOM     14  S   UNL A   1      32.509  27.520  22.393  1.00  0.00     0.261 S 
ATOM     15  O   UNL A   1      32.407  26.236  21.701  1.00  0.00    -0.201 OA
ATOM     16  O   UNL A   1      33.350  28.562  21.872  1.00  0.00    -0.201 OA
BRANCH  14  17
ATOM     17  C   UNL A   1      30.843  28.174  22.417  1.00  0.00     0.088 A 
ATOM     18  C   UNL A   1      28.874  31.409  22.050  1.00  0.00     0.044 C 
ATOM     19  C   UNL A   1      29.201  29.959  22.272  1.00  0.00    -0.050 A 
ATOM     20  C   UNL A   1      28.247  29.132  22.879  1.00  0.00     0.003 A 
ATOM     21  C   UNL A   1      30.478  29.446  21.970  1.00  0.00     0.025 A 
ATOM     22  C   UNL A   1      28.572  27.824  23.225  1.00  0.00     0.002 A 
ATOM     23  C   UNL A   1      29.871  27.358  23.021  1.00  0.00     0.022 A 
ENDBRANCH  14  17
ENDBRANCH  12  14
ENDBRANCH   7  12
BRANCH   9  24
ATOM     24  N   UNL A   1      31.893  25.370  25.813  1.00  0.00    -0.369 N 
ATOM     25  C   UNL A   1      30.633  24.747  26.215  1.00  0.00     0.116 C 
ATOM     26  C   UNL A   1      32.754  24.630  24.893  1.00  0.00     0.126 C 
ATOM     27  C   UNL A   1      30.916  23.370  26.807  1.00  0.00     0.022 C 
ATOM     28  C   UNL A   1      33.114  23.264  25.505  1.00  0.00     0.064 C 
ATOM     29  C   UNL A   1      31.806  22.540  25.880  1.00  0.00     0.013 C 
BRANCH  28  30
ATOM     30  C   UNL A   1      34.125  23.483  26.660  1.00  0.00     0.267 C 
BRANCH  30  31
ATOM     31  N   UNL A   1      35.466  22.900  26.580  1.00  0.00    -0.335 N 
ATOM     32  C   UNL A   1      36.470  23.721  25.909  1.00  0.00     0.262 C 
ATOM     33  C   UNL A   1      35.549  21.549  26.034  1.00  0.00     0.262 C 
ATOM     34  H   UNL A   1      35.685  22.856  27.575  1.00  0.00     0.348 HD
ATOM     35  C   UNL A   1      36.618  23.116  24.528  1.00  0.00     0.067 C 
ATOM     36  C   UNL A   1      36.369  21.636  24.752  1.00  0.00     0.067 C 
ENDBRANCH  30  31
ENDBRANCH  28  30
ENDBRANCH   9  24
ENDBRANCH   3   6
ENDBRANCH   1   2
BRANCH   1  37
ATOM     37  C   UNL A   1      35.191  31.346  29.403  1.00  0.00     0.042 C 
BRANCH  37  38
ATOM     38  C   UNL A   1      35.263  32.848  29.536  1.00  0.00     0.118 C 
BRANCH  38  39
ATOM     39  N   UNL A   1      34.205  33.438  30.353  1.00  0.00    -0.352 N 
ATOM     40  C   UNL A   1      34.319  33.895  31.658  1.00  0.00     0.251 C 
ATOM     41  H   UNL A   1      33.318  33.521  29.934  1.00  0.00     0.163 HD
ATOM     42  O   UNL A   1      33.381  34.417  32.244  1.00  0.00    -0.269 OA
BRANCH  40  43
ATOM     43  C   UNL A   1      35.666  33.854  32.270  1.00  0.00     0.039 A 
ATOM     44  C   UNL A   1      36.623  34.713  31.730  1.00  0.00     0.014 A 
ATOM     45  C   UNL A   1      36.037  32.730  33.004  1.00  0.00     0.014 A 
ATOM     46  C   UNL A   1      37.944  34.286  31.671  1.00  0.00     0.010 A 
ATOM     47  C   UNL A   1      37.321  32.250  32.838  1.00  0.00     0.010 A 
ATOM     48  C   UNL A   1      38.252  32.995  32.106  1.00  0.00    -0.014 A 
BRANCH  48  49
ATOM     49  C   UNL A   1      39.514  32.342  31.781  1.00  0.00     0.031 A 
ATOM     50  C   UNL A   1      39.493  31.188  30.865  1.00  0.00     0.074 A 
ATOM     51  C   UNL A   1      40.684  32.745  32.328  1.00  0.00     0.049 A 
ATOM     52  N   UNL A   1      40.290  30.176  30.942  1.00  0.00    -0.248 NA
ATOM     53  C   UNL A   1      38.492  31.065  29.812  1.00  0.00     0.031 C 
ATOM     54  C   UNL A   1      42.023  32.259  31.996  1.00  0.00     0.029 A 
ATOM     55  N   UNL A   1      40.881  33.508  33.480  1.00  0.00    -0.354 N 
ATOM     56  C   UNL A   1      40.118  29.444  29.789  1.00  0.00     0.074 A 
ATOM     57  C   UNL A   1      38.926  29.976  29.174  1.00  0.00     0.031 C 
ATOM     58  C   UNL A   1      42.820  32.443  33.062  1.00  0.00     0.029 A 
ATOM     59  C   UNL A   1      41.990  32.949  34.141  1.00  0.00     0.049 A 
ATOM     60  H   UNL A   1      40.350  34.284  33.771  1.00  0.00     0.167 HD
ATOM     61  C   UNL A   1      41.088  28.573  29.388  1.00  0.00     0.031 A 
ATOM     62  C   UNL A   1      41.936  32.446  35.409  1.00  0.00     0.031 A 
ATOM     63  C   UNL A   1      42.162  28.464  30.374  1.00  0.00     0.049 A 
ATOM     64  C   UNL A   1      42.310  30.978  35.475  1.00  0.00     0.074 A 
ATOM     65  C   UNL A   1      43.420  29.036  30.461  1.00  0.00     0.029 A 
ATOM     66  N   UNL A   1      41.884  27.933  31.629  1.00  0.00    -0.354 N 
ATOM     67  N   UNL A   1      42.410  30.208  34.427  1.00  0.00    -0.248 NA
ATOM     68  C   UNL A   1      42.520  30.246  36.723  1.00  0.00     0.031 C 
ATOM     69  C   UNL A   1      43.856  28.934  31.808  1.00  0.00     0.029 A 
ATOM     70  C   UNL A   1      42.877  28.272  32.529  1.00  0.00     0.049 A 
ATOM     71  H   UNL A   1      41.091  27.391  31.846  1.00  0.00     0.167 HD
ATOM     72  C   UNL A   1      42.661  28.922  34.824  1.00  0.00     0.074 A 
ATOM     73  C   UNL A   1      42.738  28.998  36.272  1.00  0.00     0.031 C 
ATOM     74  C   UNL A   1      42.763  27.895  33.932  1.00  0.00     0.031 A 
BRANCH  61  75
ATOM     75  C   UNL A   1      41.199  28.106  27.955  1.00  0.00    -0.014 A 
ATOM     76  C   UNL A   1      40.792  26.804  27.614  1.00  0.00     0.009 A 
ATOM     77  C   UNL A   1      41.766  28.862  26.915  1.00  0.00     0.009 A 
ATOM     78  C   UNL A   1      41.041  26.254  26.348  1.00  0.00     0.001 A 
ATOM     79  C   UNL A   1      42.064  28.307  25.662  1.00  0.00     0.001 A 
ATOM     80  C   UNL A   1      41.712  26.995  25.383  1.00  0.00     0.000 A 
ENDBRANCH  61  75
BRANCH  62  81
ATOM     81  C   UNL A   1      40.903  33.096  36.263  1.00  0.00    -0.014 A 
ATOM     82  C   UNL A   1      39.641  32.471  36.351  1.00  0.00     0.009 A 
ATOM     83  C   UNL A   1      41.273  34.007  37.261  1.00  0.00     0.009 A 
ATOM     84  C   UNL A   1      38.846  32.627  37.489  1.00  0.00     0.001 A 
ATOM     85  C   UNL A   1      40.459  34.177  38.388  1.00  0.00     0.001 A 
ATOM     86  C   UNL A   1      39.276  33.451  38.524  1.00  0.00     0.000 A 
ENDBRANCH  62  81
BRANCH  74  87
ATOM     87  C   UNL A   1      42.841  26.438  34.300  1.00  0.00    -0.014 A 
ATOM     88  C   UNL A   1      43.936  25.615  34.004  1.00  0.00     0.009 A 
ATOM     89  C   UNL A   1      41.818  25.881  35.097  1.00  0.00     0.009 A 
ATOM     90  C   UNL A   1      43.979  24.282  34.433  1.00  0.00     0.001 A 
ATOM     91  C   UNL A   1      41.876  24.565  35.561  1.00  0.00     0.001 A 
ATOM     92  C   UNL A   1      42.953  23.759  35.215  1.00  0.00     0.000 A 
ENDBRANCH  74  87
ENDBRANCH  48  49
ENDBRANCH  40  43
ENDBRANCH  38  39
ENDBRANCH  37  38
ENDBRANCH   1  37
TORSDOF 16
ENDMDL
MODEL 2
REMARK VINA RESULT:     -11.9      4.138      9.867
REMARK SMILES Cc1cccc(S(=O)(=O)Nc2cc(C(=O)NCCCNC(=O)c3ccc(-c4c5nc(c(-c6ccccc6)c6ccc([nH]6)c(-c6ccccc6)c6nc(c(-c7ccccc7)c7ccc4[nH]7)C=C6)C=C5)cc3)ccc2N2CCC[C@H](C[NH+]3CCCC3)C2)c1
REMARK SMILES IDX 17 1 16 2 14 3 15 4 13 6 11 7 12 8 73 9 72 10 71 11 10 12
REMARK SMILES IDX 7 14 8 15 9 16 6 17 1 18 2 19 3 20 86 21 4 22 5 23 74 24
REMARK SMILES IDX 75 25 85 26 76 27 78 28 77 29 79 30 80 31 81 32 84 33 82 35
REMARK SMILES IDX 83 36 18 37 19 38 20 39 21 40 22 42 23 43 24 44 70 45 25 46
REMARK SMILES IDX 69 47 26 48 27 49 28 50 63 51 29 52 68 53 62 54 64 55 30 56
REMARK SMILES IDX 67 57 61 58 60 59 31 61 53 62 38 63 52 64 39 65 42 66 51 67
REMARK SMILES IDX 65 68 40 69 41 70 50 72 66 73 43 74 32 75 33 76 37 77 34 78
REMARK SMILES IDX 36 79 35 80 54 81 55 82 59 83 56 84 58 85 57 86 44 87 45 88
REMARK SMILES IDX 49 89 46 90 48 91 47 92
REMARK H PARENT 16 5 10 13 80 34 20 41 64 60 42 71
REMARK Flexibility Score: inf
ROOT
ATOM      1  C   UNL A   1      38.527  20.615  25.234  1.00  0.00     0.118 C 
ENDROOT
BRANCH   1   2
ATOM      2  N   UNL A   1      38.857  21.880  25.879  1.00  0.00    -0.352 N 
ATOM      3  C   UNL A   1      38.117  23.020  26.109  1.00  0.00     0.251 C 
ATOM      4  O   UNL A   1      38.614  23.893  26.822  1.00  0.00    -0.269 OA
ATOM      5  H   UNL A   1      39.782  21.928  26.213  1.00  0.00     0.163 HD
BRANCH   3   6
ATOM      6  C   UNL A   1      36.738  23.238  25.578  1.00  0.00     0.042 A 
ATOM      7  C   UNL A   1      34.639  22.455  24.649  1.00  0.00     0.073 A 
ATOM      8  C   UNL A   1      35.970  22.243  24.989  1.00  0.00     0.042 A 
ATOM      9  C   UNL A   1      34.072  23.737  24.706  1.00  0.00     0.061 A 
ATOM     10  C   UNL A   1      34.874  24.767  25.215  1.00  0.00     0.029 A 
ATOM     11  C   UNL A   1      36.176  24.518  25.674  1.00  0.00     0.016 A 
BRANCH   7  12
ATOM     12  N   UNL A   1      33.859  21.343  24.232  1.00  0.00    -0.277 N 
ATOM     13  H   UNL A   1      33.764  21.170  23.268  1.00  0.00     0.180 HD
BRANCH  12  14
ATOM     14  S   UNL A   1      33.085  20.305  25.317  1.00  0.00     0.261 S 
ATOM     15  O   UNL A   1      31.660  20.487  25.046  1.00  0.00    -0.201 OA
ATOM     16  O   UNL A   1      33.627  20.624  26.610  1.00  0.00    -0.201 OA
BRANCH  14  17
ATOM     17  C   UNL A   1      33.394  18.562  25.053  1.00  0.00     0.088 A 
ATOM     18  C   UNL A   1      32.078  15.103  25.937  1.00  0.00     0.044 C 
ATOM     19  C   UNL A   1      32.930  16.197  25.356  1.00  0.00    -0.050 A 
ATOM     20  C   UNL A   1      34.217  15.885  24.897  1.00  0.00     0.003 A 
ATOM     21  C   UNL A   1      32.495  17.537  25.355  1.00  0.00     0.025 A 
ATOM     22  C   UNL A   1      35.080  16.896  24.487  1.00  0.00     0.002 A 
ATOM     23  C   UNL A   1      34.680  18.229  24.591  1.00  0.00     0.022 A 
ENDBRANCH  14  17
ENDBRANCH  12  14
ENDBRANCH   7  12
BRANCH   9  24
ATOM     24  N   UNL A   1      32.792  24.024  24.266  1.00  0.00    -0.369 N 
ATOM     25  C   UNL A   1      32.492  23.784  22.856  1.00  0.00     0.116 C 
ATOM     26  C   UNL A   1      31.667  24.213  25.179  1.00  0.00     0.126 C 
ATOM     27  C   UNL A   1      31.615  24.915  22.327  1.00  0.00     0.022 C 
ATOM     28  C   UNL A   1      30.809  25.399  24.705  1.00  0.00     0.064 C 
ATOM     29  C   UNL A   1      30.408  25.153  23.237  1.00  0.00     0.013 C 
BRANCH  28  30
ATOM     30  C   UNL A   1      31.575  26.718  24.989  1.00  0.00     0.267 C 
BRANCH  30  31
ATOM     31  N   UNL A   1      32.199  26.935  26.295  1.00  0.00    -0.335 N 
ATOM     32  C   UNL A   1      31.349  27.558  27.304  1.00  0.00     0.262 C 
ATOM     33  C   UNL A   1      33.479  27.636  26.287  1.00  0.00     0.262 C 
ATOM     34  H   UNL A   1      32.369  25.964  26.558  1.00  0.00     0.348 HD
ATOM     35  C   UNL A   1      31.793  29.005  27.358  1.00  0.00     0.067 C 
ATOM     36  C   UNL A   1      33.277  28.941  27.049  1.00  0.00     0.067 C 
ENDBRANCH  30  31
ENDBRANCH  28  30
ENDBRANCH   9  24
ENDBRANCH   3   6
ENDBRANCH   1   2
BRANCH   1  37
ATOM     37  C   UNL A   1      39.662  19.594  25.312  1.00  0.00     0.042 C 
BRANCH  37  38
ATOM     38  C   UNL A   1      40.604  19.819  26.469  1.00  0.00     0.118 C 
BRANCH  38  39
ATOM     39  N   UNL A   1      41.987  20.092  26.083  1.00  0.00    -0.352 N 
ATOM     40  C   UNL A   1      42.632  21.320  26.117  1.00  0.00     0.251 C 
ATOM     41  H   UNL A   1      42.517  19.326  25.766  1.00  0.00     0.163 HD
ATOM     42  O   UNL A   1      43.812  21.439  25.815  1.00  0.00    -0.269 OA
BRANCH  40  43
ATOM     43  C   UNL A   1      41.874  22.464  26.671  1.00  0.00     0.039 A 
ATOM     44  C   UNL A   1      41.958  23.667  25.971  1.00  0.00     0.014 A 
ATOM     45  C   UNL A   1      41.498  22.434  28.013  1.00  0.00     0.014 A 
ATOM     46  C   UNL A   1      41.955  24.857  26.688  1.00  0.00     0.010 A 
ATOM     47  C   UNL A   1      41.618  23.602  28.739  1.00  0.00     0.010 A 
ATOM     48  C   UNL A   1      41.922  24.800  28.082  1.00  0.00    -0.014 A 
BRANCH  48  49
ATOM     49  C   UNL A   1      42.251  25.949  28.919  1.00  0.00     0.031 A 
ATOM     50  C   UNL A   1      41.217  26.976  29.138  1.00  0.00     0.074 A 
ATOM     51  C   UNL A   1      43.481  26.108  29.457  1.00  0.00     0.049 A 
ATOM     52  N   UNL A   1      41.454  28.237  29.277  1.00  0.00    -0.248 NA
ATOM     53  C   UNL A   1      39.797  26.645  29.144  1.00  0.00     0.031 C 
ATOM     54  C   UNL A   1      43.899  27.140  30.405  1.00  0.00     0.029 A 
ATOM     55  N   UNL A   1      44.678  25.508  29.066  1.00  0.00    -0.354 N 
ATOM     56  C   UNL A   1      40.279  28.820  29.696  1.00  0.00     0.074 A 
ATOM     57  C   UNL A   1      39.263  27.815  29.499  1.00  0.00     0.031 C 
ATOM     58  C   UNL A   1      45.224  27.327  30.275  1.00  0.00     0.029 A 
ATOM     59  C   UNL A   1      45.671  26.499  29.168  1.00  0.00     0.049 A 
ATOM     60  H   UNL A   1      44.804  24.575  28.777  1.00  0.00     0.167 HD
ATOM     61  C   UNL A   1      40.310  30.033  30.318  1.00  0.00     0.031 A 
ATOM     62  C   UNL A   1      46.426  26.921  28.112  1.00  0.00     0.031 A 
ATOM     63  C   UNL A   1      41.655  30.605  30.329  1.00  0.00     0.049 A 
ATOM     64  C   UNL A   1      46.265  28.401  27.828  1.00  0.00     0.074 A 
ATOM     65  C   UNL A   1      42.649  30.654  31.292  1.00  0.00     0.029 A 
ATOM     66  N   UNL A   1      42.257  30.952  29.124  1.00  0.00    -0.354 N 
ATOM     67  N   UNL A   1      45.321  29.139  28.344  1.00  0.00    -0.248 NA
ATOM     68  C   UNL A   1      47.097  29.146  26.884  1.00  0.00     0.031 C 
ATOM     69  C   UNL A   1      43.878  30.934  30.639  1.00  0.00     0.029 A 
ATOM     70  C   UNL A   1      43.623  31.088  29.288  1.00  0.00     0.049 A 
ATOM     71  H   UNL A   1      41.778  31.083  28.274  1.00  0.00     0.167 HD
ATOM     72  C   UNL A   1      45.384  30.400  27.815  1.00  0.00     0.074 A 
ATOM     73  C   UNL A   1      46.523  30.362  26.917  1.00  0.00     0.031 C 
ATOM     74  C   UNL A   1      44.480  31.369  28.143  1.00  0.00     0.031 A 
BRANCH  61  75
ATOM     75  C   UNL A   1      39.178  30.507  31.201  1.00  0.00    -0.014 A 
ATOM     76  C   UNL A   1      38.643  31.794  31.017  1.00  0.00     0.009 A 
ATOM     77  C   UNL A   1      38.650  29.773  32.277  1.00  0.00     0.009 A 
ATOM     78  C   UNL A   1      37.725  32.354  31.917  1.00  0.00     0.001 A 
ATOM     79  C   UNL A   1      37.771  30.340  33.210  1.00  0.00     0.001 A 
ATOM     80  C   UNL A   1      37.318  31.640  33.036  1.00  0.00     0.000 A 
ENDBRANCH  61  75
BRANCH  62  81
ATOM     81  C   UNL A   1      46.628  25.876  27.070  1.00  0.00    -0.014 A 
ATOM     82  C   UNL A   1      45.569  25.640  26.169  1.00  0.00     0.009 A 
ATOM     83  C   UNL A   1      47.918  25.463  26.714  1.00  0.00     0.009 A 
ATOM     84  C   UNL A   1      45.822  25.159  24.882  1.00  0.00     0.001 A 
ATOM     85  C   UNL A   1      48.161  24.958  25.431  1.00  0.00     0.001 A 
ATOM     86  C   UNL A   1      47.125  24.856  24.501  1.00  0.00     0.000 A 
ENDBRANCH  62  81
BRANCH  74  87
ATOM     87  C   UNL A   1      44.366  32.707  27.463  1.00  0.00    -0.014 A 
ATOM     88  C   UNL A   1      44.187  32.869  26.083  1.00  0.00     0.009 A 
ATOM     89  C   UNL A   1      44.309  33.873  28.257  1.00  0.00     0.009 A 
ATOM     90  C   UNL A   1      44.020  34.139  25.516  1.00  0.00     0.001 A 
ATOM     91  C   UNL A   1      44.101  35.136  27.701  1.00  0.00     0.001 A 
ATOM     92  C   UNL A   1      43.971  35.272  26.326  1.00  0.00     0.000 A 
ENDBRANCH  74  87
ENDBRANCH  48  49
ENDBRANCH  40  43
ENDBRANCH  38  39
ENDBRANCH  37  38
ENDBRANCH   1  37
TORSDOF 16
ENDMDL
MODEL 3
REMARK VINA RESULT:     -11.7      4.501      9.899
REMARK SMILES Cc1cccc(S(=O)(=O)Nc2cc(C(=O)NCCCNC(=O)c3ccc(-c4c5nc(c(-c6ccccc6)c6ccc([nH]6)c(-c6ccccc6)c6nc(c(-c7ccccc7)c7ccc4[nH]7)C=C6)C=C5)cc3)ccc2N2CCC[C@H](C[NH+]3CCCC3)C2)c1
REMARK SMILES IDX 17 1 16 2 14 3 15 4 13 6 11 7 12 8 73 9 72 10 71 11 10 12
REMARK SMILES IDX 7 14 8 15 9 16 6 17 1 18 2 19 3 20 86 21 4 22 5 23 74 24
REMARK SMILES IDX 75 25 85 26 76 27 78 28 77 29 79 30 80 31 81 32 84 33 82 35
REMARK SMILES IDX 83 36 18 37 19 38 20 39 21 40 22 42 23 43 24 44 70 45 25 46
REMARK SMILES IDX 69 47 26 48 27 49 28 50 63 51 29 52 68 53 62 54 64 55 30 56
REMARK SMILES IDX 67 57 61 58 60 59 31 61 53 62 38 63 52 64 39 65 42 66 51 67
REMARK SMILES IDX 65 68 40 69 41 70 50 72 66 73 43 74 32 75 33 76 37 77 34 78
REMARK SMILES IDX 36 79 35 80 54 81 55 82 59 83 56 84 58 85 57 86 44 87 45 88
REMARK SMILES IDX 49 89 46 90 48 91 47 92
REMARK H PARENT 16 5 10 13 80 34 20 41 64 60 42 71
REMARK Flexibility Score: inf
ROOT
ATOM      1  C   UNL A   1      39.368  23.141  26.580  1.00  0.00     0.118 C 
ENDROOT
BRANCH   1   2
ATOM      2  N   UNL A   1      39.127  21.786  26.099  1.00  0.00    -0.352 N 
ATOM      3  C   UNL A   1      38.132  21.250  25.310  1.00  0.00     0.251 C 
ATOM      4  O   UNL A   1      38.265  20.085  24.931  1.00  0.00    -0.269 OA
ATOM      5  H   UNL A   1      39.803  21.133  26.391  1.00  0.00     0.163 HD
BRANCH   3   6
ATOM      6  C   UNL A   1      36.928  22.009  24.859  1.00  0.00     0.042 A 
ATOM      7  C   UNL A   1      34.707  22.923  25.197  1.00  0.00     0.073 A 
ATOM      8  C   UNL A   1      35.744  22.082  25.581  1.00  0.00     0.042 A 
ATOM      9  C   UNL A   1      34.732  23.586  23.960  1.00  0.00     0.061 A 
ATOM     10  C   UNL A   1      35.888  23.442  23.182  1.00  0.00     0.029 A 
ATOM     11  C   UNL A   1      36.984  22.692  23.636  1.00  0.00     0.016 A 
BRANCH   7  12
ATOM     12  N   UNL A   1      33.608  23.096  26.082  1.00  0.00    -0.277 N 
ATOM     13  H   UNL A   1      33.457  23.985  26.476  1.00  0.00     0.180 HD
BRANCH  12  14
ATOM     14  S   UNL A   1      32.551  21.844  26.488  1.00  0.00     0.261 S 
ATOM     15  O   UNL A   1      31.224  22.366  26.167  1.00  0.00    -0.201 OA
ATOM     16  O   UNL A   1      32.883  21.480  27.838  1.00  0.00    -0.201 OA
BRANCH  14  17
ATOM     17  C   UNL A   1      32.721  20.357  25.505  1.00  0.00     0.088 A 
ATOM     18  C   UNL A   1      32.181  18.992  21.995  1.00  0.00     0.044 C 
ATOM     19  C   UNL A   1      32.533  19.069  23.454  1.00  0.00    -0.050 A 
ATOM     20  C   UNL A   1      32.652  17.881  24.188  1.00  0.00     0.003 A 
ATOM     21  C   UNL A   1      32.650  20.309  24.111  1.00  0.00     0.025 A 
ATOM     22  C   UNL A   1      32.836  17.924  25.567  1.00  0.00     0.002 A 
ATOM     23  C   UNL A   1      32.842  19.155  26.224  1.00  0.00     0.022 A 
ENDBRANCH  14  17
ENDBRANCH  12  14
ENDBRANCH   7  12
BRANCH   9  24
ATOM     24  N   UNL A   1      33.675  24.337  23.477  1.00  0.00    -0.369 N 
ATOM     25  C   UNL A   1      33.255  24.105  22.097  1.00  0.00     0.116 C 
ATOM     26  C   UNL A   1      32.761  25.069  24.351  1.00  0.00     0.126 C 
ATOM     27  C   UNL A   1      32.914  25.440  21.441  1.00  0.00     0.022 C 
ATOM     28  C   UNL A   1      32.462  26.452  23.746  1.00  0.00     0.064 C 
ATOM     29  C   UNL A   1      31.947  26.251  22.307  1.00  0.00     0.013 C 
BRANCH  28  30
ATOM     30  C   UNL A   1      33.717  27.350  23.900  1.00  0.00     0.267 C 
BRANCH  30  31
ATOM     31  N   UNL A   1      33.660  28.551  24.735  1.00  0.00    -0.335 N 
ATOM     32  C   UNL A   1      34.084  28.376  26.121  1.00  0.00     0.262 C 
ATOM     33  C   UNL A   1      32.392  29.273  24.738  1.00  0.00     0.262 C 
ATOM     34  H   UNL A   1      34.351  29.123  24.247  1.00  0.00     0.348 HD
ATOM     35  C   UNL A   1      32.800  28.309  26.922  1.00  0.00     0.067 C 
ATOM     36  C   UNL A   1      31.850  29.217  26.162  1.00  0.00     0.067 C 
ENDBRANCH  30  31
ENDBRANCH  28  30
ENDBRANCH   9  24
ENDBRANCH   3   6
ENDBRANCH   1   2
BRANCH   1  37
ATOM     37  C   UNL A   1      40.717  23.701  26.132  1.00  0.00     0.042 C 
BRANCH  37  38
ATOM     38  C   UNL A   1      41.896  22.853  26.546  1.00  0.00     0.118 C 
BRANCH  38  39
ATOM     39  N   UNL A   1      42.484  22.062  25.466  1.00  0.00    -0.352 N 
ATOM     40  C   UNL A   1      43.764  22.187  24.947  1.00  0.00     0.251 C 
ATOM     41  H   UNL A   1      41.913  21.368  25.066  1.00  0.00     0.163 HD
ATOM     42  O   UNL A   1      44.181  21.442  24.070  1.00  0.00    -0.269 OA
BRANCH  40  43
ATOM     43  C   UNL A   1      44.661  23.168  25.596  1.00  0.00     0.039 A 
ATOM     44  C   UNL A   1      45.074  22.874  26.896  1.00  0.00     0.014 A 
ATOM     45  C   UNL A   1      44.699  24.472  25.105  1.00  0.00     0.014 A 
ATOM     46  C   UNL A   1      45.241  23.920  27.795  1.00  0.00     0.010 A 
ATOM     47  C   UNL A   1      44.743  25.503  26.022  1.00  0.00     0.010 A 
ATOM     48  C   UNL A   1      44.939  25.218  27.379  1.00  0.00    -0.014 A 
BRANCH  48  49
ATOM     49  C   UNL A   1      44.758  26.317  28.319  1.00  0.00     0.031 A 
ATOM     50  C   UNL A   1      43.394  26.822  28.555  1.00  0.00     0.074 A 
ATOM     51  C   UNL A   1      45.809  26.901  28.939  1.00  0.00     0.049 A 
ATOM     52  N   UNL A   1      43.101  28.054  28.805  1.00  0.00    -0.248 NA
ATOM     53  C   UNL A   1      42.227  25.954  28.452  1.00  0.00     0.031 C 
ATOM     54  C   UNL A   1      45.755  27.921  29.986  1.00  0.00     0.029 A 
ATOM     55  N   UNL A   1      47.155  26.868  28.574  1.00  0.00    -0.354 N 
ATOM     56  C   UNL A   1      41.782  28.079  29.199  1.00  0.00     0.074 A 
ATOM     57  C   UNL A   1      41.260  26.775  28.865  1.00  0.00     0.031 C 
ATOM     58  C   UNL A   1      46.895  28.631  29.950  1.00  0.00     0.029 A 
ATOM     59  C   UNL A   1      47.663  28.158  28.810  1.00  0.00     0.049 A 
ATOM     60  H   UNL A   1      47.651  26.094  28.222  1.00  0.00     0.167 HD
ATOM     61  C   UNL A   1      41.308  29.139  29.913  1.00  0.00     0.031 A 
ATOM     62  C   UNL A   1      48.209  28.943  27.837  1.00  0.00     0.031 A 
ATOM     63  C   UNL A   1      42.310  30.196  30.046  1.00  0.00     0.049 A 
ATOM     64  C   UNL A   1      47.472  30.256  27.658  1.00  0.00     0.074 A 
ATOM     65  C   UNL A   1      43.178  30.546  31.067  1.00  0.00     0.029 A 
ATOM     66  N   UNL A   1      42.749  30.866  28.910  1.00  0.00    -0.354 N 
ATOM     67  N   UNL A   1      46.300  30.506  28.173  1.00  0.00    -0.248 NA
ATOM     68  C   UNL A   1      47.957  31.356  26.825  1.00  0.00     0.031 C 
ATOM     69  C   UNL A   1      44.205  31.352  30.511  1.00  0.00     0.029 A 
ATOM     70  C   UNL A   1      43.941  31.519  29.163  1.00  0.00     0.049 A 
ATOM     71  H   UNL A   1      42.277  30.875  28.046  1.00  0.00     0.167 HD
ATOM     72  C   UNL A   1      45.863  31.731  27.748  1.00  0.00     0.074 A 
ATOM     73  C   UNL A   1      46.942  32.234  26.918  1.00  0.00     0.031 C 
ATOM     74  C   UNL A   1      44.639  32.224  28.096  1.00  0.00     0.031 A 
BRANCH  61  75
ATOM     75  C   UNL A   1      40.062  29.038  30.762  1.00  0.00    -0.014 A 
ATOM     76  C   UNL A   1      40.121  28.398  32.012  1.00  0.00     0.009 A 
ATOM     77  C   UNL A   1      38.789  29.477  30.359  1.00  0.00     0.009 A 
ATOM     78  C   UNL A   1      38.967  28.111  32.757  1.00  0.00     0.001 A 
ATOM     79  C   UNL A   1      37.625  29.153  31.070  1.00  0.00     0.001 A 
ATOM     80  C   UNL A   1      37.714  28.456  32.266  1.00  0.00     0.000 A 
ENDBRANCH  61  75
BRANCH  62  81
ATOM     81  C   UNL A   1      48.837  28.168  26.730  1.00  0.00    -0.014 A 
ATOM     82  C   UNL A   1      50.101  27.591  26.974  1.00  0.00     0.009 A 
ATOM     83  C   UNL A   1      48.058  27.662  25.682  1.00  0.00     0.009 A 
ATOM     84  C   UNL A   1      50.499  26.436  26.297  1.00  0.00     0.001 A 
ATOM     85  C   UNL A   1      48.475  26.519  24.990  1.00  0.00     0.001 A 
ATOM     86  C   UNL A   1      49.667  25.878  25.332  1.00  0.00     0.000 A 
ENDBRANCH  62  81
BRANCH  74  87
ATOM     87  C   UNL A   1      44.012  33.464  27.516  1.00  0.00    -0.014 A 
ATOM     88  C   UNL A   1      43.743  34.622  28.256  1.00  0.00     0.009 A 
ATOM     89  C   UNL A   1      43.791  33.528  26.123  1.00  0.00     0.009 A 
ATOM     90  C   UNL A   1      43.220  35.769  27.645  1.00  0.00     0.001 A 
ATOM     91  C   UNL A   1      43.309  34.682  25.504  1.00  0.00     0.001 A 
ATOM     92  C   UNL A   1      43.008  35.801  26.269  1.00  0.00     0.000 A 
ENDBRANCH  74  87
ENDBRANCH  48  49
ENDBRANCH  40  43
ENDBRANCH  38  39
ENDBRANCH  37  38
ENDBRANCH   1  37
TORSDOF 16
ENDMDL
