MODEL 1
REMARK VINA RESULT:     -11.9      0.000      0.000
REMARK SMILES Cc1cc(C)c2c(c1)C=C(C(=O)NCCCNC(=O)c1ccc(-c3c4nc(c(-c5ccccc5)c5ccc([nH]5)c(-c5ccccc5)c5nc(c(-c6ccccc6)c6ccc3[nH]6)C=C5)C=C4)cc1)[C@@H](C(F)(F)F)O2
REMARK SMILES IDX 15 1 14 2 13 3 11 4 12 5 10 7 1 8 2 9 3 10 8 11 4 12 7 13
REMARK SMILES IDX 5 14 6 15 9 16 73 17 68 18 69 19 70 20 71 21 72 22 16 23
REMARK SMILES IDX 17 24 18 25 19 27 20 28 21 29 67 30 22 31 66 32 23 33 24 34
REMARK SMILES IDX 25 35 60 36 26 37 65 38 59 39 61 40 27 41 64 42 58 43 57 44
REMARK SMILES IDX 28 46 50 47 35 48 49 49 36 50 39 51 48 52 62 53 37 54 38 55
REMARK SMILES IDX 47 57 63 58 40 59 29 60 30 61 34 62 31 63 33 64 32 65 51 66
REMARK SMILES IDX 52 67 56 68 53 69 55 70 54 71 41 72 42 73 46 74 43 75 45 76
REMARK SMILES IDX 44 77
REMARK H PARENT 13 6 17 26 61 45 39 56
REMARK Flexibility Score: inf
ROOT
ATOM      1  C   UNL A   1      37.741  19.563  24.959  1.00  0.00     0.042 C 
ENDROOT
BRANCH   1   2
ATOM      2  C   UNL A   1      36.643  20.560  24.623  1.00  0.00     0.118 C 
BRANCH   2   3
ATOM      3  N   UNL A   1      35.697  20.709  25.718  1.00  0.00    -0.352 N 
ATOM      4  C   UNL A   1      34.718  21.573  26.075  1.00  0.00     0.251 C 
ATOM      5  O   UNL A   1      34.155  21.313  27.143  1.00  0.00    -0.270 OA
ATOM      6  H   UNL A   1      35.795  19.985  26.378  1.00  0.00     0.163 HD
BRANCH   4   7
ATOM      7  C   UNL A   1      34.304  22.769  25.289  1.00  0.00     0.067 C 
ATOM      8  C   UNL A   1      33.635  28.890  25.811  1.00  0.00     0.044 C 
ATOM      9  C   UNL A   1      33.685  27.565  25.110  1.00  0.00    -0.050 A 
ATOM     10  C   UNL A   1      33.349  27.464  23.753  1.00  0.00     0.010 A 
ATOM     11  C   UNL A   1      34.035  26.408  25.820  1.00  0.00     0.015 A 
ATOM     12  C   UNL A   1      33.386  26.229  23.095  1.00  0.00    -0.008 A 
ATOM     13  C   UNL A   1      34.072  25.168  25.178  1.00  0.00     0.018 A 
ATOM     14  C   UNL A   1      33.032  26.124  21.639  1.00  0.00     0.048 C 
ATOM     15  C   UNL A   1      33.749  25.089  23.821  1.00  0.00     0.130 A 
ATOM     16  C   UNL A   1      34.474  23.961  25.890  1.00  0.00     0.025 C 
ATOM     17  O   UNL A   1      33.818  23.911  23.130  1.00  0.00    -0.475 OA
ATOM     18  C   UNL A   1      33.702  22.701  23.916  1.00  0.00     0.314 C 
BRANCH  18  19
ATOM     19  C   UNL A   1      32.230  22.241  23.929  1.00  0.00     0.429 C 
ATOM     20  F   UNL A   1      32.162  20.885  23.882  1.00  0.00    -0.167 F 
ATOM     21  F   UNL A   1      31.578  22.616  25.056  1.00  0.00    -0.167 F 
ATOM     22  F   UNL A   1      31.517  22.721  22.888  1.00  0.00    -0.167 F 
ENDBRANCH  18  19
ENDBRANCH   4   7
ENDBRANCH   2   3
ENDBRANCH   1   2
BRANCH   1  23
ATOM     23  C   UNL A   1      38.875  20.214  25.738  1.00  0.00     0.118 C 
BRANCH  23  24
ATOM     24  N   UNL A   1      40.041  19.338  25.829  1.00  0.00    -0.352 N 
ATOM     25  C   UNL A   1      41.360  19.642  26.047  1.00  0.00     0.251 C 
ATOM     26  H   UNL A   1      39.849  18.379  25.715  1.00  0.00     0.163 HD
ATOM     27  O   UNL A   1      42.232  18.813  25.799  1.00  0.00    -0.269 OA
BRANCH  25  28
ATOM     28  C   UNL A   1      41.730  20.967  26.577  1.00  0.00     0.039 A 
ATOM     29  C   UNL A   1      42.108  21.982  25.695  1.00  0.00     0.014 A 
ATOM     30  C   UNL A   1      41.721  21.195  27.954  1.00  0.00     0.014 A 
ATOM     31  C   UNL A   1      42.415  23.246  26.199  1.00  0.00     0.010 A 
ATOM     32  C   UNL A   1      41.917  22.477  28.442  1.00  0.00     0.010 A 
ATOM     33  C   UNL A   1      42.289  23.510  27.573  1.00  0.00    -0.014 A 
BRANCH  33  34
ATOM     34  C   UNL A   1      42.586  24.847  28.132  1.00  0.00     0.031 A 
ATOM     35  C   UNL A   1      44.000  25.207  28.493  1.00  0.00     0.074 A 
ATOM     36  C   UNL A   1      41.583  25.719  28.349  1.00  0.00     0.049 A 
ATOM     37  N   UNL A   1      44.463  26.317  29.008  1.00  0.00    -0.248 NA
ATOM     38  C   UNL A   1      45.029  24.175  28.271  1.00  0.00     0.031 C 
ATOM     39  C   UNL A   1      40.168  25.469  28.065  1.00  0.00     0.029 A 
ATOM     40  N   UNL A   1      41.604  26.997  28.844  1.00  0.00    -0.354 N 
ATOM     41  C   UNL A   1      45.827  26.114  29.170  1.00  0.00     0.074 A 
ATOM     42  C   UNL A   1      46.106  24.751  28.779  1.00  0.00     0.031 C 
ATOM     43  C   UNL A   1      39.466  26.582  28.331  1.00  0.00     0.029 A 
ATOM     44  C   UNL A   1      40.372  27.605  28.844  1.00  0.00     0.049 A 
ATOM     45  H   UNL A   1      42.423  27.437  29.168  1.00  0.00     0.167 HD
ATOM     46  C   UNL A   1      46.773  26.996  29.566  1.00  0.00     0.031 A 
ATOM     47  C   UNL A   1      40.018  28.852  29.204  1.00  0.00     0.031 A 
ATOM     48  C   UNL A   1      46.494  28.350  29.950  1.00  0.00     0.049 A 
ATOM     49  C   UNL A   1      41.075  29.796  29.702  1.00  0.00     0.074 A 
ATOM     50  C   UNL A   1      47.381  29.335  30.343  1.00  0.00     0.029 A 
ATOM     51  N   UNL A   1      45.226  28.910  29.986  1.00  0.00    -0.354 N 
ATOM     52  N   UNL A   1      42.369  29.606  29.802  1.00  0.00    -0.248 NA
ATOM     53  C   UNL A   1      40.625  31.126  30.136  1.00  0.00     0.031 C 
ATOM     54  C   UNL A   1      46.642  30.477  30.666  1.00  0.00     0.029 A 
ATOM     55  C   UNL A   1      45.303  30.221  30.420  1.00  0.00     0.049 A 
ATOM     56  H   UNL A   1      44.394  28.444  29.738  1.00  0.00     0.167 HD
ATOM     57  C   UNL A   1      42.890  30.796  30.292  1.00  0.00     0.074 A 
ATOM     58  C   UNL A   1      41.774  31.706  30.454  1.00  0.00     0.031 C 
ATOM     59  C   UNL A   1      44.177  31.106  30.582  1.00  0.00     0.031 A 
BRANCH  46  60
ATOM     60  C   UNL A   1      48.196  26.512  29.586  1.00  0.00    -0.014 A 
ATOM     61  C   UNL A   1      48.727  25.884  30.726  1.00  0.00     0.009 A 
ATOM     62  C   UNL A   1      49.014  26.669  28.457  1.00  0.00     0.009 A 
ATOM     63  C   UNL A   1      50.058  25.465  30.750  1.00  0.00     0.001 A 
ATOM     64  C   UNL A   1      50.335  26.219  28.474  1.00  0.00     0.001 A 
ATOM     65  C   UNL A   1      50.859  25.628  29.623  1.00  0.00     0.000 A 
ENDBRANCH  46  60
BRANCH  47  66
ATOM     66  C   UNL A   1      38.606  29.289  29.047  1.00  0.00    -0.014 A 
ATOM     67  C   UNL A   1      38.144  29.729  27.798  1.00  0.00     0.009 A 
ATOM     68  C   UNL A   1      37.707  29.230  30.122  1.00  0.00     0.009 A 
ATOM     69  C   UNL A   1      36.810  30.106  27.630  1.00  0.00     0.001 A 
ATOM     70  C   UNL A   1      36.366  29.586  29.944  1.00  0.00     0.001 A 
ATOM     71  C   UNL A   1      35.921  30.027  28.700  1.00  0.00     0.000 A 
ENDBRANCH  47  66
BRANCH  59  72
ATOM     72  C   UNL A   1      44.460  32.485  31.102  1.00  0.00    -0.014 A 
ATOM     73  C   UNL A   1      44.690  33.554  30.222  1.00  0.00     0.009 A 
ATOM     74  C   UNL A   1      44.395  32.737  32.482  1.00  0.00     0.009 A 
ATOM     75  C   UNL A   1      44.858  34.848  30.717  1.00  0.00     0.001 A 
ATOM     76  C   UNL A   1      44.537  34.036  32.970  1.00  0.00     0.001 A 
ATOM     77  C   UNL A   1      44.772  35.090  32.088  1.00  0.00     0.000 A 
ENDBRANCH  59  72
ENDBRANCH  33  34
ENDBRANCH  25  28
ENDBRANCH  23  24
ENDBRANCH   1  23
TORSDOF 11
ENDMDL
MODEL 2
REMARK VINA RESULT:     -11.8      2.174      7.341
REMARK SMILES Cc1cc(C)c2c(c1)C=C(C(=O)NCCCNC(=O)c1ccc(-c3c4nc(c(-c5ccccc5)c5ccc([nH]5)c(-c5ccccc5)c5nc(c(-c6ccccc6)c6ccc3[nH]6)C=C5)C=C4)cc1)[C@@H](C(F)(F)F)O2
REMARK SMILES IDX 15 1 14 2 13 3 11 4 12 5 10 7 1 8 2 9 3 10 8 11 4 12 7 13
REMARK SMILES IDX 5 14 6 15 9 16 73 17 68 18 69 19 70 20 71 21 72 22 16 23
REMARK SMILES IDX 17 24 18 25 19 27 20 28 21 29 67 30 22 31 66 32 23 33 24 34
REMARK SMILES IDX 25 35 60 36 26 37 65 38 59 39 61 40 27 41 64 42 58 43 57 44
REMARK SMILES IDX 28 46 50 47 35 48 49 49 36 50 39 51 48 52 62 53 37 54 38 55
REMARK SMILES IDX 47 57 63 58 40 59 29 60 30 61 34 62 31 63 33 64 32 65 51 66
REMARK SMILES IDX 52 67 56 68 53 69 55 70 54 71 41 72 42 73 46 74 43 75 45 76
REMARK SMILES IDX 44 77
REMARK H PARENT 13 6 17 26 61 45 39 56
REMARK Flexibility Score: inf
ROOT
ATOM      1  C   UNL A   1      34.022  28.262  25.858  1.00  0.00     0.042 C 
ENDROOT
BRANCH   1   2
ATOM      2  C   UNL A   1      32.947  27.663  24.963  1.00  0.00     0.118 C 
BRANCH   2   3
ATOM      3  N   UNL A   1      31.907  27.002  25.739  1.00  0.00    -0.352 N 
ATOM      4  C   UNL A   1      31.607  25.742  26.127  1.00  0.00     0.251 C 
ATOM      5  O   UNL A   1      30.573  25.631  26.793  1.00  0.00    -0.270 OA
ATOM      6  H   UNL A   1      31.242  27.648  26.070  1.00  0.00     0.163 HD
BRANCH   4   7
ATOM      7  C   UNL A   1      32.416  24.532  25.807  1.00  0.00     0.067 C 
ATOM      8  C   UNL A   1      38.255  22.508  25.767  1.00  0.00     0.044 C 
ATOM      9  C   UNL A   1      36.762  22.408  25.662  1.00  0.00    -0.050 A 
ATOM     10  C   UNL A   1      36.154  21.208  25.270  1.00  0.00     0.010 A 
ATOM     11  C   UNL A   1      35.964  23.531  25.919  1.00  0.00     0.015 A 
ATOM     12  C   UNL A   1      34.762  21.110  25.162  1.00  0.00    -0.008 A 
ATOM     13  C   UNL A   1      34.573  23.451  25.810  1.00  0.00     0.018 A 
ATOM     14  C   UNL A   1      34.112  19.820  24.750  1.00  0.00     0.048 C 
ATOM     15  C   UNL A   1      33.984  22.241  25.435  1.00  0.00     0.130 A 
ATOM     16  C   UNL A   1      33.725  24.597  26.115  1.00  0.00     0.025 C 
ATOM     17  O   UNL A   1      32.627  22.091  25.363  1.00  0.00    -0.475 OA
ATOM     18  C   UNL A   1      31.860  23.301  25.154  1.00  0.00     0.314 C 
BRANCH  18  19
ATOM     19  C   UNL A   1      31.601  23.487  23.645  1.00  0.00     0.429 C 
ATOM     20  F   UNL A   1      30.326  23.903  23.435  1.00  0.00    -0.167 F 
ATOM     21  F   UNL A   1      32.405  24.427  23.092  1.00  0.00    -0.167 F 
ATOM     22  F   UNL A   1      31.781  22.353  22.935  1.00  0.00    -0.167 F 
ENDBRANCH  18  19
ENDBRANCH   4   7
ENDBRANCH   2   3
ENDBRANCH   1   2
BRANCH   1  23
ATOM     23  C   UNL A   1      33.495  28.552  27.256  1.00  0.00     0.118 C 
BRANCH  23  24
ATOM     24  N   UNL A   1      33.518  29.982  27.556  1.00  0.00    -0.352 N 
ATOM     25  C   UNL A   1      34.458  30.732  28.214  1.00  0.00     0.251 C 
ATOM     26  H   UNL A   1      32.735  30.486  27.234  1.00  0.00     0.163 HD
ATOM     27  O   UNL A   1      34.173  31.854  28.625  1.00  0.00    -0.269 OA
BRANCH  25  28
ATOM     28  C   UNL A   1      35.812  30.189  28.427  1.00  0.00     0.039 A 
ATOM     29  C   UNL A   1      36.746  30.240  27.390  1.00  0.00     0.014 A 
ATOM     30  C   UNL A   1      36.147  29.608  29.651  1.00  0.00     0.014 A 
ATOM     31  C   UNL A   1      38.039  29.764  27.609  1.00  0.00     0.010 A 
ATOM     32  C   UNL A   1      37.459  29.240  29.903  1.00  0.00     0.010 A 
ATOM     33  C   UNL A   1      38.412  29.292  28.878  1.00  0.00    -0.014 A 
BRANCH  33  34
ATOM     34  C   UNL A   1      39.783  28.801  29.147  1.00  0.00     0.031 A 
ATOM     35  C   UNL A   1      40.752  29.669  29.899  1.00  0.00     0.074 A 
ATOM     36  C   UNL A   1      40.164  27.597  28.681  1.00  0.00     0.049 A 
ATOM     37  N   UNL A   1      41.997  29.429  30.220  1.00  0.00    -0.248 NA
ATOM     38  C   UNL A   1      40.268  30.994  30.327  1.00  0.00     0.031 C 
ATOM     39  C   UNL A   1      39.319  26.680  27.912  1.00  0.00     0.029 A 
ATOM     40  N   UNL A   1      41.356  26.932  28.801  1.00  0.00    -0.354 N 
ATOM     41  C   UNL A   1      42.439  30.567  30.882  1.00  0.00     0.074 A 
ATOM     42  C   UNL A   1      41.361  31.529  30.845  1.00  0.00     0.031 C 
ATOM     43  C   UNL A   1      40.000  25.545  27.685  1.00  0.00     0.029 A 
ATOM     44  C   UNL A   1      41.339  25.673  28.251  1.00  0.00     0.049 A 
ATOM     45  H   UNL A   1      42.149  27.319  29.239  1.00  0.00     0.167 HD
ATOM     46  C   UNL A   1      43.621  30.779  31.505  1.00  0.00     0.031 A 
ATOM     47  C   UNL A   1      42.293  24.724  28.222  1.00  0.00     0.031 A 
ATOM     48  C   UNL A   1      44.688  29.820  31.543  1.00  0.00     0.049 A 
ATOM     49  C   UNL A   1      43.621  25.003  28.864  1.00  0.00     0.074 A 
ATOM     50  C   UNL A   1      45.917  29.923  32.168  1.00  0.00     0.029 A 
ATOM     51  N   UNL A   1      44.649  28.578  30.929  1.00  0.00    -0.354 N 
ATOM     52  N   UNL A   1      44.007  26.065  29.530  1.00  0.00    -0.248 NA
ATOM     53  C   UNL A   1      44.645  23.955  28.753  1.00  0.00     0.031 C 
ATOM     54  C   UNL A   1      46.642  28.761  31.889  1.00  0.00     0.029 A 
ATOM     55  C   UNL A   1      45.843  27.912  31.138  1.00  0.00     0.049 A 
ATOM     56  H   UNL A   1      43.884  28.221  30.421  1.00  0.00     0.167 HD
ATOM     57  C   UNL A   1      45.311  25.807  29.933  1.00  0.00     0.074 A 
ATOM     58  C   UNL A   1      45.644  24.482  29.450  1.00  0.00     0.031 C 
ATOM     59  C   UNL A   1      46.156  26.597  30.640  1.00  0.00     0.031 A 
BRANCH  46  60
ATOM     60  C   UNL A   1      43.801  32.098  32.203  1.00  0.00    -0.014 A 
ATOM     61  C   UNL A   1      43.421  32.259  33.546  1.00  0.00     0.009 A 
ATOM     62  C   UNL A   1      44.365  33.188  31.523  1.00  0.00     0.009 A 
ATOM     63  C   UNL A   1      43.562  33.495  34.180  1.00  0.00     0.001 A 
ATOM     64  C   UNL A   1      44.534  34.413  32.169  1.00  0.00     0.001 A 
ATOM     65  C   UNL A   1      44.123  34.569  33.493  1.00  0.00     0.000 A 
ENDBRANCH  46  60
BRANCH  47  66
ATOM     66  C   UNL A   1      41.996  23.403  27.610  1.00  0.00    -0.014 A 
ATOM     67  C   UNL A   1      42.363  23.148  26.279  1.00  0.00     0.009 A 
ATOM     68  C   UNL A   1      41.390  22.380  28.354  1.00  0.00     0.009 A 
ATOM     69  C   UNL A   1      42.123  21.898  25.706  1.00  0.00     0.001 A 
ATOM     70  C   UNL A   1      41.173  21.122  27.784  1.00  0.00     0.001 A 
ATOM     71  C   UNL A   1      41.536  20.884  26.460  1.00  0.00     0.000 A 
ENDBRANCH  47  66
BRANCH  59  72
ATOM     72  C   UNL A   1      47.524  26.058  30.941  1.00  0.00    -0.014 A 
ATOM     73  C   UNL A   1      48.543  26.102  29.976  1.00  0.00     0.009 A 
ATOM     74  C   UNL A   1      47.824  25.597  32.232  1.00  0.00     0.009 A 
ATOM     75  C   UNL A   1      49.835  25.685  30.300  1.00  0.00     0.001 A 
ATOM     76  C   UNL A   1      49.123  25.207  32.559  1.00  0.00     0.001 A 
ATOM     77  C   UNL A   1      50.126  25.248  31.592  1.00  0.00     0.000 A 
ENDBRANCH  59  72
ENDBRANCH  33  34
ENDBRANCH  25  28
ENDBRANCH  23  24
ENDBRANCH   1  23
TORSDOF 11
ENDMDL
MODEL 3
REMARK VINA RESULT:     -11.8      3.858      8.882
REMARK SMILES Cc1cc(C)c2c(c1)C=C(C(=O)NCCCNC(=O)c1ccc(-c3c4nc(c(-c5ccccc5)c5ccc([nH]5)c(-c5ccccc5)c5nc(c(-c6ccccc6)c6ccc3[nH]6)C=C5)C=C4)cc1)[C@@H](C(F)(F)F)O2
REMARK SMILES IDX 15 1 14 2 13 3 11 4 12 5 10 7 1 8 2 9 3 10 8 11 4 12 7 13
REMARK SMILES IDX 5 14 6 15 9 16 73 17 68 18 69 19 70 20 71 21 72 22 16 23
REMARK SMILES IDX 17 24 18 25 19 27 20 28 21 29 67 30 22 31 66 32 23 33 24 34
REMARK SMILES IDX 25 35 60 36 26 37 65 38 59 39 61 40 27 41 64 42 58 43 57 44
REMARK SMILES IDX 28 46 50 47 35 48 49 49 36 50 39 51 48 52 62 53 37 54 38 55
REMARK SMILES IDX 47 57 63 58 40 59 29 60 30 61 34 62 31 63 33 64 32 65 51 66
REMARK SMILES IDX 52 67 56 68 53 69 55 70 54 71 41 72 42 73 46 74 43 75 45 76
REMARK SMILES IDX 44 77
REMARK H PARENT 13 6 17 26 61 45 39 56
REMARK Flexibility Score: inf
ROOT
ATOM      1  C   UNL A   1      31.424  31.983  26.819  1.00  0.00     0.042 C 
ENDROOT
BRANCH   1   2
ATOM      2  C   UNL A   1      31.650  30.511  26.510  1.00  0.00     0.118 C 
BRANCH   2   3
ATOM      3  N   UNL A   1      31.405  30.210  25.107  1.00  0.00    -0.352 N 
ATOM      4  C   UNL A   1      31.391  29.115  24.314  1.00  0.00     0.251 C 
ATOM      5  O   UNL A   1      31.138  29.333  23.125  1.00  0.00    -0.270 OA
ATOM      6  H   UNL A   1      31.191  31.025  24.598  1.00  0.00     0.163 HD
BRANCH   4   7
ATOM      7  C   UNL A   1      31.656  27.722  24.773  1.00  0.00     0.067 C 
ATOM      8  C   UNL A   1      36.302  23.761  25.728  1.00  0.00     0.044 C 
ATOM      9  C   UNL A   1      34.890  24.264  25.774  1.00  0.00    -0.050 A 
ATOM     10  C   UNL A   1      33.854  23.440  26.237  1.00  0.00     0.010 A 
ATOM     11  C   UNL A   1      34.590  25.555  25.319  1.00  0.00     0.015 A 
ATOM     12  C   UNL A   1      32.533  23.901  26.276  1.00  0.00    -0.008 A 
ATOM     13  C   UNL A   1      33.275  26.028  25.346  1.00  0.00     0.018 A 
ATOM     14  C   UNL A   1      31.427  23.019  26.779  1.00  0.00     0.048 C 
ATOM     15  C   UNL A   1      32.259  25.198  25.826  1.00  0.00     0.130 A 
ATOM     16  C   UNL A   1      32.950  27.382  24.916  1.00  0.00     0.025 C 
ATOM     17  O   UNL A   1      30.964  25.625  25.924  1.00  0.00    -0.475 OA
ATOM     18  C   UNL A   1      30.581  26.712  25.046  1.00  0.00     0.314 C 
BRANCH  18  19
ATOM     19  C   UNL A   1      29.960  26.134  23.760  1.00  0.00     0.429 C 
ATOM     20  F   UNL A   1      28.802  26.780  23.466  1.00  0.00    -0.167 F 
ATOM     21  F   UNL A   1      30.765  26.285  22.680  1.00  0.00    -0.167 F 
ATOM     22  F   UNL A   1      29.678  24.816  23.854  1.00  0.00    -0.167 F 
ENDBRANCH  18  19
ENDBRANCH   4   7
ENDBRANCH   2   3
ENDBRANCH   1   2
BRANCH   1  23
ATOM     23  C   UNL A   1      32.738  32.739  26.957  1.00  0.00     0.118 C 
BRANCH  23  24
ATOM     24  N   UNL A   1      32.554  34.024  27.627  1.00  0.00    -0.352 N 
ATOM     25  C   UNL A   1      33.184  34.546  28.727  1.00  0.00     0.251 C 
ATOM     26  H   UNL A   1      31.869  34.607  27.225  1.00  0.00     0.163 HD
ATOM     27  O   UNL A   1      32.697  35.508  29.317  1.00  0.00    -0.269 OA
BRANCH  25  28
ATOM     28  C   UNL A   1      34.447  33.950  29.201  1.00  0.00     0.039 A 
ATOM     29  C   UNL A   1      34.428  33.067  30.282  1.00  0.00     0.014 A 
ATOM     30  C   UNL A   1      35.652  34.286  28.583  1.00  0.00     0.014 A 
ATOM     31  C   UNL A   1      35.620  32.472  30.700  1.00  0.00     0.010 A 
ATOM     32  C   UNL A   1      36.813  33.611  28.924  1.00  0.00     0.010 A 
ATOM     33  C   UNL A   1      36.814  32.716  30.001  1.00  0.00    -0.014 A 
BRANCH  33  34
ATOM     34  C   UNL A   1      38.088  32.081  30.408  1.00  0.00     0.031 A 
ATOM     35  C   UNL A   1      38.925  32.713  31.484  1.00  0.00     0.074 A 
ATOM     36  C   UNL A   1      38.506  30.965  29.783  1.00  0.00     0.049 A 
ATOM     37  N   UNL A   1      40.076  32.323  31.969  1.00  0.00    -0.248 NA
ATOM     38  C   UNL A   1      38.417  33.962  32.078  1.00  0.00     0.031 C 
ATOM     39  C   UNL A   1      37.792  30.279  28.704  1.00  0.00     0.029 A 
ATOM     40  N   UNL A   1      39.628  30.201  29.979  1.00  0.00    -0.354 N 
ATOM     41  C   UNL A   1      40.424  33.274  32.919  1.00  0.00     0.074 A 
ATOM     42  C   UNL A   1      39.410  34.304  32.884  1.00  0.00     0.031 C 
ATOM     43  C   UNL A   1      38.461  29.162  28.378  1.00  0.00     0.029 A 
ATOM     44  C   UNL A   1      39.670  29.077  29.191  1.00  0.00     0.049 A 
ATOM     45  H   UNL A   1      40.335  30.436  30.623  1.00  0.00     0.167 HD
ATOM     46  C   UNL A   1      41.470  33.273  33.775  1.00  0.00     0.031 A 
ATOM     47  C   UNL A   1      40.575  28.083  29.142  1.00  0.00     0.031 A 
ATOM     48  C   UNL A   1      42.474  32.248  33.810  1.00  0.00     0.049 A 
ATOM     49  C   UNL A   1      41.765  28.132  30.058  1.00  0.00     0.074 A 
ATOM     50  C   UNL A   1      43.563  32.135  34.655  1.00  0.00     0.029 A 
ATOM     51  N   UNL A   1      42.508  31.153  32.959  1.00  0.00    -0.354 N 
ATOM     52  N   UNL A   1      42.055  29.014  30.985  1.00  0.00    -0.248 NA
ATOM     53  C   UNL A   1      42.751  27.052  29.923  1.00  0.00     0.031 C 
ATOM     54  C   UNL A   1      44.284  30.998  34.281  1.00  0.00     0.029 A 
ATOM     55  C   UNL A   1      43.614  30.373  33.241  1.00  0.00     0.049 A 
ATOM     56  H   UNL A   1      41.843  30.960  32.259  1.00  0.00     0.167 HD
ATOM     57  C   UNL A   1      43.245  28.585  31.556  1.00  0.00     0.074 A 
ATOM     58  C   UNL A   1      43.616  27.358  30.882  1.00  0.00     0.031 C 
ATOM     59  C   UNL A   1      43.967  29.158  32.550  1.00  0.00     0.031 A 
BRANCH  46  60
ATOM     60  C   UNL A   1      41.562  34.415  34.748  1.00  0.00    -0.014 A 
ATOM     61  C   UNL A   1      40.950  34.336  36.011  1.00  0.00     0.009 A 
ATOM     62  C   UNL A   1      42.274  35.577  34.411  1.00  0.00     0.009 A 
ATOM     63  C   UNL A   1      41.012  35.412  36.898  1.00  0.00     0.001 A 
ATOM     64  C   UNL A   1      42.360  36.638  35.314  1.00  0.00     0.001 A 
ATOM     65  C   UNL A   1      41.721  36.560  36.551  1.00  0.00     0.000 A 
ENDBRANCH  46  60
BRANCH  47  66
ATOM     66  C   UNL A   1      40.353  26.930  28.230  1.00  0.00    -0.014 A 
ATOM     67  C   UNL A   1      39.583  25.837  28.657  1.00  0.00     0.009 A 
ATOM     68  C   UNL A   1      40.865  26.931  26.924  1.00  0.00     0.009 A 
ATOM     69  C   UNL A   1      39.336  24.766  27.796  1.00  0.00     0.001 A 
ATOM     70  C   UNL A   1      40.596  25.868  26.057  1.00  0.00     0.001 A 
ATOM     71  C   UNL A   1      39.836  24.786  26.495  1.00  0.00     0.000 A 
ENDBRANCH  47  66
BRANCH  59  72
ATOM     72  C   UNL A   1      45.231  28.471  32.978  1.00  0.00    -0.014 A 
ATOM     73  C   UNL A   1      45.207  27.463  33.954  1.00  0.00     0.009 A 
ATOM     74  C   UNL A   1      46.439  28.762  32.325  1.00  0.00     0.009 A 
ATOM     75  C   UNL A   1      46.374  26.767  34.274  1.00  0.00     0.001 A 
ATOM     76  C   UNL A   1      47.597  28.045  32.628  1.00  0.00     0.001 A 
ATOM     77  C   UNL A   1      47.565  27.051  33.605  1.00  0.00     0.000 A 
ENDBRANCH  59  72
ENDBRANCH  33  34
ENDBRANCH  25  28
ENDBRANCH  23  24
ENDBRANCH   1  23
TORSDOF 11
ENDMDL
