MODEL 1
REMARK VINA RESULT:     -11.9      0.000      0.000
REMARK SMILES CC(C)CCc1cc2c(cc1Cl)C=C(C(=O)NCCCNC(=O)c1ccc(-c3c4nc(c(-c5ccccc5)c5ccc([nH]5)c(-c5ccccc5)c5nc(c(-c6ccccc6)c6ccc3[nH]6)C=C5)C=C4)cc1)[C@@H](C(F)(F)F)O2
REMARK SMILES IDX 18 1 17 2 15 3 16 4 14 6 6 7 7 8 11 9 8 10 10 11 12 12 9 13
REMARK SMILES IDX 77 14 13 15 72 16 5 17 4 18 2 19 1 20 3 21 73 22 74 23 75 24
REMARK SMILES IDX 76 25 19 26 20 27 21 28 22 29 23 31 24 32 25 33 71 34 26 35
REMARK SMILES IDX 70 36 27 37 28 38 29 39 64 40 30 41 69 42 63 43 65 44 31 45
REMARK SMILES IDX 68 46 62 47 61 48 32 50 54 51 39 52 53 53 40 54 43 55 52 56
REMARK SMILES IDX 66 57 41 58 42 59 51 61 67 62 44 63 33 64 34 65 38 66 35 67
REMARK SMILES IDX 37 68 36 69 55 70 56 71 60 72 57 73 59 74 58 75 45 76 46 77
REMARK SMILES IDX 50 78 47 79 49 80 48 81
REMARK H PARENT 17 5 21 30 65 49 43 60
REMARK Flexibility Score: inf
ROOT
ATOM      1  C   UNL A   1      36.470  20.680  25.053  1.00  0.00     0.118 C 
ENDROOT
BRANCH   1   2
ATOM      2  N   UNL A   1      35.405  19.695  24.939  1.00  0.00    -0.352 N 
ATOM      3  C   UNL A   1      34.054  19.688  24.895  1.00  0.00     0.251 C 
ATOM      4  O   UNL A   1      33.542  18.566  24.826  1.00  0.00    -0.270 OA
ATOM      5  H   UNL A   1      35.769  18.781  24.880  1.00  0.00     0.163 HD
BRANCH   3   6
ATOM      6  C   UNL A   1      33.185  20.897  24.918  1.00  0.00     0.067 C 
ATOM      7  C   UNL A   1      30.696  25.118  23.714  1.00  0.00    -0.026 A 
ATOM      8  C   UNL A   1      30.613  24.191  24.767  1.00  0.00     0.052 A 
ATOM      9  C   UNL A   1      31.600  24.857  22.669  1.00  0.00     0.045 A 
ATOM     10  C   UNL A   1      31.415  23.053  24.775  1.00  0.00     0.128 A 
ATOM     11  C   UNL A   1      32.372  23.689  22.663  1.00  0.00     0.032 A 
ATOM     12  Cl  UNL A   1      31.834  25.960  21.359  1.00  0.00    -0.084 Cl
ATOM     13  C   UNL A   1      32.286  22.785  23.721  1.00  0.00     0.019 A 
ATOM     14  O   UNL A   1      31.289  22.210  25.845  1.00  0.00    -0.475 OA
ATOM     15  C   UNL A   1      33.080  21.564  23.752  1.00  0.00     0.025 C 
ATOM     16  C   UNL A   1      32.475  21.416  26.137  1.00  0.00     0.314 C 
BRANCH   7  17
ATOM     17  C   UNL A   1      29.812  26.343  23.770  1.00  0.00     0.037 C 
BRANCH  17  18
ATOM     18  C   UNL A   1      30.517  27.637  24.201  1.00  0.00     0.008 C 
BRANCH  18  19
ATOM     19  C   UNL A   1      30.044  28.923  23.496  1.00  0.00    -0.017 C 
ATOM     20  C   UNL A   1      30.950  29.306  22.325  1.00  0.00     0.007 C 
ATOM     21  C   UNL A   1      28.606  28.736  23.001  1.00  0.00     0.007 C 
ENDBRANCH  18  19
ENDBRANCH  17  18
ENDBRANCH   7  17
BRANCH  16  22
ATOM     22  C   UNL A   1      33.408  22.203  27.081  1.00  0.00     0.429 C 
ATOM     23  F   UNL A   1      34.270  21.358  27.700  1.00  0.00    -0.167 F 
ATOM     24  F   UNL A   1      34.166  23.110  26.422  1.00  0.00    -0.167 F 
ATOM     25  F   UNL A   1      32.739  22.878  28.043  1.00  0.00    -0.167 F 
ENDBRANCH  16  22
ENDBRANCH   3   6
ENDBRANCH   1   2
BRANCH   1  26
ATOM     26  C   UNL A   1      37.827  20.080  24.722  1.00  0.00     0.042 C 
BRANCH  26  27
ATOM     27  C   UNL A   1      38.886  20.437  25.758  1.00  0.00     0.118 C 
BRANCH  27  28
ATOM     28  N   UNL A   1      39.957  19.446  25.818  1.00  0.00    -0.352 N 
ATOM     29  C   UNL A   1      41.294  19.594  26.101  1.00  0.00     0.251 C 
ATOM     30  H   UNL A   1      39.675  18.522  25.625  1.00  0.00     0.163 HD
ATOM     31  O   UNL A   1      42.073  18.673  25.876  1.00  0.00    -0.269 OA
BRANCH  29  32
ATOM     32  C   UNL A   1      41.796  20.867  26.652  1.00  0.00     0.039 A 
ATOM     33  C   UNL A   1      41.843  21.066  28.032  1.00  0.00     0.014 A 
ATOM     34  C   UNL A   1      42.222  21.877  25.784  1.00  0.00     0.014 A 
ATOM     35  C   UNL A   1      42.112  22.331  28.533  1.00  0.00     0.010 A 
ATOM     36  C   UNL A   1      42.605  23.118  26.299  1.00  0.00     0.010 A 
ATOM     37  C   UNL A   1      42.500  23.372  27.675  1.00  0.00    -0.014 A 
BRANCH  37  38
ATOM     38  C   UNL A   1      42.787  24.708  28.254  1.00  0.00     0.031 A 
ATOM     39  C   UNL A   1      44.200  25.143  28.530  1.00  0.00     0.074 A 
ATOM     40  C   UNL A   1      41.767  25.567  28.444  1.00  0.00     0.049 A 
ATOM     41  N   UNL A   1      44.631  26.296  28.980  1.00  0.00    -0.248 NA
ATOM     42  C   UNL A   1      45.268  24.165  28.273  1.00  0.00     0.031 C 
ATOM     43  C   UNL A   1      40.357  25.267  28.184  1.00  0.00     0.029 A 
ATOM     44  N   UNL A   1      41.759  26.877  28.849  1.00  0.00    -0.354 N 
ATOM     45  C   UNL A   1      46.011  26.175  29.074  1.00  0.00     0.074 A 
ATOM     46  C   UNL A   1      46.347  24.829  28.666  1.00  0.00     0.031 C 
ATOM     47  C   UNL A   1      39.634  26.381  28.352  1.00  0.00     0.029 A 
ATOM     48  C   UNL A   1      40.513  27.452  28.810  1.00  0.00     0.049 A 
ATOM     49  H   UNL A   1      42.568  27.359  29.138  1.00  0.00     0.167 HD
ATOM     50  C   UNL A   1      46.917  27.107  29.454  1.00  0.00     0.031 A 
ATOM     51  C   UNL A   1      40.110  28.700  29.116  1.00  0.00     0.031 A 
ATOM     52  C   UNL A   1      46.579  28.446  29.858  1.00  0.00     0.049 A 
ATOM     53  C   UNL A   1      41.123  29.698  29.584  1.00  0.00     0.074 A 
ATOM     54  C   UNL A   1      47.425  29.458  30.276  1.00  0.00     0.029 A 
ATOM     55  N   UNL A   1      45.291  28.960  29.891  1.00  0.00    -0.354 N 
ATOM     56  N   UNL A   1      42.422  29.557  29.697  1.00  0.00    -0.248 NA
ATOM     57  C   UNL A   1      40.620  31.020  29.980  1.00  0.00     0.031 C 
ATOM     58  C   UNL A   1      46.646  30.568  30.610  1.00  0.00     0.029 A 
ATOM     59  C   UNL A   1      45.319  30.270  30.341  1.00  0.00     0.049 A 
ATOM     60  H   UNL A   1      44.479  28.468  29.632  1.00  0.00     0.167 HD
ATOM     61  C   UNL A   1      42.894  30.770  30.179  1.00  0.00     0.074 A 
ATOM     62  C   UNL A   1      41.745  31.644  30.312  1.00  0.00     0.031 C 
ATOM     63  C   UNL A   1      44.166  31.121  30.486  1.00  0.00     0.031 A 
BRANCH  50  64
ATOM     64  C   UNL A   1      48.367  26.705  29.470  1.00  0.00    -0.014 A 
ATOM     65  C   UNL A   1      49.161  26.909  28.329  1.00  0.00     0.009 A 
ATOM     66  C   UNL A   1      48.936  26.076  30.588  1.00  0.00     0.009 A 
ATOM     67  C   UNL A   1      50.493  26.489  28.308  1.00  0.00     0.001 A 
ATOM     68  C   UNL A   1      50.277  25.682  30.573  1.00  0.00     0.001 A 
ATOM     69  C   UNL A   1      51.051  25.883  29.431  1.00  0.00     0.000 A 
ENDBRANCH  50  64
BRANCH  51  70
ATOM     70  C   UNL A   1      38.672  29.043  28.973  1.00  0.00    -0.014 A 
ATOM     71  C   UNL A   1      38.183  29.564  27.763  1.00  0.00     0.009 A 
ATOM     72  C   UNL A   1      37.805  28.952  30.072  1.00  0.00     0.009 A 
ATOM     73  C   UNL A   1      36.870  30.028  27.667  1.00  0.00     0.001 A 
ATOM     74  C   UNL A   1      36.483  29.391  29.965  1.00  0.00     0.001 A 
ATOM     75  C   UNL A   1      36.021  29.940  28.768  1.00  0.00     0.000 A 
ENDBRANCH  51  70
BRANCH  63  76
ATOM     76  C   UNL A   1      44.396  32.510  31.007  1.00  0.00    -0.014 A 
ATOM     77  C   UNL A   1      44.299  32.766  32.384  1.00  0.00     0.009 A 
ATOM     78  C   UNL A   1      44.611  33.582  30.126  1.00  0.00     0.009 A 
ATOM     79  C   UNL A   1      44.398  34.070  32.869  1.00  0.00     0.001 A 
ATOM     80  C   UNL A   1      44.735  34.883  30.619  1.00  0.00     0.001 A 
ATOM     81  C   UNL A   1      44.618  35.127  31.987  1.00  0.00     0.000 A 
ENDBRANCH  63  76
ENDBRANCH  37  38
ENDBRANCH  29  32
ENDBRANCH  27  28
ENDBRANCH  26  27
ENDBRANCH   1  26
TORSDOF 14
ENDMDL
MODEL 2
REMARK VINA RESULT:     -11.9      4.454      9.428
REMARK SMILES CC(C)CCc1cc2c(cc1Cl)C=C(C(=O)NCCCNC(=O)c1ccc(-c3c4nc(c(-c5ccccc5)c5ccc([nH]5)c(-c5ccccc5)c5nc(c(-c6ccccc6)c6ccc3[nH]6)C=C5)C=C4)cc1)[C@@H](C(F)(F)F)O2
REMARK SMILES IDX 18 1 17 2 15 3 16 4 14 6 6 7 7 8 11 9 8 10 10 11 12 12 9 13
REMARK SMILES IDX 77 14 13 15 72 16 5 17 4 18 2 19 1 20 3 21 73 22 74 23 75 24
REMARK SMILES IDX 76 25 19 26 20 27 21 28 22 29 23 31 24 32 25 33 71 34 26 35
REMARK SMILES IDX 70 36 27 37 28 38 29 39 64 40 30 41 69 42 63 43 65 44 31 45
REMARK SMILES IDX 68 46 62 47 61 48 32 50 54 51 39 52 53 53 40 54 43 55 52 56
REMARK SMILES IDX 66 57 41 58 42 59 51 61 67 62 44 63 33 64 34 65 38 66 35 67
REMARK SMILES IDX 37 68 36 69 55 70 56 71 60 72 57 73 59 74 58 75 45 76 46 77
REMARK SMILES IDX 50 78 47 79 49 80 48 81
REMARK H PARENT 17 5 21 30 65 49 43 60
REMARK Flexibility Score: inf
ROOT
ATOM      1  C   UNL A   1      31.535  30.520  26.351  1.00  0.00     0.118 C 
ENDROOT
BRANCH   1   2
ATOM      2  N   UNL A   1      31.207  30.107  24.995  1.00  0.00    -0.352 N 
ATOM      3  C   UNL A   1      31.189  28.960  24.279  1.00  0.00     0.251 C 
ATOM      4  O   UNL A   1      30.860  29.091  23.095  1.00  0.00    -0.270 OA
ATOM      5  H   UNL A   1      30.920  30.874  24.447  1.00  0.00     0.163 HD
BRANCH   3   6
ATOM      6  C   UNL A   1      31.523  27.609  24.808  1.00  0.00     0.067 C 
ATOM      7  C   UNL A   1      33.928  23.460  26.377  1.00  0.00    -0.026 A 
ATOM      8  C   UNL A   1      32.609  23.935  26.484  1.00  0.00     0.052 A 
ATOM      9  C   UNL A   1      34.888  24.293  25.776  1.00  0.00     0.045 A 
ATOM     10  C   UNL A   1      32.267  25.193  25.996  1.00  0.00     0.128 A 
ATOM     11  C   UNL A   1      34.545  25.574  25.325  1.00  0.00     0.032 A 
ATOM     12  Cl  UNL A   1      36.521  23.786  25.530  1.00  0.00    -0.084 Cl
ATOM     13  C   UNL A   1      33.230  26.025  25.429  1.00  0.00     0.019 A 
ATOM     14  O   UNL A   1      30.960  25.574  26.120  1.00  0.00    -0.475 OA
ATOM     15  C   UNL A   1      32.835  27.349  24.964  1.00  0.00     0.025 C 
ATOM     16  C   UNL A   1      30.511  26.544  25.130  1.00  0.00     0.314 C 
BRANCH   7  17
ATOM     17  C   UNL A   1      34.235  22.078  26.911  1.00  0.00     0.037 C 
BRANCH  17  18
ATOM     18  C   UNL A   1      33.480  20.932  26.223  1.00  0.00     0.008 C 
BRANCH  18  19
ATOM     19  C   UNL A   1      34.105  20.411  24.914  1.00  0.00    -0.017 C 
ATOM     20  C   UNL A   1      35.628  20.311  25.002  1.00  0.00     0.007 C 
ATOM     21  C   UNL A   1      33.513  19.039  24.575  1.00  0.00     0.007 C 
ENDBRANCH  18  19
ENDBRANCH  17  18
ENDBRANCH   7  17
BRANCH  16  22
ATOM     22  C   UNL A   1      30.001  25.806  23.874  1.00  0.00     0.429 C 
ATOM     23  F   UNL A   1      30.818  26.055  22.820  1.00  0.00    -0.167 F 
ATOM     24  F   UNL A   1      29.981  24.462  24.035  1.00  0.00    -0.167 F 
ATOM     25  F   UNL A   1      28.751  26.174  23.516  1.00  0.00    -0.167 F 
ENDBRANCH  16  22
ENDBRANCH   3   6
ENDBRANCH   1   2
BRANCH   1  26
ATOM     26  C   UNL A   1      31.419  32.027  26.521  1.00  0.00     0.042 C 
BRANCH  26  27
ATOM     27  C   UNL A   1      32.630  32.623  27.228  1.00  0.00     0.118 C 
BRANCH  27  28
ATOM     28  N   UNL A   1      32.410  34.012  27.624  1.00  0.00    -0.352 N 
ATOM     29  C   UNL A   1      33.031  34.774  28.584  1.00  0.00     0.251 C 
ATOM     30  H   UNL A   1      31.702  34.478  27.122  1.00  0.00     0.163 HD
ATOM     31  O   UNL A   1      32.547  35.850  28.921  1.00  0.00    -0.269 OA
BRANCH  29  32
ATOM     32  C   UNL A   1      34.267  34.288  29.228  1.00  0.00     0.039 A 
ATOM     33  C   UNL A   1      35.512  34.600  28.684  1.00  0.00     0.014 A 
ATOM     34  C   UNL A   1      34.183  33.509  30.387  1.00  0.00     0.014 A 
ATOM     35  C   UNL A   1      36.648  33.969  29.167  1.00  0.00     0.010 A 
ATOM     36  C   UNL A   1      35.345  32.967  30.942  1.00  0.00     0.010 A 
ATOM     37  C   UNL A   1      36.582  33.147  30.304  1.00  0.00    -0.014 A 
BRANCH  37  38
ATOM     38  C   UNL A   1      37.823  32.498  30.793  1.00  0.00     0.031 A 
ATOM     39  C   UNL A   1      38.491  32.962  32.057  1.00  0.00     0.074 A 
ATOM     40  C   UNL A   1      38.296  31.421  30.136  1.00  0.00     0.049 A 
ATOM     41  N   UNL A   1      39.548  32.469  32.656  1.00  0.00    -0.248 NA
ATOM     42  C   UNL A   1      37.906  34.126  32.741  1.00  0.00     0.031 C 
ATOM     43  C   UNL A   1      37.713  30.862  28.913  1.00  0.00     0.029 A 
ATOM     44  N   UNL A   1      39.336  30.576  30.426  1.00  0.00    -0.354 N 
ATOM     45  C   UNL A   1      39.761  33.269  33.771  1.00  0.00     0.074 A 
ATOM     46  C   UNL A   1      38.746  34.300  33.752  1.00  0.00     0.031 C 
ATOM     47  C   UNL A   1      38.348  29.722  28.608  1.00  0.00     0.029 A 
ATOM     48  C   UNL A   1      39.432  29.513  29.561  1.00  0.00     0.049 A 
ATOM     49  H   UNL A   1      39.952  30.716  31.180  1.00  0.00     0.167 HD
ATOM     50  C   UNL A   1      40.709  33.148  34.729  1.00  0.00     0.031 A 
ATOM     51  C   UNL A   1      40.299  28.484  29.526  1.00  0.00     0.031 A 
ATOM     52  C   UNL A   1      41.717  32.121  34.745  1.00  0.00     0.049 A 
ATOM     53  C   UNL A   1      41.373  28.400  30.568  1.00  0.00     0.074 A 
ATOM     54  C   UNL A   1      42.731  31.924  35.665  1.00  0.00     0.029 A 
ATOM     55  N   UNL A   1      41.834  31.115  33.798  1.00  0.00    -0.354 N 
ATOM     56  N   UNL A   1      41.579  29.185  31.598  1.00  0.00    -0.248 NA
ATOM     57  C   UNL A   1      42.340  27.303  30.438  1.00  0.00     0.031 C 
ATOM     58  C   UNL A   1      43.493  30.831  35.248  1.00  0.00     0.029 A 
ATOM     59  C   UNL A   1      42.917  30.306  34.101  1.00  0.00     0.049 A 
ATOM     60  H   UNL A   1      41.237  30.993  33.025  1.00  0.00     0.167 HD
ATOM     61  C   UNL A   1      42.699  28.679  32.240  1.00  0.00     0.074 A 
ATOM     62  C   UNL A   1      43.114  27.505  31.498  1.00  0.00     0.031 C 
ATOM     63  C   UNL A   1      43.329  29.152  33.343  1.00  0.00     0.031 A 
BRANCH  50  64
ATOM     64  C   UNL A   1      40.717  34.167  35.837  1.00  0.00    -0.014 A 
ATOM     65  C   UNL A   1      39.970  33.935  37.004  1.00  0.00     0.009 A 
ATOM     66  C   UNL A   1      41.414  35.378  35.708  1.00  0.00     0.009 A 
ATOM     67  C   UNL A   1      39.920  34.896  38.016  1.00  0.00     0.001 A 
ATOM     68  C   UNL A   1      41.384  36.325  36.735  1.00  0.00     0.001 A 
ATOM     69  C   UNL A   1      40.632  36.086  37.884  1.00  0.00     0.000 A 
ENDBRANCH  50  64
BRANCH  51  70
ATOM     70  C   UNL A   1      40.156  27.464  28.457  1.00  0.00    -0.014 A 
ATOM     71  C   UNL A   1      39.399  26.302  28.680  1.00  0.00     0.009 A 
ATOM     72  C   UNL A   1      40.860  27.594  27.250  1.00  0.00     0.009 A 
ATOM     73  C   UNL A   1      39.382  25.272  27.738  1.00  0.00     0.001 A 
ATOM     74  C   UNL A   1      40.818  26.574  26.296  1.00  0.00     0.001 A 
ATOM     75  C   UNL A   1      40.092  25.409  26.546  1.00  0.00     0.000 A 
ENDBRANCH  51  70
BRANCH  63  76
ATOM     76  C   UNL A   1      44.542  28.410  33.823  1.00  0.00    -0.014 A 
ATOM     77  C   UNL A   1      45.808  28.736  33.312  1.00  0.00     0.009 A 
ATOM     78  C   UNL A   1      44.420  27.324  34.704  1.00  0.00     0.009 A 
ATOM     79  C   UNL A   1      46.928  27.980  33.662  1.00  0.00     0.001 A 
ATOM     80  C   UNL A   1      45.547  26.586  35.072  1.00  0.00     0.001 A 
ATOM     81  C   UNL A   1      46.797  26.908  34.544  1.00  0.00     0.000 A 
ENDBRANCH  63  76
ENDBRANCH  37  38
ENDBRANCH  29  32
ENDBRANCH  27  28
ENDBRANCH  26  27
ENDBRANCH   1  26
TORSDOF 14
ENDMDL
MODEL 3
REMARK VINA RESULT:     -11.8      1.107      5.919
REMARK SMILES CC(C)CCc1cc2c(cc1Cl)C=C(C(=O)NCCCNC(=O)c1ccc(-c3c4nc(c(-c5ccccc5)c5ccc([nH]5)c(-c5ccccc5)c5nc(c(-c6ccccc6)c6ccc3[nH]6)C=C5)C=C4)cc1)[C@@H](C(F)(F)F)O2
REMARK SMILES IDX 18 1 17 2 15 3 16 4 14 6 6 7 7 8 11 9 8 10 10 11 12 12 9 13
REMARK SMILES IDX 77 14 13 15 72 16 5 17 4 18 2 19 1 20 3 21 73 22 74 23 75 24
REMARK SMILES IDX 76 25 19 26 20 27 21 28 22 29 23 31 24 32 25 33 71 34 26 35
REMARK SMILES IDX 70 36 27 37 28 38 29 39 64 40 30 41 69 42 63 43 65 44 31 45
REMARK SMILES IDX 68 46 62 47 61 48 32 50 54 51 39 52 53 53 40 54 43 55 52 56
REMARK SMILES IDX 66 57 41 58 42 59 51 61 67 62 44 63 33 64 34 65 38 66 35 67
REMARK SMILES IDX 37 68 36 69 55 70 56 71 60 72 57 73 59 74 58 75 45 76 46 77
REMARK SMILES IDX 50 78 47 79 49 80 48 81
REMARK H PARENT 17 5 21 30 65 49 43 60
REMARK Flexibility Score: inf
ROOT
ATOM      1  C   UNL A   1      36.508  20.539  25.145  1.00  0.00     0.118 C 
ENDROOT
BRANCH   1   2
ATOM      2  N   UNL A   1      35.411  19.607  24.936  1.00  0.00    -0.352 N 
ATOM      3  C   UNL A   1      34.064  19.660  24.831  1.00  0.00     0.251 C 
ATOM      4  O   UNL A   1      33.510  18.566  24.684  1.00  0.00    -0.270 OA
ATOM      5  H   UNL A   1      35.740  18.683  24.847  1.00  0.00     0.163 HD
BRANCH   3   6
ATOM      6  C   UNL A   1      33.245  20.903  24.876  1.00  0.00     0.067 C 
ATOM      7  C   UNL A   1      30.902  25.224  23.735  1.00  0.00    -0.026 A 
ATOM      8  C   UNL A   1      30.805  24.298  24.788  1.00  0.00     0.052 A 
ATOM      9  C   UNL A   1      31.771  24.930  22.670  1.00  0.00     0.045 A 
ATOM     10  C   UNL A   1      31.560  23.129  24.776  1.00  0.00     0.128 A 
ATOM     11  C   UNL A   1      32.496  23.732  22.645  1.00  0.00     0.032 A 
ATOM     12  Cl  UNL A   1      32.021  26.026  21.357  1.00  0.00    -0.084 Cl
ATOM     13  C   UNL A   1      32.397  22.830  23.703  1.00  0.00     0.019 A 
ATOM     14  O   UNL A   1      31.424  22.289  25.847  1.00  0.00    -0.475 OA
ATOM     15  C   UNL A   1      33.141  21.577  23.714  1.00  0.00     0.025 C 
ATOM     16  C   UNL A   1      32.583  21.446  26.111  1.00  0.00     0.314 C 
BRANCH   7  17
ATOM     17  C   UNL A   1      30.068  26.484  23.813  1.00  0.00     0.037 C 
BRANCH  17  18
ATOM     18  C   UNL A   1      30.699  27.634  24.612  1.00  0.00     0.008 C 
BRANCH  18  19
ATOM     19  C   UNL A   1      31.023  28.907  23.807  1.00  0.00    -0.017 C 
ATOM     20  C   UNL A   1      32.488  28.958  23.372  1.00  0.00     0.007 C 
ATOM     21  C   UNL A   1      30.114  28.980  22.576  1.00  0.00     0.007 C 
ENDBRANCH  18  19
ENDBRANCH  17  18
ENDBRANCH   7  17
BRANCH  16  22
ATOM     22  C   UNL A   1      33.567  22.193  27.036  1.00  0.00     0.429 C 
ATOM     23  F   UNL A   1      32.888  22.981  27.907  1.00  0.00    -0.167 F 
ATOM     24  F   UNL A   1      34.315  21.348  27.786  1.00  0.00    -0.167 F 
ATOM     25  F   UNL A   1      34.431  22.983  26.361  1.00  0.00    -0.167 F 
ENDBRANCH  16  22
ENDBRANCH   3   6
ENDBRANCH   1   2
BRANCH   1  26
ATOM     26  C   UNL A   1      37.851  19.910  24.807  1.00  0.00     0.042 C 
BRANCH  26  27
ATOM     27  C   UNL A   1      38.957  20.364  25.750  1.00  0.00     0.118 C 
BRANCH  27  28
ATOM     28  N   UNL A   1      39.965  19.328  25.959  1.00  0.00    -0.352 N 
ATOM     29  C   UNL A   1      41.323  19.431  26.145  1.00  0.00     0.251 C 
ATOM     30  H   UNL A   1      39.615  18.407  25.969  1.00  0.00     0.163 HD
ATOM     31  O   UNL A   1      42.029  18.429  26.074  1.00  0.00    -0.269 OA
BRANCH  29  32
ATOM     32  C   UNL A   1      41.936  20.748  26.406  1.00  0.00     0.039 A 
ATOM     33  C   UNL A   1      42.220  21.144  27.712  1.00  0.00     0.014 A 
ATOM     34  C   UNL A   1      42.229  21.598  25.335  1.00  0.00     0.014 A 
ATOM     35  C   UNL A   1      42.595  22.456  27.963  1.00  0.00     0.010 A 
ATOM     36  C   UNL A   1      42.719  22.883  25.586  1.00  0.00     0.010 A 
ATOM     37  C   UNL A   1      42.853  23.341  26.905  1.00  0.00    -0.014 A 
BRANCH  37  38
ATOM     38  C   UNL A   1      43.260  24.733  27.218  1.00  0.00     0.031 A 
ATOM     39  C   UNL A   1      42.250  25.751  27.673  1.00  0.00     0.074 A 
ATOM     40  C   UNL A   1      44.569  25.052  27.179  1.00  0.00     0.049 A 
ATOM     41  N   UNL A   1      42.446  26.993  28.042  1.00  0.00    -0.248 NA
ATOM     42  C   UNL A   1      40.842  25.327  27.721  1.00  0.00     0.031 C 
ATOM     43  C   UNL A   1      45.643  24.139  26.781  1.00  0.00     0.029 A 
ATOM     44  N   UNL A   1      45.223  26.207  27.523  1.00  0.00    -0.354 N 
ATOM     45  C   UNL A   1      41.190  27.500  28.347  1.00  0.00     0.074 A 
ATOM     46  C   UNL A   1      40.233  26.445  28.092  1.00  0.00     0.031 C 
ATOM     47  C   UNL A   1      46.824  24.737  26.986  1.00  0.00     0.029 A 
ATOM     48  C   UNL A   1      46.590  26.101  27.449  1.00  0.00     0.049 A 
ATOM     49  H   UNL A   1      44.759  27.030  27.798  1.00  0.00     0.167 HD
ATOM     50  C   UNL A   1      40.864  28.730  28.811  1.00  0.00     0.031 A 
ATOM     51  C   UNL A   1      47.557  26.999  27.714  1.00  0.00     0.031 A 
ATOM     52  C   UNL A   1      41.818  29.777  29.064  1.00  0.00     0.049 A 
ATOM     53  C   UNL A   1      47.171  28.371  28.175  1.00  0.00     0.074 A 
ATOM     54  C   UNL A   1      41.585  31.062  29.519  1.00  0.00     0.029 A 
ATOM     55  N   UNL A   1      43.189  29.656  28.889  1.00  0.00    -0.354 N 
ATOM     56  N   UNL A   1      45.974  28.844  28.429  1.00  0.00    -0.248 NA
ATOM     57  C   UNL A   1      48.259  29.337  28.374  1.00  0.00     0.031 C 
ATOM     58  C   UNL A   1      42.808  31.736  29.571  1.00  0.00     0.029 A 
ATOM     59  C   UNL A   1      43.811  30.851  29.208  1.00  0.00     0.049 A 
ATOM     60  H   UNL A   1      43.651  28.842  28.583  1.00  0.00     0.167 HD
ATOM     61  C   UNL A   1      46.163  30.163  28.816  1.00  0.00     0.074 A 
ATOM     62  C   UNL A   1      47.592  30.408  28.789  1.00  0.00     0.031 C 
ATOM     63  C   UNL A   1      45.232  31.086  29.158  1.00  0.00     0.031 A 
BRANCH  50  64
ATOM     64  C   UNL A   1      39.409  29.021  29.057  1.00  0.00    -0.014 A 
ATOM     65  C   UNL A   1      38.842  28.737  30.310  1.00  0.00     0.009 A 
ATOM     66  C   UNL A   1      38.584  29.524  28.039  1.00  0.00     0.009 A 
ATOM     67  C   UNL A   1      37.480  28.947  30.536  1.00  0.00     0.001 A 
ATOM     68  C   UNL A   1      37.228  29.760  28.277  1.00  0.00     0.001 A 
ATOM     69  C   UNL A   1      36.676  29.464  29.523  1.00  0.00     0.000 A 
ENDBRANCH  50  64
BRANCH  51  70
ATOM     70  C   UNL A   1      48.976  26.595  27.543  1.00  0.00    -0.014 A 
ATOM     71  C   UNL A   1      49.562  26.579  26.266  1.00  0.00     0.009 A 
ATOM     72  C   UNL A   1      49.719  26.125  28.636  1.00  0.00     0.009 A 
ATOM     73  C   UNL A   1      50.843  26.060  26.078  1.00  0.00     0.001 A 
ATOM     74  C   UNL A   1      51.013  25.632  28.450  1.00  0.00     0.001 A 
ATOM     75  C   UNL A   1      51.568  25.588  27.170  1.00  0.00     0.000 A 
ENDBRANCH  51  70
BRANCH  63  76
ATOM     76  C   UNL A   1      45.717  32.458  29.527  1.00  0.00    -0.014 A 
ATOM     77  C   UNL A   1      45.993  32.764  30.869  1.00  0.00     0.009 A 
ATOM     78  C   UNL A   1      45.806  33.474  28.562  1.00  0.00     0.009 A 
ATOM     79  C   UNL A   1      46.335  34.065  31.241  1.00  0.00     0.001 A 
ATOM     80  C   UNL A   1      46.174  34.768  28.936  1.00  0.00     0.001 A 
ATOM     81  C   UNL A   1      46.428  35.064  30.275  1.00  0.00     0.000 A 
ENDBRANCH  63  76
ENDBRANCH  37  38
ENDBRANCH  29  32
ENDBRANCH  27  28
ENDBRANCH  26  27
ENDBRANCH   1  26
TORSDOF 14
ENDMDL
