MODEL 1
REMARK VINA RESULT:      -9.0      0.000      0.000
REMARK SMILES Cn1ccnc1NCCOCC(=O)NCCCNC(=O)c1ccc(-c2c3nc(c(-c4ccccc4)c4ccc([nH]4)c(-c4ccccc4)c4nc(c(-c5ccccc5)c5ccc2[nH]5)C=C4)C=C3)cc1
REMARK SMILES IDX 12 1 13 2 14 3 11 5 10 6 9 7 8 8 7 9 6 11 1 12 2 13 3 14
REMARK SMILES IDX 4 15 5 16 15 17 16 18 17 19 18 20 19 21 20 23 21 24 22 25
REMARK SMILES IDX 68 26 23 27 67 28 24 29 25 30 26 31 61 32 27 33 66 34 60 35
REMARK SMILES IDX 62 36 28 37 65 38 59 39 58 40 29 42 51 43 36 44 50 45 37 46
REMARK SMILES IDX 40 47 49 48 63 49 38 50 39 51 48 53 64 54 41 55 30 56 31 57
REMARK SMILES IDX 35 58 32 59 34 60 33 61 52 62 53 63 57 64 54 65 56 66 55 67
REMARK SMILES IDX 42 68 43 69 47 70 44 71 46 72 45 73
REMARK H PARENT 14 4 7 10 18 22 62 41 40 52
REMARK Flexibility Score: inf
ROOT
ATOM      1  C   UNL A   1      43.359  18.529  25.891  1.00  0.00     0.245 C 
ATOM      2  O   UNL A   1      43.198  17.407  26.375  1.00  0.00    -0.272 OA
ATOM      3  N   UNL A   1      42.540  19.547  26.289  1.00  0.00    -0.354 N 
ATOM      4  H   UNL A   1      41.792  19.294  26.878  1.00  0.00     0.163 HD
ENDROOT
BRANCH   1   5
ATOM      5  C   UNL A   1      44.470  18.824  24.876  1.00  0.00     0.260 C 
BRANCH   5   6
ATOM      6  O   UNL A   1      45.715  19.260  25.395  1.00  0.00    -0.370 OA
BRANCH   6   7
ATOM      7  C   UNL A   1      46.290  20.388  24.714  1.00  0.00     0.182 C 
BRANCH   7   8
ATOM      8  C   UNL A   1      45.942  21.746  25.350  1.00  0.00     0.144 C 
BRANCH   8   9
ATOM      9  N   UNL A   1      45.642  22.752  24.345  1.00  0.00    -0.353 N 
ATOM     10  H   UNL A   1      45.837  22.565  23.398  1.00  0.00     0.163 HD
BRANCH   9  11
ATOM     11  C   UNL A   1      45.102  23.936  24.690  1.00  0.00     0.202 A 
ATOM     12  C   UNL A   1      47.308  25.141  25.003  1.00  0.00     0.153 C 
ATOM     13  N   UNL A   1      45.875  25.009  25.071  1.00  0.00    -0.321 N 
ATOM     14  C   UNL A   1      45.031  26.013  25.471  1.00  0.00     0.109 A 
ATOM     15  C   UNL A   1      43.769  25.519  25.252  1.00  0.00     0.133 A 
ATOM     16  N   UNL A   1      43.826  24.249  24.738  1.00  0.00    -0.222 NA
ENDBRANCH   9  11
ENDBRANCH   8   9
ENDBRANCH   7   8
ENDBRANCH   6   7
ENDBRANCH   5   6
ENDBRANCH   1   5
BRANCH   3  17
ATOM     17  C   UNL A   1      42.636  20.955  25.954  1.00  0.00     0.117 C 
BRANCH  17  18
ATOM     18  C   UNL A   1      42.217  21.869  27.095  1.00  0.00     0.042 C 
BRANCH  18  19
ATOM     19  C   UNL A   1      40.835  21.574  27.671  1.00  0.00     0.118 C 
BRANCH  19  20
ATOM     20  N   UNL A   1      39.760  21.755  26.703  1.00  0.00    -0.352 N 
ATOM     21  C   UNL A   1      39.021  22.864  26.374  1.00  0.00     0.251 C 
ATOM     22  H   UNL A   1      39.525  20.944  26.198  1.00  0.00     0.163 HD
ATOM     23  O   UNL A   1      38.049  22.740  25.633  1.00  0.00    -0.269 OA
BRANCH  21  24
ATOM     24  C   UNL A   1      39.360  24.198  26.915  1.00  0.00     0.039 A 
ATOM     25  C   UNL A   1      38.941  24.521  28.210  1.00  0.00     0.014 A 
ATOM     26  C   UNL A   1      40.046  25.144  26.150  1.00  0.00     0.014 A 
ATOM     27  C   UNL A   1      39.273  25.760  28.761  1.00  0.00     0.010 A 
ATOM     28  C   UNL A   1      40.444  26.348  26.727  1.00  0.00     0.010 A 
ATOM     29  C   UNL A   1      40.061  26.669  28.038  1.00  0.00    -0.014 A 
BRANCH  29  30
ATOM     30  C   UNL A   1      40.503  27.951  28.641  1.00  0.00     0.031 A 
ATOM     31  C   UNL A   1      39.534  29.086  28.822  1.00  0.00     0.074 A 
ATOM     32  C   UNL A   1      41.800  28.118  28.965  1.00  0.00     0.049 A 
ATOM     33  N   UNL A   1      39.753  30.294  29.279  1.00  0.00    -0.248 NA
ATOM     34  C   UNL A   1      38.143  28.842  28.411  1.00  0.00     0.031 C 
ATOM     35  C   UNL A   1      42.852  27.116  28.791  1.00  0.00     0.029 A 
ATOM     36  N   UNL A   1      42.455  29.200  29.497  1.00  0.00    -0.354 N 
ATOM     37  C   UNL A   1      38.535  30.955  29.197  1.00  0.00     0.074 A 
ATOM     38  C   UNL A   1      37.594  30.032  28.599  1.00  0.00     0.031 C 
ATOM     39  C   UNL A   1      44.017  27.622  29.227  1.00  0.00     0.029 A 
ATOM     40  C   UNL A   1      43.800  28.994  29.675  1.00  0.00     0.049 A 
ATOM     41  H   UNL A   1      42.004  30.044  29.728  1.00  0.00     0.167 HD
ATOM     42  C   UNL A   1      38.220  32.210  29.601  1.00  0.00     0.031 A 
ATOM     43  C   UNL A   1      44.759  29.817  30.140  1.00  0.00     0.031 A 
ATOM     44  C   UNL A   1      39.153  33.129  30.196  1.00  0.00     0.049 A 
ATOM     45  C   UNL A   1      44.389  31.202  30.582  1.00  0.00     0.074 A 
ATOM     46  C   UNL A   1      38.917  34.402  30.684  1.00  0.00     0.029 A 
ATOM     47  N   UNL A   1      40.503  32.874  30.378  1.00  0.00    -0.354 N 
ATOM     48  N   UNL A   1      43.216  31.789  30.563  1.00  0.00    -0.248 NA
ATOM     49  C   UNL A   1      45.472  32.036  31.123  1.00  0.00     0.031 C 
ATOM     50  C   UNL A   1      40.136  34.935  31.121  1.00  0.00     0.029 A 
ATOM     51  C   UNL A   1      41.120  33.974  30.952  1.00  0.00     0.049 A 
ATOM     52  H   UNL A   1      40.957  32.035  30.135  1.00  0.00     0.167 HD
ATOM     53  C   UNL A   1      43.416  33.053  31.103  1.00  0.00     0.074 A 
ATOM     54  C   UNL A   1      44.818  33.138  31.460  1.00  0.00     0.031 C 
ATOM     55  C   UNL A   1      42.518  34.051  31.288  1.00  0.00     0.031 A 
BRANCH  42  56
ATOM     56  C   UNL A   1      36.797  32.656  29.397  1.00  0.00    -0.014 A 
ATOM     57  C   UNL A   1      36.385  33.237  28.186  1.00  0.00     0.009 A 
ATOM     58  C   UNL A   1      35.856  32.486  30.423  1.00  0.00     0.009 A 
ATOM     59  C   UNL A   1      35.072  33.682  28.025  1.00  0.00     0.001 A 
ATOM     60  C   UNL A   1      34.535  32.904  30.249  1.00  0.00     0.001 A 
ATOM     61  C   UNL A   1      34.147  33.513  29.055  1.00  0.00     0.000 A 
ENDBRANCH  42  56
BRANCH  43  62
ATOM     62  C   UNL A   1      46.162  29.336  30.225  1.00  0.00    -0.014 A 
ATOM     63  C   UNL A   1      47.045  29.526  29.153  1.00  0.00     0.009 A 
ATOM     64  C   UNL A   1      46.628  28.708  31.391  1.00  0.00     0.009 A 
ATOM     65  C   UNL A   1      48.367  29.079  29.240  1.00  0.00     0.001 A 
ATOM     66  C   UNL A   1      47.956  28.286  31.483  1.00  0.00     0.001 A 
ATOM     67  C   UNL A   1      48.822  28.466  30.407  1.00  0.00     0.000 A 
ENDBRANCH  43  62
BRANCH  55  68
ATOM     68  C   UNL A   1      43.024  35.317  31.919  1.00  0.00    -0.014 A 
ATOM     69  C   UNL A   1      42.896  35.543  33.299  1.00  0.00     0.009 A 
ATOM     70  C   UNL A   1      43.665  36.282  31.128  1.00  0.00     0.009 A 
ATOM     71  C   UNL A   1      43.371  36.727  33.867  1.00  0.00     0.001 A 
ATOM     72  C   UNL A   1      44.163  37.451  31.703  1.00  0.00     0.001 A 
ATOM     73  C   UNL A   1      44.008  37.678  33.070  1.00  0.00     0.000 A 
ENDBRANCH  55  68
ENDBRANCH  29  30
ENDBRANCH  21  24
ENDBRANCH  19  20
ENDBRANCH  18  19
ENDBRANCH  17  18
ENDBRANCH   3  17
TORSDOF 15
ENDMDL
MODEL 2
REMARK VINA RESULT:      -9.0      4.010      9.330
REMARK SMILES Cn1ccnc1NCCOCC(=O)NCCCNC(=O)c1ccc(-c2c3nc(c(-c4ccccc4)c4ccc([nH]4)c(-c4ccccc4)c4nc(c(-c5ccccc5)c5ccc2[nH]5)C=C4)C=C3)cc1
REMARK SMILES IDX 12 1 13 2 14 3 11 5 10 6 9 7 8 8 7 9 6 11 1 12 2 13 3 14
REMARK SMILES IDX 4 15 5 16 15 17 16 18 17 19 18 20 19 21 20 23 21 24 22 25
REMARK SMILES IDX 68 26 23 27 67 28 24 29 25 30 26 31 61 32 27 33 66 34 60 35
REMARK SMILES IDX 62 36 28 37 65 38 59 39 58 40 29 42 51 43 36 44 50 45 37 46
REMARK SMILES IDX 40 47 49 48 63 49 38 50 39 51 48 53 64 54 41 55 30 56 31 57
REMARK SMILES IDX 35 58 32 59 34 60 33 61 52 62 53 63 57 64 54 65 56 66 55 67
REMARK SMILES IDX 42 68 43 69 47 70 44 71 46 72 45 73
REMARK H PARENT 14 4 7 10 18 22 62 41 40 52
REMARK Flexibility Score: inf
ROOT
ATOM      1  C   UNL A   1      33.917  20.381  25.192  1.00  0.00     0.245 C 
ATOM      2  O   UNL A   1      32.962  19.614  25.323  1.00  0.00    -0.272 OA
ATOM      3  N   UNL A   1      35.179  19.865  25.126  1.00  0.00    -0.354 N 
ATOM      4  H   UNL A   1      35.259  18.897  25.288  1.00  0.00     0.163 HD
ENDROOT
BRANCH   1   5
ATOM      5  C   UNL A   1      33.728  21.898  25.074  1.00  0.00     0.260 C 
BRANCH   5   6
ATOM      6  O   UNL A   1      32.409  22.396  25.229  1.00  0.00    -0.370 OA
BRANCH   6   7
ATOM      7  C   UNL A   1      32.136  22.986  26.511  1.00  0.00     0.182 C 
BRANCH   7   8
ATOM      8  C   UNL A   1      30.636  23.114  26.833  1.00  0.00     0.144 C 
BRANCH   8   9
ATOM      9  N   UNL A   1      29.978  24.077  25.965  1.00  0.00    -0.353 N 
ATOM     10  H   UNL A   1      29.139  23.829  25.513  1.00  0.00     0.163 HD
BRANCH   9  11
ATOM     11  C   UNL A   1      30.499  25.303  25.773  1.00  0.00     0.202 A 
ATOM     12  C   UNL A   1      30.836  25.046  23.275  1.00  0.00     0.153 C 
ATOM     13  N   UNL A   1      30.967  25.713  24.546  1.00  0.00    -0.321 N 
ATOM     14  C   UNL A   1      31.537  26.950  24.706  1.00  0.00     0.109 A 
ATOM     15  C   UNL A   1      31.328  27.264  26.027  1.00  0.00     0.133 A 
ATOM     16  N   UNL A   1      30.657  26.254  26.666  1.00  0.00    -0.222 NA
ENDBRANCH   9  11
ENDBRANCH   8   9
ENDBRANCH   7   8
ENDBRANCH   6   7
ENDBRANCH   5   6
ENDBRANCH   1   5
BRANCH   3  17
ATOM     17  C   UNL A   1      36.418  20.565  24.845  1.00  0.00     0.117 C 
BRANCH  17  18
ATOM     18  C   UNL A   1      37.642  19.665  24.923  1.00  0.00     0.042 C 
BRANCH  18  19
ATOM     19  C   UNL A   1      38.812  20.251  25.708  1.00  0.00     0.118 C 
BRANCH  19  20
ATOM     20  N   UNL A   1      39.976  19.374  25.742  1.00  0.00    -0.352 N 
ATOM     21  C   UNL A   1      41.287  19.627  26.058  1.00  0.00     0.251 C 
ATOM     22  H   UNL A   1      39.790  18.439  25.496  1.00  0.00     0.163 HD
ATOM     23  O   UNL A   1      42.132  18.759  25.861  1.00  0.00    -0.269 OA
BRANCH  21  24
ATOM     24  C   UNL A   1      41.702  20.935  26.612  1.00  0.00     0.039 A 
ATOM     25  C   UNL A   1      42.182  21.911  25.732  1.00  0.00     0.014 A 
ATOM     26  C   UNL A   1      41.661  21.195  27.983  1.00  0.00     0.014 A 
ATOM     27  C   UNL A   1      42.551  23.166  26.219  1.00  0.00     0.010 A 
ATOM     28  C   UNL A   1      41.954  22.472  28.458  1.00  0.00     0.010 A 
ATOM     29  C   UNL A   1      42.403  23.470  27.581  1.00  0.00    -0.014 A 
BRANCH  29  30
ATOM     30  C   UNL A   1      42.700  24.828  28.101  1.00  0.00     0.031 A 
ATOM     31  C   UNL A   1      44.091  25.191  28.543  1.00  0.00     0.074 A 
ATOM     32  C   UNL A   1      41.698  25.718  28.243  1.00  0.00     0.049 A 
ATOM     33  N   UNL A   1      44.524  26.308  29.073  1.00  0.00    -0.248 NA
ATOM     34  C   UNL A   1      45.125  24.156  28.393  1.00  0.00     0.031 C 
ATOM     35  C   UNL A   1      40.296  25.474  27.902  1.00  0.00     0.029 A 
ATOM     36  N   UNL A   1      41.707  27.003  28.722  1.00  0.00    -0.354 N 
ATOM     37  C   UNL A   1      45.872  26.104  29.333  1.00  0.00     0.074 A 
ATOM     38  C   UNL A   1      46.174  24.741  28.951  1.00  0.00     0.031 C 
ATOM     39  C   UNL A   1      39.582  26.580  28.165  1.00  0.00     0.029 A 
ATOM     40  C   UNL A   1      40.468  27.596  28.725  1.00  0.00     0.049 A 
ATOM     41  H   UNL A   1      42.522  27.457  29.035  1.00  0.00     0.167 HD
ATOM     42  C   UNL A   1      46.785  26.977  29.826  1.00  0.00     0.031 A 
ATOM     43  C   UNL A   1      40.083  28.817  29.138  1.00  0.00     0.031 A 
ATOM     44  C   UNL A   1      46.488  28.332  30.206  1.00  0.00     0.049 A 
ATOM     45  C   UNL A   1      41.108  29.768  29.682  1.00  0.00     0.074 A 
ATOM     46  C   UNL A   1      47.353  29.308  30.668  1.00  0.00     0.029 A 
ATOM     47  N   UNL A   1      45.224  28.901  30.175  1.00  0.00    -0.354 N 
ATOM     48  N   UNL A   1      42.395  29.583  29.856  1.00  0.00    -0.248 NA
ATOM     49  C   UNL A   1      40.631  31.103  30.073  1.00  0.00     0.031 C 
ATOM     50  C   UNL A   1      46.605  30.454  30.959  1.00  0.00     0.029 A 
ATOM     51  C   UNL A   1      45.281  30.208  30.629  1.00  0.00     0.049 A 
ATOM     52  H   UNL A   1      44.406  28.442  29.874  1.00  0.00     0.167 HD
ATOM     53  C   UNL A   1      42.884  30.781  30.361  1.00  0.00     0.074 A 
ATOM     54  C   UNL A   1      41.760  31.691  30.444  1.00  0.00     0.031 C 
ATOM     55  C   UNL A   1      44.152  31.098  30.721  1.00  0.00     0.031 A 
BRANCH  42  56
ATOM     56  C   UNL A   1      48.194  26.474  29.987  1.00  0.00    -0.014 A 
ATOM     57  C   UNL A   1      49.142  26.631  28.962  1.00  0.00     0.009 A 
ATOM     58  C   UNL A   1      48.581  25.845  31.179  1.00  0.00     0.009 A 
ATOM     59  C   UNL A   1      50.434  26.125  29.110  1.00  0.00     0.001 A 
ATOM     60  C   UNL A   1      49.884  25.367  31.337  1.00  0.00     0.001 A 
ATOM     61  C   UNL A   1      50.805  25.496  30.298  1.00  0.00     0.000 A 
ENDBRANCH  42  56
BRANCH  43  62
ATOM     62  C   UNL A   1      38.654  29.210  29.035  1.00  0.00    -0.014 A 
ATOM     63  C   UNL A   1      37.805  29.106  30.145  1.00  0.00     0.009 A 
ATOM     64  C   UNL A   1      38.142  29.715  27.829  1.00  0.00     0.009 A 
ATOM     65  C   UNL A   1      36.463  29.485  30.046  1.00  0.00     0.001 A 
ATOM     66  C   UNL A   1      36.807  30.117  27.741  1.00  0.00     0.001 A 
ATOM     67  C   UNL A   1      35.968  29.995  28.847  1.00  0.00     0.000 A 
ENDBRANCH  43  62
BRANCH  55  68
ATOM     68  C   UNL A   1      44.391  32.493  31.224  1.00  0.00    -0.014 A 
ATOM     69  C   UNL A   1      44.282  32.803  32.588  1.00  0.00     0.009 A 
ATOM     70  C   UNL A   1      44.762  33.503  30.323  1.00  0.00     0.009 A 
ATOM     71  C   UNL A   1      44.506  34.107  33.036  1.00  0.00     0.001 A 
ATOM     72  C   UNL A   1      45.012  34.799  30.777  1.00  0.00     0.001 A 
ATOM     73  C   UNL A   1      44.875  35.102  32.131  1.00  0.00     0.000 A 
ENDBRANCH  55  68
ENDBRANCH  29  30
ENDBRANCH  21  24
ENDBRANCH  19  20
ENDBRANCH  18  19
ENDBRANCH  17  18
ENDBRANCH   3  17
TORSDOF 15
ENDMDL
MODEL 3
REMARK VINA RESULT:      -8.9      5.223     10.959
REMARK SMILES Cn1ccnc1NCCOCC(=O)NCCCNC(=O)c1ccc(-c2c3nc(c(-c4ccccc4)c4ccc([nH]4)c(-c4ccccc4)c4nc(c(-c5ccccc5)c5ccc2[nH]5)C=C4)C=C3)cc1
REMARK SMILES IDX 12 1 13 2 14 3 11 5 10 6 9 7 8 8 7 9 6 11 1 12 2 13 3 14
REMARK SMILES IDX 4 15 5 16 15 17 16 18 17 19 18 20 19 21 20 23 21 24 22 25
REMARK SMILES IDX 68 26 23 27 67 28 24 29 25 30 26 31 61 32 27 33 66 34 60 35
REMARK SMILES IDX 62 36 28 37 65 38 59 39 58 40 29 42 51 43 36 44 50 45 37 46
REMARK SMILES IDX 40 47 49 48 63 49 38 50 39 51 48 53 64 54 41 55 30 56 31 57
REMARK SMILES IDX 35 58 32 59 34 60 33 61 52 62 53 63 57 64 54 65 56 66 55 67
REMARK SMILES IDX 42 68 43 69 47 70 44 71 46 72 45 73
REMARK H PARENT 14 4 7 10 18 22 62 41 40 52
REMARK Flexibility Score: inf
ROOT
ATOM      1  C   UNL A   1      31.773  28.442  27.025  1.00  0.00     0.245 C 
ATOM      2  O   UNL A   1      31.800  27.686  27.997  1.00  0.00    -0.272 OA
ATOM      3  N   UNL A   1      31.695  29.790  27.234  1.00  0.00    -0.354 N 
ATOM      4  H   UNL A   1      31.564  30.075  28.167  1.00  0.00     0.163 HD
ENDROOT
BRANCH   1   5
ATOM      5  C   UNL A   1      31.852  27.918  25.587  1.00  0.00     0.260 C 
BRANCH   5   6
ATOM      6  O   UNL A   1      30.648  27.438  25.010  1.00  0.00    -0.370 OA
BRANCH   6   7
ATOM      7  C   UNL A   1      30.459  27.790  23.630  1.00  0.00     0.182 C 
BRANCH   7   8
ATOM      8  C   UNL A   1      30.640  29.291  23.337  1.00  0.00     0.144 C 
BRANCH   8   9
ATOM      9  N   UNL A   1      29.380  30.012  23.417  1.00  0.00    -0.353 N 
ATOM     10  H   UNL A   1      28.889  30.038  24.270  1.00  0.00     0.163 HD
BRANCH   9  11
ATOM     11  C   UNL A   1      28.876  30.645  22.341  1.00  0.00     0.202 A 
ATOM     12  C   UNL A   1      29.179  32.987  23.259  1.00  0.00     0.153 C 
ATOM     13  N   UNL A   1      28.711  32.010  22.308  1.00  0.00    -0.321 N 
ATOM     14  C   UNL A   1      28.072  32.327  21.137  1.00  0.00     0.109 A 
ATOM     15  C   UNL A   1      27.934  31.130  20.477  1.00  0.00     0.133 A 
ATOM     16  N   UNL A   1      28.464  30.104  21.216  1.00  0.00    -0.222 NA
ENDBRANCH   9  11
ENDBRANCH   8   9
ENDBRANCH   7   8
ENDBRANCH   6   7
ENDBRANCH   5   6
ENDBRANCH   1   5
BRANCH   3  17
ATOM     17  C   UNL A   1      31.783  30.853  26.252  1.00  0.00     0.117 C 
BRANCH  17  18
ATOM     18  C   UNL A   1      31.562  32.235  26.849  1.00  0.00     0.042 C 
BRANCH  18  19
ATOM     19  C   UNL A   1      32.843  32.999  27.174  1.00  0.00     0.118 C 
BRANCH  19  20
ATOM     20  N   UNL A   1      32.603  34.231  27.914  1.00  0.00    -0.352 N 
ATOM     21  C   UNL A   1      33.253  34.776  28.993  1.00  0.00     0.251 C 
ATOM     22  H   UNL A   1      31.845  34.765  27.583  1.00  0.00     0.163 HD
ATOM     23  O   UNL A   1      32.770  35.756  29.554  1.00  0.00    -0.269 OA
BRANCH  21  24
ATOM     24  C   UNL A   1      34.512  34.190  29.503  1.00  0.00     0.039 A 
ATOM     25  C   UNL A   1      34.453  33.342  30.613  1.00  0.00     0.014 A 
ATOM     26  C   UNL A   1      35.747  34.498  28.929  1.00  0.00     0.014 A 
ATOM     27  C   UNL A   1      35.619  32.748  31.099  1.00  0.00     0.010 A 
ATOM     28  C   UNL A   1      36.899  33.845  29.364  1.00  0.00     0.010 A 
ATOM     29  C   UNL A   1      36.847  32.964  30.454  1.00  0.00    -0.014 A 
BRANCH  29  30
ATOM     30  C   UNL A   1      38.080  32.267  30.897  1.00  0.00     0.031 A 
ATOM     31  C   UNL A   1      38.939  32.850  31.985  1.00  0.00     0.074 A 
ATOM     32  C   UNL A   1      38.467  31.140  30.269  1.00  0.00     0.049 A 
ATOM     33  N   UNL A   1      40.076  32.411  32.463  1.00  0.00    -0.248 NA
ATOM     34  C   UNL A   1      38.472  34.103  32.598  1.00  0.00     0.031 C 
ATOM     35  C   UNL A   1      37.752  30.499  29.164  1.00  0.00     0.029 A 
ATOM     36  N   UNL A   1      39.564  30.340  30.466  1.00  0.00    -0.354 N 
ATOM     37  C   UNL A   1      40.467  33.339  33.419  1.00  0.00     0.074 A 
ATOM     38  C   UNL A   1      39.472  34.391  33.417  1.00  0.00     0.031 C 
ATOM     39  C   UNL A   1      38.419  29.395  28.792  1.00  0.00     0.029 A 
ATOM     40  C   UNL A   1      39.624  29.271  29.608  1.00  0.00     0.049 A 
ATOM     41  H   UNL A   1      40.244  30.517  31.155  1.00  0.00     0.167 HD
ATOM     42  C   UNL A   1      41.544  33.312  34.241  1.00  0.00     0.031 A 
ATOM     43  C   UNL A   1      40.547  28.299  29.481  1.00  0.00     0.031 A 
ATOM     44  C   UNL A   1      42.534  32.268  34.246  1.00  0.00     0.049 A 
ATOM     45  C   UNL A   1      41.733  28.287  30.401  1.00  0.00     0.074 A 
ATOM     46  C   UNL A   1      43.634  32.125  35.074  1.00  0.00     0.029 A 
ATOM     47  N   UNL A   1      42.548  31.191  33.374  1.00  0.00    -0.354 N 
ATOM     48  N   UNL A   1      42.052  29.136  31.349  1.00  0.00    -0.248 NA
ATOM     49  C   UNL A   1      42.681  27.175  30.243  1.00  0.00     0.031 C 
ATOM     50  C   UNL A   1      44.338  30.984  34.674  1.00  0.00     0.029 A 
ATOM     51  C   UNL A   1      43.648  30.388  33.629  1.00  0.00     0.049 A 
ATOM     52  H   UNL A   1      41.874  31.021  32.676  1.00  0.00     0.167 HD
ATOM     53  C   UNL A   1      43.226  28.652  31.911  1.00  0.00     0.074 A 
ATOM     54  C   UNL A   1      43.551  27.425  31.211  1.00  0.00     0.031 C 
ATOM     55  C   UNL A   1      43.967  29.178  32.916  1.00  0.00     0.031 A 
BRANCH  42  56
ATOM     56  C   UNL A   1      41.703  34.462  35.199  1.00  0.00    -0.014 A 
ATOM     57  C   UNL A   1      41.143  34.417  36.486  1.00  0.00     0.009 A 
ATOM     58  C   UNL A   1      42.428  35.599  34.813  1.00  0.00     0.009 A 
ATOM     59  C   UNL A   1      41.266  35.507  37.350  1.00  0.00     0.001 A 
ATOM     60  C   UNL A   1      42.575  36.676  35.690  1.00  0.00     0.001 A 
ATOM     61  C   UNL A   1      41.983  36.634  36.953  1.00  0.00     0.000 A 
ENDBRANCH  42  56
BRANCH  43  62
ATOM     62  C   UNL A   1      40.370  27.247  28.448  1.00  0.00    -0.014 A 
ATOM     63  C   UNL A   1      39.613  26.099  28.723  1.00  0.00     0.009 A 
ATOM     64  C   UNL A   1      40.937  27.401  27.173  1.00  0.00     0.009 A 
ATOM     65  C   UNL A   1      39.442  25.116  27.745  1.00  0.00     0.001 A 
ATOM     66  C   UNL A   1      40.743  26.428  26.191  1.00  0.00     0.001 A 
ATOM     67  C   UNL A   1      40.001  25.284  26.479  1.00  0.00     0.000 A 
ENDBRANCH  43  62
BRANCH  55  68
ATOM     68  C   UNL A   1      45.194  28.417  33.331  1.00  0.00    -0.014 A 
ATOM     69  C   UNL A   1      45.130  27.408  34.305  1.00  0.00     0.009 A 
ATOM     70  C   UNL A   1      46.425  28.692  32.716  1.00  0.00     0.009 A 
ATOM     71  C   UNL A   1      46.282  26.713  34.678  1.00  0.00     0.001 A 
ATOM     72  C   UNL A   1      47.569  27.977  33.071  1.00  0.00     0.001 A 
ATOM     73  C   UNL A   1      47.499  26.995  34.058  1.00  0.00     0.000 A 
ENDBRANCH  55  68
ENDBRANCH  29  30
ENDBRANCH  21  24
ENDBRANCH  19  20
ENDBRANCH  18  19
ENDBRANCH  17  18
ENDBRANCH   3  17
TORSDOF 15
ENDMDL
