MODEL 1
REMARK VINA RESULT:     -13.5      0.000      0.000
REMARK SMILES C[C@@H](NC(=O)[C@H]1CC=CC[C@@H]1C(=O)NCCCNC(=O)c1ccc(-c2c3nc(c(-c4ccccc4)c4ccc([nH]4)c(-c4ccccc4)c4nc(c(-c5ccccc5)c5ccc2[nH]5)C=C4)C=C3)cc1)c1ccc(-n2ccnc2)cc1
REMARK SMILES IDX 15 1 14 2 12 3 13 4 11 6 6 7 7 8 8 9 10 10 9 11 4 12 3 13
REMARK SMILES IDX 5 15 2 16 1 17 69 18 70 19 79 20 71 21 78 22 72 23 73 24
REMARK SMILES IDX 74 25 77 26 75 27 76 28 16 29 17 30 18 31 19 32 20 34 21 35
REMARK SMILES IDX 22 36 68 37 23 38 67 39 24 40 25 41 26 42 61 43 27 44 66 45
REMARK SMILES IDX 60 46 62 47 28 48 65 49 59 50 58 51 29 53 51 54 36 55 50 56
REMARK SMILES IDX 37 57 40 58 49 59 63 60 38 61 39 62 48 64 64 65 41 66 30 67
REMARK SMILES IDX 31 68 35 69 32 70 34 71 33 72 52 73 53 74 57 75 54 76 56 77
REMARK SMILES IDX 55 78 42 79 43 80 47 81 44 82 46 83 45 84
REMARK H PARENT 14 5 3 14 18 33 62 52 40 63
REMARK Flexibility Score: inf
ROOT
ATOM      1  C   UNL A   1      31.699  30.391  26.588  1.00  0.00     0.117 C 
ENDROOT
BRANCH   1   2
ATOM      2  N   UNL A   1      32.932  29.900  27.150  1.00  0.00    -0.356 N 
ATOM      3  C   UNL A   1      33.809  28.964  26.744  1.00  0.00     0.224 C 
ATOM      4  O   UNL A   1      34.926  29.028  27.272  1.00  0.00    -0.275 OA
ATOM      5  H   UNL A   1      33.181  30.336  27.997  1.00  0.00     0.163 HD
BRANCH   3   6
ATOM      6  C   UNL A   1      33.530  27.856  25.719  1.00  0.00     0.095 C 
ATOM      7  C   UNL A   1      32.981  28.171  23.876  1.00  0.00     0.095 C 
ATOM      8  C   UNL A   1      31.146  28.075  23.462  1.00  0.00     0.041 C 
ATOM      9  C   UNL A   1      29.985  27.019  24.381  1.00  0.00    -0.030 C 
ATOM     10  C   UNL A   1      32.311  26.557  26.656  1.00  0.00     0.041 C 
ATOM     11  C   UNL A   1      30.370  26.336  25.676  1.00  0.00    -0.030 C 
BRANCH   7  12
ATOM     12  C   UNL A   1      33.594  26.928  22.796  1.00  0.00     0.224 C 
ATOM     13  N   UNL A   1      33.716  25.522  23.102  1.00  0.00    -0.349 N 
ATOM     14  H   UNL A   1      33.768  25.001  22.268  1.00  0.00     0.164 HD
ATOM     15  O   UNL A   1      33.879  27.269  21.640  1.00  0.00    -0.275 OA
BRANCH  13  16
ATOM     16  C   UNL A   1      33.796  24.486  24.433  1.00  0.00     0.109 C 
ATOM     17  C   UNL A   1      35.247  24.422  24.881  1.00  0.00     0.036 C 
BRANCH  16  18
ATOM     18  C   UNL A   1      33.245  23.085  24.160  1.00  0.00    -0.026 A 
ATOM     19  C   UNL A   1      32.418  22.139  22.968  1.00  0.00     0.008 A 
ATOM     20  C   UNL A   1      34.035  22.209  25.325  1.00  0.00     0.008 A 
ATOM     21  C   UNL A   1      32.325  20.345  23.032  1.00  0.00     0.027 A 
ATOM     22  C   UNL A   1      33.975  20.272  25.570  1.00  0.00     0.027 A 
ATOM     23  C   UNL A   1      33.039  19.387  24.350  1.00  0.00     0.046 A 
BRANCH  23  24
ATOM     24  N   UNL A   1      33.131  17.991  24.341  1.00  0.00    -0.306 N 
ATOM     25  C   UNL A   1      32.474  17.139  25.194  1.00  0.00     0.113 A 
ATOM     26  C   UNL A   1      33.964  17.217  23.579  1.00  0.00     0.204 A 
ATOM     27  C   UNL A   1      32.982  15.890  24.931  1.00  0.00     0.131 A 
ATOM     28  N   UNL A   1      33.901  15.945  23.919  1.00  0.00    -0.245 NA
ENDBRANCH  23  24
ENDBRANCH  16  18
ENDBRANCH  13  16
ENDBRANCH   7  12
ENDBRANCH   3   6
ENDBRANCH   1   2
BRANCH   1  29
ATOM     29  C   UNL A   1      31.454  31.875  26.845  1.00  0.00     0.042 C 
BRANCH  29  30
ATOM     30  C   UNL A   1      32.713  32.738  26.866  1.00  0.00     0.118 C 
BRANCH  30  31
ATOM     31  N   UNL A   1      32.542  33.940  27.661  1.00  0.00    -0.352 N 
ATOM     32  C   UNL A   1      33.170  34.346  28.808  1.00  0.00     0.251 C 
ATOM     33  H   UNL A   1      31.864  34.566  27.319  1.00  0.00     0.163 HD
ATOM     34  O   UNL A   1      32.644  35.212  29.501  1.00  0.00    -0.269 OA
BRANCH  32  35
ATOM     35  C   UNL A   1      34.469  33.769  29.216  1.00  0.00     0.039 A 
ATOM     36  C   UNL A   1      35.609  34.123  28.490  1.00  0.00     0.014 A 
ATOM     37  C   UNL A   1      34.561  32.813  30.232  1.00  0.00     0.014 A 
ATOM     38  C   UNL A   1      36.838  33.541  28.801  1.00  0.00     0.010 A 
ATOM     39  C   UNL A   1      35.803  32.295  30.597  1.00  0.00     0.010 A 
ATOM     40  C   UNL A   1      36.951  32.638  29.872  1.00  0.00    -0.014 A 
BRANCH  40  41
ATOM     41  C   UNL A   1      38.273  32.061  30.222  1.00  0.00     0.031 A 
ATOM     42  C   UNL A   1      39.183  32.751  31.200  1.00  0.00     0.074 A 
ATOM     43  C   UNL A   1      38.649  30.901  29.649  1.00  0.00     0.049 A 
ATOM     44  N   UNL A   1      40.341  32.355  31.668  1.00  0.00    -0.248 NA
ATOM     45  C   UNL A   1      38.752  34.063  31.707  1.00  0.00     0.031 C 
ATOM     46  C   UNL A   1      37.875  30.164  28.647  1.00  0.00     0.029 A 
ATOM     47  N   UNL A   1      39.768  30.131  29.837  1.00  0.00    -0.354 N 
ATOM     48  C   UNL A   1      40.771  33.364  32.521  1.00  0.00     0.074 A 
ATOM     49  C   UNL A   1      39.783  34.418  32.459  1.00  0.00     0.031 C 
ATOM     50  C   UNL A   1      38.519  29.026  28.346  1.00  0.00     0.029 A 
ATOM     51  C   UNL A   1      39.765  28.972  29.100  1.00  0.00     0.049 A 
ATOM     52  H   UNL A   1      40.502  30.384  30.442  1.00  0.00     0.167 HD
ATOM     53  C   UNL A   1      41.876  33.400  33.305  1.00  0.00     0.031 A 
ATOM     54  C   UNL A   1      40.664  27.972  29.043  1.00  0.00     0.031 A 
ATOM     55  C   UNL A   1      42.863  32.352  33.357  1.00  0.00     0.049 A 
ATOM     56  C   UNL A   1      41.885  28.042  29.914  1.00  0.00     0.074 A 
ATOM     57  C   UNL A   1      43.999  32.274  34.144  1.00  0.00     0.029 A 
ATOM     58  N   UNL A   1      42.832  31.200  32.586  1.00  0.00    -0.354 N 
ATOM     59  N   UNL A   1      42.240  28.969  30.769  1.00  0.00    -0.248 NA
ATOM     60  C   UNL A   1      42.822  26.914  29.824  1.00  0.00     0.031 C 
ATOM     61  C   UNL A   1      44.685  31.102  33.807  1.00  0.00     0.029 A 
ATOM     62  C   UNL A   1      43.942  30.418  32.858  1.00  0.00     0.049 A 
ATOM     63  H   UNL A   1      42.125  30.972  31.939  1.00  0.00     0.167 HD
ATOM     64  C   UNL A   1      43.430  28.530  31.332  1.00  0.00     0.074 A 
ATOM     65  C   UNL A   1      43.716  27.236  30.746  1.00  0.00     0.031 C 
ATOM     66  C   UNL A   1      44.221  29.143  32.248  1.00  0.00     0.031 A 
BRANCH  53  67
ATOM     67  C   UNL A   1      42.076  34.617  34.168  1.00  0.00    -0.014 A 
ATOM     68  C   UNL A   1      41.769  34.594  35.539  1.00  0.00     0.009 A 
ATOM     69  C   UNL A   1      42.616  35.789  33.617  1.00  0.00     0.009 A 
ATOM     70  C   UNL A   1      41.965  35.729  36.330  1.00  0.00     0.001 A 
ATOM     71  C   UNL A   1      42.839  36.913  34.416  1.00  0.00     0.001 A 
ATOM     72  C   UNL A   1      42.505  36.885  35.770  1.00  0.00     0.000 A 
ENDBRANCH  53  67
BRANCH  54  73
ATOM     73  C   UNL A   1      40.434  26.816  28.135  1.00  0.00    -0.014 A 
ATOM     74  C   UNL A   1      39.713  25.694  28.567  1.00  0.00     0.009 A 
ATOM     75  C   UNL A   1      40.944  26.830  26.827  1.00  0.00     0.009 A 
ATOM     76  C   UNL A   1      39.533  24.597  27.720  1.00  0.00     0.001 A 
ATOM     77  C   UNL A   1      40.734  25.748  25.971  1.00  0.00     0.001 A 
ATOM     78  C   UNL A   1      40.039  24.627  26.422  1.00  0.00     0.000 A 
ENDBRANCH  54  73
BRANCH  66  79
ATOM     79  C   UNL A   1      45.460  28.404  32.674  1.00  0.00    -0.014 A 
ATOM     80  C   UNL A   1      46.683  28.588  32.010  1.00  0.00     0.009 A 
ATOM     81  C   UNL A   1      45.402  27.512  33.756  1.00  0.00     0.009 A 
ATOM     82  C   UNL A   1      47.809  27.852  32.387  1.00  0.00     0.001 A 
ATOM     83  C   UNL A   1      46.537  26.806  34.154  1.00  0.00     0.001 A 
ATOM     84  C   UNL A   1      47.736  26.964  33.459  1.00  0.00     0.000 A 
ENDBRANCH  66  79
ENDBRANCH  40  41
ENDBRANCH  32  35
ENDBRANCH  30  31
ENDBRANCH  29  30
ENDBRANCH   1  29
TORSDOF 14
ENDMDL
MODEL 2
REMARK VINA RESULT:     -13.2      0.407      5.822
REMARK SMILES C[C@@H](NC(=O)[C@H]1CC=CC[C@@H]1C(=O)NCCCNC(=O)c1ccc(-c2c3nc(c(-c4ccccc4)c4ccc([nH]4)c(-c4ccccc4)c4nc(c(-c5ccccc5)c5ccc2[nH]5)C=C4)C=C3)cc1)c1ccc(-n2ccnc2)cc1
REMARK SMILES IDX 15 1 14 2 12 3 13 4 11 6 6 7 7 8 8 9 10 10 9 11 4 12 3 13
REMARK SMILES IDX 5 15 2 16 1 17 69 18 70 19 79 20 71 21 78 22 72 23 73 24
REMARK SMILES IDX 74 25 77 26 75 27 76 28 16 29 17 30 18 31 19 32 20 34 21 35
REMARK SMILES IDX 22 36 68 37 23 38 67 39 24 40 25 41 26 42 61 43 27 44 66 45
REMARK SMILES IDX 60 46 62 47 28 48 65 49 59 50 58 51 29 53 51 54 36 55 50 56
REMARK SMILES IDX 37 57 40 58 49 59 63 60 38 61 39 62 48 64 64 65 41 66 30 67
REMARK SMILES IDX 31 68 35 69 32 70 34 71 33 72 52 73 53 74 57 75 54 76 56 77
REMARK SMILES IDX 55 78 42 79 43 80 47 81 44 82 46 83 45 84
REMARK H PARENT 14 5 3 14 18 33 62 52 40 63
REMARK Flexibility Score: inf
ROOT
ATOM      1  C   UNL A   1      31.617  30.360  26.618  1.00  0.00     0.117 C 
ENDROOT
BRANCH   1   2
ATOM      2  N   UNL A   1      32.873  29.898  27.154  1.00  0.00    -0.356 N 
ATOM      3  C   UNL A   1      33.765  28.988  26.724  1.00  0.00     0.224 C 
ATOM      4  O   UNL A   1      34.891  29.077  27.232  1.00  0.00    -0.275 OA
ATOM      5  H   UNL A   1      33.127  30.335  27.999  1.00  0.00     0.163 HD
BRANCH   3   6
ATOM      6  C   UNL A   1      33.495  27.879  25.698  1.00  0.00     0.095 C 
ATOM      7  C   UNL A   1      32.995  28.194  23.841  1.00  0.00     0.095 C 
ATOM      8  C   UNL A   1      31.169  28.122  23.384  1.00  0.00     0.041 C 
ATOM      9  C   UNL A   1      29.972  27.086  24.279  1.00  0.00    -0.030 C 
ATOM     10  C   UNL A   1      32.235  26.601  26.611  1.00  0.00     0.041 C 
ATOM     11  C   UNL A   1      30.316  26.403  25.586  1.00  0.00    -0.030 C 
BRANCH   7  12
ATOM     12  C   UNL A   1      33.615  26.937  22.781  1.00  0.00     0.224 C 
ATOM     13  N   UNL A   1      33.744  25.537  23.109  1.00  0.00    -0.349 N 
ATOM     14  H   UNL A   1      33.800  25.003  22.284  1.00  0.00     0.164 HD
ATOM     15  O   UNL A   1      33.900  27.262  21.621  1.00  0.00    -0.275 OA
BRANCH  13  16
ATOM     16  C   UNL A   1      33.829  24.522  24.456  1.00  0.00     0.109 C 
ATOM     17  C   UNL A   1      35.283  24.454  24.892  1.00  0.00     0.036 C 
BRANCH  16  18
ATOM     18  C   UNL A   1      33.265  23.121  24.210  1.00  0.00    -0.026 A 
ATOM     19  C   UNL A   1      32.331  22.190  23.089  1.00  0.00     0.008 A 
ATOM     20  C   UNL A   1      34.176  22.230  25.272  1.00  0.00     0.008 A 
ATOM     21  C   UNL A   1      32.259  20.394  23.125  1.00  0.00     0.027 A 
ATOM     22  C   UNL A   1      34.157  20.288  25.482  1.00  0.00     0.027 A 
ATOM     23  C   UNL A   1      33.111  19.418  24.344  1.00  0.00     0.046 A 
BRANCH  23  24
ATOM     24  N   UNL A   1      33.213  18.023  24.296  1.00  0.00    -0.306 N 
ATOM     25  C   UNL A   1      32.558  17.143  25.122  1.00  0.00     0.113 A 
ATOM     26  C   UNL A   1      34.056  17.277  23.518  1.00  0.00     0.204 A 
ATOM     27  C   UNL A   1      33.076  15.906  24.827  1.00  0.00     0.131 A 
ATOM     28  N   UNL A   1      34.001  15.996  23.822  1.00  0.00    -0.245 NA
ENDBRANCH  23  24
ENDBRANCH  16  18
ENDBRANCH  13  16
ENDBRANCH   7  12
ENDBRANCH   3   6
ENDBRANCH   1   2
BRANCH   1  29
ATOM     29  C   UNL A   1      31.405  31.865  26.761  1.00  0.00     0.042 C 
BRANCH  29  30
ATOM     30  C   UNL A   1      32.687  32.693  26.788  1.00  0.00     0.118 C 
BRANCH  30  31
ATOM     31  N   UNL A   1      32.539  33.909  27.565  1.00  0.00    -0.352 N 
ATOM     32  C   UNL A   1      33.186  34.328  28.696  1.00  0.00     0.251 C 
ATOM     33  H   UNL A   1      31.863  34.537  27.223  1.00  0.00     0.163 HD
ATOM     34  O   UNL A   1      32.679  35.210  29.383  1.00  0.00    -0.269 OA
BRANCH  32  35
ATOM     35  C   UNL A   1      34.485  33.744  29.096  1.00  0.00     0.039 A 
ATOM     36  C   UNL A   1      34.516  32.891  30.203  1.00  0.00     0.014 A 
ATOM     37  C   UNL A   1      35.679  34.104  28.462  1.00  0.00     0.014 A 
ATOM     38  C   UNL A   1      35.734  32.381  30.652  1.00  0.00     0.010 A 
ATOM     39  C   UNL A   1      36.885  33.528  28.860  1.00  0.00     0.010 A 
ATOM     40  C   UNL A   1      36.928  32.677  29.971  1.00  0.00    -0.014 A 
BRANCH  40  41
ATOM     41  C   UNL A   1      38.212  32.092  30.432  1.00  0.00     0.031 A 
ATOM     42  C   UNL A   1      38.714  30.791  29.868  1.00  0.00     0.074 A 
ATOM     43  C   UNL A   1      38.927  32.746  31.367  1.00  0.00     0.049 A 
ATOM     44  N   UNL A   1      39.843  30.171  30.109  1.00  0.00    -0.248 NA
ATOM     45  C   UNL A   1      37.832  30.082  28.928  1.00  0.00     0.031 C 
ATOM     46  C   UNL A   1      38.519  33.989  32.026  1.00  0.00     0.029 A 
ATOM     47  N   UNL A   1      40.153  32.466  31.914  1.00  0.00    -0.354 N 
ATOM     48  C   UNL A   1      39.806  29.007  29.350  1.00  0.00     0.074 A 
ATOM     49  C   UNL A   1      38.519  28.974  28.692  1.00  0.00     0.031 C 
ATOM     50  C   UNL A   1      39.498  34.390  32.851  1.00  0.00     0.029 A 
ATOM     51  C   UNL A   1      40.582  33.416  32.810  1.00  0.00     0.049 A 
ATOM     52  H   UNL A   1      40.675  31.664  31.687  1.00  0.00     0.167 HD
ATOM     53  C   UNL A   1      40.765  28.063  29.196  1.00  0.00     0.031 A 
ATOM     54  C   UNL A   1      41.725  33.496  33.516  1.00  0.00     0.031 A 
ATOM     55  C   UNL A   1      42.042  28.093  29.862  1.00  0.00     0.049 A 
ATOM     56  C   UNL A   1      42.767  32.430  33.335  1.00  0.00     0.074 A 
ATOM     57  C   UNL A   1      43.098  27.205  29.747  1.00  0.00     0.029 A 
ATOM     58  N   UNL A   1      42.434  29.063  30.772  1.00  0.00    -0.354 N 
ATOM     59  N   UNL A   1      42.746  31.374  32.558  1.00  0.00    -0.248 NA
ATOM     60  C   UNL A   1      44.002  32.579  34.116  1.00  0.00     0.031 C 
ATOM     61  C   UNL A   1      44.105  27.607  30.631  1.00  0.00     0.029 A 
ATOM     62  C   UNL A   1      43.704  28.782  31.247  1.00  0.00     0.049 A 
ATOM     63  H   UNL A   1      41.889  29.838  31.042  1.00  0.00     0.167 HD
ATOM     64  C   UNL A   1      43.968  30.743  32.744  1.00  0.00     0.074 A 
ATOM     65  C   UNL A   1      44.719  31.555  33.679  1.00  0.00     0.031 C 
ATOM     66  C   UNL A   1      44.428  29.590  32.195  1.00  0.00     0.031 A 
BRANCH  53  67
ATOM     67  C   UNL A   1      40.466  26.911  28.273  1.00  0.00    -0.014 A 
ATOM     68  C   UNL A   1      39.716  25.806  28.709  1.00  0.00     0.009 A 
ATOM     69  C   UNL A   1      40.904  26.948  26.940  1.00  0.00     0.009 A 
ATOM     70  C   UNL A   1      39.443  24.746  27.840  1.00  0.00     0.001 A 
ATOM     71  C   UNL A   1      40.602  25.902  26.065  1.00  0.00     0.001 A 
ATOM     72  C   UNL A   1      39.880  24.798  26.517  1.00  0.00     0.000 A 
ENDBRANCH  53  67
BRANCH  54  73
ATOM     73  C   UNL A   1      41.945  34.633  34.449  1.00  0.00    -0.014 A 
ATOM     74  C   UNL A   1      42.547  35.820  34.008  1.00  0.00     0.009 A 
ATOM     75  C   UNL A   1      41.555  34.531  35.794  1.00  0.00     0.009 A 
ATOM     76  C   UNL A   1      42.783  36.869  34.900  1.00  0.00     0.001 A 
ATOM     77  C   UNL A   1      41.761  35.593  36.676  1.00  0.00     0.001 A 
ATOM     78  C   UNL A   1      42.385  36.757  36.231  1.00  0.00     0.000 A 
ENDBRANCH  54  73
BRANCH  66  79
ATOM     79  C   UNL A   1      45.814  29.160  32.589  1.00  0.00    -0.014 A 
ATOM     80  C   UNL A   1      46.045  28.442  33.773  1.00  0.00     0.009 A 
ATOM     81  C   UNL A   1      46.903  29.476  31.763  1.00  0.00     0.009 A 
ATOM     82  C   UNL A   1      47.346  28.098  34.148  1.00  0.00     0.001 A 
ATOM     83  C   UNL A   1      48.197  29.099  32.122  1.00  0.00     0.001 A 
ATOM     84  C   UNL A   1      48.420  28.425  33.322  1.00  0.00     0.000 A 
ENDBRANCH  66  79
ENDBRANCH  40  41
ENDBRANCH  32  35
ENDBRANCH  30  31
ENDBRANCH  29  30
ENDBRANCH   1  29
TORSDOF 14
ENDMDL
MODEL 3
REMARK VINA RESULT:     -13.1      1.334      6.123
REMARK SMILES C[C@@H](NC(=O)[C@H]1CC=CC[C@@H]1C(=O)NCCCNC(=O)c1ccc(-c2c3nc(c(-c4ccccc4)c4ccc([nH]4)c(-c4ccccc4)c4nc(c(-c5ccccc5)c5ccc2[nH]5)C=C4)C=C3)cc1)c1ccc(-n2ccnc2)cc1
REMARK SMILES IDX 15 1 14 2 12 3 13 4 11 6 6 7 7 8 8 9 10 10 9 11 4 12 3 13
REMARK SMILES IDX 5 15 2 16 1 17 69 18 70 19 79 20 71 21 78 22 72 23 73 24
REMARK SMILES IDX 74 25 77 26 75 27 76 28 16 29 17 30 18 31 19 32 20 34 21 35
REMARK SMILES IDX 22 36 68 37 23 38 67 39 24 40 25 41 26 42 61 43 27 44 66 45
REMARK SMILES IDX 60 46 62 47 28 48 65 49 59 50 58 51 29 53 51 54 36 55 50 56
REMARK SMILES IDX 37 57 40 58 49 59 63 60 38 61 39 62 48 64 64 65 41 66 30 67
REMARK SMILES IDX 31 68 35 69 32 70 34 71 33 72 52 73 53 74 57 75 54 76 56 77
REMARK SMILES IDX 55 78 42 79 43 80 47 81 44 82 46 83 45 84
REMARK H PARENT 14 5 3 14 18 33 62 52 40 63
REMARK Flexibility Score: inf
ROOT
ATOM      1  C   UNL A   1      31.346  30.718  25.947  1.00  0.00     0.117 C 
ENDROOT
BRANCH   1   2
ATOM      2  N   UNL A   1      30.743  30.624  24.641  1.00  0.00    -0.356 N 
ATOM      3  C   UNL A   1      30.274  29.584  23.928  1.00  0.00     0.224 C 
ATOM      4  O   UNL A   1      29.516  29.886  22.997  1.00  0.00    -0.275 OA
ATOM      5  H   UNL A   1      30.659  31.491  24.181  1.00  0.00     0.163 HD
BRANCH   3   6
ATOM      6  C   UNL A   1      30.608  28.106  24.168  1.00  0.00     0.095 C 
ATOM      7  C   UNL A   1      30.775  27.285  25.928  1.00  0.00     0.095 C 
ATOM      8  C   UNL A   1      32.499  27.089  26.662  1.00  0.00     0.041 C 
ATOM      9  C   UNL A   1      33.986  26.885  25.637  1.00  0.00    -0.030 C 
ATOM     10  C   UNL A   1      32.206  27.723  23.005  1.00  0.00     0.041 C 
ATOM     11  C   UNL A   1      33.966  27.094  24.137  1.00  0.00    -0.030 C 
BRANCH   7  12
ATOM     12  C   UNL A   1      30.268  25.603  25.910  1.00  0.00     0.224 C 
ATOM     13  N   UNL A   1      30.988  24.506  25.306  1.00  0.00    -0.349 N 
ATOM     14  H   UNL A   1      30.686  23.653  25.695  1.00  0.00     0.164 HD
ATOM     15  O   UNL A   1      29.239  25.313  26.533  1.00  0.00    -0.275 OA
BRANCH  13  16
ATOM     16  C   UNL A   1      32.182  24.218  24.147  1.00  0.00     0.109 C 
ATOM     17  C   UNL A   1      31.513  24.225  22.783  1.00  0.00     0.036 C 
BRANCH  16  18
ATOM     18  C   UNL A   1      32.958  22.919  24.370  1.00  0.00    -0.026 A 
ATOM     19  C   UNL A   1      34.171  22.193  25.371  1.00  0.00     0.008 A 
ATOM     20  C   UNL A   1      32.022  21.848  23.517  1.00  0.00     0.008 A 
ATOM     21  C   UNL A   1      34.474  20.422  25.417  1.00  0.00     0.027 A 
ATOM     22  C   UNL A   1      32.266  19.913  23.408  1.00  0.00     0.027 A 
ATOM     23  C   UNL A   1      33.582  19.263  24.404  1.00  0.00     0.046 A 
BRANCH  23  24
ATOM     24  N   UNL A   1      33.676  17.874  24.539  1.00  0.00    -0.306 N 
ATOM     25  C   UNL A   1      33.015  17.113  25.472  1.00  0.00     0.113 A 
ATOM     26  C   UNL A   1      34.515  17.027  23.867  1.00  0.00     0.204 A 
ATOM     27  C   UNL A   1      33.526  15.845  25.343  1.00  0.00     0.131 A 
ATOM     28  N   UNL A   1      34.452  15.797  24.337  1.00  0.00    -0.245 NA
ENDBRANCH  23  24
ENDBRANCH  16  18
ENDBRANCH  13  16
ENDBRANCH   7  12
ENDBRANCH   3   6
ENDBRANCH   1   2
BRANCH   1  29
ATOM     29  C   UNL A   1      31.331  32.129  26.529  1.00  0.00     0.042 C 
BRANCH  29  30
ATOM     30  C   UNL A   1      32.677  32.616  27.063  1.00  0.00     0.118 C 
BRANCH  30  31
ATOM     31  N   UNL A   1      32.587  33.937  27.655  1.00  0.00    -0.352 N 
ATOM     32  C   UNL A   1      33.238  34.478  28.730  1.00  0.00     0.251 C 
ATOM     33  H   UNL A   1      31.954  34.545  27.210  1.00  0.00     0.163 HD
ATOM     34  O   UNL A   1      32.773  35.477  29.271  1.00  0.00    -0.269 OA
BRANCH  32  35
ATOM     35  C   UNL A   1      34.495  33.887  29.241  1.00  0.00     0.039 A 
ATOM     36  C   UNL A   1      35.685  34.176  28.569  1.00  0.00     0.014 A 
ATOM     37  C   UNL A   1      34.500  32.979  30.304  1.00  0.00     0.014 A 
ATOM     38  C   UNL A   1      36.876  33.578  28.979  1.00  0.00     0.010 A 
ATOM     39  C   UNL A   1      35.703  32.446  30.766  1.00  0.00     0.010 A 
ATOM     40  C   UNL A   1      36.901  32.725  30.095  1.00  0.00    -0.014 A 
BRANCH  40  41
ATOM     41  C   UNL A   1      38.183  32.130  30.549  1.00  0.00     0.031 A 
ATOM     42  C   UNL A   1      38.680  30.833  29.973  1.00  0.00     0.074 A 
ATOM     43  C   UNL A   1      38.901  32.772  31.490  1.00  0.00     0.049 A 
ATOM     44  N   UNL A   1      39.806  30.206  30.207  1.00  0.00    -0.248 NA
ATOM     45  C   UNL A   1      37.795  30.137  29.026  1.00  0.00     0.031 C 
ATOM     46  C   UNL A   1      38.498  34.011  32.162  1.00  0.00     0.029 A 
ATOM     47  N   UNL A   1      40.126  32.483  32.035  1.00  0.00    -0.354 N 
ATOM     48  C   UNL A   1      39.764  29.050  29.438  1.00  0.00     0.074 A 
ATOM     49  C   UNL A   1      38.477  29.028  28.779  1.00  0.00     0.031 C 
ATOM     50  C   UNL A   1      39.479  34.399  32.990  1.00  0.00     0.029 A 
ATOM     51  C   UNL A   1      40.559  33.422  32.939  1.00  0.00     0.049 A 
ATOM     52  H   UNL A   1      40.644  31.680  31.800  1.00  0.00     0.167 HD
ATOM     53  C   UNL A   1      40.719  28.103  29.275  1.00  0.00     0.031 A 
ATOM     54  C   UNL A   1      41.702  33.490  33.646  1.00  0.00     0.031 A 
ATOM     55  C   UNL A   1      41.997  28.122  29.940  1.00  0.00     0.049 A 
ATOM     56  C   UNL A   1      42.740  32.422  33.454  1.00  0.00     0.074 A 
ATOM     57  C   UNL A   1      43.049  27.231  29.816  1.00  0.00     0.029 A 
ATOM     58  N   UNL A   1      42.392  29.082  30.859  1.00  0.00    -0.354 N 
ATOM     59  N   UNL A   1      42.714  31.374  32.668  1.00  0.00    -0.248 NA
ATOM     60  C   UNL A   1      43.976  32.559  34.237  1.00  0.00     0.031 C 
ATOM     61  C   UNL A   1      44.058  27.620  30.704  1.00  0.00     0.029 A 
ATOM     62  C   UNL A   1      43.662  28.791  31.331  1.00  0.00     0.049 A 
ATOM     63  H   UNL A   1      41.851  29.856  31.137  1.00  0.00     0.167 HD
ATOM     64  C   UNL A   1      43.934  30.736  32.847  1.00  0.00     0.074 A 
ATOM     65  C   UNL A   1      44.689  31.536  33.789  1.00  0.00     0.031 C 
ATOM     66  C   UNL A   1      44.389  29.587  32.287  1.00  0.00     0.031 A 
BRANCH  53  67
ATOM     67  C   UNL A   1      40.416  26.962  28.340  1.00  0.00    -0.014 A 
ATOM     68  C   UNL A   1      39.661  25.856  28.765  1.00  0.00     0.009 A 
ATOM     69  C   UNL A   1      40.854  27.009  27.008  1.00  0.00     0.009 A 
ATOM     70  C   UNL A   1      39.383  24.806  27.886  1.00  0.00     0.001 A 
ATOM     71  C   UNL A   1      40.548  25.973  26.122  1.00  0.00     0.001 A 
ATOM     72  C   UNL A   1      39.821  24.868  26.564  1.00  0.00     0.000 A 
ENDBRANCH  53  67
BRANCH  54  73
ATOM     73  C   UNL A   1      41.927  34.617  34.590  1.00  0.00    -0.014 A 
ATOM     74  C   UNL A   1      42.535  35.806  34.161  1.00  0.00     0.009 A 
ATOM     75  C   UNL A   1      41.535  34.505  35.934  1.00  0.00     0.009 A 
ATOM     76  C   UNL A   1      42.776  36.845  35.063  1.00  0.00     0.001 A 
ATOM     77  C   UNL A   1      41.745  35.558  36.826  1.00  0.00     0.001 A 
ATOM     78  C   UNL A   1      42.376  36.722  36.392  1.00  0.00     0.000 A 
ENDBRANCH  54  73
BRANCH  66  79
ATOM     79  C   UNL A   1      45.773  29.147  32.676  1.00  0.00    -0.014 A 
ATOM     80  C   UNL A   1      45.984  28.276  33.757  1.00  0.00     0.009 A 
ATOM     81  C   UNL A   1      46.882  29.610  31.951  1.00  0.00     0.009 A 
ATOM     82  C   UNL A   1      47.281  27.921  34.136  1.00  0.00     0.001 A 
ATOM     83  C   UNL A   1      48.174  29.226  32.309  1.00  0.00     0.001 A 
ATOM     84  C   UNL A   1      48.374  28.395  33.411  1.00  0.00     0.000 A 
ENDBRANCH  66  79
ENDBRANCH  40  41
ENDBRANCH  32  35
ENDBRANCH  30  31
ENDBRANCH  29  30
ENDBRANCH   1  29
TORSDOF 14
ENDMDL
