MODEL 1
REMARK VINA RESULT:     -12.2      0.000      0.000
REMARK SMILES NC(=O)[C@@H]1CCC[N@@H+]1[C@@H](C(=O)NCCCNC(=O)c1ccc(-c2c3nc(c(-c4ccccc4)c4ccc([nH]4)c(-c4ccccc4)c4nc(c(-c5ccccc5)c5ccc2[nH]5)C=C4)C=C3)cc1)c1c[nH]c2cc(OCc3ccccc3)ccc12
REMARK SMILES IDX 13 1 12 2 10 3 11 4 9 6 8 7 4 8 5 9 6 10 7 11 2 13 1 14 3 17
REMARK SMILES IDX 67 18 68 19 83 20 69 21 70 22 82 23 71 25 81 26 72 27 73 28
REMARK SMILES IDX 74 29 75 30 76 31 80 32 77 33 79 34 78 35 14 36 15 37 16 38
REMARK SMILES IDX 17 39 18 41 19 42 20 43 66 44 21 45 65 46 22 47 23 48 24 49
REMARK SMILES IDX 59 50 25 51 64 52 58 53 60 54 26 55 63 56 57 57 56 58 27 60
REMARK SMILES IDX 49 61 34 62 48 63 35 64 38 65 47 66 61 67 36 68 37 69 46 71
REMARK SMILES IDX 62 72 39 73 28 74 29 75 33 76 30 77 32 78 31 79 50 80 51 81
REMARK SMILES IDX 55 82 52 83 54 84 53 85 40 86 41 87 45 88 42 89 44 90 43 91
REMARK H PARENT 12 5 8 12 1 15 1 16 69 24 16 40 60 59 38 70
REMARK Flexibility Score: inf
ROOT
ATOM      1  C   UNL A   1      31.404  27.809  27.223  1.00  0.00     0.118 C 
ENDROOT
BRANCH   1   2
ATOM      2  N   UNL A   1      31.300  26.450  26.723  1.00  0.00    -0.351 N 
ATOM      3  C   UNL A   1      31.644  25.780  25.586  1.00  0.00     0.283 C 
ATOM      4  O   UNL A   1      31.118  24.662  25.552  1.00  0.00    -0.268 OA
ATOM      5  H   UNL A   1      30.866  25.855  27.376  1.00  0.00     0.163 HD
BRANCH   3   6
ATOM      6  C   UNL A   1      32.551  26.351  24.452  1.00  0.00     0.308 C 
BRANCH   6   7
ATOM      7  N   UNL A   1      31.799  26.827  23.232  1.00  0.00    -0.311 N 
ATOM      8  C   UNL A   1      31.998  28.171  22.682  1.00  0.00     0.275 C 
ATOM      9  C   UNL A   1      30.997  29.037  23.438  1.00  0.00     0.081 C 
ATOM     10  C   UNL A   1      29.838  28.103  23.746  1.00  0.00     0.068 C 
ATOM     11  C   UNL A   1      30.330  26.737  23.315  1.00  0.00     0.264 C 
ATOM     12  H   UNL A   1      32.253  26.150  22.619  1.00  0.00     0.349 HD
BRANCH   8  13
ATOM     13  C   UNL A   1      33.436  28.649  22.500  1.00  0.00     0.275 C 
ATOM     14  N   UNL A   1      33.820  29.663  23.334  1.00  0.00    -0.365 N 
ATOM     15  H   UNL A   1      34.733  30.026  23.279  1.00  0.00     0.159 HD
ATOM     16  H   UNL A   1      33.182  30.028  23.989  1.00  0.00     0.159 HD
ATOM     17  O   UNL A   1      34.223  28.259  21.636  1.00  0.00    -0.268 OA
ENDBRANCH   8  13
ENDBRANCH   6   7
BRANCH   6  18
ATOM     18  C   UNL A   1      33.581  25.330  23.844  1.00  0.00     0.044 A 
ATOM     19  C   UNL A   1      33.585  25.008  22.485  1.00  0.00     0.094 A 
ATOM     20  C   UNL A   1      34.245  24.210  24.479  1.00  0.00     0.009 A 
ATOM     21  N   UNL A   1      33.632  23.631  22.428  1.00  0.00    -0.361 N 
ATOM     22  C   UNL A   1      33.859  23.130  23.685  1.00  0.00     0.050 A 
ATOM     23  C   UNL A   1      34.770  23.920  25.758  1.00  0.00     0.015 A 
ATOM     24  H   UNL A   1      33.518  23.092  21.612  1.00  0.00     0.166 HD
ATOM     25  C   UNL A   1      33.623  21.864  24.230  1.00  0.00     0.073 A 
ATOM     26  C   UNL A   1      34.634  22.629  26.295  1.00  0.00     0.047 A 
ATOM     27  C   UNL A   1      33.976  21.646  25.567  1.00  0.00     0.121 A 
BRANCH  27  28
ATOM     28  O   UNL A   1      33.479  20.501  26.135  1.00  0.00    -0.489 OA
BRANCH  28  29
ATOM     29  C   UNL A   1      32.502  19.788  25.372  1.00  0.00     0.265 C 
BRANCH  29  30
ATOM     30  C   UNL A   1      32.985  18.398  25.011  1.00  0.00    -0.011 A 
ATOM     31  C   UNL A   1      33.612  18.175  23.780  1.00  0.00     0.007 A 
ATOM     32  C   UNL A   1      32.784  17.297  25.858  1.00  0.00     0.007 A 
ATOM     33  C   UNL A   1      34.014  16.887  23.412  1.00  0.00     0.000 A 
ATOM     34  C   UNL A   1      33.177  16.014  25.493  1.00  0.00     0.000 A 
ATOM     35  C   UNL A   1      33.789  15.808  24.266  1.00  0.00     0.000 A 
ENDBRANCH  29  30
ENDBRANCH  28  29
ENDBRANCH  27  28
ENDBRANCH   6  18
ENDBRANCH   3   6
ENDBRANCH   1   2
BRANCH   1  36
ATOM     36  C   UNL A   1      32.840  28.221  27.613  1.00  0.00     0.042 C 
BRANCH  36  37
ATOM     37  C   UNL A   1      33.494  29.330  26.769  1.00  0.00     0.118 C 
BRANCH  37  38
ATOM     38  N   UNL A   1      33.602  30.567  27.519  1.00  0.00    -0.352 N 
ATOM     39  C   UNL A   1      34.570  30.985  28.391  1.00  0.00     0.251 C 
ATOM     40  H   UNL A   1      32.865  31.204  27.379  1.00  0.00     0.163 HD
ATOM     41  O   UNL A   1      34.328  31.950  29.123  1.00  0.00    -0.269 OA
BRANCH  39  42
ATOM     42  C   UNL A   1      35.902  30.333  28.484  1.00  0.00     0.039 A 
ATOM     43  C   UNL A   1      36.259  29.738  29.701  1.00  0.00     0.014 A 
ATOM     44  C   UNL A   1      36.852  30.423  27.462  1.00  0.00     0.014 A 
ATOM     45  C   UNL A   1      37.555  29.249  29.900  1.00  0.00     0.010 A 
ATOM     46  C   UNL A   1      38.140  29.900  27.649  1.00  0.00     0.010 A 
ATOM     47  C   UNL A   1      38.513  29.333  28.879  1.00  0.00    -0.014 A 
BRANCH  47  48
ATOM     48  C   UNL A   1      39.908  28.867  29.114  1.00  0.00     0.031 A 
ATOM     49  C   UNL A   1      40.916  29.766  29.781  1.00  0.00     0.074 A 
ATOM     50  C   UNL A   1      40.281  27.633  28.724  1.00  0.00     0.049 A 
ATOM     51  N   UNL A   1      42.170  29.526  30.083  1.00  0.00    -0.248 NA
ATOM     52  C   UNL A   1      40.461  31.117  30.145  1.00  0.00     0.031 C 
ATOM     53  C   UNL A   1      39.417  26.664  28.049  1.00  0.00     0.029 A 
ATOM     54  N   UNL A   1      41.485  26.982  28.842  1.00  0.00    -0.354 N 
ATOM     55  C   UNL A   1      42.655  30.696  30.653  1.00  0.00     0.074 A 
ATOM     56  C   UNL A   1      41.574  31.658  30.623  1.00  0.00     0.031 C 
ATOM     57  C   UNL A   1      40.114  25.536  27.828  1.00  0.00     0.029 A 
ATOM     58  C   UNL A   1      41.477  25.712  28.321  1.00  0.00     0.049 A 
ATOM     59  H   UNL A   1      42.279  27.390  29.258  1.00  0.00     0.167 HD
ATOM     60  C   UNL A   1      43.884  30.949  31.168  1.00  0.00     0.031 A 
ATOM     61  C   UNL A   1      42.454  24.787  28.250  1.00  0.00     0.031 A 
ATOM     62  C   UNL A   1      44.964  29.997  31.211  1.00  0.00     0.049 A 
ATOM     63  C   UNL A   1      43.809  25.089  28.825  1.00  0.00     0.074 A 
ATOM     64  C   UNL A   1      46.224  30.145  31.765  1.00  0.00     0.029 A 
ATOM     65  N   UNL A   1      44.913  28.722  30.671  1.00  0.00    -0.354 N 
ATOM     66  N   UNL A   1      44.229  26.178  29.421  1.00  0.00    -0.248 NA
ATOM     67  C   UNL A   1      44.820  24.026  28.729  1.00  0.00     0.031 C 
ATOM     68  C   UNL A   1      46.952  28.975  31.521  1.00  0.00     0.029 A 
ATOM     69  C   UNL A   1      46.127  28.080  30.859  1.00  0.00     0.049 A 
ATOM     70  H   UNL A   1      44.130  28.329  30.223  1.00  0.00     0.167 HD
ATOM     71  C   UNL A   1      45.544  25.925  29.789  1.00  0.00     0.074 A 
ATOM     72  C   UNL A   1      45.846  24.572  29.367  1.00  0.00     0.031 C 
ATOM     73  C   UNL A   1      46.422  26.740  30.424  1.00  0.00     0.031 A 
BRANCH  60  74
ATOM     74  C   UNL A   1      44.133  32.327  31.718  1.00  0.00    -0.014 A 
ATOM     75  C   UNL A   1      44.624  33.360  30.904  1.00  0.00     0.009 A 
ATOM     76  C   UNL A   1      43.840  32.606  33.063  1.00  0.00     0.009 A 
ATOM     77  C   UNL A   1      44.856  34.631  31.435  1.00  0.00     0.001 A 
ATOM     78  C   UNL A   1      44.046  33.885  33.584  1.00  0.00     0.001 A 
ATOM     79  C   UNL A   1      44.564  34.893  32.773  1.00  0.00     0.000 A 
ENDBRANCH  60  74
BRANCH  61  80
ATOM     80  C   UNL A   1      42.176  23.471  27.620  1.00  0.00    -0.014 A 
ATOM     81  C   UNL A   1      41.601  22.431  28.367  1.00  0.00     0.009 A 
ATOM     82  C   UNL A   1      42.480  23.250  26.268  1.00  0.00     0.009 A 
ATOM     83  C   UNL A   1      41.352  21.191  27.775  1.00  0.00     0.001 A 
ATOM     84  C   UNL A   1      42.206  22.018  25.673  1.00  0.00     0.001 A 
ATOM     85  C   UNL A   1      41.648  20.986  26.429  1.00  0.00     0.000 A 
ENDBRANCH  61  80
BRANCH  73  86
ATOM     86  C   UNL A   1      47.786  26.183  30.715  1.00  0.00    -0.014 A 
ATOM     87  C   UNL A   1      48.109  25.673  31.982  1.00  0.00     0.009 A 
ATOM     88  C   UNL A   1      48.754  26.142  29.699  1.00  0.00     0.009 A 
ATOM     89  C   UNL A   1      49.385  25.166  32.236  1.00  0.00     0.001 A 
ATOM     90  C   UNL A   1      50.020  25.611  29.948  1.00  0.00     0.001 A 
ATOM     91  C   UNL A   1      50.338  25.132  31.218  1.00  0.00     0.000 A 
ENDBRANCH  73  86
ENDBRANCH  47  48
ENDBRANCH  39  42
ENDBRANCH  37  38
ENDBRANCH  36  37
ENDBRANCH   1  36
TORSDOF 16
ENDMDL
MODEL 2
REMARK VINA RESULT:     -12.2      0.333      5.628
REMARK SMILES NC(=O)[C@@H]1CCC[N@@H+]1[C@@H](C(=O)NCCCNC(=O)c1ccc(-c2c3nc(c(-c4ccccc4)c4ccc([nH]4)c(-c4ccccc4)c4nc(c(-c5ccccc5)c5ccc2[nH]5)C=C4)C=C3)cc1)c1c[nH]c2cc(OCc3ccccc3)ccc12
REMARK SMILES IDX 13 1 12 2 10 3 11 4 9 6 8 7 4 8 5 9 6 10 7 11 2 13 1 14 3 17
REMARK SMILES IDX 67 18 68 19 83 20 69 21 70 22 82 23 71 25 81 26 72 27 73 28
REMARK SMILES IDX 74 29 75 30 76 31 80 32 77 33 79 34 78 35 14 36 15 37 16 38
REMARK SMILES IDX 17 39 18 41 19 42 20 43 66 44 21 45 65 46 22 47 23 48 24 49
REMARK SMILES IDX 59 50 25 51 64 52 58 53 60 54 26 55 63 56 57 57 56 58 27 60
REMARK SMILES IDX 49 61 34 62 48 63 35 64 38 65 47 66 61 67 36 68 37 69 46 71
REMARK SMILES IDX 62 72 39 73 28 74 29 75 33 76 30 77 32 78 31 79 50 80 51 81
REMARK SMILES IDX 55 82 52 83 54 84 53 85 40 86 41 87 45 88 42 89 44 90 43 91
REMARK H PARENT 12 5 8 12 1 15 1 16 69 24 16 40 60 59 38 70
REMARK Flexibility Score: inf
ROOT
ATOM      1  C   UNL A   1      31.360  27.762  27.141  1.00  0.00     0.118 C 
ENDROOT
BRANCH   1   2
ATOM      2  N   UNL A   1      31.291  26.397  26.652  1.00  0.00    -0.351 N 
ATOM      3  C   UNL A   1      31.664  25.724  25.527  1.00  0.00     0.283 C 
ATOM      4  O   UNL A   1      31.161  24.595  25.496  1.00  0.00    -0.268 OA
ATOM      5  H   UNL A   1      30.858  25.800  27.304  1.00  0.00     0.163 HD
BRANCH   3   6
ATOM      6  C   UNL A   1      32.577  26.302  24.402  1.00  0.00     0.308 C 
BRANCH   6   7
ATOM      7  N   UNL A   1      31.831  26.786  23.180  1.00  0.00    -0.311 N 
ATOM      8  C   UNL A   1      32.026  28.137  22.645  1.00  0.00     0.275 C 
ATOM      9  C   UNL A   1      31.012  28.988  23.403  1.00  0.00     0.081 C 
ATOM     10  C   UNL A   1      29.858  28.043  23.692  1.00  0.00     0.068 C 
ATOM     11  C   UNL A   1      30.363  26.685  23.250  1.00  0.00     0.264 C 
ATOM     12  H   UNL A   1      32.296  26.119  22.564  1.00  0.00     0.349 HD
BRANCH   8  13
ATOM     13  C   UNL A   1      33.462  28.626  22.480  1.00  0.00     0.275 C 
ATOM     14  N   UNL A   1      33.845  29.605  23.356  1.00  0.00    -0.365 N 
ATOM     15  H   UNL A   1      34.757  29.974  23.314  1.00  0.00     0.159 HD
ATOM     16  H   UNL A   1      33.208  29.941  24.027  1.00  0.00     0.159 HD
ATOM     17  O   UNL A   1      34.247  28.276  21.599  1.00  0.00    -0.268 OA
ENDBRANCH   8  13
ENDBRANCH   6   7
BRANCH   6  18
ATOM     18  C   UNL A   1      33.611  25.286  23.792  1.00  0.00     0.044 A 
ATOM     19  C   UNL A   1      33.599  24.944  22.439  1.00  0.00     0.094 A 
ATOM     20  C   UNL A   1      34.299  24.183  24.433  1.00  0.00     0.009 A 
ATOM     21  N   UNL A   1      33.662  23.567  22.400  1.00  0.00    -0.361 N 
ATOM     22  C   UNL A   1      33.914  23.087  23.661  1.00  0.00     0.050 A 
ATOM     23  C   UNL A   1      34.846  23.918  25.708  1.00  0.00     0.015 A 
ATOM     24  H   UNL A   1      33.543  23.015  21.594  1.00  0.00     0.166 HD
ATOM     25  C   UNL A   1      33.703  21.826  24.227  1.00  0.00     0.073 A 
ATOM     26  C   UNL A   1      34.734  22.634  26.265  1.00  0.00     0.047 A 
ATOM     27  C   UNL A   1      34.078  21.632  25.562  1.00  0.00     0.121 A 
BRANCH  27  28
ATOM     28  O   UNL A   1      33.604  20.490  26.154  1.00  0.00    -0.489 OA
BRANCH  28  29
ATOM     29  C   UNL A   1      32.591  19.780  25.438  1.00  0.00     0.265 C 
BRANCH  29  30
ATOM     30  C   UNL A   1      33.027  18.366  25.111  1.00  0.00    -0.011 A 
ATOM     31  C   UNL A   1      33.813  18.122  23.978  1.00  0.00     0.007 A 
ATOM     32  C   UNL A   1      32.632  17.267  25.888  1.00  0.00     0.007 A 
ATOM     33  C   UNL A   1      34.178  16.817  23.636  1.00  0.00     0.000 A 
ATOM     34  C   UNL A   1      32.988  15.966  25.547  1.00  0.00     0.000 A 
ATOM     35  C   UNL A   1      33.759  15.740  24.417  1.00  0.00     0.000 A 
ENDBRANCH  29  30
ENDBRANCH  28  29
ENDBRANCH  27  28
ENDBRANCH   6  18
ENDBRANCH   3   6
ENDBRANCH   1   2
BRANCH   1  36
ATOM     36  C   UNL A   1      32.753  28.163  27.675  1.00  0.00     0.042 C 
BRANCH  36  37
ATOM     37  C   UNL A   1      33.538  29.199  26.851  1.00  0.00     0.118 C 
BRANCH  37  38
ATOM     38  N   UNL A   1      33.646  30.461  27.557  1.00  0.00    -0.352 N 
ATOM     39  C   UNL A   1      34.624  30.917  28.398  1.00  0.00     0.251 C 
ATOM     40  H   UNL A   1      32.900  31.086  27.408  1.00  0.00     0.163 HD
ATOM     41  O   UNL A   1      34.384  31.904  29.102  1.00  0.00    -0.269 OA
BRANCH  39  42
ATOM     42  C   UNL A   1      35.963  30.282  28.490  1.00  0.00     0.039 A 
ATOM     43  C   UNL A   1      36.339  29.713  29.714  1.00  0.00     0.014 A 
ATOM     44  C   UNL A   1      36.903  30.363  27.458  1.00  0.00     0.014 A 
ATOM     45  C   UNL A   1      37.642  29.242  29.910  1.00  0.00     0.010 A 
ATOM     46  C   UNL A   1      38.198  29.857  27.642  1.00  0.00     0.010 A 
ATOM     47  C   UNL A   1      38.589  29.317  28.878  1.00  0.00    -0.014 A 
BRANCH  47  48
ATOM     48  C   UNL A   1      39.991  28.871  29.109  1.00  0.00     0.031 A 
ATOM     49  C   UNL A   1      40.439  27.494  28.689  1.00  0.00     0.074 A 
ATOM     50  C   UNL A   1      40.872  29.697  29.704  1.00  0.00     0.049 A 
ATOM     51  N   UNL A   1      41.622  26.939  28.794  1.00  0.00    -0.248 NA
ATOM     52  C   UNL A   1      39.420  26.622  28.083  1.00  0.00     0.031 C 
ATOM     53  C   UNL A   1      40.573  31.048  30.181  1.00  0.00     0.029 A 
ATOM     54  N   UNL A   1      42.200  29.522  30.008  1.00  0.00    -0.354 N 
ATOM     55  C   UNL A   1      41.486  25.653  28.286  1.00  0.00     0.074 A 
ATOM     56  C   UNL A   1      40.098  25.497  27.907  1.00  0.00     0.031 C 
ATOM     57  C   UNL A   1      41.689  31.585  30.701  1.00  0.00     0.029 A 
ATOM     58  C   UNL A   1      42.773  30.611  30.618  1.00  0.00     0.049 A 
ATOM     59  H   UNL A   1      42.693  28.694  29.808  1.00  0.00     0.167 HD
ATOM     60  C   UNL A   1      42.429  24.690  28.136  1.00  0.00     0.031 A 
ATOM     61  C   UNL A   1      44.030  30.808  31.060  1.00  0.00     0.031 A 
ATOM     62  C   UNL A   1      43.814  24.839  28.502  1.00  0.00     0.049 A 
ATOM     63  C   UNL A   1      45.060  29.726  30.885  1.00  0.00     0.074 A 
ATOM     64  C   UNL A   1      44.853  23.940  28.333  1.00  0.00     0.029 A 
ATOM     65  N   UNL A   1      44.351  25.958  29.118  1.00  0.00    -0.354 N 
ATOM     66  N   UNL A   1      44.928  28.541  30.341  1.00  0.00    -0.248 NA
ATOM     67  C   UNL A   1      46.415  30.019  31.372  1.00  0.00     0.031 C 
ATOM     68  C   UNL A   1      46.011  24.497  28.889  1.00  0.00     0.029 A 
ATOM     69  C   UNL A   1      45.702  25.763  29.358  1.00  0.00     0.049 A 
ATOM     70  H   UNL A   1      43.848  26.771  29.350  1.00  0.00     0.167 HD
ATOM     71  C   UNL A   1      46.185  27.955  30.402  1.00  0.00     0.074 A 
ATOM     72  C   UNL A   1      47.070  28.922  31.018  1.00  0.00     0.031 C 
ATOM     73  C   UNL A   1      46.572  26.726  29.982  1.00  0.00     0.031 A 
BRANCH  60  74
ATOM     74  C   UNL A   1      41.986  23.373  27.559  1.00  0.00    -0.014 A 
ATOM     75  C   UNL A   1      42.149  23.083  26.196  1.00  0.00     0.009 A 
ATOM     76  C   UNL A   1      41.427  22.396  28.398  1.00  0.00     0.009 A 
ATOM     77  C   UNL A   1      41.724  21.857  25.677  1.00  0.00     0.001 A 
ATOM     78  C   UNL A   1      41.028  21.162  27.882  1.00  0.00     0.001 A 
ATOM     79  C   UNL A   1      41.166  20.897  26.520  1.00  0.00     0.000 A 
ENDBRANCH  60  74
BRANCH  61  80
ATOM     80  C   UNL A   1      44.392  32.099  31.699  1.00  0.00    -0.014 A 
ATOM     81  C   UNL A   1      44.852  33.173  30.922  1.00  0.00     0.009 A 
ATOM     82  C   UNL A   1      44.272  32.264  33.087  1.00  0.00     0.009 A 
ATOM     83  C   UNL A   1      45.202  34.382  31.527  1.00  0.00     0.001 A 
ATOM     84  C   UNL A   1      44.599  33.482  33.685  1.00  0.00     0.001 A 
ATOM     85  C   UNL A   1      45.070  34.539  32.906  1.00  0.00     0.000 A 
ENDBRANCH  61  80
BRANCH  73  86
ATOM     86  C   UNL A   1      48.019  26.366  30.159  1.00  0.00    -0.014 A 
ATOM     87  C   UNL A   1      48.963  26.625  29.153  1.00  0.00     0.009 A 
ATOM     88  C   UNL A   1      48.450  25.782  31.362  1.00  0.00     0.009 A 
ATOM     89  C   UNL A   1      50.303  26.276  29.334  1.00  0.00     0.001 A 
ATOM     90  C   UNL A   1      49.795  25.458  31.549  1.00  0.00     0.001 A 
ATOM     91  C   UNL A   1      50.718  25.697  30.532  1.00  0.00     0.000 A 
ENDBRANCH  73  86
ENDBRANCH  47  48
ENDBRANCH  39  42
ENDBRANCH  37  38
ENDBRANCH  36  37
ENDBRANCH   1  36
TORSDOF 16
ENDMDL
MODEL 3
REMARK VINA RESULT:     -12.2      3.052      4.813
REMARK SMILES NC(=O)[C@@H]1CCC[N@@H+]1[C@@H](C(=O)NCCCNC(=O)c1ccc(-c2c3nc(c(-c4ccccc4)c4ccc([nH]4)c(-c4ccccc4)c4nc(c(-c5ccccc5)c5ccc2[nH]5)C=C4)C=C3)cc1)c1c[nH]c2cc(OCc3ccccc3)ccc12
REMARK SMILES IDX 13 1 12 2 10 3 11 4 9 6 8 7 4 8 5 9 6 10 7 11 2 13 1 14 3 17
REMARK SMILES IDX 67 18 68 19 83 20 69 21 70 22 82 23 71 25 81 26 72 27 73 28
REMARK SMILES IDX 74 29 75 30 76 31 80 32 77 33 79 34 78 35 14 36 15 37 16 38
REMARK SMILES IDX 17 39 18 41 19 42 20 43 66 44 21 45 65 46 22 47 23 48 24 49
REMARK SMILES IDX 59 50 25 51 64 52 58 53 60 54 26 55 63 56 57 57 56 58 27 60
REMARK SMILES IDX 49 61 34 62 48 63 35 64 38 65 47 66 61 67 36 68 37 69 46 71
REMARK SMILES IDX 62 72 39 73 28 74 29 75 33 76 30 77 32 78 31 79 50 80 51 81
REMARK SMILES IDX 55 82 52 83 54 84 53 85 40 86 41 87 45 88 42 89 44 90 43 91
REMARK H PARENT 12 5 8 12 1 15 1 16 69 24 16 40 60 59 38 70
REMARK Flexibility Score: inf
ROOT
ATOM      1  C   UNL A   1      31.286  30.842  26.259  1.00  0.00     0.118 C 
ENDROOT
BRANCH   1   2
ATOM      2  N   UNL A   1      31.024  30.517  24.868  1.00  0.00    -0.351 N 
ATOM      3  C   UNL A   1      31.049  29.401  24.087  1.00  0.00     0.283 C 
ATOM      4  O   UNL A   1      30.971  29.693  22.889  1.00  0.00    -0.268 OA
ATOM      5  H   UNL A   1      30.760  31.313  24.354  1.00  0.00     0.163 HD
BRANCH   3   6
ATOM      6  C   UNL A   1      31.192  27.941  24.619  1.00  0.00     0.308 C 
BRANCH   6   7
ATOM      7  N   UNL A   1      32.618  27.460  24.745  1.00  0.00    -0.311 N 
ATOM      8  C   UNL A   1      33.087  26.749  25.940  1.00  0.00     0.275 C 
ATOM      9  C   UNL A   1      33.548  27.860  26.878  1.00  0.00     0.081 C 
ATOM     10  C   UNL A   1      34.037  28.963  25.954  1.00  0.00     0.068 C 
ATOM     11  C   UNL A   1      33.655  28.491  24.567  1.00  0.00     0.264 C 
ATOM     12  H   UNL A   1      32.519  26.790  23.983  1.00  0.00     0.349 HD
BRANCH   8  13
ATOM     13  C   UNL A   1      32.214  25.615  26.469  1.00  0.00     0.275 C 
ATOM     14  N   UNL A   1      32.771  24.368  26.385  1.00  0.00    -0.365 N 
ATOM     15  H   UNL A   1      32.270  23.584  26.705  1.00  0.00     0.159 HD
ATOM     16  H   UNL A   1      33.671  24.257  26.003  1.00  0.00     0.159 HD
ATOM     17  O   UNL A   1      31.057  25.724  26.877  1.00  0.00    -0.268 OA
ENDBRANCH   8  13
ENDBRANCH   6   7
BRANCH   6  18
ATOM     18  C   UNL A   1      30.535  26.833  23.716  1.00  0.00     0.044 A 
ATOM     19  C   UNL A   1      29.385  26.145  24.109  1.00  0.00     0.094 A 
ATOM     20  C   UNL A   1      31.156  25.961  22.739  1.00  0.00     0.009 A 
ATOM     21  N   UNL A   1      29.658  24.810  23.902  1.00  0.00    -0.361 N 
ATOM     22  C   UNL A   1      30.840  24.688  23.215  1.00  0.00     0.050 A 
ATOM     23  C   UNL A   1      32.202  26.058  21.794  1.00  0.00     0.015 A 
ATOM     24  H   UNL A   1      29.094  24.061  24.201  1.00  0.00     0.166 HD
ATOM     25  C   UNL A   1      31.728  23.615  23.092  1.00  0.00     0.073 A 
ATOM     26  C   UNL A   1      33.054  24.964  21.577  1.00  0.00     0.047 A 
ATOM     27  C   UNL A   1      32.868  23.792  22.299  1.00  0.00     0.121 A 
BRANCH  27  28
ATOM     28  O   UNL A   1      33.839  22.832  22.428  1.00  0.00    -0.489 OA
BRANCH  28  29
ATOM     29  C   UNL A   1      33.898  22.158  23.688  1.00  0.00     0.265 C 
BRANCH  29  30
ATOM     30  C   UNL A   1      35.258  22.313  24.339  1.00  0.00    -0.011 A 
ATOM     31  C   UNL A   1      36.001  21.177  24.681  1.00  0.00     0.007 A 
ATOM     32  C   UNL A   1      35.791  23.571  24.659  1.00  0.00     0.007 A 
ATOM     33  C   UNL A   1      37.233  21.305  25.330  1.00  0.00     0.000 A 
ATOM     34  C   UNL A   1      37.013  23.702  25.310  1.00  0.00     0.000 A 
ATOM     35  C   UNL A   1      37.733  22.567  25.650  1.00  0.00     0.000 A 
ENDBRANCH  29  30
ENDBRANCH  28  29
ENDBRANCH  27  28
ENDBRANCH   6  18
ENDBRANCH   3   6
ENDBRANCH   1   2
BRANCH   1  36
ATOM     36  C   UNL A   1      31.404  32.357  26.534  1.00  0.00     0.042 C 
BRANCH  36  37
ATOM     37  C   UNL A   1      32.679  32.833  27.252  1.00  0.00     0.118 C 
BRANCH  37  38
ATOM     38  N   UNL A   1      32.530  34.188  27.745  1.00  0.00    -0.352 N 
ATOM     39  C   UNL A   1      33.156  34.819  28.787  1.00  0.00     0.251 C 
ATOM     40  H   UNL A   1      31.879  34.741  27.256  1.00  0.00     0.163 HD
ATOM     41  O   UNL A   1      32.684  35.882  29.202  1.00  0.00    -0.269 OA
BRANCH  39  42
ATOM     42  C   UNL A   1      34.384  34.283  29.427  1.00  0.00     0.039 A 
ATOM     43  C   UNL A   1      35.606  34.471  28.766  1.00  0.00     0.014 A 
ATOM     44  C   UNL A   1      34.344  33.481  30.572  1.00  0.00     0.014 A 
ATOM     45  C   UNL A   1      36.771  33.855  29.236  1.00  0.00     0.010 A 
ATOM     46  C   UNL A   1      35.518  32.895  31.064  1.00  0.00     0.010 A 
ATOM     47  C   UNL A   1      36.738  33.053  30.387  1.00  0.00    -0.014 A 
BRANCH  47  48
ATOM     48  C   UNL A   1      37.967  32.350  30.850  1.00  0.00     0.031 A 
ATOM     49  C   UNL A   1      38.764  32.882  32.013  1.00  0.00     0.074 A 
ATOM     50  C   UNL A   1      38.380  31.232  30.224  1.00  0.00     0.049 A 
ATOM     51  N   UNL A   1      39.850  32.397  32.565  1.00  0.00    -0.248 NA
ATOM     52  C   UNL A   1      38.287  34.131  32.627  1.00  0.00     0.031 C 
ATOM     53  C   UNL A   1      37.720  30.615  29.073  1.00  0.00     0.029 A 
ATOM     54  N   UNL A   1      39.455  30.412  30.471  1.00  0.00    -0.354 N 
ATOM     55  C   UNL A   1      40.194  33.285  33.576  1.00  0.00     0.074 A 
ATOM     56  C   UNL A   1      39.224  34.359  33.538  1.00  0.00     0.031 C 
ATOM     57  C   UNL A   1      38.393  29.506  28.725  1.00  0.00     0.029 A 
ATOM     58  C   UNL A   1      39.544  29.347  29.609  1.00  0.00     0.049 A 
ATOM     59  H   UNL A   1      40.101  30.575  31.196  1.00  0.00     0.167 HD
ATOM     60  C   UNL A   1      41.215  33.213  34.466  1.00  0.00     0.031 A 
ATOM     61  C   UNL A   1      40.448  28.351  29.536  1.00  0.00     0.031 A 
ATOM     62  C   UNL A   1      42.179  32.145  34.518  1.00  0.00     0.049 A 
ATOM     63  C   UNL A   1      41.573  28.292  30.531  1.00  0.00     0.074 A 
ATOM     64  C   UNL A   1      43.212  31.959  35.421  1.00  0.00     0.029 A 
ATOM     65  N   UNL A   1      42.234  31.087  33.625  1.00  0.00    -0.354 N 
ATOM     66  N   UNL A   1      41.842  29.106  31.522  1.00  0.00    -0.248 NA
ATOM     67  C   UNL A   1      42.509  27.166  30.404  1.00  0.00     0.031 C 
ATOM     68  C   UNL A   1      43.921  30.810  35.046  1.00  0.00     0.029 A 
ATOM     69  C   UNL A   1      43.297  30.257  33.940  1.00  0.00     0.049 A 
ATOM     70  H   UNL A   1      41.608  30.946  32.878  1.00  0.00     0.167 HD
ATOM     71  C   UNL A   1      42.965  28.580  32.148  1.00  0.00     0.074 A 
ATOM     72  C   UNL A   1      43.314  27.368  31.437  1.00  0.00     0.031 C 
ATOM     73  C   UNL A   1      43.644  29.059  33.220  1.00  0.00     0.031 A 
BRANCH  60  74
ATOM     74  C   UNL A   1      41.350  34.339  35.455  1.00  0.00    -0.014 A 
ATOM     75  C   UNL A   1      40.711  34.294  36.703  1.00  0.00     0.009 A 
ATOM     76  C   UNL A   1      42.155  35.447  35.145  1.00  0.00     0.009 A 
ATOM     77  C   UNL A   1      40.842  35.353  37.605  1.00  0.00     0.001 A 
ATOM     78  C   UNL A   1      42.307  36.492  36.059  1.00  0.00     0.001 A 
ATOM     79  C   UNL A   1      41.641  36.450  37.284  1.00  0.00     0.000 A 
ENDBRANCH  60  74
BRANCH  61  80
ATOM     80  C   UNL A   1      40.313  27.311  28.485  1.00  0.00    -0.014 A 
ATOM     81  C   UNL A   1      40.919  27.482  27.231  1.00  0.00     0.009 A 
ATOM     82  C   UNL A   1      39.582  26.138  28.733  1.00  0.00     0.009 A 
ATOM     83  C   UNL A   1      40.781  26.508  26.241  1.00  0.00     0.001 A 
ATOM     84  C   UNL A   1      39.468  25.155  27.749  1.00  0.00     0.001 A 
ATOM     85  C   UNL A   1      40.062  25.343  26.501  1.00  0.00     0.000 A 
ENDBRANCH  61  80
BRANCH  73  86
ATOM     86  C   UNL A   1      44.822  28.259  33.697  1.00  0.00    -0.014 A 
ATOM     87  C   UNL A   1      46.117  28.514  33.220  1.00  0.00     0.009 A 
ATOM     88  C   UNL A   1      44.637  27.253  34.659  1.00  0.00     0.009 A 
ATOM     89  C   UNL A   1      47.198  27.753  33.671  1.00  0.00     0.001 A 
ATOM     90  C   UNL A   1      45.724  26.513  35.127  1.00  0.00     0.001 A 
ATOM     91  C   UNL A   1      47.001  26.757  34.626  1.00  0.00     0.000 A 
ENDBRANCH  73  86
ENDBRANCH  47  48
ENDBRANCH  39  42
ENDBRANCH  37  38
ENDBRANCH  36  37
ENDBRANCH   1  36
TORSDOF 16
ENDMDL
