MODEL 1
REMARK VINA RESULT:     -11.7      0.000      0.000
REMARK SMILES COc1cc(CC(=O)N[C@@H](CC(=O)NCCCNC(=O)c2ccc(-c3c4nc(c(-c5ccccc5)c5ccc([nH]5)c(-c5ccccc5)c5nc(c(-c6ccccc6)c6ccc3[nH]6)C=C5)C=C4)cc2)c2cccs2)ccc1C
REMARK SMILES IDX 12 1 13 2 14 3 11 5 10 6 9 7 7 8 8 9 6 11 5 12 3 13 4 14
REMARK SMILES IDX 76 15 75 16 77 17 74 18 2 19 1 20 69 21 70 22 73 23 71 24
REMARK SMILES IDX 72 25 15 26 16 27 17 28 18 29 19 30 20 32 21 33 22 34 68 35
REMARK SMILES IDX 23 36 67 37 24 38 25 39 26 40 61 41 27 42 66 43 60 44 62 45
REMARK SMILES IDX 28 46 65 47 59 48 58 49 29 51 51 52 36 53 50 54 37 55 40 56
REMARK SMILES IDX 49 57 63 58 38 59 39 60 48 62 64 63 41 64 30 65 31 66 35 67
REMARK SMILES IDX 32 68 34 69 33 70 52 71 53 72 57 73 54 74 56 75 55 76 42 77
REMARK SMILES IDX 43 78 47 79 44 80 46 81 45 82
REMARK H PARENT 14 4 9 10 18 31 62 50 40 61
REMARK Flexibility Score: inf
ROOT
ATOM      1  C   UNL A   1      35.441  21.466  26.010  1.00  0.00     0.222 C 
ATOM      2  O   UNL A   1      34.632  21.466  26.942  1.00  0.00    -0.275 OA
ATOM      3  N   UNL A   1      36.727  21.793  26.316  1.00  0.00    -0.356 N 
ATOM      4  H   UNL A   1      36.866  22.105  27.240  1.00  0.00     0.163 HD
ENDROOT
BRANCH   1   5
ATOM      5  C   UNL A   1      35.014  21.046  24.614  1.00  0.00     0.130 C 
BRANCH   5   6
ATOM      6  C   UNL A   1      33.759  20.179  24.413  1.00  0.00     0.131 C 
BRANCH   6   7
ATOM      7  N   UNL A   1      32.602  20.638  25.169  1.00  0.00    -0.348 N 
ATOM      8  C   UNL A   1      31.773  21.705  25.028  1.00  0.00     0.224 C 
ATOM      9  O   UNL A   1      30.892  21.846  25.884  1.00  0.00    -0.275 OA
ATOM     10  H   UNL A   1      32.376  20.060  25.934  1.00  0.00     0.164 HD
BRANCH   8  11
ATOM     11  C   UNL A   1      31.809  22.625  23.827  1.00  0.00     0.135 C 
BRANCH  11  12
ATOM     12  C   UNL A   1      32.324  24.023  24.037  1.00  0.00    -0.035 A 
ATOM     13  C   UNL A   1      31.835  26.398  24.341  1.00  0.00     0.122 A 
ATOM     14  C   UNL A   1      31.407  25.079  24.168  1.00  0.00     0.051 A 
ATOM     15  C   UNL A   1      33.209  26.672  24.393  1.00  0.00    -0.009 A 
ATOM     16  C   UNL A   1      34.127  25.609  24.314  1.00  0.00     0.007 A 
ATOM     17  C   UNL A   1      33.739  28.067  24.580  1.00  0.00     0.048 C 
ATOM     18  C   UNL A   1      33.690  24.295  24.140  1.00  0.00     0.005 A 
BRANCH  13  19
ATOM     19  O   UNL A   1      30.985  27.467  24.432  1.00  0.00    -0.496 OA
ATOM     20  C   UNL A   1      30.220  27.784  23.274  1.00  0.00     0.278 C 
ENDBRANCH  13  19
ENDBRANCH  11  12
ENDBRANCH   8  11
ENDBRANCH   6   7
BRANCH   6  21
ATOM     21  C   UNL A   1      33.875  18.689  24.675  1.00  0.00     0.027 A 
ATOM     22  C   UNL A   1      34.851  17.760  24.362  1.00  0.00     0.017 A 
ATOM     23  S   UNL A   1      32.606  17.931  25.583  1.00  0.00    -0.147 S 
ATOM     24  C   UNL A   1      34.581  16.462  24.887  1.00  0.00     0.012 A 
ATOM     25  C   UNL A   1      33.403  16.423  25.591  1.00  0.00     0.065 A 
ENDBRANCH   6  21
ENDBRANCH   5   6
ENDBRANCH   1   5
BRANCH   3  26
ATOM     26  C   UNL A   1      37.928  21.755  25.500  1.00  0.00     0.117 C 
BRANCH  26  27
ATOM     27  C   UNL A   1      39.067  22.538  26.132  1.00  0.00     0.042 C 
BRANCH  27  28
ATOM     28  C   UNL A   1      40.046  21.703  26.936  1.00  0.00     0.118 C 
BRANCH  28  29
ATOM     29  N   UNL A   1      40.891  20.857  26.092  1.00  0.00    -0.352 N 
ATOM     30  C   UNL A   1      42.273  20.832  26.011  1.00  0.00     0.251 C 
ATOM     31  H   UNL A   1      40.415  20.224  25.506  1.00  0.00     0.163 HD
ATOM     32  O   UNL A   1      42.865  19.972  25.386  1.00  0.00    -0.269 OA
BRANCH  30  33
ATOM     33  C   UNL A   1      43.010  21.832  26.810  1.00  0.00     0.039 A 
ATOM     34  C   UNL A   1      42.960  21.703  28.198  1.00  0.00     0.014 A 
ATOM     35  C   UNL A   1      43.410  23.021  26.202  1.00  0.00     0.014 A 
ATOM     36  C   UNL A   1      43.055  22.851  28.976  1.00  0.00     0.010 A 
ATOM     37  C   UNL A   1      43.426  24.172  26.969  1.00  0.00     0.010 A 
ATOM     38  C   UNL A   1      43.164  24.093  28.341  1.00  0.00    -0.014 A 
BRANCH  38  39
ATOM     39  C   UNL A   1      42.882  25.339  29.044  1.00  0.00     0.031 A 
ATOM     40  C   UNL A   1      41.680  26.121  28.699  1.00  0.00     0.074 A 
ATOM     41  C   UNL A   1      43.765  25.866  29.923  1.00  0.00     0.049 A 
ATOM     42  N   UNL A   1      41.659  27.411  28.636  1.00  0.00    -0.248 NA
ATOM     43  C   UNL A   1      40.413  25.495  28.346  1.00  0.00     0.031 C 
ATOM     44  C   UNL A   1      43.581  27.050  30.759  1.00  0.00     0.029 A 
ATOM     45  N   UNL A   1      45.103  25.559  30.094  1.00  0.00    -0.354 N 
ATOM     46  C   UNL A   1      40.346  27.787  28.508  1.00  0.00     0.074 A 
ATOM     47  C   UNL A   1      39.618  26.565  28.247  1.00  0.00     0.031 C 
ATOM     48  C   UNL A   1      44.787  27.509  31.135  1.00  0.00     0.029 A 
ATOM     49  C   UNL A   1      45.798  26.705  30.470  1.00  0.00     0.049 A 
ATOM     50  H   UNL A   1      45.501  24.667  29.969  1.00  0.00     0.167 HD
ATOM     51  C   UNL A   1      39.967  29.066  28.781  1.00  0.00     0.031 A 
ATOM     52  C   UNL A   1      46.841  27.199  29.740  1.00  0.00     0.031 A 
ATOM     53  C   UNL A   1      41.081  29.898  29.216  1.00  0.00     0.049 A 
ATOM     54  C   UNL A   1      46.582  28.580  29.169  1.00  0.00     0.074 A 
ATOM     55  C   UNL A   1      41.529  30.275  30.473  1.00  0.00     0.029 A 
ATOM     56  N   UNL A   1      42.095  30.217  28.323  1.00  0.00    -0.354 N 
ATOM     57  N   UNL A   1      45.409  29.148  29.144  1.00  0.00    -0.248 NA
ATOM     58  C   UNL A   1      47.606  29.404  28.528  1.00  0.00     0.031 C 
ATOM     59  C   UNL A   1      42.848  30.772  30.337  1.00  0.00     0.029 A 
ATOM     60  C   UNL A   1      43.189  30.722  28.999  1.00  0.00     0.049 A 
ATOM     61  H   UNL A   1      42.041  30.098  27.347  1.00  0.00     0.167 HD
ATOM     62  C   UNL A   1      45.488  30.348  28.487  1.00  0.00     0.074 A 
ATOM     63  C   UNL A   1      46.891  30.476  28.139  1.00  0.00     0.031 C 
ATOM     64  C   UNL A   1      44.384  31.120  28.269  1.00  0.00     0.031 A 
BRANCH  51  65
ATOM     65  C   UNL A   1      38.521  29.439  28.956  1.00  0.00    -0.014 A 
ATOM     66  C   UNL A   1      37.917  29.332  30.223  1.00  0.00     0.009 A 
ATOM     67  C   UNL A   1      37.694  29.854  27.899  1.00  0.00     0.009 A 
ATOM     68  C   UNL A   1      36.542  29.518  30.401  1.00  0.00     0.001 A 
ATOM     69  C   UNL A   1      36.310  29.999  28.063  1.00  0.00     0.001 A 
ATOM     70  C   UNL A   1      35.732  29.819  29.313  1.00  0.00     0.000 A 
ENDBRANCH  51  65
BRANCH  52  71
ATOM     71  C   UNL A   1      47.662  26.151  29.077  1.00  0.00    -0.014 A 
ATOM     72  C   UNL A   1      47.388  25.847  27.729  1.00  0.00     0.009 A 
ATOM     73  C   UNL A   1      48.883  25.736  29.624  1.00  0.00     0.009 A 
ATOM     74  C   UNL A   1      48.358  25.247  26.919  1.00  0.00     0.001 A 
ATOM     75  C   UNL A   1      49.848  25.129  28.810  1.00  0.00     0.001 A 
ATOM     76  C   UNL A   1      49.600  24.918  27.454  1.00  0.00     0.000 A 
ENDBRANCH  52  71
BRANCH  64  77
ATOM     77  C   UNL A   1      44.309  32.357  27.409  1.00  0.00    -0.014 A 
ATOM     78  C   UNL A   1      44.228  32.347  26.012  1.00  0.00     0.009 A 
ATOM     79  C   UNL A   1      44.174  33.615  28.043  1.00  0.00     0.009 A 
ATOM     80  C   UNL A   1      44.056  33.535  25.285  1.00  0.00     0.001 A 
ATOM     81  C   UNL A   1      43.960  34.794  27.326  1.00  0.00     0.001 A 
ATOM     82  C   UNL A   1      43.912  34.755  25.942  1.00  0.00     0.000 A 
ENDBRANCH  64  77
ENDBRANCH  38  39
ENDBRANCH  30  33
ENDBRANCH  28  29
ENDBRANCH  27  28
ENDBRANCH  26  27
ENDBRANCH   3  26
TORSDOF 16
ENDMDL
MODEL 2
REMARK VINA RESULT:     -11.6      1.890      2.564
REMARK SMILES COc1cc(CC(=O)N[C@@H](CC(=O)NCCCNC(=O)c2ccc(-c3c4nc(c(-c5ccccc5)c5ccc([nH]5)c(-c5ccccc5)c5nc(c(-c6ccccc6)c6ccc3[nH]6)C=C5)C=C4)cc2)c2cccs2)ccc1C
REMARK SMILES IDX 12 1 13 2 14 3 11 5 10 6 9 7 7 8 8 9 6 11 5 12 3 13 4 14
REMARK SMILES IDX 76 15 75 16 77 17 74 18 2 19 1 20 69 21 70 22 73 23 71 24
REMARK SMILES IDX 72 25 15 26 16 27 17 28 18 29 19 30 20 32 21 33 22 34 68 35
REMARK SMILES IDX 23 36 67 37 24 38 25 39 26 40 61 41 27 42 66 43 60 44 62 45
REMARK SMILES IDX 28 46 65 47 59 48 58 49 29 51 51 52 36 53 50 54 37 55 40 56
REMARK SMILES IDX 49 57 63 58 38 59 39 60 48 62 64 63 41 64 30 65 31 66 35 67
REMARK SMILES IDX 32 68 34 69 33 70 52 71 53 72 57 73 54 74 56 75 55 76 42 77
REMARK SMILES IDX 43 78 47 79 44 80 46 81 45 82
REMARK H PARENT 14 4 9 10 18 31 62 50 40 61
REMARK Flexibility Score: inf
ROOT
ATOM      1  C   UNL A   1      36.627  23.058  23.926  1.00  0.00     0.222 C 
ATOM      2  O   UNL A   1      36.624  22.806  22.718  1.00  0.00    -0.275 OA
ATOM      3  N   UNL A   1      37.685  22.595  24.645  1.00  0.00    -0.356 N 
ATOM      4  H   UNL A   1      38.298  22.005  24.147  1.00  0.00     0.163 HD
ENDROOT
BRANCH   1   5
ATOM      5  C   UNL A   1      35.530  23.910  24.541  1.00  0.00     0.130 C 
BRANCH   5   6
ATOM      6  C   UNL A   1      34.280  23.249  25.148  1.00  0.00     0.131 C 
BRANCH   6   7
ATOM      7  N   UNL A   1      33.574  22.370  24.226  1.00  0.00    -0.348 N 
ATOM      8  C   UNL A   1      33.051  22.563  22.987  1.00  0.00     0.224 C 
ATOM      9  O   UNL A   1      32.456  21.608  22.476  1.00  0.00    -0.275 OA
ATOM     10  H   UNL A   1      33.452  21.455  24.569  1.00  0.00     0.164 HD
BRANCH   8  11
ATOM     11  C   UNL A   1      33.277  23.825  22.183  1.00  0.00     0.135 C 
BRANCH  11  12
ATOM     12  C   UNL A   1      32.411  25.015  22.499  1.00  0.00    -0.035 A 
ATOM     13  C   UNL A   1      32.191  27.442  22.670  1.00  0.00     0.122 A 
ATOM     14  C   UNL A   1      32.946  26.307  22.366  1.00  0.00     0.051 A 
ATOM     15  C   UNL A   1      30.868  27.289  23.108  1.00  0.00    -0.009 A 
ATOM     16  C   UNL A   1      30.314  25.999  23.190  1.00  0.00     0.007 A 
ATOM     17  C   UNL A   1      29.997  28.468  23.447  1.00  0.00     0.048 C 
ATOM     18  C   UNL A   1      31.077  24.870  22.886  1.00  0.00     0.005 A 
BRANCH  13  19
ATOM     19  O   UNL A   1      32.677  28.721  22.598  1.00  0.00    -0.496 OA
ATOM     20  C   UNL A   1      34.093  28.873  22.593  1.00  0.00     0.278 C 
ENDBRANCH  13  19
ENDBRANCH  11  12
ENDBRANCH   8  11
ENDBRANCH   6   7
BRANCH   6  21
ATOM     21  C   UNL A   1      33.228  24.151  25.765  1.00  0.00     0.027 A 
ATOM     22  C   UNL A   1      33.168  25.520  25.956  1.00  0.00     0.017 A 
ATOM     23  S   UNL A   1      31.758  23.412  26.316  1.00  0.00    -0.147 S 
ATOM     24  C   UNL A   1      31.928  25.958  26.510  1.00  0.00     0.012 A 
ATOM     25  C   UNL A   1      31.065  24.914  26.732  1.00  0.00     0.065 A 
ENDBRANCH   6  21
ENDBRANCH   5   6
ENDBRANCH   1   5
BRANCH   3  26
ATOM     26  C   UNL A   1      38.058  22.830  26.029  1.00  0.00     0.117 C 
BRANCH  26  27
ATOM     27  C   UNL A   1      39.566  22.805  26.221  1.00  0.00     0.042 C 
BRANCH  27  28
ATOM     28  C   UNL A   1      40.099  21.572  26.929  1.00  0.00     0.118 C 
BRANCH  28  29
ATOM     29  N   UNL A   1      40.949  20.750  26.067  1.00  0.00    -0.352 N 
ATOM     30  C   UNL A   1      42.331  20.761  25.963  1.00  0.00     0.251 C 
ATOM     31  H   UNL A   1      40.480  20.108  25.487  1.00  0.00     0.163 HD
ATOM     32  O   UNL A   1      42.933  19.918  25.324  1.00  0.00    -0.269 OA
BRANCH  30  33
ATOM     33  C   UNL A   1      43.055  21.776  26.753  1.00  0.00     0.039 A 
ATOM     34  C   UNL A   1      43.032  21.641  28.141  1.00  0.00     0.014 A 
ATOM     35  C   UNL A   1      43.416  22.977  26.143  1.00  0.00     0.014 A 
ATOM     36  C   UNL A   1      43.111  22.789  28.922  1.00  0.00     0.010 A 
ATOM     37  C   UNL A   1      43.416  24.125  26.914  1.00  0.00     0.010 A 
ATOM     38  C   UNL A   1      43.179  24.035  28.290  1.00  0.00    -0.014 A 
BRANCH  38  39
ATOM     39  C   UNL A   1      42.878  25.271  29.002  1.00  0.00     0.031 A 
ATOM     40  C   UNL A   1      41.674  26.047  28.649  1.00  0.00     0.074 A 
ATOM     41  C   UNL A   1      43.745  25.796  29.897  1.00  0.00     0.049 A 
ATOM     42  N   UNL A   1      41.643  27.338  28.600  1.00  0.00    -0.248 NA
ATOM     43  C   UNL A   1      40.417  25.415  28.273  1.00  0.00     0.031 C 
ATOM     44  C   UNL A   1      43.541  26.970  30.744  1.00  0.00     0.029 A 
ATOM     45  N   UNL A   1      45.083  25.497  30.082  1.00  0.00    -0.354 N 
ATOM     46  C   UNL A   1      40.329  27.704  28.459  1.00  0.00     0.074 A 
ATOM     47  C   UNL A   1      39.614  26.479  28.176  1.00  0.00     0.031 C 
ATOM     48  C   UNL A   1      44.739  27.435  31.140  1.00  0.00     0.029 A 
ATOM     49  C   UNL A   1      45.764  26.645  30.480  1.00  0.00     0.049 A 
ATOM     50  H   UNL A   1      45.490  24.610  29.953  1.00  0.00     0.167 HD
ATOM     51  C   UNL A   1      39.936  28.977  28.740  1.00  0.00     0.031 A 
ATOM     52  C   UNL A   1      46.812  27.156  29.767  1.00  0.00     0.031 A 
ATOM     53  C   UNL A   1      41.038  29.813  29.198  1.00  0.00     0.049 A 
ATOM     54  C   UNL A   1      46.549  28.540  29.208  1.00  0.00     0.074 A 
ATOM     55  C   UNL A   1      41.467  30.180  30.465  1.00  0.00     0.029 A 
ATOM     56  N   UNL A   1      42.060  30.150  28.322  1.00  0.00    -0.354 N 
ATOM     57  N   UNL A   1      45.372  29.099  29.174  1.00  0.00    -0.248 NA
ATOM     58  C   UNL A   1      47.575  29.379  28.589  1.00  0.00     0.031 C 
ATOM     59  C   UNL A   1      42.784  30.690  30.351  1.00  0.00     0.029 A 
ATOM     60  C   UNL A   1      43.142  30.657  29.016  1.00  0.00     0.049 A 
ATOM     61  H   UNL A   1      42.020  30.041  27.344  1.00  0.00     0.167 HD
ATOM     62  C   UNL A   1      45.450  30.307  28.531  1.00  0.00     0.074 A 
ATOM     63  C   UNL A   1      46.856  30.449  28.201  1.00  0.00     0.031 C 
ATOM     64  C   UNL A   1      44.343  31.072  28.306  1.00  0.00     0.031 A 
BRANCH  51  65
ATOM     65  C   UNL A   1      38.485  29.336  28.901  1.00  0.00    -0.014 A 
ATOM     66  C   UNL A   1      37.750  29.800  27.794  1.00  0.00     0.009 A 
ATOM     67  C   UNL A   1      37.804  29.284  30.129  1.00  0.00     0.009 A 
ATOM     68  C   UNL A   1      36.447  30.290  27.929  1.00  0.00     0.001 A 
ATOM     69  C   UNL A   1      36.516  29.814  30.278  1.00  0.00     0.001 A 
ATOM     70  C   UNL A   1      35.841  30.329  29.178  1.00  0.00     0.000 A 
ENDBRANCH  51  65
BRANCH  52  71
ATOM     71  C   UNL A   1      47.650  26.121  29.105  1.00  0.00    -0.014 A 
ATOM     72  C   UNL A   1      47.391  25.823  27.752  1.00  0.00     0.009 A 
ATOM     73  C   UNL A   1      48.872  25.716  29.658  1.00  0.00     0.009 A 
ATOM     74  C   UNL A   1      48.373  25.239  26.947  1.00  0.00     0.001 A 
ATOM     75  C   UNL A   1      49.850  25.125  28.849  1.00  0.00     0.001 A 
ATOM     76  C   UNL A   1      49.615  24.920  27.489  1.00  0.00     0.000 A 
ENDBRANCH  52  71
BRANCH  64  77
ATOM     77  C   UNL A   1      44.268  32.317  27.459  1.00  0.00    -0.014 A 
ATOM     78  C   UNL A   1      44.511  32.354  26.080  1.00  0.00     0.009 A 
ATOM     79  C   UNL A   1      43.793  33.512  28.050  1.00  0.00     0.009 A 
ATOM     80  C   UNL A   1      44.321  33.530  25.339  1.00  0.00     0.001 A 
ATOM     81  C   UNL A   1      43.562  34.672  27.309  1.00  0.00     0.001 A 
ATOM     82  C   UNL A   1      43.837  34.684  25.951  1.00  0.00     0.000 A 
ENDBRANCH  64  77
ENDBRANCH  38  39
ENDBRANCH  30  33
ENDBRANCH  28  29
ENDBRANCH  27  28
ENDBRANCH  26  27
ENDBRANCH   3  26
TORSDOF 16
ENDMDL
MODEL 3
REMARK VINA RESULT:     -11.5      2.723      4.659
REMARK SMILES COc1cc(CC(=O)N[C@@H](CC(=O)NCCCNC(=O)c2ccc(-c3c4nc(c(-c5ccccc5)c5ccc([nH]5)c(-c5ccccc5)c5nc(c(-c6ccccc6)c6ccc3[nH]6)C=C5)C=C4)cc2)c2cccs2)ccc1C
REMARK SMILES IDX 12 1 13 2 14 3 11 5 10 6 9 7 7 8 8 9 6 11 5 12 3 13 4 14
REMARK SMILES IDX 76 15 75 16 77 17 74 18 2 19 1 20 69 21 70 22 73 23 71 24
REMARK SMILES IDX 72 25 15 26 16 27 17 28 18 29 19 30 20 32 21 33 22 34 68 35
REMARK SMILES IDX 23 36 67 37 24 38 25 39 26 40 61 41 27 42 66 43 60 44 62 45
REMARK SMILES IDX 28 46 65 47 59 48 58 49 29 51 51 52 36 53 50 54 37 55 40 56
REMARK SMILES IDX 49 57 63 58 38 59 39 60 48 62 64 63 41 64 30 65 31 66 35 67
REMARK SMILES IDX 32 68 34 69 33 70 52 71 53 72 57 73 54 74 56 75 55 76 42 77
REMARK SMILES IDX 43 78 47 79 44 80 46 81 45 82
REMARK H PARENT 14 4 9 10 18 31 62 50 40 61
REMARK Flexibility Score: inf
ROOT
ATOM      1  C   UNL A   1      35.025  22.825  26.523  1.00  0.00     0.222 C 
ATOM      2  O   UNL A   1      34.223  22.590  27.431  1.00  0.00    -0.275 OA
ATOM      3  N   UNL A   1      35.954  21.865  26.264  1.00  0.00    -0.356 N 
ATOM      4  H   UNL A   1      35.965  21.116  26.903  1.00  0.00     0.163 HD
ENDROOT
BRANCH   1   5
ATOM      5  C   UNL A   1      34.912  24.098  25.701  1.00  0.00     0.130 C 
BRANCH   5   6
ATOM      6  C   UNL A   1      33.530  24.646  25.303  1.00  0.00     0.131 C 
BRANCH   6   7
ATOM      7  N   UNL A   1      32.461  23.660  25.386  1.00  0.00    -0.348 N 
ATOM      8  C   UNL A   1      31.205  23.704  25.902  1.00  0.00     0.224 C 
ATOM      9  O   UNL A   1      30.546  22.659  25.859  1.00  0.00    -0.275 OA
ATOM     10  H   UNL A   1      32.695  22.790  24.989  1.00  0.00     0.164 HD
BRANCH   8  11
ATOM     11  C   UNL A   1      30.560  24.981  26.396  1.00  0.00     0.135 C 
BRANCH  11  12
ATOM     12  C   UNL A   1      30.439  26.121  25.422  1.00  0.00    -0.035 A 
ATOM     13  C   UNL A   1      30.944  28.446  24.866  1.00  0.00     0.122 A 
ATOM     14  C   UNL A   1      31.047  27.350  25.727  1.00  0.00     0.051 A 
ATOM     15  C   UNL A   1      30.225  28.314  23.670  1.00  0.00    -0.009 A 
ATOM     16  C   UNL A   1      29.660  27.069  23.339  1.00  0.00     0.007 A 
ATOM     17  C   UNL A   1      30.077  29.451  22.696  1.00  0.00     0.048 C 
ATOM     18  C   UNL A   1      29.768  25.980  24.205  1.00  0.00     0.005 A 
BRANCH  13  19
ATOM     19  O   UNL A   1      31.481  29.677  25.135  1.00  0.00    -0.496 OA
ATOM     20  C   UNL A   1      32.871  29.721  25.441  1.00  0.00     0.278 C 
ENDBRANCH  13  19
ENDBRANCH  11  12
ENDBRANCH   8  11
ENDBRANCH   6   7
BRANCH   6  21
ATOM     21  C   UNL A   1      33.393  25.310  23.946  1.00  0.00     0.027 A 
ATOM     22  C   UNL A   1      33.687  26.585  23.497  1.00  0.00     0.017 A 
ATOM     23  S   UNL A   1      32.812  24.339  22.631  1.00  0.00    -0.147 S 
ATOM     24  C   UNL A   1      33.474  26.751  22.097  1.00  0.00     0.012 A 
ATOM     25  C   UNL A   1      33.020  25.600  21.502  1.00  0.00     0.065 A 
ENDBRANCH   6  21
ENDBRANCH   5   6
ENDBRANCH   1   5
BRANCH   3  26
ATOM     26  C   UNL A   1      36.933  21.767  25.195  1.00  0.00     0.117 C 
BRANCH  26  27
ATOM     27  C   UNL A   1      38.357  21.854  25.722  1.00  0.00     0.042 C 
BRANCH  27  28
ATOM     28  C   UNL A   1      38.776  23.233  26.200  1.00  0.00     0.118 C 
BRANCH  28  29
ATOM     29  N   UNL A   1      40.227  23.363  26.339  1.00  0.00    -0.352 N 
ATOM     30  C   UNL A   1      40.947  24.414  26.884  1.00  0.00     0.251 C 
ATOM     31  H   UNL A   1      40.760  22.607  26.002  1.00  0.00     0.163 HD
ATOM     32  O   UNL A   1      42.144  24.336  27.087  1.00  0.00    -0.269 OA
BRANCH  30  33
ATOM     33  C   UNL A   1      40.179  25.600  27.314  1.00  0.00     0.039 A 
ATOM     34  C   UNL A   1      40.453  26.806  26.668  1.00  0.00     0.014 A 
ATOM     35  C   UNL A   1      39.501  25.562  28.531  1.00  0.00     0.014 A 
ATOM     36  C   UNL A   1      40.284  27.991  27.375  1.00  0.00     0.010 A 
ATOM     37  C   UNL A   1      39.406  26.733  29.261  1.00  0.00     0.010 A 
ATOM     38  C   UNL A   1      39.876  27.931  28.712  1.00  0.00    -0.014 A 
BRANCH  38  39
ATOM     39  C   UNL A   1      40.047  29.062  29.616  1.00  0.00     0.031 A 
ATOM     40  C   UNL A   1      39.009  30.108  29.687  1.00  0.00     0.074 A 
ATOM     41  C   UNL A   1      41.197  29.246  30.303  1.00  0.00     0.049 A 
ATOM     42  N   UNL A   1      39.270  31.369  29.796  1.00  0.00    -0.248 NA
ATOM     43  C   UNL A   1      37.587  29.809  29.588  1.00  0.00     0.031 C 
ATOM     44  C   UNL A   1      41.476  30.275  31.303  1.00  0.00     0.029 A 
ATOM     45  N   UNL A   1      42.433  28.663  30.091  1.00  0.00    -0.354 N 
ATOM     46  C   UNL A   1      38.081  32.005  30.053  1.00  0.00     0.074 A 
ATOM     47  C   UNL A   1      37.055  31.011  29.830  1.00  0.00     0.031 C 
ATOM     48  C   UNL A   1      42.807  30.421  31.418  1.00  0.00     0.029 A 
ATOM     49  C   UNL A   1      43.437  29.570  30.423  1.00  0.00     0.049 A 
ATOM     50  H   UNL A   1      42.580  27.748  29.757  1.00  0.00     0.167 HD
ATOM     51  C   UNL A   1      38.073  33.263  30.572  1.00  0.00     0.031 A 
ATOM     52  C   UNL A   1      44.378  29.978  29.522  1.00  0.00     0.031 A 
ATOM     53  C   UNL A   1      39.415  33.776  30.815  1.00  0.00     0.049 A 
ATOM     54  C   UNL A   1      44.323  31.462  29.216  1.00  0.00     0.074 A 
ATOM     55  C   UNL A   1      40.202  33.830  31.955  1.00  0.00     0.029 A 
ATOM     56  N   UNL A   1      40.254  34.049  29.743  1.00  0.00    -0.354 N 
ATOM     57  N   UNL A   1      43.334  32.239  29.560  1.00  0.00    -0.248 NA
ATOM     58  C   UNL A   1      45.342  32.176  28.447  1.00  0.00     0.031 C 
ATOM     59  C   UNL A   1      41.537  34.083  31.556  1.00  0.00     0.029 A 
ATOM     60  C   UNL A   1      41.556  34.208  30.179  1.00  0.00     0.049 A 
ATOM     61  H   UNL A   1      39.962  34.119  28.805  1.00  0.00     0.167 HD
ATOM     62  C   UNL A   1      43.539  33.499  29.062  1.00  0.00     0.074 A 
ATOM     63  C   UNL A   1      44.823  33.417  28.390  1.00  0.00     0.031 C 
ATOM     64  C   UNL A   1      42.620  34.494  29.229  1.00  0.00     0.031 A 
BRANCH  51  65
ATOM     65  C   UNL A   1      36.825  33.868  31.152  1.00  0.00    -0.014 A 
ATOM     66  C   UNL A   1      36.796  34.259  32.503  1.00  0.00     0.009 A 
ATOM     67  C   UNL A   1      35.633  34.030  30.427  1.00  0.00     0.009 A 
ATOM     68  C   UNL A   1      35.615  34.680  33.123  1.00  0.00     0.001 A 
ATOM     69  C   UNL A   1      34.438  34.410  31.052  1.00  0.00     0.001 A 
ATOM     70  C   UNL A   1      34.427  34.723  32.406  1.00  0.00     0.000 A 
ENDBRANCH  51  65
BRANCH  52  71
ATOM     71  C   UNL A   1      44.773  28.928  28.546  1.00  0.00    -0.014 A 
ATOM     72  C   UNL A   1      45.547  27.846  29.011  1.00  0.00     0.009 A 
ATOM     73  C   UNL A   1      44.118  28.803  27.313  1.00  0.00     0.009 A 
ATOM     74  C   UNL A   1      45.571  26.632  28.318  1.00  0.00     0.001 A 
ATOM     75  C   UNL A   1      44.151  27.587  26.620  1.00  0.00     0.001 A 
ATOM     76  C   UNL A   1      44.845  26.494  27.138  1.00  0.00     0.000 A 
ENDBRANCH  52  71
BRANCH  64  77
ATOM     77  C   UNL A   1      42.642  35.856  28.581  1.00  0.00    -0.014 A 
ATOM     78  C   UNL A   1      42.024  36.164  27.363  1.00  0.00     0.009 A 
ATOM     79  C   UNL A   1      43.205  36.938  29.298  1.00  0.00     0.009 A 
ATOM     80  C   UNL A   1      41.999  37.478  26.872  1.00  0.00     0.001 A 
ATOM     81  C   UNL A   1      43.144  38.253  28.834  1.00  0.00     0.001 A 
ATOM     82  C   UNL A   1      42.549  38.523  27.612  1.00  0.00     0.000 A 
ENDBRANCH  64  77
ENDBRANCH  38  39
ENDBRANCH  30  33
ENDBRANCH  28  29
ENDBRANCH  27  28
ENDBRANCH  26  27
ENDBRANCH   3  26
TORSDOF 16
ENDMDL
