MODEL 1
REMARK VINA RESULT:     -12.2      0.000      0.000
REMARK SMILES O=C(NCCCNC(=O)c1cc2ccccc2cc1NS(=O)(=O)c1ccccc1Br)c1ccc(-c2c3nc(c(-c4ccccc4)c4ccc([nH]4)c(-c4ccccc4)c4nc(c(-c5ccccc5)c5ccc2[nH]5)C=C4)C=C3)cc1
REMARK SMILES IDX 5 1 4 2 3 3 1 4 2 5 31 7 32 8 78 9 33 10 77 11 34 12 35 13
REMARK SMILES IDX 36 14 71 15 37 16 76 17 70 18 72 19 38 20 75 21 69 22 68 23
REMARK SMILES IDX 39 25 61 26 46 27 60 28 47 29 50 30 59 31 73 32 48 33 49 34
REMARK SMILES IDX 58 36 74 37 51 38 40 39 41 40 45 41 42 42 44 43 43 44 62 45
REMARK SMILES IDX 63 46 67 47 64 48 66 49 65 50 52 51 53 52 57 53 54 54 56 55
REMARK SMILES IDX 55 56 6 57 7 58 8 59 9 61 10 62 11 63 19 64 12 65 18 66
REMARK SMILES IDX 13 67 17 68 14 69 16 70 15 71 20 72 21 74 22 75 23 76 24 77
REMARK SMILES IDX 25 78 29 79 26 80 28 81 30 82 27 83
REMARK H PARENT 3 6 72 24 50 35 7 60 20 73
REMARK Flexibility Score: inf
ROOT
ATOM      1  C   UNL A   1      34.052  27.767  26.147  1.00  0.00     0.042 C 
ENDROOT
BRANCH   1   2
ATOM      2  C   UNL A   1      33.341  28.333  27.370  1.00  0.00     0.118 C 
BRANCH   2   3
ATOM      3  N   UNL A   1      33.371  29.786  27.426  1.00  0.00    -0.352 N 
ATOM      4  O   UNL A   1      34.048  31.853  27.981  1.00  0.00    -0.269 OA
ATOM      5  C   UNL A   1      34.327  30.660  27.879  1.00  0.00     0.251 C 
ATOM      6  H   UNL A   1      32.561  30.221  27.075  1.00  0.00     0.163 HD
BRANCH   5   7
ATOM      7  C   UNL A   1      35.681  30.204  28.266  1.00  0.00     0.039 A 
ATOM      8  C   UNL A   1      35.953  29.691  29.537  1.00  0.00     0.014 A 
ATOM      9  C   UNL A   1      36.688  30.209  27.294  1.00  0.00     0.014 A 
ATOM     10  C   UNL A   1      37.251  29.310  29.875  1.00  0.00     0.010 A 
ATOM     11  C   UNL A   1      37.971  29.753  27.609  1.00  0.00     0.010 A 
ATOM     12  C   UNL A   1      38.270  29.326  28.911  1.00  0.00    -0.014 A 
BRANCH  12  13
ATOM     13  C   UNL A   1      39.633  28.851  29.255  1.00  0.00     0.031 A 
ATOM     14  C   UNL A   1      40.583  29.728  30.020  1.00  0.00     0.074 A 
ATOM     15  C   UNL A   1      40.024  27.624  28.858  1.00  0.00     0.049 A 
ATOM     16  N   UNL A   1      41.827  29.498  30.357  1.00  0.00    -0.248 NA
ATOM     17  C   UNL A   1      40.073  31.036  30.458  1.00  0.00     0.031 C 
ATOM     18  C   UNL A   1      39.200  26.679  28.104  1.00  0.00     0.029 A 
ATOM     19  N   UNL A   1      41.214  26.967  29.033  1.00  0.00    -0.354 N 
ATOM     20  C   UNL A   1      42.259  30.640  31.017  1.00  0.00     0.074 A 
ATOM     21  C   UNL A   1      41.147  31.568  31.025  1.00  0.00     0.031 C 
ATOM     22  C   UNL A   1      39.902  25.553  27.900  1.00  0.00     0.029 A 
ATOM     23  C   UNL A   1      41.237  25.718  28.462  1.00  0.00     0.049 A 
ATOM     24  H   UNL A   1      41.978  27.352  29.521  1.00  0.00     0.167 HD
ATOM     25  C   UNL A   1      43.469  30.895  31.568  1.00  0.00     0.031 A 
ATOM     26  C   UNL A   1      42.229  24.813  28.375  1.00  0.00     0.031 A 
ATOM     27  C   UNL A   1      44.572  29.971  31.573  1.00  0.00     0.049 A 
ATOM     28  C   UNL A   1      43.566  25.123  28.978  1.00  0.00     0.074 A 
ATOM     29  C   UNL A   1      45.825  30.125  32.142  1.00  0.00     0.029 A 
ATOM     30  N   UNL A   1      44.556  28.720  30.976  1.00  0.00    -0.354 N 
ATOM     31  N   UNL A   1      43.948  26.198  29.621  1.00  0.00    -0.248 NA
ATOM     32  C   UNL A   1      44.608  24.096  28.839  1.00  0.00     0.031 C 
ATOM     33  C   UNL A   1      46.578  28.981  31.859  1.00  0.00     0.029 A 
ATOM     34  C   UNL A   1      45.782  28.100  31.146  1.00  0.00     0.049 A 
ATOM     35  H   UNL A   1      43.785  28.331  30.501  1.00  0.00     0.167 HD
ATOM     36  C   UNL A   1      45.271  25.975  29.977  1.00  0.00     0.074 A 
ATOM     37  C   UNL A   1      45.622  24.657  29.487  1.00  0.00     0.031 C 
ATOM     38  C   UNL A   1      46.116  26.790  30.650  1.00  0.00     0.031 A 
BRANCH  25  39
ATOM     39  C   UNL A   1      43.672  32.246  32.189  1.00  0.00    -0.014 A 
ATOM     40  C   UNL A   1      44.127  33.336  31.429  1.00  0.00     0.009 A 
ATOM     41  C   UNL A   1      43.380  32.438  33.548  1.00  0.00     0.009 A 
ATOM     42  C   UNL A   1      44.316  34.583  32.030  1.00  0.00     0.001 A 
ATOM     43  C   UNL A   1      43.550  33.690  34.139  1.00  0.00     0.001 A 
ATOM     44  C   UNL A   1      44.027  34.760  33.382  1.00  0.00     0.000 A 
ENDBRANCH  25  39
BRANCH  26  45
ATOM     45  C   UNL A   1      41.981  23.533  27.669  1.00  0.00    -0.014 A 
ATOM     46  C   UNL A   1      42.344  23.380  26.323  1.00  0.00     0.009 A 
ATOM     47  C   UNL A   1      41.428  22.440  28.356  1.00  0.00     0.009 A 
ATOM     48  C   UNL A   1      42.152  22.156  25.678  1.00  0.00     0.001 A 
ATOM     49  C   UNL A   1      41.258  21.213  27.713  1.00  0.00     0.001 A 
ATOM     50  C   UNL A   1      41.616  21.074  26.374  1.00  0.00     0.000 A 
ENDBRANCH  26  45
BRANCH  38  51
ATOM     51  C   UNL A   1      47.497  26.271  30.919  1.00  0.00    -0.014 A 
ATOM     52  C   UNL A   1      48.508  26.374  29.952  1.00  0.00     0.009 A 
ATOM     53  C   UNL A   1      47.799  25.716  32.172  1.00  0.00     0.009 A 
ATOM     54  C   UNL A   1      49.795  25.911  30.229  1.00  0.00     0.001 A 
ATOM     55  C   UNL A   1      49.092  25.270  32.451  1.00  0.00     0.001 A 
ATOM     56  C   UNL A   1      50.087  25.363  31.479  1.00  0.00     0.000 A 
ENDBRANCH  38  51
ENDBRANCH  12  13
ENDBRANCH   5   7
ENDBRANCH   2   3
ENDBRANCH   1   2
BRANCH   1  57
ATOM     57  C   UNL A   1      33.837  28.561  24.866  1.00  0.00     0.118 C 
BRANCH  57  58
ATOM     58  N   UNL A   1      34.073  27.785  23.656  1.00  0.00    -0.352 N 
ATOM     59  C   UNL A   1      33.175  27.162  22.825  1.00  0.00     0.253 C 
ATOM     60  H   UNL A   1      35.017  27.695  23.394  1.00  0.00     0.163 HD
ATOM     61  O   UNL A   1      33.578  26.498  21.874  1.00  0.00    -0.269 OA
BRANCH  59  62
ATOM     62  C   UNL A   1      31.724  27.242  23.086  1.00  0.00     0.064 A 
ATOM     63  C   UNL A   1      31.056  28.364  22.565  1.00  0.00     0.024 A 
ATOM     64  C   UNL A   1      31.036  26.288  23.850  1.00  0.00     0.062 A 
ATOM     65  C   UNL A   1      29.678  28.527  22.758  1.00  0.00    -0.017 A 
ATOM     66  C   UNL A   1      29.648  26.408  23.948  1.00  0.00     0.036 A 
ATOM     67  C   UNL A   1      28.993  29.675  22.323  1.00  0.00     0.009 A 
ATOM     68  C   UNL A   1      28.961  27.515  23.426  1.00  0.00    -0.016 A 
ATOM     69  C   UNL A   1      27.620  29.811  22.542  1.00  0.00     0.001 A 
ATOM     70  C   UNL A   1      27.576  27.652  23.614  1.00  0.00     0.009 A 
ATOM     71  C   UNL A   1      26.911  28.796  23.179  1.00  0.00     0.001 A 
BRANCH  64  72
ATOM     72  N   UNL A   1      31.761  25.367  24.673  1.00  0.00    -0.279 N 
ATOM     73  H   UNL A   1      32.266  25.753  25.425  1.00  0.00     0.180 HD
BRANCH  72  74
ATOM     74  S   UNL A   1      31.844  23.709  24.494  1.00  0.00     0.263 S 
ATOM     75  O   UNL A   1      31.060  23.125  25.563  1.00  0.00    -0.201 OA
ATOM     76  O   UNL A   1      31.528  23.417  23.112  1.00  0.00    -0.201 OA
BRANCH  74  77
ATOM     77  C   UNL A   1      33.534  23.252  24.756  1.00  0.00     0.101 A 
ATOM     78  C   UNL A   1      34.440  24.297  25.015  1.00  0.00     0.023 A 
ATOM     79  C   UNL A   1      34.004  21.947  24.580  1.00  0.00     0.038 A 
ATOM     80  C   UNL A   1      35.812  24.053  25.031  1.00  0.00     0.001 A 
ATOM     81  C   UNL A   1      35.387  21.717  24.585  1.00  0.00     0.017 A 
ATOM     82  Br  UNL A   1      32.899  20.435  24.276  1.00  0.00    -0.049 Br
ATOM     83  C   UNL A   1      36.285  22.767  24.796  1.00  0.00     0.001 A 
ENDBRANCH  74  77
ENDBRANCH  72  74
ENDBRANCH  64  72
ENDBRANCH  59  62
ENDBRANCH  57  58
ENDBRANCH   1  57
TORSDOF 13
ENDMDL
MODEL 2
REMARK VINA RESULT:     -12.0      2.700      7.911
REMARK SMILES O=C(NCCCNC(=O)c1cc2ccccc2cc1NS(=O)(=O)c1ccccc1Br)c1ccc(-c2c3nc(c(-c4ccccc4)c4ccc([nH]4)c(-c4ccccc4)c4nc(c(-c5ccccc5)c5ccc2[nH]5)C=C4)C=C3)cc1
REMARK SMILES IDX 5 1 4 2 3 3 1 4 2 5 31 7 32 8 78 9 33 10 77 11 34 12 35 13
REMARK SMILES IDX 36 14 71 15 37 16 76 17 70 18 72 19 38 20 75 21 69 22 68 23
REMARK SMILES IDX 39 25 61 26 46 27 60 28 47 29 50 30 59 31 73 32 48 33 49 34
REMARK SMILES IDX 58 36 74 37 51 38 40 39 41 40 45 41 42 42 44 43 43 44 62 45
REMARK SMILES IDX 63 46 67 47 64 48 66 49 65 50 52 51 53 52 57 53 54 54 56 55
REMARK SMILES IDX 55 56 6 57 7 58 8 59 9 61 10 62 11 63 19 64 12 65 18 66
REMARK SMILES IDX 13 67 17 68 14 69 16 70 15 71 20 72 21 74 22 75 23 76 24 77
REMARK SMILES IDX 25 78 29 79 26 80 28 81 30 82 27 83
REMARK H PARENT 3 6 72 24 50 35 7 60 20 73
REMARK Flexibility Score: inf
ROOT
ATOM      1  C   UNL A   1      35.959  24.022  25.750  1.00  0.00     0.042 C 
ENDROOT
BRANCH   1   2
ATOM      2  C   UNL A   1      37.071  23.639  24.782  1.00  0.00     0.118 C 
BRANCH   2   3
ATOM      3  N   UNL A   1      37.988  22.651  25.329  1.00  0.00    -0.352 N 
ATOM      4  O   UNL A   1      39.807  21.802  26.331  1.00  0.00    -0.269 OA
ATOM      5  C   UNL A   1      39.085  22.778  26.143  1.00  0.00     0.251 C 
ATOM      6  H   UNL A   1      37.784  21.724  25.069  1.00  0.00     0.163 HD
BRANCH   5   7
ATOM      7  C   UNL A   1      39.435  24.066  26.785  1.00  0.00     0.039 A 
ATOM      8  C   UNL A   1      39.118  24.338  28.118  1.00  0.00     0.014 A 
ATOM      9  C   UNL A   1      40.182  24.993  26.050  1.00  0.00     0.014 A 
ATOM     10  C   UNL A   1      39.429  25.579  28.672  1.00  0.00     0.010 A 
ATOM     11  C   UNL A   1      40.563  26.206  26.630  1.00  0.00     0.010 A 
ATOM     12  C   UNL A   1      40.164  26.521  27.937  1.00  0.00    -0.014 A 
BRANCH  12  13
ATOM     13  C   UNL A   1      40.555  27.812  28.556  1.00  0.00     0.031 A 
ATOM     14  C   UNL A   1      41.953  28.030  29.062  1.00  0.00     0.074 A 
ATOM     15  C   UNL A   1      39.637  28.789  28.680  1.00  0.00     0.049 A 
ATOM     16  N   UNL A   1      42.452  29.070  29.679  1.00  0.00    -0.248 NA
ATOM     17  C   UNL A   1      42.913  26.935  28.854  1.00  0.00     0.031 C 
ATOM     18  C   UNL A   1      38.244  28.701  28.236  1.00  0.00     0.029 A 
ATOM     19  N   UNL A   1      39.738  30.047  29.218  1.00  0.00    -0.354 N 
ATOM     20  C   UNL A   1      43.773  28.746  29.961  1.00  0.00     0.074 A 
ATOM     21  C   UNL A   1      43.995  27.407  29.457  1.00  0.00     0.031 C 
ATOM     22  C   UNL A   1      37.627  29.864  28.500  1.00  0.00     0.029 A 
ATOM     23  C   UNL A   1      38.563  30.756  29.175  1.00  0.00     0.049 A 
ATOM     24  H   UNL A   1      40.572  30.406  29.597  1.00  0.00     0.167 HD
ATOM     25  C   UNL A   1      44.716  29.494  30.582  1.00  0.00     0.031 A 
ATOM     26  C   UNL A   1      38.259  31.978  29.649  1.00  0.00     0.031 A 
ATOM     27  C   UNL A   1      44.502  30.829  31.074  1.00  0.00     0.049 A 
ATOM     28  C   UNL A   1      39.314  32.781  30.347  1.00  0.00     0.074 A 
ATOM     29  C   UNL A   1      45.410  31.681  31.681  1.00  0.00     0.029 A 
ATOM     30  N   UNL A   1      43.294  31.507  31.018  1.00  0.00    -0.354 N 
ATOM     31  N   UNL A   1      40.565  32.468  30.582  1.00  0.00    -0.248 NA
ATOM     32  C   UNL A   1      38.915  34.104  30.849  1.00  0.00     0.031 C 
ATOM     33  C   UNL A   1      44.741  32.860  32.025  1.00  0.00     0.029 A 
ATOM     34  C   UNL A   1      43.427  32.757  31.596  1.00  0.00     0.049 A 
ATOM     35  H   UNL A   1      42.465  31.150  30.624  1.00  0.00     0.167 HD
ATOM     36  C   UNL A   1      41.108  33.559  31.247  1.00  0.00     0.074 A 
ATOM     37  C   UNL A   1      40.053  34.546  31.369  1.00  0.00     0.031 C 
ATOM     38  C   UNL A   1      42.368  33.726  31.712  1.00  0.00     0.031 A 
BRANCH  25  39
ATOM     39  C   UNL A   1      46.063  28.867  30.791  1.00  0.00    -0.014 A 
ATOM     40  C   UNL A   1      46.347  28.117  31.943  1.00  0.00     0.009 A 
ATOM     41  C   UNL A   1      47.055  29.009  29.809  1.00  0.00     0.009 A 
ATOM     42  C   UNL A   1      47.611  27.549  32.121  1.00  0.00     0.001 A 
ATOM     43  C   UNL A   1      48.310  28.422  29.980  1.00  0.00     0.001 A 
ATOM     44  C   UNL A   1      48.590  27.700  31.140  1.00  0.00     0.000 A 
ENDBRANCH  25  39
BRANCH  26  45
ATOM     45  C   UNL A   1      36.880  32.497  29.483  1.00  0.00    -0.014 A 
ATOM     46  C   UNL A   1      35.920  32.302  30.485  1.00  0.00     0.009 A 
ATOM     47  C   UNL A   1      36.535  33.237  28.340  1.00  0.00     0.009 A 
ATOM     48  C   UNL A   1      34.637  32.835  30.344  1.00  0.00     0.001 A 
ATOM     49  C   UNL A   1      35.259  33.786  28.213  1.00  0.00     0.001 A 
ATOM     50  C   UNL A   1      34.310  33.581  29.212  1.00  0.00     0.000 A 
ENDBRANCH  26  45
BRANCH  38  51
ATOM     51  C   UNL A   1      42.684  35.032  32.376  1.00  0.00    -0.014 A 
ATOM     52  C   UNL A   1      42.324  35.270  33.711  1.00  0.00     0.009 A 
ATOM     53  C   UNL A   1      43.392  36.017  31.670  1.00  0.00     0.009 A 
ATOM     54  C   UNL A   1      42.651  36.482  34.321  1.00  0.00     0.001 A 
ATOM     55  C   UNL A   1      43.733  37.221  32.289  1.00  0.00     0.001 A 
ATOM     56  C   UNL A   1      43.358  37.454  33.612  1.00  0.00     0.000 A 
ENDBRANCH  38  51
ENDBRANCH  12  13
ENDBRANCH   5   7
ENDBRANCH   2   3
ENDBRANCH   1   2
BRANCH   1  57
ATOM     57  C   UNL A   1      35.446  22.876  26.610  1.00  0.00     0.118 C 
BRANCH  57  58
ATOM     58  N   UNL A   1      34.139  23.133  27.201  1.00  0.00    -0.352 N 
ATOM     59  C   UNL A   1      32.893  22.751  26.771  1.00  0.00     0.253 C 
ATOM     60  H   UNL A   1      34.152  23.659  28.032  1.00  0.00     0.163 HD
ATOM     61  O   UNL A   1      31.893  23.120  27.381  1.00  0.00    -0.269 OA
BRANCH  59  62
ATOM     62  C   UNL A   1      32.733  21.933  25.552  1.00  0.00     0.064 A 
ATOM     63  C   UNL A   1      32.858  20.542  25.711  1.00  0.00     0.024 A 
ATOM     64  C   UNL A   1      32.514  22.494  24.285  1.00  0.00     0.062 A 
ATOM     65  C   UNL A   1      32.720  19.683  24.612  1.00  0.00    -0.017 A 
ATOM     66  C   UNL A   1      32.277  21.624  23.219  1.00  0.00     0.036 A 
ATOM     67  C   UNL A   1      32.921  18.296  24.718  1.00  0.00     0.009 A 
ATOM     68  C   UNL A   1      32.388  20.232  23.358  1.00  0.00    -0.016 A 
ATOM     69  C   UNL A   1      32.786  17.469  23.600  1.00  0.00     0.001 A 
ATOM     70  C   UNL A   1      32.228  19.385  22.249  1.00  0.00     0.009 A 
ATOM     71  C   UNL A   1      32.431  18.013  22.369  1.00  0.00     0.001 A 
BRANCH  64  72
ATOM     72  N   UNL A   1      32.751  23.889  24.066  1.00  0.00    -0.279 N 
ATOM     73  H   UNL A   1      33.683  24.196  24.152  1.00  0.00     0.180 HD
BRANCH  72  74
ATOM     74  S   UNL A   1      31.617  25.053  23.679  1.00  0.00     0.263 S 
ATOM     75  O   UNL A   1      31.775  25.350  22.271  1.00  0.00    -0.201 OA
ATOM     76  O   UNL A   1      30.346  24.589  24.192  1.00  0.00    -0.201 OA
BRANCH  74  77
ATOM     77  C   UNL A   1      32.052  26.509  24.587  1.00  0.00     0.101 A 
ATOM     78  C   UNL A   1      33.136  26.401  25.478  1.00  0.00     0.023 A 
ATOM     79  C   UNL A   1      31.291  27.681  24.552  1.00  0.00     0.038 A 
ATOM     80  C   UNL A   1      33.417  27.429  26.375  1.00  0.00     0.001 A 
ATOM     81  C   UNL A   1      31.575  28.703  25.469  1.00  0.00     0.017 A 
ATOM     82  Br  UNL A   1      29.837  27.988  23.371  1.00  0.00    -0.049 Br
ATOM     83  C   UNL A   1      32.623  28.571  26.384  1.00  0.00     0.001 A 
ENDBRANCH  74  77
ENDBRANCH  72  74
ENDBRANCH  64  72
ENDBRANCH  59  62
ENDBRANCH  57  58
ENDBRANCH   1  57
TORSDOF 13
ENDMDL
MODEL 3
REMARK VINA RESULT:     -12.0      0.410      5.837
REMARK SMILES O=C(NCCCNC(=O)c1cc2ccccc2cc1NS(=O)(=O)c1ccccc1Br)c1ccc(-c2c3nc(c(-c4ccccc4)c4ccc([nH]4)c(-c4ccccc4)c4nc(c(-c5ccccc5)c5ccc2[nH]5)C=C4)C=C3)cc1
REMARK SMILES IDX 5 1 4 2 3 3 1 4 2 5 31 7 32 8 78 9 33 10 77 11 34 12 35 13
REMARK SMILES IDX 36 14 71 15 37 16 76 17 70 18 72 19 38 20 75 21 69 22 68 23
REMARK SMILES IDX 39 25 61 26 46 27 60 28 47 29 50 30 59 31 73 32 48 33 49 34
REMARK SMILES IDX 58 36 74 37 51 38 40 39 41 40 45 41 42 42 44 43 43 44 62 45
REMARK SMILES IDX 63 46 67 47 64 48 66 49 65 50 52 51 53 52 57 53 54 54 56 55
REMARK SMILES IDX 55 56 6 57 7 58 8 59 9 61 10 62 11 63 19 64 12 65 18 66
REMARK SMILES IDX 13 67 17 68 14 69 16 70 15 71 20 72 21 74 22 75 23 76 24 77
REMARK SMILES IDX 25 78 29 79 26 80 28 81 30 82 27 83
REMARK H PARENT 3 6 72 24 50 35 7 60 20 73
REMARK Flexibility Score: inf
ROOT
ATOM      1  C   UNL A   1      34.066  27.726  26.087  1.00  0.00     0.042 C 
ENDROOT
BRANCH   1   2
ATOM      2  C   UNL A   1      33.379  28.289  27.325  1.00  0.00     0.118 C 
BRANCH   2   3
ATOM      3  N   UNL A   1      33.390  29.743  27.371  1.00  0.00    -0.352 N 
ATOM      4  O   UNL A   1      34.030  31.823  27.922  1.00  0.00    -0.269 OA
ATOM      5  C   UNL A   1      34.327  30.633  27.832  1.00  0.00     0.251 C 
ATOM      6  H   UNL A   1      32.579  30.165  27.005  1.00  0.00     0.163 HD
BRANCH   5   7
ATOM      7  C   UNL A   1      35.680  30.197  28.244  1.00  0.00     0.039 A 
ATOM      8  C   UNL A   1      35.935  29.674  29.514  1.00  0.00     0.014 A 
ATOM      9  C   UNL A   1      36.708  30.232  27.294  1.00  0.00     0.014 A 
ATOM     10  C   UNL A   1      37.232  29.313  29.876  1.00  0.00     0.010 A 
ATOM     11  C   UNL A   1      37.992  29.797  27.631  1.00  0.00     0.010 A 
ATOM     12  C   UNL A   1      38.271  29.360  28.935  1.00  0.00    -0.014 A 
BRANCH  12  13
ATOM     13  C   UNL A   1      39.635  28.906  29.303  1.00  0.00     0.031 A 
ATOM     14  C   UNL A   1      40.151  27.571  28.847  1.00  0.00     0.074 A 
ATOM     15  C   UNL A   1      40.409  29.698  30.071  1.00  0.00     0.049 A 
ATOM     16  N   UNL A   1      41.292  26.991  29.121  1.00  0.00    -0.248 NA
ATOM     17  C   UNL A   1      39.268  26.780  27.976  1.00  0.00     0.031 C 
ATOM     18  C   UNL A   1      40.023  31.013  30.585  1.00  0.00     0.029 A 
ATOM     19  N   UNL A   1      41.678  29.508  30.554  1.00  0.00    -0.354 N 
ATOM     20  C   UNL A   1      41.253  25.758  28.485  1.00  0.00     0.074 A 
ATOM     21  C   UNL A   1      39.971  25.668  27.818  1.00  0.00     0.031 C 
ATOM     22  C   UNL A   1      41.044  31.522  31.293  1.00  0.00     0.029 A 
ATOM     23  C   UNL A   1      42.131  30.550  31.325  1.00  0.00     0.049 A 
ATOM     24  H   UNL A   1      42.213  28.703  30.365  1.00  0.00     0.167 HD
ATOM     25  C   UNL A   1      42.199  24.789  28.456  1.00  0.00     0.031 A 
ATOM     26  C   UNL A   1      43.281  30.700  32.007  1.00  0.00     0.031 A 
ATOM     27  C   UNL A   1      43.478  24.880  29.107  1.00  0.00     0.049 A 
ATOM     28  C   UNL A   1      44.306  29.607  31.973  1.00  0.00     0.074 A 
ATOM     29  C   UNL A   1      44.517  23.964  29.100  1.00  0.00     0.029 A 
ATOM     30  N   UNL A   1      43.893  25.949  29.885  1.00  0.00    -0.354 N 
ATOM     31  N   UNL A   1      44.263  28.459  31.345  1.00  0.00    -0.248 NA
ATOM     32  C   UNL A   1      45.537  29.830  32.747  1.00  0.00     0.031 C 
ATOM     33  C   UNL A   1      45.547  24.465  29.904  1.00  0.00     0.029 A 
ATOM     34  C   UNL A   1      45.164  25.709  30.379  1.00  0.00     0.049 A 
ATOM     35  H   UNL A   1      43.362  26.760  30.059  1.00  0.00     0.167 HD
ATOM     36  C   UNL A   1      45.464  27.825  31.634  1.00  0.00     0.074 A 
ATOM     37  C   UNL A   1      46.219  28.722  32.486  1.00  0.00     0.031 C 
ATOM     38  C   UNL A   1      45.900  26.609  31.227  1.00  0.00     0.031 A 
BRANCH  25  39
ATOM     39  C   UNL A   1      41.866  23.527  27.715  1.00  0.00    -0.014 A 
ATOM     40  C   UNL A   1      41.138  22.494  28.325  1.00  0.00     0.009 A 
ATOM     41  C   UNL A   1      42.269  23.379  26.378  1.00  0.00     0.009 A 
ATOM     42  C   UNL A   1      40.848  21.324  27.619  1.00  0.00     0.001 A 
ATOM     43  C   UNL A   1      41.958  22.218  25.669  1.00  0.00     0.001 A 
ATOM     44  C   UNL A   1      41.256  21.187  26.293  1.00  0.00     0.000 A 
ENDBRANCH  25  39
BRANCH  26  45
ATOM     45  C   UNL A   1      43.503  31.940  32.789  1.00  0.00    -0.014 A 
ATOM     46  C   UNL A   1      43.116  32.011  34.135  1.00  0.00     0.009 A 
ATOM     47  C   UNL A   1      44.152  33.040  32.205  1.00  0.00     0.009 A 
ATOM     48  C   UNL A   1      43.371  33.164  34.880  1.00  0.00     0.001 A 
ATOM     49  C   UNL A   1      44.423  34.182  32.959  1.00  0.00     0.001 A 
ATOM     50  C   UNL A   1      44.029  34.245  34.294  1.00  0.00     0.000 A 
ENDBRANCH  26  45
BRANCH  38  51
ATOM     51  C   UNL A   1      47.265  26.187  31.679  1.00  0.00    -0.014 A 
ATOM     52  C   UNL A   1      47.449  25.522  32.900  1.00  0.00     0.009 A 
ATOM     53  C   UNL A   1      48.374  26.417  30.849  1.00  0.00     0.009 A 
ATOM     54  C   UNL A   1      48.724  25.111  33.292  1.00  0.00     0.001 A 
ATOM     55  C   UNL A   1      49.645  25.989  31.237  1.00  0.00     0.001 A 
ATOM     56  C   UNL A   1      49.819  25.342  32.459  1.00  0.00     0.000 A 
ENDBRANCH  38  51
ENDBRANCH  12  13
ENDBRANCH   5   7
ENDBRANCH   2   3
ENDBRANCH   1   2
BRANCH   1  57
ATOM     57  C   UNL A   1      33.835  28.529  24.815  1.00  0.00     0.118 C 
BRANCH  57  58
ATOM     58  N   UNL A   1      34.058  27.762  23.596  1.00  0.00    -0.352 N 
ATOM     59  C   UNL A   1      33.152  27.142  22.773  1.00  0.00     0.253 C 
ATOM     60  H   UNL A   1      35.000  27.677  23.322  1.00  0.00     0.163 HD
ATOM     61  O   UNL A   1      33.545  26.485  21.812  1.00  0.00    -0.269 OA
BRANCH  59  62
ATOM     62  C   UNL A   1      31.705  27.215  23.052  1.00  0.00     0.064 A 
ATOM     63  C   UNL A   1      31.027  28.340  22.551  1.00  0.00     0.024 A 
ATOM     64  C   UNL A   1      31.029  26.251  23.815  1.00  0.00     0.062 A 
ATOM     65  C   UNL A   1      29.651  28.498  22.762  1.00  0.00    -0.017 A 
ATOM     66  C   UNL A   1      29.642  26.367  23.932  1.00  0.00     0.036 A 
ATOM     67  C   UNL A   1      28.957  29.647  22.348  1.00  0.00     0.009 A 
ATOM     68  C   UNL A   1      28.945  27.477  23.430  1.00  0.00    -0.016 A 
ATOM     69  C   UNL A   1      27.587  29.778  22.586  1.00  0.00     0.001 A 
ATOM     70  C   UNL A   1      27.562  27.609  23.636  1.00  0.00     0.009 A 
ATOM     71  C   UNL A   1      26.888  28.754  23.221  1.00  0.00     0.001 A 
BRANCH  64  72
ATOM     72  N   UNL A   1      31.767  25.325  24.620  1.00  0.00    -0.279 N 
ATOM     73  H   UNL A   1      32.282  25.705  25.368  1.00  0.00     0.180 HD
BRANCH  72  74
ATOM     74  S   UNL A   1      31.848  23.668  24.427  1.00  0.00     0.263 S 
ATOM     75  O   UNL A   1      31.052  23.076  25.482  1.00  0.00    -0.201 OA
ATOM     76  O   UNL A   1      31.546  23.390  23.039  1.00  0.00    -0.201 OA
BRANCH  74  77
ATOM     77  C   UNL A   1      33.534  23.205  24.703  1.00  0.00     0.101 A 
ATOM     78  C   UNL A   1      34.447  24.249  24.942  1.00  0.00     0.023 A 
ATOM     79  C   UNL A   1      33.996  21.894  24.554  1.00  0.00     0.038 A 
ATOM     80  C   UNL A   1      35.817  23.996  24.967  1.00  0.00     0.001 A 
ATOM     81  C   UNL A   1      35.377  21.655  24.567  1.00  0.00     0.017 A 
ATOM     82  Br  UNL A   1      32.881  20.384  24.278  1.00  0.00    -0.049 Br
ATOM     83  C   UNL A   1      36.282  22.703  24.759  1.00  0.00     0.001 A 
ENDBRANCH  74  77
ENDBRANCH  72  74
ENDBRANCH  64  72
ENDBRANCH  59  62
ENDBRANCH  57  58
ENDBRANCH   1  57
TORSDOF 13
ENDMDL
