MODEL 1
REMARK VINA RESULT:     -11.2      0.000      0.000
REMARK SMILES C[C@@H]1[C@@H](C(=O)NCCCNC(=O)c2ccc(-c3c4nc(c(-c5ccccc5)c5ccc([nH]5)c(-c5ccccc5)c5nc(c(-c6ccccc6)c6ccc3[nH]6)C=C5)C=C4)cc2)CCN1C(=O)CN1C(=O)CNC1=O
REMARK SMILES IDX 7 1 6 2 4 3 5 4 3 6 1 7 2 8 63 9 61 10 62 11 64 12 65 13
REMARK SMILES IDX 66 14 67 15 68 16 72 17 69 18 70 19 71 20 73 21 8 23 9 24
REMARK SMILES IDX 10 25 11 26 12 28 13 29 14 30 60 31 15 32 59 33 16 34 17 35
REMARK SMILES IDX 18 36 53 37 19 38 58 39 52 40 54 41 20 42 57 43 51 44 50 45
REMARK SMILES IDX 21 47 43 48 28 49 42 50 29 51 32 52 41 53 55 54 30 55 31 56
REMARK SMILES IDX 40 58 56 59 33 60 22 61 23 62 27 63 24 64 26 65 25 66 44 67
REMARK SMILES IDX 45 68 49 69 46 70 48 71 47 72 34 73 35 74 39 75 36 76 38 77
REMARK SMILES IDX 37 78
REMARK H PARENT 6 5 71 22 10 27 54 46 32 57
REMARK Flexibility Score: inf
ROOT
ATOM      1  C   UNL A   1      36.796  20.805  24.701  1.00  0.00     0.117 C 
ENDROOT
BRANCH   1   2
ATOM      2  N   UNL A   1      35.541  20.480  25.345  1.00  0.00    -0.356 N 
ATOM      3  C   UNL A   1      34.374  21.169  25.404  1.00  0.00     0.225 C 
ATOM      4  O   UNL A   1      33.623  20.879  26.343  1.00  0.00    -0.275 OA
ATOM      5  H   UNL A   1      35.532  19.617  25.819  1.00  0.00     0.163 HD
BRANCH   3   6
ATOM      6  C   UNL A   1      34.073  22.349  24.483  1.00  0.00     0.102 C 
ATOM      7  C   UNL A   1      34.312  24.862  24.732  1.00  0.00     0.032 C 
ATOM      8  C   UNL A   1      33.727  23.591  25.348  1.00  0.00     0.094 C 
ATOM      9  N   UNL A   1      32.251  23.625  25.366  1.00  0.00    -0.338 N 
ATOM     10  C   UNL A   1      32.865  22.281  23.542  1.00  0.00     0.037 C 
ATOM     11  C   UNL A   1      31.692  22.720  24.391  1.00  0.00     0.121 C 
BRANCH   9  12
ATOM     12  C   UNL A   1      31.408  24.140  26.340  1.00  0.00     0.243 C 
ATOM     13  O   UNL A   1      31.451  23.750  27.510  1.00  0.00    -0.273 OA
BRANCH  12  14
ATOM     14  C   UNL A   1      30.475  25.272  25.937  1.00  0.00     0.230 C 
BRANCH  14  15
ATOM     15  N   UNL A   1      31.127  26.507  25.551  1.00  0.00    -0.253 N 
ATOM     16  C   UNL A   1      31.346  27.519  26.444  1.00  0.00     0.250 C 
ATOM     17  C   UNL A   1      31.304  26.964  24.279  1.00  0.00     0.325 C 
ATOM     18  O   UNL A   1      31.240  27.451  27.662  1.00  0.00    -0.272 OA
ATOM     19  C   UNL A   1      31.691  28.783  25.679  1.00  0.00     0.218 C 
ATOM     20  N   UNL A   1      31.613  28.303  24.334  1.00  0.00    -0.329 N 
ATOM     21  O   UNL A   1      31.234  26.343  23.236  1.00  0.00    -0.248 OA
ATOM     22  H   UNL A   1      31.762  28.865  23.540  1.00  0.00     0.165 HD
ENDBRANCH  14  15
ENDBRANCH  12  14
ENDBRANCH   9  12
ENDBRANCH   3   6
ENDBRANCH   1   2
BRANCH   1  23
ATOM     23  C   UNL A   1      37.859  19.747  24.959  1.00  0.00     0.042 C 
BRANCH  23  24
ATOM     24  C   UNL A   1      39.013  20.216  25.834  1.00  0.00     0.118 C 
BRANCH  24  25
ATOM     25  N   UNL A   1      40.152  19.310  25.818  1.00  0.00    -0.352 N 
ATOM     26  C   UNL A   1      41.482  19.541  26.079  1.00  0.00     0.251 C 
ATOM     27  H   UNL A   1      39.934  18.379  25.582  1.00  0.00     0.163 HD
ATOM     28  O   UNL A   1      42.308  18.661  25.851  1.00  0.00    -0.269 OA
BRANCH  26  29
ATOM     29  C   UNL A   1      41.936  20.852  26.594  1.00  0.00     0.039 A 
ATOM     30  C   UNL A   1      42.379  21.819  25.686  1.00  0.00     0.014 A 
ATOM     31  C   UNL A   1      41.934  21.136  27.959  1.00  0.00     0.014 A 
ATOM     32  C   UNL A   1      42.730  23.092  26.142  1.00  0.00     0.010 A 
ATOM     33  C   UNL A   1      42.174  22.434  28.399  1.00  0.00     0.010 A 
ATOM     34  C   UNL A   1      42.580  23.428  27.496  1.00  0.00    -0.014 A 
BRANCH  34  35
ATOM     35  C   UNL A   1      42.847  24.802  27.995  1.00  0.00     0.031 A 
ATOM     36  C   UNL A   1      44.244  25.209  28.385  1.00  0.00     0.074 A 
ATOM     37  C   UNL A   1      41.824  25.662  28.170  1.00  0.00     0.049 A 
ATOM     38  N   UNL A   1      44.659  26.332  28.918  1.00  0.00    -0.248 NA
ATOM     39  C   UNL A   1      45.310  24.216  28.176  1.00  0.00     0.031 C 
ATOM     40  C   UNL A   1      40.417  25.384  27.874  1.00  0.00     0.029 A 
ATOM     41  N   UNL A   1      41.811  26.950  28.647  1.00  0.00    -0.354 N 
ATOM     42  C   UNL A   1      46.022  26.166  29.130  1.00  0.00     0.074 A 
ATOM     43  C   UNL A   1      46.355  24.820  28.720  1.00  0.00     0.031 C 
ATOM     44  C   UNL A   1      39.685  26.477  28.142  1.00  0.00     0.029 A 
ATOM     45  C   UNL A   1      40.560  27.517  28.672  1.00  0.00     0.049 A 
ATOM     46  H   UNL A   1      42.623  27.423  28.943  1.00  0.00     0.167 HD
ATOM     47  C   UNL A   1      46.924  27.060  29.599  1.00  0.00     0.031 A 
ATOM     48  C   UNL A   1      40.158  28.735  29.081  1.00  0.00     0.031 A 
ATOM     49  C   UNL A   1      46.602  28.406  29.989  1.00  0.00     0.049 A 
ATOM     50  C   UNL A   1      41.177  29.707  29.609  1.00  0.00     0.074 A 
ATOM     51  C   UNL A   1      47.456  29.407  30.422  1.00  0.00     0.029 A 
ATOM     52  N   UNL A   1      45.324  28.942  29.989  1.00  0.00    -0.354 N 
ATOM     53  N   UNL A   1      42.472  29.555  29.743  1.00  0.00    -0.248 NA
ATOM     54  C   UNL A   1      40.677  31.023  30.033  1.00  0.00     0.031 C 
ATOM     55  C   UNL A   1      46.686  30.532  30.732  1.00  0.00     0.029 A 
ATOM     56  C   UNL A   1      45.362  30.252  30.436  1.00  0.00     0.049 A 
ATOM     57  H   UNL A   1      44.509  28.462  29.712  1.00  0.00     0.167 HD
ATOM     58  C   UNL A   1      42.946  30.763  30.237  1.00  0.00     0.074 A 
ATOM     59  C   UNL A   1      41.801  31.642  30.364  1.00  0.00     0.031 C 
ATOM     60  C   UNL A   1      44.215  31.114  30.555  1.00  0.00     0.031 A 
BRANCH  47  61
ATOM     61  C   UNL A   1      48.353  26.603  29.719  1.00  0.00    -0.014 A 
ATOM     62  C   UNL A   1      48.813  25.951  30.875  1.00  0.00     0.009 A 
ATOM     63  C   UNL A   1      49.243  26.801  28.652  1.00  0.00     0.009 A 
ATOM     64  C   UNL A   1      50.145  25.542  30.975  1.00  0.00     0.001 A 
ATOM     65  C   UNL A   1      50.565  26.363  28.742  1.00  0.00     0.001 A 
ATOM     66  C   UNL A   1      51.018  25.745  29.907  1.00  0.00     0.000 A 
ENDBRANCH  47  61
BRANCH  48  67
ATOM     67  C   UNL A   1      38.725  29.118  28.991  1.00  0.00    -0.014 A 
ATOM     68  C   UNL A   1      38.204  29.642  27.797  1.00  0.00     0.009 A 
ATOM     69  C   UNL A   1      37.873  28.974  30.096  1.00  0.00     0.009 A 
ATOM     70  C   UNL A   1      36.867  30.039  27.721  1.00  0.00     0.001 A 
ATOM     71  C   UNL A   1      36.528  29.343  30.008  1.00  0.00     0.001 A 
ATOM     72  C   UNL A   1      36.029  29.884  28.824  1.00  0.00     0.000 A 
ENDBRANCH  48  67
BRANCH  60  73
ATOM     73  C   UNL A   1      44.441  32.521  31.034  1.00  0.00    -0.014 A 
ATOM     74  C   UNL A   1      44.690  33.568  30.133  1.00  0.00     0.009 A 
ATOM     75  C   UNL A   1      44.358  32.807  32.406  1.00  0.00     0.009 A 
ATOM     76  C   UNL A   1      44.887  34.868  30.603  1.00  0.00     0.001 A 
ATOM     77  C   UNL A   1      44.526  34.112  32.869  1.00  0.00     0.001 A 
ATOM     78  C   UNL A   1      44.799  35.140  31.968  1.00  0.00     0.000 A 
ENDBRANCH  60  73
ENDBRANCH  34  35
ENDBRANCH  26  29
ENDBRANCH  24  25
ENDBRANCH  23  24
ENDBRANCH   1  23
TORSDOF 13
ENDMDL
MODEL 2
REMARK VINA RESULT:     -11.1      3.004      8.916
REMARK SMILES C[C@@H]1[C@@H](C(=O)NCCCNC(=O)c2ccc(-c3c4nc(c(-c5ccccc5)c5ccc([nH]5)c(-c5ccccc5)c5nc(c(-c6ccccc6)c6ccc3[nH]6)C=C5)C=C4)cc2)CCN1C(=O)CN1C(=O)CNC1=O
REMARK SMILES IDX 7 1 6 2 4 3 5 4 3 6 1 7 2 8 63 9 61 10 62 11 64 12 65 13
REMARK SMILES IDX 66 14 67 15 68 16 72 17 69 18 70 19 71 20 73 21 8 23 9 24
REMARK SMILES IDX 10 25 11 26 12 28 13 29 14 30 60 31 15 32 59 33 16 34 17 35
REMARK SMILES IDX 18 36 53 37 19 38 58 39 52 40 54 41 20 42 57 43 51 44 50 45
REMARK SMILES IDX 21 47 43 48 28 49 42 50 29 51 32 52 41 53 55 54 30 55 31 56
REMARK SMILES IDX 40 58 56 59 33 60 22 61 23 62 27 63 24 64 26 65 25 66 44 67
REMARK SMILES IDX 45 68 49 69 46 70 48 71 47 72 34 73 35 74 39 75 36 76 38 77
REMARK SMILES IDX 37 78
REMARK H PARENT 6 5 71 22 10 27 54 46 32 57
REMARK Flexibility Score: inf
ROOT
ATOM      1  C   UNL A   1      31.590  30.557  25.924  1.00  0.00     0.117 C 
ENDROOT
BRANCH   1   2
ATOM      2  N   UNL A   1      31.750  29.499  26.899  1.00  0.00    -0.356 N 
ATOM      3  C   UNL A   1      31.610  28.156  26.776  1.00  0.00     0.225 C 
ATOM      4  O   UNL A   1      31.392  27.539  27.825  1.00  0.00    -0.275 OA
ATOM      5  H   UNL A   1      32.003  29.805  27.800  1.00  0.00     0.163 HD
BRANCH   3   6
ATOM      6  C   UNL A   1      31.547  27.461  25.419  1.00  0.00     0.102 C 
ATOM      7  C   UNL A   1      29.891  25.862  24.353  1.00  0.00     0.032 C 
ATOM      8  C   UNL A   1      30.777  26.121  25.571  1.00  0.00     0.094 C 
ATOM      9  N   UNL A   1      31.836  25.101  25.699  1.00  0.00    -0.338 N 
ATOM     10  C   UNL A   1      32.845  26.996  24.749  1.00  0.00     0.037 C 
ATOM     11  C   UNL A   1      33.132  25.643  25.363  1.00  0.00     0.121 C 
BRANCH   9  12
ATOM     12  C   UNL A   1      31.789  23.880  26.354  1.00  0.00     0.243 C 
ATOM     13  O   UNL A   1      31.419  23.784  27.528  1.00  0.00    -0.273 OA
BRANCH  12  14
ATOM     14  C   UNL A   1      32.131  22.635  25.548  1.00  0.00     0.230 C 
BRANCH  14  15
ATOM     15  N   UNL A   1      33.526  22.249  25.563  1.00  0.00    -0.253 N 
ATOM     16  C   UNL A   1      34.276  22.203  24.420  1.00  0.00     0.250 C 
ATOM     17  C   UNL A   1      34.174  21.595  26.569  1.00  0.00     0.325 C 
ATOM     18  O   UNL A   1      33.969  22.666  23.329  1.00  0.00    -0.272 OA
ATOM     19  C   UNL A   1      35.549  21.424  24.698  1.00  0.00     0.218 C 
ATOM     20  N   UNL A   1      35.352  21.086  26.073  1.00  0.00    -0.329 N 
ATOM     21  O   UNL A   1      33.833  21.466  27.729  1.00  0.00    -0.248 OA
ATOM     22  H   UNL A   1      35.983  20.550  26.604  1.00  0.00     0.165 HD
ENDBRANCH  14  15
ENDBRANCH  12  14
ENDBRANCH   9  12
ENDBRANCH   3   6
ENDBRANCH   1   2
BRANCH   1  23
ATOM     23  C   UNL A   1      31.393  31.914  26.582  1.00  0.00     0.042 C 
BRANCH  23  24
ATOM     24  C   UNL A   1      32.646  32.487  27.228  1.00  0.00     0.118 C 
BRANCH  24  25
ATOM     25  N   UNL A   1      32.471  33.847  27.717  1.00  0.00    -0.352 N 
ATOM     26  C   UNL A   1      33.210  34.575  28.620  1.00  0.00     0.251 C 
ATOM     27  H   UNL A   1      31.697  34.323  27.340  1.00  0.00     0.163 HD
ATOM     28  O   UNL A   1      32.791  35.661  29.013  1.00  0.00    -0.269 OA
BRANCH  26  29
ATOM     29  C   UNL A   1      34.486  34.049  29.153  1.00  0.00     0.039 A 
ATOM     30  C   UNL A   1      34.464  33.265  30.310  1.00  0.00     0.014 A 
ATOM     31  C   UNL A   1      35.703  34.323  28.529  1.00  0.00     0.014 A 
ATOM     32  C   UNL A   1      35.645  32.686  30.782  1.00  0.00     0.010 A 
ATOM     33  C   UNL A   1      36.856  33.657  28.931  1.00  0.00     0.010 A 
ATOM     34  C   UNL A   1      36.843  32.834  30.066  1.00  0.00    -0.014 A 
BRANCH  34  35
ATOM     35  C   UNL A   1      38.093  32.147  30.485  1.00  0.00     0.031 A 
ATOM     36  C   UNL A   1      39.010  32.790  31.492  1.00  0.00     0.074 A 
ATOM     37  C   UNL A   1      38.445  30.983  29.906  1.00  0.00     0.049 A 
ATOM     38  N   UNL A   1      40.182  32.388  31.918  1.00  0.00    -0.248 NA
ATOM     39  C   UNL A   1      38.567  34.067  32.076  1.00  0.00     0.031 C 
ATOM     40  C   UNL A   1      37.672  30.272  28.885  1.00  0.00     0.029 A 
ATOM     41  N   UNL A   1      39.552  30.191  30.090  1.00  0.00    -0.354 N 
ATOM     42  C   UNL A   1      40.621  33.372  32.795  1.00  0.00     0.074 A 
ATOM     43  C   UNL A   1      39.620  34.415  32.799  1.00  0.00     0.031 C 
ATOM     44  C   UNL A   1      38.309  29.135  28.561  1.00  0.00     0.029 A 
ATOM     45  C   UNL A   1      39.556  29.058  29.313  1.00  0.00     0.049 A 
ATOM     46  H   UNL A   1      40.274  30.414  30.721  1.00  0.00     0.167 HD
ATOM     47  C   UNL A   1      41.745  33.397  33.550  1.00  0.00     0.031 A 
ATOM     48  C   UNL A   1      40.464  28.069  29.212  1.00  0.00     0.031 A 
ATOM     49  C   UNL A   1      42.734  32.354  33.564  1.00  0.00     0.049 A 
ATOM     50  C   UNL A   1      41.710  28.125  30.052  1.00  0.00     0.074 A 
ATOM     51  C   UNL A   1      43.878  32.260  34.338  1.00  0.00     0.029 A 
ATOM     52  N   UNL A   1      42.694  31.219  32.769  1.00  0.00    -0.354 N 
ATOM     53  N   UNL A   1      42.079  29.033  30.922  1.00  0.00    -0.248 NA
ATOM     54  C   UNL A   1      42.659  27.012  29.901  1.00  0.00     0.031 C 
ATOM     55  C   UNL A   1      44.556  31.092  33.974  1.00  0.00     0.029 A 
ATOM     56  C   UNL A   1      43.804  30.431  33.017  1.00  0.00     0.049 A 
ATOM     57  H   UNL A   1      41.982  31.006  32.123  1.00  0.00     0.167 HD
ATOM     58  C   UNL A   1      43.286  28.587  31.444  1.00  0.00     0.074 A 
ATOM     59  C   UNL A   1      43.579  27.321  30.804  1.00  0.00     0.031 C 
ATOM     60  C   UNL A   1      44.080  29.173  32.373  1.00  0.00     0.031 A 
BRANCH  47  61
ATOM     61  C   UNL A   1      41.965  34.602  34.424  1.00  0.00    -0.014 A 
ATOM     62  C   UNL A   1      42.648  35.732  33.947  1.00  0.00     0.009 A 
ATOM     63  C   UNL A   1      41.456  34.620  35.732  1.00  0.00     0.009 A 
ATOM     64  C   UNL A   1      42.852  36.839  34.774  1.00  0.00     0.001 A 
ATOM     65  C   UNL A   1      41.634  35.739  36.546  1.00  0.00     0.001 A 
ATOM     66  C   UNL A   1      42.341  36.843  36.071  1.00  0.00     0.000 A 
ENDBRANCH  47  61
BRANCH  48  67
ATOM     67  C   UNL A   1      40.224  26.926  28.292  1.00  0.00    -0.014 A 
ATOM     68  C   UNL A   1      40.710  26.961  26.975  1.00  0.00     0.009 A 
ATOM     69  C   UNL A   1      39.502  25.801  28.718  1.00  0.00     0.009 A 
ATOM     70  C   UNL A   1      40.454  25.906  26.096  1.00  0.00     0.001 A 
ATOM     71  C   UNL A   1      39.273  24.734  27.846  1.00  0.00     0.001 A 
ATOM     72  C   UNL A   1      39.740  24.792  26.534  1.00  0.00     0.000 A 
ENDBRANCH  48  67
BRANCH  60  73
ATOM     73  C   UNL A   1      45.323  28.432  32.781  1.00  0.00    -0.014 A 
ATOM     74  C   UNL A   1      46.547  28.640  32.127  1.00  0.00     0.009 A 
ATOM     75  C   UNL A   1      45.274  27.544  33.868  1.00  0.00     0.009 A 
ATOM     76  C   UNL A   1      47.689  27.946  32.531  1.00  0.00     0.001 A 
ATOM     77  C   UNL A   1      46.423  26.875  34.288  1.00  0.00     0.001 A 
ATOM     78  C   UNL A   1      47.628  27.069  33.614  1.00  0.00     0.000 A 
ENDBRANCH  60  73
ENDBRANCH  34  35
ENDBRANCH  26  29
ENDBRANCH  24  25
ENDBRANCH  23  24
ENDBRANCH   1  23
TORSDOF 13
ENDMDL
MODEL 3
REMARK VINA RESULT:     -11.1      3.441      9.147
REMARK SMILES C[C@@H]1[C@@H](C(=O)NCCCNC(=O)c2ccc(-c3c4nc(c(-c5ccccc5)c5ccc([nH]5)c(-c5ccccc5)c5nc(c(-c6ccccc6)c6ccc3[nH]6)C=C5)C=C4)cc2)CCN1C(=O)CN1C(=O)CNC1=O
REMARK SMILES IDX 7 1 6 2 4 3 5 4 3 6 1 7 2 8 63 9 61 10 62 11 64 12 65 13
REMARK SMILES IDX 66 14 67 15 68 16 72 17 69 18 70 19 71 20 73 21 8 23 9 24
REMARK SMILES IDX 10 25 11 26 12 28 13 29 14 30 60 31 15 32 59 33 16 34 17 35
REMARK SMILES IDX 18 36 53 37 19 38 58 39 52 40 54 41 20 42 57 43 51 44 50 45
REMARK SMILES IDX 21 47 43 48 28 49 42 50 29 51 32 52 41 53 55 54 30 55 31 56
REMARK SMILES IDX 40 58 56 59 33 60 22 61 23 62 27 63 24 64 26 65 25 66 44 67
REMARK SMILES IDX 45 68 49 69 46 70 48 71 47 72 34 73 35 74 39 75 36 76 38 77
REMARK SMILES IDX 37 78
REMARK H PARENT 6 5 71 22 10 27 54 46 32 57
REMARK Flexibility Score: inf
ROOT
ATOM      1  C   UNL A   1      31.556  30.412  26.136  1.00  0.00     0.117 C 
ENDROOT
BRANCH   1   2
ATOM      2  N   UNL A   1      31.173  30.158  24.763  1.00  0.00    -0.356 N 
ATOM      3  C   UNL A   1      31.094  28.996  24.068  1.00  0.00     0.225 C 
ATOM      4  O   UNL A   1      31.153  29.098  22.838  1.00  0.00    -0.275 OA
ATOM      5  H   UNL A   1      30.930  30.961  24.249  1.00  0.00     0.163 HD
BRANCH   3   6
ATOM      6  C   UNL A   1      31.109  27.631  24.753  1.00  0.00     0.102 C 
ATOM      7  C   UNL A   1      32.961  26.155  25.660  1.00  0.00     0.032 C 
ATOM      8  C   UNL A   1      32.453  26.922  24.439  1.00  0.00     0.094 C 
ATOM      9  N   UNL A   1      32.137  26.014  23.319  1.00  0.00    -0.338 N 
ATOM     10  C   UNL A   1      30.091  26.566  24.330  1.00  0.00     0.037 C 
ATOM     11  C   UNL A   1      30.711  25.901  23.121  1.00  0.00     0.121 C 
BRANCH   9  12
ATOM     12  C   UNL A   1      32.975  25.548  22.317  1.00  0.00     0.243 C 
ATOM     13  O   UNL A   1      33.652  26.315  21.626  1.00  0.00    -0.273 OA
BRANCH  12  14
ATOM     14  C   UNL A   1      33.103  24.041  22.150  1.00  0.00     0.230 C 
BRANCH  14  15
ATOM     15  N   UNL A   1      33.583  23.325  23.315  1.00  0.00    -0.253 N 
ATOM     16  C   UNL A   1      34.891  22.948  23.444  1.00  0.00     0.250 C 
ATOM     17  C   UNL A   1      32.817  22.667  24.230  1.00  0.00     0.325 C 
ATOM     18  O   UNL A   1      35.829  23.328  22.755  1.00  0.00    -0.272 OA
ATOM     19  C   UNL A   1      34.999  21.920  24.555  1.00  0.00     0.218 C 
ATOM     20  N   UNL A   1      33.628  21.821  24.952  1.00  0.00    -0.329 N 
ATOM     21  O   UNL A   1      31.624  22.777  24.438  1.00  0.00    -0.248 OA
ATOM     22  H   UNL A   1      33.302  21.218  25.657  1.00  0.00     0.165 HD
ENDBRANCH  14  15
ENDBRANCH  12  14
ENDBRANCH   9  12
ENDBRANCH   3   6
ENDBRANCH   1   2
BRANCH   1  23
ATOM     23  C   UNL A   1      31.421  31.882  26.503  1.00  0.00     0.042 C 
BRANCH  23  24
ATOM     24  C   UNL A   1      32.665  32.488  27.138  1.00  0.00     0.118 C 
BRANCH  24  25
ATOM     25  N   UNL A   1      32.459  33.844  27.626  1.00  0.00    -0.352 N 
ATOM     26  C   UNL A   1      33.138  34.563  28.582  1.00  0.00     0.251 C 
ATOM     27  H   UNL A   1      31.712  34.325  27.203  1.00  0.00     0.163 HD
ATOM     28  O   UNL A   1      32.696  35.646  28.956  1.00  0.00    -0.269 OA
BRANCH  26  29
ATOM     29  C   UNL A   1      34.376  34.029  29.193  1.00  0.00     0.039 A 
ATOM     30  C   UNL A   1      34.276  33.230  30.336  1.00  0.00     0.014 A 
ATOM     31  C   UNL A   1      35.632  34.312  28.657  1.00  0.00     0.014 A 
ATOM     32  C   UNL A   1      35.423  32.646  30.879  1.00  0.00     0.010 A 
ATOM     33  C   UNL A   1      36.756  33.642  29.127  1.00  0.00     0.010 A 
ATOM     34  C   UNL A   1      36.667  32.803  30.248  1.00  0.00    -0.014 A 
BRANCH  34  35
ATOM     35  C   UNL A   1      37.886  32.111  30.741  1.00  0.00     0.031 A 
ATOM     36  C   UNL A   1      38.679  32.694  31.882  1.00  0.00     0.074 A 
ATOM     37  C   UNL A   1      38.326  31.001  30.118  1.00  0.00     0.049 A 
ATOM     38  N   UNL A   1      39.812  32.283  32.395  1.00  0.00    -0.248 NA
ATOM     39  C   UNL A   1      38.145  33.914  32.510  1.00  0.00     0.031 C 
ATOM     40  C   UNL A   1      37.679  30.354  28.973  1.00  0.00     0.029 A 
ATOM     41  N   UNL A   1      39.430  30.219  30.356  1.00  0.00    -0.354 N 
ATOM     42  C   UNL A   1      40.134  33.206  33.383  1.00  0.00     0.074 A 
ATOM     43  C   UNL A   1      39.110  34.227  33.360  1.00  0.00     0.031 C 
ATOM     44  C   UNL A   1      38.377  29.258  28.634  1.00  0.00     0.029 A 
ATOM     45  C   UNL A   1      39.543  29.148  29.503  1.00  0.00     0.049 A 
ATOM     46  H   UNL A   1      40.078  30.408  31.073  1.00  0.00     0.167 HD
ATOM     47  C   UNL A   1      41.175  33.196  34.249  1.00  0.00     0.031 A 
ATOM     48  C   UNL A   1      40.484  28.188  29.423  1.00  0.00     0.031 A 
ATOM     49  C   UNL A   1      42.185  32.174  34.288  1.00  0.00     0.049 A 
ATOM     50  C   UNL A   1      41.636  28.204  30.388  1.00  0.00     0.074 A 
ATOM     51  C   UNL A   1      43.248  32.044  35.167  1.00  0.00     0.029 A 
ATOM     52  N   UNL A   1      42.257  31.102  33.412  1.00  0.00    -0.354 N 
ATOM     53  N   UNL A   1      41.891  29.051  31.356  1.00  0.00    -0.248 NA
ATOM     54  C   UNL A   1      42.625  27.125  30.255  1.00  0.00     0.031 C 
ATOM     55  C   UNL A   1      43.990  30.921  34.789  1.00  0.00     0.029 A 
ATOM     56  C   UNL A   1      43.357  30.319  33.714  1.00  0.00     0.049 A 
ATOM     57  H   UNL A   1      41.619  30.925  32.682  1.00  0.00     0.167 HD
ATOM     58  C   UNL A   1      43.050  28.590  31.966  1.00  0.00     0.074 A 
ATOM     59  C   UNL A   1      43.440  27.382  31.268  1.00  0.00     0.031 C 
ATOM     60  C   UNL A   1      43.731  29.119  33.011  1.00  0.00     0.031 A 
BRANCH  47  61
ATOM     61  C   UNL A   1      41.272  34.335  35.227  1.00  0.00    -0.014 A 
ATOM     62  C   UNL A   1      41.994  35.500  34.918  1.00  0.00     0.009 A 
ATOM     63  C   UNL A   1      40.609  34.256  36.462  1.00  0.00     0.009 A 
ATOM     64  C   UNL A   1      42.083  36.545  35.841  1.00  0.00     0.001 A 
ATOM     65  C   UNL A   1      40.674  35.314  37.369  1.00  0.00     0.001 A 
ATOM     66  C   UNL A   1      41.419  36.452  37.064  1.00  0.00     0.000 A 
ENDBRANCH  47  61
BRANCH  48  67
ATOM     67  C   UNL A   1      40.369  27.114  28.402  1.00  0.00    -0.014 A 
ATOM     68  C   UNL A   1      40.969  27.266  27.141  1.00  0.00     0.009 A 
ATOM     69  C   UNL A   1      39.653  25.938  28.674  1.00  0.00     0.009 A 
ATOM     70  C   UNL A   1      40.831  26.275  26.167  1.00  0.00     0.001 A 
ATOM     71  C   UNL A   1      39.542  24.935  27.708  1.00  0.00     0.001 A 
ATOM     72  C   UNL A   1      40.122  25.109  26.452  1.00  0.00     0.000 A 
ENDBRANCH  48  67
BRANCH  60  73
ATOM     73  C   UNL A   1      44.945  28.374  33.490  1.00  0.00    -0.014 A 
ATOM     74  C   UNL A   1      44.843  27.339  34.433  1.00  0.00     0.009 A 
ATOM     75  C   UNL A   1      46.205  28.685  32.954  1.00  0.00     0.009 A 
ATOM     76  C   UNL A   1      45.984  26.655  34.855  1.00  0.00     0.001 A 
ATOM     77  C   UNL A   1      47.339  27.980  33.356  1.00  0.00     0.001 A 
ATOM     78  C   UNL A   1      47.230  26.972  34.312  1.00  0.00     0.000 A 
ENDBRANCH  60  73
ENDBRANCH  34  35
ENDBRANCH  26  29
ENDBRANCH  24  25
ENDBRANCH  23  24
ENDBRANCH   1  23
TORSDOF 13
ENDMDL
