MODEL 1
REMARK VINA RESULT:      -9.4      0.000      0.000
REMARK SMILES C=Cc1cccc(-c2ccc([C@@H](C)C(=O)NCCCNC(=O)c3ccc(-c4c5nc(c(-c6ccccc6)c6ccc([nH]6)c(-c6ccccc6)c6nc(c(-c7ccccc7)c7ccc4[nH]7)C=C6)C=C5)cc3)cc2)c1
REMARK SMILES IDX 17 1 16 2 14 3 15 4 12 6 13 7 11 8 8 9 9 10 72 11 10 12
REMARK SMILES IDX 71 13 7 14 3 15 4 16 73 17 5 18 6 19 2 20 1 21 18 22 19 23
REMARK SMILES IDX 20 24 21 25 22 27 23 28 24 29 70 30 25 31 69 32 26 33 27 34
REMARK SMILES IDX 28 35 63 36 29 37 68 38 62 39 64 40 30 41 67 42 61 43 60 44
REMARK SMILES IDX 31 46 53 47 38 48 52 49 39 50 42 51 51 52 65 53 40 54 41 55
REMARK SMILES IDX 50 57 66 58 43 59 32 60 33 61 37 62 34 63 36 64 35 65 54 66
REMARK SMILES IDX 55 67 59 68 56 69 58 70 57 71 44 72 45 73 49 74 46 75 48 76
REMARK SMILES IDX 47 77
REMARK H PARENT 16 5 20 26 64 45 42 56
REMARK Flexibility Score: inf
ROOT
ATOM      1  C   UNL A   1      34.792  33.064  31.191  1.00  0.00     0.117 C 
ENDROOT
BRANCH   1   2
ATOM      2  N   UNL A   1      35.448  34.004  32.078  1.00  0.00    -0.356 N 
ATOM      3  C   UNL A   1      36.730  34.090  32.528  1.00  0.00     0.227 C 
ATOM      4  O   UNL A   1      36.953  34.978  33.359  1.00  0.00    -0.274 OA
ATOM      5  H   UNL A   1      34.856  34.714  32.418  1.00  0.00     0.163 HD
BRANCH   3   6
ATOM      6  C   UNL A   1      37.870  33.170  32.063  1.00  0.00     0.105 C 
ATOM      7  C   UNL A   1      38.426  32.252  33.151  1.00  0.00     0.023 C 
BRANCH   6   8
ATOM      8  C   UNL A   1      38.903  33.875  31.200  1.00  0.00    -0.036 A 
ATOM      9  C   UNL A   1      40.962  35.045  29.591  1.00  0.00    -0.018 A 
ATOM     10  C   UNL A   1      39.689  34.757  29.071  1.00  0.00     0.009 A 
ATOM     11  C   UNL A   1      41.165  34.766  30.951  1.00  0.00     0.009 A 
ATOM     12  C   UNL A   1      38.671  34.219  29.867  1.00  0.00     0.005 A 
ATOM     13  C   UNL A   1      40.164  34.174  31.735  1.00  0.00     0.005 A 
BRANCH   9  14
ATOM     14  C   UNL A   1      42.028  35.619  28.736  1.00  0.00    -0.018 A 
ATOM     15  C   UNL A   1      43.646  35.412  26.893  1.00  0.00    -0.026 A 
ATOM     16  C   UNL A   1      44.060  36.728  27.112  1.00  0.00     0.008 A 
ATOM     17  C   UNL A   1      42.635  34.870  27.707  1.00  0.00     0.016 A 
ATOM     18  C   UNL A   1      43.469  37.494  28.112  1.00  0.00     0.001 A 
ATOM     19  C   UNL A   1      42.471  36.941  28.917  1.00  0.00     0.009 A 
BRANCH  15  20
ATOM     20  C   UNL A   1      44.330  34.620  25.863  1.00  0.00     0.000 C 
ATOM     21  C   UNL A   1      43.704  33.963  24.879  1.00  0.00     0.009 C 
ENDBRANCH  15  20
ENDBRANCH   9  14
ENDBRANCH   6   8
ENDBRANCH   3   6
ENDBRANCH   1   2
BRANCH   1  22
ATOM     22  C   UNL A   1      34.418  33.699  29.856  1.00  0.00     0.042 C 
BRANCH  22  23
ATOM     23  C   UNL A   1      34.990  32.967  28.649  1.00  0.00     0.118 C 
BRANCH  23  24
ATOM     24  N   UNL A   1      34.198  31.798  28.288  1.00  0.00    -0.352 N 
ATOM     25  C   UNL A   1      34.592  30.515  27.994  1.00  0.00     0.251 C 
ATOM     26  H   UNL A   1      33.227  31.953  28.247  1.00  0.00     0.163 HD
ATOM     27  O   UNL A   1      33.784  29.732  27.505  1.00  0.00    -0.269 OA
BRANCH  25  28
ATOM     28  C   UNL A   1      35.980  30.070  28.252  1.00  0.00     0.039 A 
ATOM     29  C   UNL A   1      36.324  29.629  29.534  1.00  0.00     0.014 A 
ATOM     30  C   UNL A   1      36.954  30.126  27.254  1.00  0.00     0.014 A 
ATOM     31  C   UNL A   1      37.625  29.188  29.796  1.00  0.00     0.010 A 
ATOM     32  C   UNL A   1      38.223  29.607  27.489  1.00  0.00     0.010 A 
ATOM     33  C   UNL A   1      38.577  29.143  28.765  1.00  0.00    -0.014 A 
BRANCH  33  34
ATOM     34  C   UNL A   1      39.958  28.651  28.995  1.00  0.00     0.031 A 
ATOM     35  C   UNL A   1      41.013  29.596  29.502  1.00  0.00     0.074 A 
ATOM     36  C   UNL A   1      40.285  27.384  28.671  1.00  0.00     0.049 A 
ATOM     37  N   UNL A   1      42.302  29.405  29.634  1.00  0.00    -0.248 NA
ATOM     38  C   UNL A   1      40.564  30.945  29.885  1.00  0.00     0.031 C 
ATOM     39  C   UNL A   1      39.364  26.377  28.141  1.00  0.00     0.029 A 
ATOM     40  N   UNL A   1      41.494  26.735  28.721  1.00  0.00    -0.354 N 
ATOM     41  C   UNL A   1      42.816  30.611  30.092  1.00  0.00     0.074 A 
ATOM     42  C   UNL A   1      41.712  31.542  30.164  1.00  0.00     0.031 C 
ATOM     43  C   UNL A   1      40.037  25.236  27.924  1.00  0.00     0.029 A 
ATOM     44  C   UNL A   1      41.445  25.443  28.254  1.00  0.00     0.049 A 
ATOM     45  H   UNL A   1      42.317  27.154  29.059  1.00  0.00     0.167 HD
ATOM     46  C   UNL A   1      44.089  30.914  30.441  1.00  0.00     0.031 A 
ATOM     47  C   UNL A   1      42.425  24.535  28.090  1.00  0.00     0.031 A 
ATOM     48  C   UNL A   1      45.184  29.985  30.380  1.00  0.00     0.049 A 
ATOM     49  C   UNL A   1      43.835  24.899  28.467  1.00  0.00     0.074 A 
ATOM     50  C   UNL A   1      46.506  30.184  30.742  1.00  0.00     0.029 A 
ATOM     51  N   UNL A   1      45.083  28.678  29.930  1.00  0.00    -0.354 N 
ATOM     52  N   UNL A   1      44.296  26.032  28.941  1.00  0.00    -0.248 NA
ATOM     53  C   UNL A   1      44.857  23.858  28.297  1.00  0.00     0.031 C 
ATOM     54  C   UNL A   1      47.213  29.009  30.473  1.00  0.00     0.029 A 
ATOM     55  C   UNL A   1      46.321  28.062  29.996  1.00  0.00     0.049 A 
ATOM     56  H   UNL A   1      44.256  28.251  29.612  1.00  0.00     0.167 HD
ATOM     57  C   UNL A   1      45.653  25.827  29.155  1.00  0.00     0.074 A 
ATOM     58  C   UNL A   1      45.938  24.460  28.774  1.00  0.00     0.031 C 
ATOM     59  C   UNL A   1      46.581  26.695  29.626  1.00  0.00     0.031 A 
BRANCH  46  60
ATOM     60  C   UNL A   1      44.360  32.311  30.924  1.00  0.00    -0.014 A 
ATOM     61  C   UNL A   1      44.179  32.660  32.273  1.00  0.00     0.009 A 
ATOM     62  C   UNL A   1      44.835  33.284  30.031  1.00  0.00     0.009 A 
ATOM     63  C   UNL A   1      44.432  33.962  32.709  1.00  0.00     0.001 A 
ATOM     64  C   UNL A   1      45.117  34.577  30.475  1.00  0.00     0.001 A 
ATOM     65  C   UNL A   1      44.906  34.918  31.811  1.00  0.00     0.000 A 
ENDBRANCH  46  60
BRANCH  47  66
ATOM     66  C   UNL A   1      42.113  23.190  27.538  1.00  0.00    -0.014 A 
ATOM     67  C   UNL A   1      41.519  22.206  28.343  1.00  0.00     0.009 A 
ATOM     68  C   UNL A   1      42.421  22.876  26.204  1.00  0.00     0.009 A 
ATOM     69  C   UNL A   1      41.273  20.928  27.837  1.00  0.00     0.001 A 
ATOM     70  C   UNL A   1      42.145  21.607  25.690  1.00  0.00     0.001 A 
ATOM     71  C   UNL A   1      41.582  20.631  26.510  1.00  0.00     0.000 A 
ENDBRANCH  47  66
BRANCH  59  72
ATOM     72  C   UNL A   1      47.981  26.179  29.806  1.00  0.00    -0.014 A 
ATOM     73  C   UNL A   1      48.896  26.159  28.743  1.00  0.00     0.009 A 
ATOM     74  C   UNL A   1      48.404  25.763  31.078  1.00  0.00     0.009 A 
ATOM     75  C   UNL A   1      50.201  25.705  28.945  1.00  0.00     0.001 A 
ATOM     76  C   UNL A   1      49.717  25.336  31.284  1.00  0.00     0.001 A 
ATOM     77  C   UNL A   1      50.612  25.301  30.216  1.00  0.00     0.000 A 
ENDBRANCH  59  72
ENDBRANCH  33  34
ENDBRANCH  25  28
ENDBRANCH  23  24
ENDBRANCH  22  23
ENDBRANCH   1  22
TORSDOF 13
ENDMDL
MODEL 2
REMARK VINA RESULT:      -9.4      2.157      3.950
REMARK SMILES C=Cc1cccc(-c2ccc([C@@H](C)C(=O)NCCCNC(=O)c3ccc(-c4c5nc(c(-c6ccccc6)c6ccc([nH]6)c(-c6ccccc6)c6nc(c(-c7ccccc7)c7ccc4[nH]7)C=C6)C=C5)cc3)cc2)c1
REMARK SMILES IDX 17 1 16 2 14 3 15 4 12 6 13 7 11 8 8 9 9 10 72 11 10 12
REMARK SMILES IDX 71 13 7 14 3 15 4 16 73 17 5 18 6 19 2 20 1 21 18 22 19 23
REMARK SMILES IDX 20 24 21 25 22 27 23 28 24 29 70 30 25 31 69 32 26 33 27 34
REMARK SMILES IDX 28 35 63 36 29 37 68 38 62 39 64 40 30 41 67 42 61 43 60 44
REMARK SMILES IDX 31 46 53 47 38 48 52 49 39 50 42 51 51 52 65 53 40 54 41 55
REMARK SMILES IDX 50 57 66 58 43 59 32 60 33 61 37 62 34 63 36 64 35 65 54 66
REMARK SMILES IDX 55 67 59 68 56 69 58 70 57 71 44 72 45 73 49 74 46 75 48 76
REMARK SMILES IDX 47 77
REMARK H PARENT 16 5 20 26 64 45 42 56
REMARK Flexibility Score: inf
ROOT
ATOM      1  C   UNL A   1      36.943  33.497  29.964  1.00  0.00     0.117 C 
ENDROOT
BRANCH   1   2
ATOM      2  N   UNL A   1      36.674  34.545  30.928  1.00  0.00    -0.356 N 
ATOM      3  C   UNL A   1      36.173  34.512  32.193  1.00  0.00     0.227 C 
ATOM      4  O   UNL A   1      35.982  35.611  32.728  1.00  0.00    -0.274 OA
ATOM      5  H   UNL A   1      36.896  35.450  30.608  1.00  0.00     0.163 HD
BRANCH   3   6
ATOM      6  C   UNL A   1      35.849  33.220  32.959  1.00  0.00     0.105 C 
ATOM      7  C   UNL A   1      34.817  33.385  34.074  1.00  0.00     0.023 C 
BRANCH   6   8
ATOM      8  C   UNL A   1      37.080  32.402  33.314  1.00  0.00    -0.036 A 
ATOM      9  C   UNL A   1      39.362  30.899  34.169  1.00  0.00    -0.018 A 
ATOM     10  C   UNL A   1      38.279  30.292  33.511  1.00  0.00     0.009 A 
ATOM     11  C   UNL A   1      39.289  32.288  34.354  1.00  0.00     0.009 A 
ATOM     12  C   UNL A   1      37.180  31.033  33.060  1.00  0.00     0.005 A 
ATOM     13  C   UNL A   1      38.163  33.022  33.954  1.00  0.00     0.005 A 
BRANCH   9  14
ATOM     14  C   UNL A   1      40.520  30.101  34.636  1.00  0.00    -0.018 A 
ATOM     15  C   UNL A   1      42.116  28.252  34.331  1.00  0.00    -0.026 A 
ATOM     16  C   UNL A   1      42.732  28.588  35.540  1.00  0.00     0.008 A 
ATOM     17  C   UNL A   1      41.016  29.010  33.892  1.00  0.00     0.016 A 
ATOM     18  C   UNL A   1      42.270  29.666  36.288  1.00  0.00     0.001 A 
ATOM     19  C   UNL A   1      41.174  30.407  35.843  1.00  0.00     0.009 A 
BRANCH  15  20
ATOM     20  C   UNL A   1      42.599  27.076  33.597  1.00  0.00     0.000 C 
ATOM     21  C   UNL A   1      43.691  26.377  33.931  1.00  0.00     0.009 C 
ENDBRANCH  15  20
ENDBRANCH   9  14
ENDBRANCH   6   8
ENDBRANCH   3   6
ENDBRANCH   1   2
BRANCH   1  22
ATOM     22  C   UNL A   1      35.831  33.369  28.928  1.00  0.00     0.042 C 
BRANCH  22  23
ATOM     23  C   UNL A   1      34.566  32.715  29.465  1.00  0.00     0.118 C 
BRANCH  23  24
ATOM     24  N   UNL A   1      33.951  31.823  28.491  1.00  0.00    -0.352 N 
ATOM     25  C   UNL A   1      34.478  30.753  27.808  1.00  0.00     0.251 C 
ATOM     26  H   UNL A   1      33.007  32.018  28.288  1.00  0.00     0.163 HD
ATOM     27  O   UNL A   1      33.853  30.267  26.871  1.00  0.00    -0.269 OA
BRANCH  25  28
ATOM     28  C   UNL A   1      35.793  30.188  28.183  1.00  0.00     0.039 A 
ATOM     29  C   UNL A   1      36.836  30.220  27.250  1.00  0.00     0.014 A 
ATOM     30  C   UNL A   1      35.996  29.590  29.428  1.00  0.00     0.014 A 
ATOM     31  C   UNL A   1      38.092  29.708  27.589  1.00  0.00     0.010 A 
ATOM     32  C   UNL A   1      37.266  29.160  29.796  1.00  0.00     0.010 A 
ATOM     33  C   UNL A   1      38.326  29.203  28.877  1.00  0.00    -0.014 A 
BRANCH  33  34
ATOM     34  C   UNL A   1      39.654  28.681  29.286  1.00  0.00     0.031 A 
ATOM     35  C   UNL A   1      40.596  29.563  30.061  1.00  0.00     0.074 A 
ATOM     36  C   UNL A   1      40.046  27.453  28.894  1.00  0.00     0.049 A 
ATOM     37  N   UNL A   1      41.846  29.352  30.390  1.00  0.00    -0.248 NA
ATOM     38  C   UNL A   1      40.072  30.867  30.498  1.00  0.00     0.031 C 
ATOM     39  C   UNL A   1      39.241  26.511  28.114  1.00  0.00     0.029 A 
ATOM     40  N   UNL A   1      41.237  26.795  29.083  1.00  0.00    -0.354 N 
ATOM     41  C   UNL A   1      42.260  30.501  31.050  1.00  0.00     0.074 A 
ATOM     42  C   UNL A   1      41.149  31.426  31.029  1.00  0.00     0.031 C 
ATOM     43  C   UNL A   1      39.956  25.395  27.899  1.00  0.00     0.029 A 
ATOM     44  C   UNL A   1      41.284  25.559  28.484  1.00  0.00     0.049 A 
ATOM     45  H   UNL A   1      41.986  27.172  29.598  1.00  0.00     0.167 HD
ATOM     46  C   UNL A   1      43.451  30.759  31.640  1.00  0.00     0.031 A 
ATOM     47  C   UNL A   1      42.288  24.668  28.396  1.00  0.00     0.031 A 
ATOM     48  C   UNL A   1      44.552  29.836  31.672  1.00  0.00     0.049 A 
ATOM     49  C   UNL A   1      43.609  24.983  29.043  1.00  0.00     0.074 A 
ATOM     50  C   UNL A   1      45.790  29.988  32.272  1.00  0.00     0.029 A 
ATOM     51  N   UNL A   1      44.545  28.582  31.080  1.00  0.00    -0.354 N 
ATOM     52  N   UNL A   1      43.970  26.058  29.703  1.00  0.00    -0.248 NA
ATOM     53  C   UNL A   1      44.658  23.959  28.944  1.00  0.00     0.031 C 
ATOM     54  C   UNL A   1      46.547  28.843  32.009  1.00  0.00     0.029 A 
ATOM     55  C   UNL A   1      45.761  27.956  31.291  1.00  0.00     0.049 A 
ATOM     56  H   UNL A   1      43.788  28.196  30.583  1.00  0.00     0.167 HD
ATOM     57  C   UNL A   1      45.272  25.824  30.123  1.00  0.00     0.074 A 
ATOM     58  C   UNL A   1      45.635  24.503  29.657  1.00  0.00     0.031 C 
ATOM     59  C   UNL A   1      46.097  26.634  30.832  1.00  0.00     0.031 A 
BRANCH  46  60
ATOM     60  C   UNL A   1      43.619  32.097  32.305  1.00  0.00    -0.014 A 
ATOM     61  C   UNL A   1      43.252  32.292  33.647  1.00  0.00     0.009 A 
ATOM     62  C   UNL A   1      44.182  33.168  31.594  1.00  0.00     0.009 A 
ATOM     63  C   UNL A   1      43.411  33.541  34.251  1.00  0.00     0.001 A 
ATOM     64  C   UNL A   1      44.369  34.408  32.210  1.00  0.00     0.001 A 
ATOM     65  C   UNL A   1      43.974  34.595  33.534  1.00  0.00     0.000 A 
ENDBRANCH  46  60
BRANCH  47  66
ATOM     66  C   UNL A   1      42.091  23.388  27.663  1.00  0.00    -0.014 A 
ATOM     67  C   UNL A   1      41.549  22.269  28.312  1.00  0.00     0.009 A 
ATOM     68  C   UNL A   1      42.459  23.275  26.312  1.00  0.00     0.009 A 
ATOM     69  C   UNL A   1      41.411  21.055  27.635  1.00  0.00     0.001 A 
ATOM     70  C   UNL A   1      42.291  22.069  25.629  1.00  0.00     0.001 A 
ATOM     71  C   UNL A   1      41.778  20.957  26.294  1.00  0.00     0.000 A 
ENDBRANCH  47  66
BRANCH  59  72
ATOM     72  C   UNL A   1      47.451  26.094  31.194  1.00  0.00    -0.014 A 
ATOM     73  C   UNL A   1      48.523  26.142  30.291  1.00  0.00     0.009 A 
ATOM     74  C   UNL A   1      47.669  25.584  32.483  1.00  0.00     0.009 A 
ATOM     75  C   UNL A   1      49.781  25.663  30.664  1.00  0.00     0.001 A 
ATOM     76  C   UNL A   1      48.933  25.131  32.863  1.00  0.00     0.001 A 
ATOM     77  C   UNL A   1      49.986  25.165  31.951  1.00  0.00     0.000 A 
ENDBRANCH  59  72
ENDBRANCH  33  34
ENDBRANCH  25  28
ENDBRANCH  23  24
ENDBRANCH  22  23
ENDBRANCH   1  22
TORSDOF 13
ENDMDL
MODEL 3
REMARK VINA RESULT:      -9.3      3.787     10.023
REMARK SMILES C=Cc1cccc(-c2ccc([C@@H](C)C(=O)NCCCNC(=O)c3ccc(-c4c5nc(c(-c6ccccc6)c6ccc([nH]6)c(-c6ccccc6)c6nc(c(-c7ccccc7)c7ccc4[nH]7)C=C6)C=C5)cc3)cc2)c1
REMARK SMILES IDX 17 1 16 2 14 3 15 4 12 6 13 7 11 8 8 9 9 10 72 11 10 12
REMARK SMILES IDX 71 13 7 14 3 15 4 16 73 17 5 18 6 19 2 20 1 21 18 22 19 23
REMARK SMILES IDX 20 24 21 25 22 27 23 28 24 29 70 30 25 31 69 32 26 33 27 34
REMARK SMILES IDX 28 35 63 36 29 37 68 38 62 39 64 40 30 41 67 42 61 43 60 44
REMARK SMILES IDX 31 46 53 47 38 48 52 49 39 50 42 51 51 52 65 53 40 54 41 55
REMARK SMILES IDX 50 57 66 58 43 59 32 60 33 61 37 62 34 63 36 64 35 65 54 66
REMARK SMILES IDX 55 67 59 68 56 69 58 70 57 71 44 72 45 73 49 74 46 75 48 76
REMARK SMILES IDX 47 77
REMARK H PARENT 16 5 20 26 64 45 42 56
REMARK Flexibility Score: inf
ROOT
ATOM      1  C   UNL A   1      37.084  21.374  24.589  1.00  0.00     0.117 C 
ENDROOT
BRANCH   1   2
ATOM      2  N   UNL A   1      35.687  21.056  24.366  1.00  0.00    -0.356 N 
ATOM      3  C   UNL A   1      34.563  21.340  25.079  1.00  0.00     0.227 C 
ATOM      4  O   UNL A   1      33.513  20.841  24.656  1.00  0.00    -0.274 OA
ATOM      5  H   UNL A   1      35.521  20.538  23.545  1.00  0.00     0.163 HD
BRANCH   3   6
ATOM      6  C   UNL A   1      34.540  22.223  26.336  1.00  0.00     0.105 C 
ATOM      7  C   UNL A   1      34.029  21.522  27.594  1.00  0.00     0.023 C 
BRANCH   6   8
ATOM      8  C   UNL A   1      33.989  23.618  26.086  1.00  0.00    -0.036 A 
ATOM      9  C   UNL A   1      32.955  26.273  25.809  1.00  0.00    -0.018 A 
ATOM     10  C   UNL A   1      34.211  25.910  25.296  1.00  0.00     0.009 A 
ATOM     11  C   UNL A   1      32.212  25.259  26.434  1.00  0.00     0.009 A 
ATOM     12  C   UNL A   1      34.701  24.603  25.399  1.00  0.00     0.005 A 
ATOM     13  C   UNL A   1      32.726  23.963  26.588  1.00  0.00     0.005 A 
BRANCH   9  14
ATOM     14  C   UNL A   1      32.448  27.660  25.687  1.00  0.00    -0.018 A 
ATOM     15  C   UNL A   1      30.982  29.324  24.621  1.00  0.00    -0.026 A 
ATOM     16  C   UNL A   1      31.491  30.313  25.467  1.00  0.00     0.008 A 
ATOM     17  C   UNL A   1      31.465  28.009  24.738  1.00  0.00     0.016 A 
ATOM     18  C   UNL A   1      32.453  29.994  26.420  1.00  0.00     0.001 A 
ATOM     19  C   UNL A   1      32.929  28.685  26.522  1.00  0.00     0.009 A 
BRANCH  15  20
ATOM     20  C   UNL A   1      30.007  29.711  23.594  1.00  0.00     0.000 C 
ATOM     21  C   UNL A   1      30.210  29.585  22.276  1.00  0.00     0.009 C 
ENDBRANCH  15  20
ENDBRANCH   9  14
ENDBRANCH   6   8
ENDBRANCH   3   6
ENDBRANCH   1   2
BRANCH   1  22
ATOM     22  C   UNL A   1      37.921  20.128  24.859  1.00  0.00     0.042 C 
BRANCH  22  23
ATOM     23  C   UNL A   1      38.897  20.287  26.017  1.00  0.00     0.118 C 
BRANCH  23  24
ATOM     24  N   UNL A   1      40.090  19.468  25.847  1.00  0.00    -0.352 N 
ATOM     25  C   UNL A   1      41.419  19.798  25.967  1.00  0.00     0.251 C 
ATOM     26  H   UNL A   1      39.918  18.529  25.608  1.00  0.00     0.163 HD
ATOM     27  O   UNL A   1      42.275  19.013  25.572  1.00  0.00    -0.269 OA
BRANCH  25  28
ATOM     28  C   UNL A   1      41.828  21.093  26.557  1.00  0.00     0.039 A 
ATOM     29  C   UNL A   1      42.165  22.150  25.705  1.00  0.00     0.014 A 
ATOM     30  C   UNL A   1      41.924  21.259  27.940  1.00  0.00     0.014 A 
ATOM     31  C   UNL A   1      42.537  23.387  26.241  1.00  0.00     0.010 A 
ATOM     32  C   UNL A   1      42.210  22.512  28.472  1.00  0.00     0.010 A 
ATOM     33  C   UNL A   1      42.531  23.587  27.629  1.00  0.00    -0.014 A 
BRANCH  33  34
ATOM     34  C   UNL A   1      42.888  24.895  28.235  1.00  0.00     0.031 A 
ATOM     35  C   UNL A   1      41.822  25.936  28.444  1.00  0.00     0.074 A 
ATOM     36  C   UNL A   1      44.174  25.177  28.520  1.00  0.00     0.049 A 
ATOM     37  N   UNL A   1      41.946  27.183  28.824  1.00  0.00    -0.248 NA
ATOM     38  C   UNL A   1      40.436  25.530  28.160  1.00  0.00     0.031 C 
ATOM     39  C   UNL A   1      45.307  24.267  28.337  1.00  0.00     0.029 A 
ATOM     40  N   UNL A   1      44.748  26.326  29.007  1.00  0.00    -0.354 N 
ATOM     41  C   UNL A   1      40.662  27.712  28.802  1.00  0.00     0.074 A 
ATOM     42  C   UNL A   1      39.782  26.670  28.322  1.00  0.00     0.031 C 
ATOM     43  C   UNL A   1      46.436  24.888  28.714  1.00  0.00     0.029 A 
ATOM     44  C   UNL A   1      46.115  26.253  29.122  1.00  0.00     0.049 A 
ATOM     45  H   UNL A   1      44.229  27.126  29.251  1.00  0.00     0.167 HD
ATOM     46  C   UNL A   1      40.246  28.948  29.167  1.00  0.00     0.031 A 
ATOM     47  C   UNL A   1      47.012  27.186  29.492  1.00  0.00     0.031 A 
ATOM     48  C   UNL A   1      41.119  29.981  29.655  1.00  0.00     0.049 A 
ATOM     49  C   UNL A   1      46.530  28.558  29.876  1.00  0.00     0.074 A 
ATOM     50  C   UNL A   1      40.793  31.256  30.083  1.00  0.00     0.029 A 
ATOM     51  N   UNL A   1      42.494  29.853  29.785  1.00  0.00    -0.354 N 
ATOM     52  N   UNL A   1      45.305  29.028  29.892  1.00  0.00    -0.248 NA
ATOM     53  C   UNL A   1      47.551  29.525  30.303  1.00  0.00     0.031 C 
ATOM     54  C   UNL A   1      41.975  31.914  30.433  1.00  0.00     0.029 A 
ATOM     55  C   UNL A   1      43.030  31.031  30.275  1.00  0.00     0.049 A 
ATOM     56  H   UNL A   1      43.010  29.046  29.561  1.00  0.00     0.167 HD
ATOM     57  C   UNL A   1      45.407  30.331  30.361  1.00  0.00     0.074 A 
ATOM     58  C   UNL A   1      46.809  30.574  30.631  1.00  0.00     0.031 C 
ATOM     59  C   UNL A   1      44.426  31.247  30.551  1.00  0.00     0.031 A 
BRANCH  46  60
ATOM     60  C   UNL A   1      38.777  29.245  29.055  1.00  0.00    -0.014 A 
ATOM     61  C   UNL A   1      37.931  29.155  30.173  1.00  0.00     0.009 A 
ATOM     62  C   UNL A   1      38.235  29.655  27.827  1.00  0.00     0.009 A 
ATOM     63  C   UNL A   1      36.568  29.431  30.054  1.00  0.00     0.001 A 
ATOM     64  C   UNL A   1      36.877  29.960  27.718  1.00  0.00     0.001 A 
ATOM     65  C   UNL A   1      36.043  29.838  28.829  1.00  0.00     0.000 A 
ENDBRANCH  46  60
BRANCH  47  66
ATOM     66  C   UNL A   1      48.463  26.860  29.515  1.00  0.00    -0.014 A 
ATOM     67  C   UNL A   1      49.052  26.300  30.659  1.00  0.00     0.009 A 
ATOM     68  C   UNL A   1      49.272  27.122  28.397  1.00  0.00     0.009 A 
ATOM     69  C   UNL A   1      50.424  26.041  30.696  1.00  0.00     0.001 A 
ATOM     70  C   UNL A   1      50.638  26.833  28.425  1.00  0.00     0.001 A 
ATOM     71  C   UNL A   1      51.215  26.304  29.578  1.00  0.00     0.000 A 
ENDBRANCH  47  66
BRANCH  59  72
ATOM     72  C   UNL A   1      44.825  32.577  31.126  1.00  0.00    -0.014 A 
ATOM     73  C   UNL A   1      45.159  33.661  30.299  1.00  0.00     0.009 A 
ATOM     74  C   UNL A   1      44.806  32.761  32.517  1.00  0.00     0.009 A 
ATOM     75  C   UNL A   1      45.494  34.896  30.858  1.00  0.00     0.001 A 
ATOM     76  C   UNL A   1      45.114  34.004  33.071  1.00  0.00     0.001 A 
ATOM     77  C   UNL A   1      45.464  35.068  32.242  1.00  0.00     0.000 A 
ENDBRANCH  59  72
ENDBRANCH  33  34
ENDBRANCH  25  28
ENDBRANCH  23  24
ENDBRANCH  22  23
ENDBRANCH   1  22
TORSDOF 13
ENDMDL
