MODEL 1
REMARK VINA RESULT:     -11.2      0.000      0.000
REMARK SMILES O=C(Cn1cc(NC(=O)N2CC[N@@H+]3CCC[C@@H]3C2)cn1)NCCCNC(=O)c1ccc(-c2c3nc(c(-c4ccccc4)c4ccc([nH]4)c(-c4ccccc4)c4nc(c(-c5ccccc5)c5ccc2[nH]5)C=C4)C=C3)cc1
REMARK SMILES IDX 22 1 21 2 1 3 2 4 3 6 4 7 5 8 20 9 6 10 19 11 7 12 8 13 9 15
REMARK SMILES IDX 10 16 11 17 18 18 12 19 17 20 13 21 16 22 14 23 15 25 23 26
REMARK SMILES IDX 24 27 25 28 26 29 27 31 28 32 29 33 75 34 30 35 74 36 31 37
REMARK SMILES IDX 32 38 33 39 68 40 34 41 73 42 67 43 69 44 35 45 72 46 66 47
REMARK SMILES IDX 65 48 36 50 58 51 43 52 57 53 44 54 47 55 56 56 70 57 45 58
REMARK SMILES IDX 46 59 55 61 71 62 48 63 37 64 38 65 42 66 39 67 41 68 40 69
REMARK SMILES IDX 59 70 60 71 64 72 61 73 63 74 62 75 49 76 50 77 54 78 51 79
REMARK SMILES IDX 53 80 52 81
REMARK H PARENT 21 5 7 14 13 24 25 30 69 49 47 60
REMARK Flexibility Score: inf
ROOT
ATOM      1  C   UNL A   1      38.764  21.943  26.138  1.00  0.00     0.117 C 
ENDROOT
BRANCH   1   2
ATOM      2  N   UNL A   1      38.153  22.559  24.972  1.00  0.00    -0.354 N 
ATOM      3  O   UNL A   1      36.569  20.944  24.584  1.00  0.00    -0.273 OA
ATOM      4  C   UNL A   1      37.031  22.058  24.342  1.00  0.00     0.241 C 
ATOM      5  H   UNL A   1      38.563  23.378  24.611  1.00  0.00     0.163 HD
BRANCH   4   6
ATOM      6  C   UNL A   1      36.429  22.944  23.265  1.00  0.00     0.244 C 
BRANCH   6   7
ATOM      7  N   UNL A   1      35.006  23.152  23.470  1.00  0.00    -0.261 N 
ATOM      8  C   UNL A   1      34.324  23.156  24.655  1.00  0.00     0.135 A 
ATOM      9  N   UNL A   1      34.223  23.410  22.396  1.00  0.00    -0.179 NA
ATOM     10  C   UNL A   1      33.008  23.401  24.337  1.00  0.00     0.081 A 
ATOM     11  C   UNL A   1      33.017  23.602  22.937  1.00  0.00     0.161 A 
BRANCH  10  12
ATOM     12  N   UNL A   1      31.975  23.485  25.253  1.00  0.00    -0.305 N 
ATOM     13  C   UNL A   1      31.749  24.524  26.116  1.00  0.00     0.322 C 
ATOM     14  H   UNL A   1      31.345  22.729  25.287  1.00  0.00     0.171 HD
ATOM     15  O   UNL A   1      31.336  24.286  27.251  1.00  0.00    -0.248 OA
BRANCH  13  16
ATOM     16  N   UNL A   1      31.984  25.803  25.658  1.00  0.00    -0.313 N 
ATOM     17  C   UNL A   1      30.937  26.573  24.971  1.00  0.00     0.183 C 
ATOM     18  C   UNL A   1      33.124  26.550  26.172  1.00  0.00     0.186 C 
ATOM     19  C   UNL A   1      31.207  28.086  24.872  1.00  0.00     0.284 C 
ATOM     20  C   UNL A   1      32.726  27.884  26.822  1.00  0.00     0.204 C 
ATOM     21  N   UNL A   1      31.758  28.717  26.074  1.00  0.00    -0.330 N 
ATOM     22  C   UNL A   1      33.947  28.776  27.059  1.00  0.00     0.073 C 
ATOM     23  C   UNL A   1      32.389  30.008  25.777  1.00  0.00     0.262 C 
ATOM     24  H   UNL A   1      30.942  28.848  26.672  1.00  0.00     0.348 HD
ATOM     25  C   UNL A   1      33.414  30.183  26.880  1.00  0.00     0.068 C 
ENDBRANCH  13  16
ENDBRANCH  10  12
ENDBRANCH   6   7
ENDBRANCH   4   6
ENDBRANCH   1   2
BRANCH   1  26
ATOM     26  C   UNL A   1      39.637  22.892  26.961  1.00  0.00     0.042 C 
BRANCH  26  27
ATOM     27  C   UNL A   1      40.920  22.250  27.463  1.00  0.00     0.118 C 
BRANCH  27  28
ATOM     28  N   UNL A   1      41.997  22.171  26.469  1.00  0.00    -0.352 N 
ATOM     29  C   UNL A   1      42.579  23.204  25.742  1.00  0.00     0.251 C 
ATOM     30  H   UNL A   1      42.354  21.269  26.293  1.00  0.00     0.163 HD
ATOM     31  O   UNL A   1      43.231  22.978  24.738  1.00  0.00    -0.269 OA
BRANCH  29  32
ATOM     32  C   UNL A   1      42.387  24.595  26.207  1.00  0.00     0.039 A 
ATOM     33  C   UNL A   1      41.557  25.500  25.539  1.00  0.00     0.014 A 
ATOM     34  C   UNL A   1      43.042  24.978  27.369  1.00  0.00     0.014 A 
ATOM     35  C   UNL A   1      41.336  26.755  26.110  1.00  0.00     0.010 A 
ATOM     36  C   UNL A   1      42.644  26.100  28.039  1.00  0.00     0.010 A 
ATOM     37  C   UNL A   1      41.868  27.036  27.378  1.00  0.00    -0.014 A 
BRANCH  37  38
ATOM     38  C   UNL A   1      41.610  28.292  28.067  1.00  0.00     0.031 A 
ATOM     39  C   UNL A   1      42.613  29.358  27.842  1.00  0.00     0.074 A 
ATOM     40  C   UNL A   1      40.456  28.564  28.713  1.00  0.00     0.049 A 
ATOM     41  N   UNL A   1      43.494  29.780  28.684  1.00  0.00    -0.248 NA
ATOM     42  C   UNL A   1      42.730  29.949  26.501  1.00  0.00     0.031 C 
ATOM     43  C   UNL A   1      39.217  27.775  28.777  1.00  0.00     0.029 A 
ATOM     44  N   UNL A   1      40.116  29.696  29.382  1.00  0.00    -0.354 N 
ATOM     45  C   UNL A   1      44.163  30.821  28.056  1.00  0.00     0.074 A 
ATOM     46  C   UNL A   1      43.767  30.776  26.670  1.00  0.00     0.031 C 
ATOM     47  C   UNL A   1      38.207  28.549  29.235  1.00  0.00     0.029 A 
ATOM     48  C   UNL A   1      38.767  29.812  29.678  1.00  0.00     0.049 A 
ATOM     49  H   UNL A   1      40.777  30.381  29.638  1.00  0.00     0.167 HD
ATOM     50  C   UNL A   1      44.817  31.774  28.778  1.00  0.00     0.031 A 
ATOM     51  C   UNL A   1      38.155  30.881  30.238  1.00  0.00     0.031 A 
ATOM     52  C   UNL A   1      44.933  31.400  30.166  1.00  0.00     0.049 A 
ATOM     53  C   UNL A   1      39.199  31.661  30.941  1.00  0.00     0.074 A 
ATOM     54  C   UNL A   1      45.511  30.349  30.849  1.00  0.00     0.029 A 
ATOM     55  N   UNL A   1      44.028  31.963  31.038  1.00  0.00    -0.354 N 
ATOM     56  N   UNL A   1      39.826  31.225  31.995  1.00  0.00    -0.248 NA
ATOM     57  C   UNL A   1      39.861  32.735  30.220  1.00  0.00     0.031 C 
ATOM     58  C   UNL A   1      44.586  30.036  31.890  1.00  0.00     0.029 A 
ATOM     59  C   UNL A   1      43.538  30.956  31.828  1.00  0.00     0.049 A 
ATOM     60  H   UNL A   1      43.782  32.915  31.087  1.00  0.00     0.167 HD
ATOM     61  C   UNL A   1      41.140  31.632  31.814  1.00  0.00     0.074 A 
ATOM     62  C   UNL A   1      41.078  32.651  30.769  1.00  0.00     0.031 C 
ATOM     63  C   UNL A   1      42.179  30.906  32.324  1.00  0.00     0.031 A 
BRANCH  50  64
ATOM     64  C   UNL A   1      44.991  33.205  28.339  1.00  0.00    -0.014 A 
ATOM     65  C   UNL A   1      43.845  34.012  28.216  1.00  0.00     0.009 A 
ATOM     66  C   UNL A   1      46.181  33.702  27.777  1.00  0.00     0.009 A 
ATOM     67  C   UNL A   1      43.872  35.211  27.496  1.00  0.00     0.001 A 
ATOM     68  C   UNL A   1      46.220  34.920  27.093  1.00  0.00     0.001 A 
ATOM     69  C   UNL A   1      45.058  35.659  26.926  1.00  0.00     0.000 A 
ENDBRANCH  50  64
BRANCH  51  70
ATOM     70  C   UNL A   1      36.797  31.410  30.005  1.00  0.00    -0.014 A 
ATOM     71  C   UNL A   1      35.921  31.622  31.081  1.00  0.00     0.009 A 
ATOM     72  C   UNL A   1      36.468  31.989  28.766  1.00  0.00     0.009 A 
ATOM     73  C   UNL A   1      34.788  32.433  30.937  1.00  0.00     0.001 A 
ATOM     74  C   UNL A   1      35.336  32.798  28.621  1.00  0.00     0.001 A 
ATOM     75  C   UNL A   1      34.507  33.036  29.713  1.00  0.00     0.000 A 
ENDBRANCH  51  70
BRANCH  63  76
ATOM     76  C   UNL A   1      41.857  29.791  33.291  1.00  0.00    -0.014 A 
ATOM     77  C   UNL A   1      41.537  28.483  32.884  1.00  0.00     0.009 A 
ATOM     78  C   UNL A   1      42.026  30.034  34.662  1.00  0.00     0.009 A 
ATOM     79  C   UNL A   1      41.357  27.462  33.824  1.00  0.00     0.001 A 
ATOM     80  C   UNL A   1      41.869  29.011  35.599  1.00  0.00     0.001 A 
ATOM     81  C   UNL A   1      41.528  27.727  35.181  1.00  0.00     0.000 A 
ENDBRANCH  63  76
ENDBRANCH  37  38
ENDBRANCH  29  32
ENDBRANCH  27  28
ENDBRANCH  26  27
ENDBRANCH   1  26
TORSDOF 13
ENDMDL
MODEL 2
REMARK VINA RESULT:     -11.2      3.576      6.847
REMARK SMILES O=C(Cn1cc(NC(=O)N2CC[N@@H+]3CCC[C@@H]3C2)cn1)NCCCNC(=O)c1ccc(-c2c3nc(c(-c4ccccc4)c4ccc([nH]4)c(-c4ccccc4)c4nc(c(-c5ccccc5)c5ccc2[nH]5)C=C4)C=C3)cc1
REMARK SMILES IDX 22 1 21 2 1 3 2 4 3 6 4 7 5 8 20 9 6 10 19 11 7 12 8 13 9 15
REMARK SMILES IDX 10 16 11 17 18 18 12 19 17 20 13 21 16 22 14 23 15 25 23 26
REMARK SMILES IDX 24 27 25 28 26 29 27 31 28 32 29 33 75 34 30 35 74 36 31 37
REMARK SMILES IDX 32 38 33 39 68 40 34 41 73 42 67 43 69 44 35 45 72 46 66 47
REMARK SMILES IDX 65 48 36 50 58 51 43 52 57 53 44 54 47 55 56 56 70 57 45 58
REMARK SMILES IDX 46 59 55 61 71 62 48 63 37 64 38 65 42 66 39 67 41 68 40 69
REMARK SMILES IDX 59 70 60 71 64 72 61 73 63 74 62 75 49 76 50 77 54 78 51 79
REMARK SMILES IDX 53 80 52 81
REMARK H PARENT 21 5 7 14 13 24 25 30 69 49 47 60
REMARK Flexibility Score: inf
ROOT
ATOM      1  C   UNL A   1      42.013  19.429  26.860  1.00  0.00     0.117 C 
ENDROOT
BRANCH   1   2
ATOM      2  N   UNL A   1      43.389  19.616  26.432  1.00  0.00    -0.354 N 
ATOM      3  O   UNL A   1      43.441  17.940  24.866  1.00  0.00    -0.273 OA
ATOM      4  C   UNL A   1      43.968  18.918  25.390  1.00  0.00     0.241 C 
ATOM      5  H   UNL A   1      43.939  20.278  26.912  1.00  0.00     0.163 HD
BRANCH   4   6
ATOM      6  C   UNL A   1      45.349  19.391  24.968  1.00  0.00     0.244 C 
BRANCH   6   7
ATOM      7  N   UNL A   1      45.354  20.801  24.621  1.00  0.00    -0.261 N 
ATOM      8  C   UNL A   1      46.403  21.676  24.691  1.00  0.00     0.135 A 
ATOM      9  N   UNL A   1      44.220  21.357  24.133  1.00  0.00    -0.179 NA
ATOM     10  C   UNL A   1      45.920  22.887  24.252  1.00  0.00     0.081 A 
ATOM     11  C   UNL A   1      44.585  22.614  23.872  1.00  0.00     0.161 A 
BRANCH  10  12
ATOM     12  N   UNL A   1      46.660  24.051  24.167  1.00  0.00    -0.305 N 
ATOM     13  C   UNL A   1      46.553  25.134  24.998  1.00  0.00     0.322 C 
ATOM     14  H   UNL A   1      47.326  24.106  23.443  1.00  0.00     0.171 HD
ATOM     15  O   UNL A   1      46.670  26.266  24.532  1.00  0.00    -0.248 OA
BRANCH  13  16
ATOM     16  N   UNL A   1      46.331  24.896  26.338  1.00  0.00    -0.313 N 
ATOM     17  C   UNL A   1      47.389  25.104  27.337  1.00  0.00     0.183 C 
ATOM     18  C   UNL A   1      44.964  24.807  26.833  1.00  0.00     0.186 C 
ATOM     19  C   UNL A   1      46.898  25.180  28.795  1.00  0.00     0.284 C 
ATOM     20  C   UNL A   1      44.659  25.823  27.945  1.00  0.00     0.204 C 
ATOM     21  N   UNL A   1      45.672  25.950  29.016  1.00  0.00    -0.330 N 
ATOM     22  C   UNL A   1      43.342  25.497  28.654  1.00  0.00     0.073 C 
ATOM     23  C   UNL A   1      45.038  25.617  30.297  1.00  0.00     0.262 C 
ATOM     24  H   UNL A   1      45.994  26.918  29.019  1.00  0.00     0.348 HD
ATOM     25  C   UNL A   1      43.573  25.945  30.083  1.00  0.00     0.068 C 
ENDBRANCH  13  16
ENDBRANCH  10  12
ENDBRANCH   6   7
ENDBRANCH   4   6
ENDBRANCH   1   2
BRANCH   1  26
ATOM     26  C   UNL A   1      41.482  20.541  27.766  1.00  0.00     0.042 C 
BRANCH  26  27
ATOM     27  C   UNL A   1      41.267  21.860  27.040  1.00  0.00     0.118 C 
BRANCH  27  28
ATOM     28  N   UNL A   1      39.957  21.999  26.393  1.00  0.00    -0.352 N 
ATOM     29  C   UNL A   1      39.078  23.075  26.444  1.00  0.00     0.251 C 
ATOM     30  H   UNL A   1      39.661  21.229  25.854  1.00  0.00     0.163 HD
ATOM     31  O   UNL A   1      37.907  22.948  26.133  1.00  0.00    -0.269 OA
BRANCH  29  32
ATOM     32  C   UNL A   1      39.590  24.388  26.895  1.00  0.00     0.039 A 
ATOM     33  C   UNL A   1      40.349  25.220  26.065  1.00  0.00     0.014 A 
ATOM     34  C   UNL A   1      39.266  24.795  28.181  1.00  0.00     0.014 A 
ATOM     35  C   UNL A   1      40.692  26.493  26.526  1.00  0.00     0.010 A 
ATOM     36  C   UNL A   1      39.395  26.108  28.535  1.00  0.00     0.010 A 
ATOM     37  C   UNL A   1      40.187  26.937  27.759  1.00  0.00    -0.014 A 
BRANCH  37  38
ATOM     38  C   UNL A   1      40.437  28.279  28.261  1.00  0.00     0.031 A 
ATOM     39  C   UNL A   1      41.645  28.945  27.722  1.00  0.00     0.074 A 
ATOM     40  C   UNL A   1      39.554  28.971  29.014  1.00  0.00     0.049 A 
ATOM     41  N   UNL A   1      42.752  29.161  28.347  1.00  0.00    -0.248 NA
ATOM     42  C   UNL A   1      41.675  29.314  26.299  1.00  0.00     0.031 C 
ATOM     43  C   UNL A   1      38.174  28.622  29.384  1.00  0.00     0.029 A 
ATOM     44  N   UNL A   1      39.689  30.220  29.529  1.00  0.00    -0.354 N 
ATOM     45  C   UNL A   1      43.564  29.863  27.466  1.00  0.00     0.074 A 
ATOM     46  C   UNL A   1      42.919  29.788  26.178  1.00  0.00     0.031 C 
ATOM     47  C   UNL A   1      37.537  29.720  29.849  1.00  0.00     0.029 A 
ATOM     48  C   UNL A   1      38.511  30.786  29.993  1.00  0.00     0.049 A 
ATOM     49  H   UNL A   1      40.555  30.688  29.570  1.00  0.00     0.167 HD
ATOM     50  C   UNL A   1      44.589  30.638  27.919  1.00  0.00     0.031 A 
ATOM     51  C   UNL A   1      38.351  32.049  30.451  1.00  0.00     0.031 A 
ATOM     52  C   UNL A   1      44.850  30.405  29.319  1.00  0.00     0.049 A 
ATOM     53  C   UNL A   1      39.689  32.537  30.859  1.00  0.00     0.074 A 
ATOM     54  C   UNL A   1      45.216  29.310  30.075  1.00  0.00     0.029 A 
ATOM     55  N   UNL A   1      44.328  31.318  30.208  1.00  0.00    -0.354 N 
ATOM     56  N   UNL A   1      40.349  32.048  31.869  1.00  0.00    -0.248 NA
ATOM     57  C   UNL A   1      40.486  33.260  29.883  1.00  0.00     0.031 C 
ATOM     58  C   UNL A   1      44.453  29.422  31.275  1.00  0.00     0.029 A 
ATOM     59  C   UNL A   1      43.724  30.611  31.215  1.00  0.00     0.049 A 
ATOM     60  H   UNL A   1      44.381  32.298  30.134  1.00  0.00     0.167 HD
ATOM     61  C   UNL A   1      41.666  31.999  31.436  1.00  0.00     0.074 A 
ATOM     62  C   UNL A   1      41.707  32.861  30.256  1.00  0.00     0.031 C 
ATOM     63  C   UNL A   1      42.527  31.046  31.903  1.00  0.00     0.031 A 
BRANCH  50  64
ATOM     64  C   UNL A   1      45.085  31.882  27.231  1.00  0.00    -0.014 A 
ATOM     65  C   UNL A   1      46.472  32.049  27.067  1.00  0.00     0.009 A 
ATOM     66  C   UNL A   1      44.277  33.010  26.996  1.00  0.00     0.009 A 
ATOM     67  C   UNL A   1      47.026  33.299  26.767  1.00  0.00     0.001 A 
ATOM     68  C   UNL A   1      44.824  34.250  26.656  1.00  0.00     0.001 A 
ATOM     69  C   UNL A   1      46.201  34.401  26.571  1.00  0.00     0.000 A 
ENDBRANCH  50  64
BRANCH  51  70
ATOM     70  C   UNL A   1      37.186  32.948  30.332  1.00  0.00    -0.014 A 
ATOM     71  C   UNL A   1      36.715  33.338  29.069  1.00  0.00     0.009 A 
ATOM     72  C   UNL A   1      36.355  33.177  31.443  1.00  0.00     0.009 A 
ATOM     73  C   UNL A   1      35.435  33.884  28.917  1.00  0.00     0.001 A 
ATOM     74  C   UNL A   1      35.076  33.723  31.291  1.00  0.00     0.001 A 
ATOM     75  C   UNL A   1      34.609  34.059  30.025  1.00  0.00     0.000 A 
ENDBRANCH  51  70
BRANCH  63  76
ATOM     76  C   UNL A   1      42.082  30.205  33.076  1.00  0.00    -0.014 A 
ATOM     77  C   UNL A   1      41.365  29.003  32.939  1.00  0.00     0.009 A 
ATOM     78  C   UNL A   1      42.532  30.564  34.355  1.00  0.00     0.009 A 
ATOM     79  C   UNL A   1      41.076  28.207  34.052  1.00  0.00     0.001 A 
ATOM     80  C   UNL A   1      42.264  29.758  35.464  1.00  0.00     0.001 A 
ATOM     81  C   UNL A   1      41.531  28.584  35.314  1.00  0.00     0.000 A 
ENDBRANCH  63  76
ENDBRANCH  37  38
ENDBRANCH  29  32
ENDBRANCH  27  28
ENDBRANCH  26  27
ENDBRANCH   1  26
TORSDOF 13
ENDMDL
MODEL 3
REMARK VINA RESULT:     -11.1      4.406     10.286
REMARK SMILES O=C(Cn1cc(NC(=O)N2CC[N@@H+]3CCC[C@@H]3C2)cn1)NCCCNC(=O)c1ccc(-c2c3nc(c(-c4ccccc4)c4ccc([nH]4)c(-c4ccccc4)c4nc(c(-c5ccccc5)c5ccc2[nH]5)C=C4)C=C3)cc1
REMARK SMILES IDX 22 1 21 2 1 3 2 4 3 6 4 7 5 8 20 9 6 10 19 11 7 12 8 13 9 15
REMARK SMILES IDX 10 16 11 17 18 18 12 19 17 20 13 21 16 22 14 23 15 25 23 26
REMARK SMILES IDX 24 27 25 28 26 29 27 31 28 32 29 33 75 34 30 35 74 36 31 37
REMARK SMILES IDX 32 38 33 39 68 40 34 41 73 42 67 43 69 44 35 45 72 46 66 47
REMARK SMILES IDX 65 48 36 50 58 51 43 52 57 53 44 54 47 55 56 56 70 57 45 58
REMARK SMILES IDX 46 59 55 61 71 62 48 63 37 64 38 65 42 66 39 67 41 68 40 69
REMARK SMILES IDX 59 70 60 71 64 72 61 73 63 74 62 75 49 76 50 77 54 78 51 79
REMARK SMILES IDX 53 80 52 81
REMARK H PARENT 21 5 7 14 13 24 25 30 69 49 47 60
REMARK Flexibility Score: inf
ROOT
ATOM      1  C   UNL A   1      33.460  35.814  29.077  1.00  0.00     0.117 C 
ENDROOT
BRANCH   1   2
ATOM      2  N   UNL A   1      33.984  35.896  30.431  1.00  0.00    -0.354 N 
ATOM      3  O   UNL A   1      32.131  36.832  31.407  1.00  0.00    -0.273 OA
ATOM      4  C   UNL A   1      33.237  36.307  31.517  1.00  0.00     0.241 C 
ATOM      5  H   UNL A   1      34.924  35.643  30.581  1.00  0.00     0.163 HD
BRANCH   4   6
ATOM      6  C   UNL A   1      33.899  36.140  32.874  1.00  0.00     0.244 C 
BRANCH   6   7
ATOM      7  N   UNL A   1      34.485  34.820  33.028  1.00  0.00    -0.261 N 
ATOM      8  C   UNL A   1      35.426  34.424  33.938  1.00  0.00     0.135 A 
ATOM      9  N   UNL A   1      34.057  33.818  32.224  1.00  0.00    -0.179 NA
ATOM     10  C   UNL A   1      35.654  33.089  33.695  1.00  0.00     0.081 A 
ATOM     11  C   UNL A   1      34.743  32.760  32.664  1.00  0.00     0.161 A 
BRANCH  10  12
ATOM     12  N   UNL A   1      36.545  32.298  34.396  1.00  0.00    -0.305 N 
ATOM     13  C   UNL A   1      37.850  32.060  34.053  1.00  0.00     0.322 C 
ATOM     14  H   UNL A   1      36.212  31.866  35.216  1.00  0.00     0.171 HD
ATOM     15  O   UNL A   1      38.329  30.943  34.243  1.00  0.00    -0.248 OA
BRANCH  13  16
ATOM     16  N   UNL A   1      38.575  33.103  33.517  1.00  0.00    -0.313 N 
ATOM     17  C   UNL A   1      39.435  33.947  34.359  1.00  0.00     0.183 C 
ATOM     18  C   UNL A   1      38.803  33.154  32.080  1.00  0.00     0.186 C 
ATOM     19  C   UNL A   1      40.461  34.798  33.588  1.00  0.00     0.284 C 
ATOM     20  C   UNL A   1      40.293  33.189  31.707  1.00  0.00     0.204 C 
ATOM     21  N   UNL A   1      41.142  34.126  32.478  1.00  0.00    -0.330 N 
ATOM     22  C   UNL A   1      40.493  33.560  30.236  1.00  0.00     0.073 C 
ATOM     23  C   UNL A   1      41.744  35.083  31.542  1.00  0.00     0.262 C 
ATOM     24  H   UNL A   1      41.865  33.574  32.938  1.00  0.00     0.348 HD
ATOM     25  C   UNL A   1      41.796  34.333  30.226  1.00  0.00     0.068 C 
ENDBRANCH  13  16
ENDBRANCH  10  12
ENDBRANCH   6   7
ENDBRANCH   4   6
ENDBRANCH   1   2
BRANCH   1  26
ATOM     26  C   UNL A   1      34.495  35.402  28.029  1.00  0.00     0.042 C 
BRANCH  26  27
ATOM     27  C   UNL A   1      35.133  34.051  28.310  1.00  0.00     0.118 C 
BRANCH  27  28
ATOM     28  N   UNL A   1      34.211  32.911  28.253  1.00  0.00    -0.352 N 
ATOM     29  C   UNL A   1      34.510  31.565  28.076  1.00  0.00     0.251 C 
ATOM     30  H   UNL A   1      33.255  33.128  28.352  1.00  0.00     0.163 HD
ATOM     31  O   UNL A   1      33.655  30.768  27.735  1.00  0.00    -0.269 OA
BRANCH  29  32
ATOM     32  C   UNL A   1      35.901  31.112  28.302  1.00  0.00     0.039 A 
ATOM     33  C   UNL A   1      36.758  31.750  29.205  1.00  0.00     0.014 A 
ATOM     34  C   UNL A   1      36.333  29.995  27.602  1.00  0.00     0.014 A 
ATOM     35  C   UNL A   1      38.013  31.188  29.448  1.00  0.00     0.010 A 
ATOM     36  C   UNL A   1      37.450  29.323  28.010  1.00  0.00     0.010 A 
ATOM     37  C   UNL A   1      38.341  29.956  28.860  1.00  0.00    -0.014 A 
BRANCH  37  38
ATOM     38  C   UNL A   1      39.597  29.275  29.134  1.00  0.00     0.031 A 
ATOM     39  C   UNL A   1      39.803  28.864  30.542  1.00  0.00     0.074 A 
ATOM     40  C   UNL A   1      40.447  28.861  28.170  1.00  0.00     0.049 A 
ATOM     41  N   UNL A   1      40.609  29.400  31.393  1.00  0.00    -0.248 NA
ATOM     42  C   UNL A   1      38.943  27.814  31.106  1.00  0.00     0.031 C 
ATOM     43  C   UNL A   1      40.276  28.879  26.709  1.00  0.00     0.029 A 
ATOM     44  N   UNL A   1      41.636  28.221  28.317  1.00  0.00    -0.354 N 
ATOM     45  C   UNL A   1      40.506  28.645  32.554  1.00  0.00     0.074 A 
ATOM     46  C   UNL A   1      39.358  27.790  32.376  1.00  0.00     0.031 C 
ATOM     47  C   UNL A   1      41.199  28.076  26.133  1.00  0.00     0.029 A 
ATOM     48  C   UNL A   1      42.135  27.651  27.157  1.00  0.00     0.049 A 
ATOM     49  H   UNL A   1      42.106  28.167  29.181  1.00  0.00     0.167 HD
ATOM     50  C   UNL A   1      41.510  28.630  33.474  1.00  0.00     0.031 A 
ATOM     51  C   UNL A   1      43.238  26.873  27.053  1.00  0.00     0.031 A 
ATOM     52  C   UNL A   1      42.488  29.657  33.209  1.00  0.00     0.049 A 
ATOM     53  C   UNL A   1      44.084  27.157  28.234  1.00  0.00     0.074 A 
ATOM     54  C   UNL A   1      42.458  31.035  33.123  1.00  0.00     0.029 A 
ATOM     55  N   UNL A   1      43.642  29.265  32.568  1.00  0.00    -0.354 N 
ATOM     56  N   UNL A   1      44.674  28.301  28.430  1.00  0.00    -0.248 NA
ATOM     57  C   UNL A   1      43.919  26.330  29.416  1.00  0.00     0.031 C 
ATOM     58  C   UNL A   1      43.316  31.351  32.027  1.00  0.00     0.029 A 
ATOM     59  C   UNL A   1      43.875  30.161  31.558  1.00  0.00     0.049 A 
ATOM     60  H   UNL A   1      44.198  28.486  32.796  1.00  0.00     0.167 HD
ATOM     61  C   UNL A   1      44.541  28.535  29.791  1.00  0.00     0.074 A 
ATOM     62  C   UNL A   1      44.173  27.241  30.361  1.00  0.00     0.031 C 
ATOM     63  C   UNL A   1      44.463  29.807  30.283  1.00  0.00     0.031 A 
BRANCH  50  64
ATOM     64  C   UNL A   1      41.834  27.457  34.362  1.00  0.00    -0.014 A 
ATOM     65  C   UNL A   1      41.532  27.551  35.733  1.00  0.00     0.009 A 
ATOM     66  C   UNL A   1      42.669  26.396  33.967  1.00  0.00     0.009 A 
ATOM     67  C   UNL A   1      42.103  26.680  36.667  1.00  0.00     0.001 A 
ATOM     68  C   UNL A   1      43.208  25.498  34.893  1.00  0.00     0.001 A 
ATOM     69  C   UNL A   1      42.950  25.660  36.247  1.00  0.00     0.000 A 
ENDBRANCH  50  64
BRANCH  51  70
ATOM     70  C   UNL A   1      43.496  25.733  26.152  1.00  0.00    -0.014 A 
ATOM     71  C   UNL A   1      44.739  25.599  25.511  1.00  0.00     0.009 A 
ATOM     72  C   UNL A   1      42.636  24.620  26.158  1.00  0.00     0.009 A 
ATOM     73  C   UNL A   1      45.129  24.378  24.949  1.00  0.00     0.001 A 
ATOM     74  C   UNL A   1      43.026  23.400  25.595  1.00  0.00     0.001 A 
ATOM     75  C   UNL A   1      44.281  23.274  25.007  1.00  0.00     0.000 A 
ENDBRANCH  51  70
BRANCH  63  76
ATOM     76  C   UNL A   1      44.769  30.950  29.344  1.00  0.00    -0.014 A 
ATOM     77  C   UNL A   1      43.898  31.364  28.320  1.00  0.00     0.009 A 
ATOM     78  C   UNL A   1      45.909  31.727  29.596  1.00  0.00     0.009 A 
ATOM     79  C   UNL A   1      44.179  32.498  27.551  1.00  0.00     0.001 A 
ATOM     80  C   UNL A   1      46.179  32.873  28.844  1.00  0.00     0.001 A 
ATOM     81  C   UNL A   1      45.319  33.255  27.818  1.00  0.00     0.000 A 
ENDBRANCH  63  76
ENDBRANCH  37  38
ENDBRANCH  29  32
ENDBRANCH  27  28
ENDBRANCH  26  27
ENDBRANCH   1  26
TORSDOF 13
ENDMDL
