MODEL 1
REMARK VINA RESULT:     -12.7      0.000      0.000
REMARK SMILES Cc1c(NS(=O)(=O)c2ccc3c(c2)COC3)cccc1C(=O)NCCCNC(=O)c1ccc(-c2c3nc(c(-c4ccccc4)c4ccc([nH]4)c(-c4ccccc4)c4nc(c(-c5ccccc5)c5ccc2[nH]5)C=C4)C=C3)cc1
REMARK SMILES IDX 24 1 23 2 21 3 22 4 20 6 1 7 2 8 3 9 17 10 19 11 18 12 4 13
REMARK SMILES IDX 5 15 6 16 7 17 8 18 9 19 13 20 10 21 12 22 11 23 14 24 16 25
REMARK SMILES IDX 15 26 25 27 26 28 27 29 28 30 29 32 30 33 31 34 77 35 32 36
REMARK SMILES IDX 76 37 33 38 34 39 35 40 70 41 36 42 75 43 69 44 71 45 37 46
REMARK SMILES IDX 74 47 68 48 67 49 38 51 60 52 45 53 59 54 46 55 49 56 58 57
REMARK SMILES IDX 72 58 47 59 48 60 57 62 73 63 50 64 39 65 40 66 44 67 41 68
REMARK SMILES IDX 43 69 42 70 61 71 62 72 66 73 63 74 65 75 64 76 51 77 52 78
REMARK SMILES IDX 56 79 53 80 55 81 54 82
REMARK H PARENT 23 5 4 14 27 31 71 50 49 61
REMARK Flexibility Score: inf
ROOT
ATOM      1  C   UNL A   1      31.910  30.441  25.889  1.00  0.00     0.118 C 
ENDROOT
BRANCH   1   2
ATOM      2  N   UNL A   1      32.784  29.976  24.820  1.00  0.00    -0.352 N 
ATOM      3  C   UNL A   1      32.878  28.752  24.194  1.00  0.00     0.251 C 
ATOM      4  O   UNL A   1      33.685  28.611  23.279  1.00  0.00    -0.269 OA
ATOM      5  H   UNL A   1      33.415  30.654  24.486  1.00  0.00     0.163 HD
BRANCH   3   6
ATOM      6  C   UNL A   1      31.957  27.625  24.513  1.00  0.00     0.044 A 
ATOM      7  C   UNL A   1      33.630  26.309  25.900  1.00  0.00     0.047 C 
ATOM      8  C   UNL A   1      32.242  26.558  25.392  1.00  0.00    -0.014 A 
ATOM      9  C   UNL A   1      31.197  25.675  25.744  1.00  0.00     0.053 A 
ATOM     10  C   UNL A   1      29.964  25.748  25.088  1.00  0.00     0.027 A 
ATOM     11  C   UNL A   1      30.735  27.643  23.820  1.00  0.00     0.014 A 
ATOM     12  C   UNL A   1      29.756  26.688  24.082  1.00  0.00     0.003 A 
BRANCH   9  13
ATOM     13  N   UNL A   1      31.321  24.780  26.862  1.00  0.00    -0.279 N 
ATOM     14  H   UNL A   1      31.200  25.155  27.764  1.00  0.00     0.180 HD
BRANCH  13  15
ATOM     15  S   UNL A   1      31.662  23.122  26.732  1.00  0.00     0.261 S 
ATOM     16  O   UNL A   1      32.060  22.687  28.057  1.00  0.00    -0.201 OA
ATOM     17  O   UNL A   1      30.487  22.555  26.105  1.00  0.00    -0.201 OA
BRANCH  15  18
ATOM     18  C   UNL A   1      33.038  22.852  25.652  1.00  0.00     0.088 A 
ATOM     19  C   UNL A   1      32.825  22.916  24.261  1.00  0.00     0.022 A 
ATOM     20  C   UNL A   1      34.312  22.618  26.172  1.00  0.00     0.028 A 
ATOM     21  C   UNL A   1      33.907  22.874  23.381  1.00  0.00     0.008 A 
ATOM     22  C   UNL A   1      35.376  22.673  25.291  1.00  0.00    -0.015 A 
ATOM     23  C   UNL A   1      35.177  22.817  23.924  1.00  0.00    -0.017 A 
ATOM     24  C   UNL A   1      36.833  22.666  25.574  1.00  0.00     0.196 C 
ATOM     25  C   UNL A   1      36.495  22.922  23.251  1.00  0.00     0.196 C 
ATOM     26  O   UNL A   1      37.430  23.123  24.337  1.00  0.00    -0.372 OA
ENDBRANCH  15  18
ENDBRANCH  13  15
ENDBRANCH   9  13
ENDBRANCH   3   6
ENDBRANCH   1   2
BRANCH   1  27
ATOM     27  C   UNL A   1      32.549  30.245  27.266  1.00  0.00     0.042 C 
BRANCH  27  28
ATOM     28  C   UNL A   1      34.071  30.245  27.282  1.00  0.00     0.118 C 
BRANCH  28  29
ATOM     29  N   UNL A   1      34.630  31.118  28.324  1.00  0.00    -0.352 N 
ATOM     30  C   UNL A   1      35.842  30.998  28.985  1.00  0.00     0.251 C 
ATOM     31  H   UNL A   1      34.073  31.885  28.586  1.00  0.00     0.163 HD
ATOM     32  O   UNL A   1      36.254  31.871  29.736  1.00  0.00    -0.269 OA
BRANCH  30  33
ATOM     33  C   UNL A   1      36.687  29.837  28.639  1.00  0.00     0.039 A 
ATOM     34  C   UNL A   1      37.053  29.000  29.694  1.00  0.00     0.014 A 
ATOM     35  C   UNL A   1      37.416  29.878  27.455  1.00  0.00     0.014 A 
ATOM     36  C   UNL A   1      38.327  28.447  29.685  1.00  0.00     0.010 A 
ATOM     37  C   UNL A   1      38.712  29.404  27.484  1.00  0.00     0.010 A 
ATOM     38  C   UNL A   1      39.190  28.771  28.636  1.00  0.00    -0.014 A 
BRANCH  38  39
ATOM     39  C   UNL A   1      40.622  28.514  28.713  1.00  0.00     0.031 A 
ATOM     40  C   UNL A   1      41.132  27.245  28.174  1.00  0.00     0.074 A 
ATOM     41  C   UNL A   1      41.478  29.346  29.351  1.00  0.00     0.049 A 
ATOM     42  N   UNL A   1      42.058  26.544  28.733  1.00  0.00    -0.248 NA
ATOM     43  C   UNL A   1      40.568  26.634  26.979  1.00  0.00     0.031 C 
ATOM     44  C   UNL A   1      42.930  29.207  29.428  1.00  0.00     0.029 A 
ATOM     45  N   UNL A   1      41.188  30.348  30.277  1.00  0.00    -0.354 N 
ATOM     46  C   UNL A   1      42.427  25.583  27.824  1.00  0.00     0.074 A 
ATOM     47  C   UNL A   1      41.401  25.605  26.807  1.00  0.00     0.031 C 
ATOM     48  C   UNL A   1      43.357  29.811  30.548  1.00  0.00     0.029 A 
ATOM     49  C   UNL A   1      42.186  30.275  31.267  1.00  0.00     0.049 A 
ATOM     50  H   UNL A   1      40.435  30.980  30.244  1.00  0.00     0.167 HD
ATOM     51  C   UNL A   1      43.646  24.981  27.930  1.00  0.00     0.031 A 
ATOM     52  C   UNL A   1      41.924  30.080  32.592  1.00  0.00     0.031 A 
ATOM     53  C   UNL A   1      44.399  25.451  29.092  1.00  0.00     0.049 A 
ATOM     54  C   UNL A   1      42.577  28.837  33.164  1.00  0.00     0.074 A 
ATOM     55  C   UNL A   1      45.455  26.336  29.248  1.00  0.00     0.029 A 
ATOM     56  N   UNL A   1      43.899  25.227  30.367  1.00  0.00    -0.354 N 
ATOM     57  N   UNL A   1      43.287  27.988  32.474  1.00  0.00    -0.248 NA
ATOM     58  C   UNL A   1      42.369  28.389  34.539  1.00  0.00     0.031 C 
ATOM     59  C   UNL A   1      45.584  26.643  30.631  1.00  0.00     0.029 A 
ATOM     60  C   UNL A   1      44.618  25.933  31.317  1.00  0.00     0.049 A 
ATOM     61  H   UNL A   1      43.132  24.645  30.570  1.00  0.00     0.167 HD
ATOM     62  C   UNL A   1      43.582  26.888  33.244  1.00  0.00     0.074 A 
ATOM     63  C   UNL A   1      42.982  27.192  34.531  1.00  0.00     0.031 C 
ATOM     64  C   UNL A   1      44.254  25.811  32.728  1.00  0.00     0.031 A 
BRANCH  51  65
ATOM     65  C   UNL A   1      44.255  24.207  26.784  1.00  0.00    -0.014 A 
ATOM     66  C   UNL A   1      45.276  24.788  26.012  1.00  0.00     0.009 A 
ATOM     67  C   UNL A   1      43.828  22.930  26.379  1.00  0.00     0.009 A 
ATOM     68  C   UNL A   1      45.750  24.187  24.838  1.00  0.00     0.001 A 
ATOM     69  C   UNL A   1      44.259  22.346  25.179  1.00  0.00     0.001 A 
ATOM     70  C   UNL A   1      45.213  22.984  24.400  1.00  0.00     0.000 A 
ENDBRANCH  51  65
BRANCH  52  71
ATOM     71  C   UNL A   1      40.606  30.621  33.018  1.00  0.00    -0.014 A 
ATOM     72  C   UNL A   1      40.462  32.022  33.071  1.00  0.00     0.009 A 
ATOM     73  C   UNL A   1      39.453  29.827  32.933  1.00  0.00     0.009 A 
ATOM     74  C   UNL A   1      39.214  32.617  32.876  1.00  0.00     0.001 A 
ATOM     75  C   UNL A   1      38.205  30.431  32.755  1.00  0.00     0.001 A 
ATOM     76  C   UNL A   1      38.092  31.820  32.674  1.00  0.00     0.000 A 
ENDBRANCH  52  71
BRANCH  64  77
ATOM     77  C   UNL A   1      44.631  24.523  33.444  1.00  0.00    -0.014 A 
ATOM     78  C   UNL A   1      43.748  23.491  33.782  1.00  0.00     0.009 A 
ATOM     79  C   UNL A   1      45.972  24.338  33.864  1.00  0.00     0.009 A 
ATOM     80  C   UNL A   1      44.189  22.318  34.420  1.00  0.00     0.001 A 
ATOM     81  C   UNL A   1      46.417  23.180  34.508  1.00  0.00     0.001 A 
ATOM     82  C   UNL A   1      45.524  22.158  34.773  1.00  0.00     0.000 A 
ENDBRANCH  64  77
ENDBRANCH  38  39
ENDBRANCH  30  33
ENDBRANCH  28  29
ENDBRANCH  27  28
ENDBRANCH   1  27
TORSDOF 13
ENDMDL
MODEL 2
REMARK VINA RESULT:     -12.5      2.659      4.084
REMARK SMILES Cc1c(NS(=O)(=O)c2ccc3c(c2)COC3)cccc1C(=O)NCCCNC(=O)c1ccc(-c2c3nc(c(-c4ccccc4)c4ccc([nH]4)c(-c4ccccc4)c4nc(c(-c5ccccc5)c5ccc2[nH]5)C=C4)C=C3)cc1
REMARK SMILES IDX 24 1 23 2 21 3 22 4 20 6 1 7 2 8 3 9 17 10 19 11 18 12 4 13
REMARK SMILES IDX 5 15 6 16 7 17 8 18 9 19 13 20 10 21 12 22 11 23 14 24 16 25
REMARK SMILES IDX 15 26 25 27 26 28 27 29 28 30 29 32 30 33 31 34 77 35 32 36
REMARK SMILES IDX 76 37 33 38 34 39 35 40 70 41 36 42 75 43 69 44 71 45 37 46
REMARK SMILES IDX 74 47 68 48 67 49 38 51 60 52 45 53 59 54 46 55 49 56 58 57
REMARK SMILES IDX 72 58 47 59 48 60 57 62 73 63 50 64 39 65 40 66 44 67 41 68
REMARK SMILES IDX 43 69 42 70 61 71 62 72 66 73 63 74 65 75 64 76 51 77 52 78
REMARK SMILES IDX 56 79 53 80 55 81 54 82
REMARK H PARENT 23 5 4 14 27 31 71 50 49 61
REMARK Flexibility Score: inf
ROOT
ATOM      1  C   UNL A   1      34.170  29.351  27.638  1.00  0.00     0.118 C 
ENDROOT
BRANCH   1   2
ATOM      2  N   UNL A   1      32.948  28.599  27.887  1.00  0.00    -0.352 N 
ATOM      3  C   UNL A   1      32.010  28.080  27.021  1.00  0.00     0.251 C 
ATOM      4  O   UNL A   1      31.064  27.443  27.477  1.00  0.00    -0.269 OA
ATOM      5  H   UNL A   1      32.760  28.431  28.839  1.00  0.00     0.163 HD
BRANCH   3   6
ATOM      6  C   UNL A   1      32.161  28.171  25.541  1.00  0.00     0.044 A 
ATOM      7  C   UNL A   1      34.078  26.512  25.374  1.00  0.00     0.047 C 
ATOM      8  C   UNL A   1      33.018  27.371  24.754  1.00  0.00    -0.014 A 
ATOM      9  C   UNL A   1      32.903  27.439  23.348  1.00  0.00     0.053 A 
ATOM     10  C   UNL A   1      32.094  28.414  22.755  1.00  0.00     0.027 A 
ATOM     11  C   UNL A   1      31.403  29.182  24.929  1.00  0.00     0.014 A 
ATOM     12  C   UNL A   1      31.396  29.326  23.543  1.00  0.00     0.003 A 
BRANCH   9  13
ATOM     13  N   UNL A   1      33.496  26.441  22.501  1.00  0.00    -0.279 N 
ATOM     14  H   UNL A   1      34.420  26.588  22.198  1.00  0.00     0.180 HD
BRANCH  13  15
ATOM     15  S   UNL A   1      32.710  25.025  21.990  1.00  0.00     0.261 S 
ATOM     16  O   UNL A   1      31.340  25.135  22.448  1.00  0.00    -0.201 OA
ATOM     17  O   UNL A   1      32.997  24.939  20.574  1.00  0.00    -0.201 OA
BRANCH  15  18
ATOM     18  C   UNL A   1      33.416  23.604  22.774  1.00  0.00     0.088 A 
ATOM     19  C   UNL A   1      34.769  23.654  23.168  1.00  0.00     0.022 A 
ATOM     20  C   UNL A   1      32.637  22.473  23.027  1.00  0.00     0.028 A 
ATOM     21  C   UNL A   1      35.315  22.624  23.934  1.00  0.00     0.008 A 
ATOM     22  C   UNL A   1      33.171  21.510  23.864  1.00  0.00    -0.015 A 
ATOM     23  C   UNL A   1      34.479  21.594  24.322  1.00  0.00    -0.017 A 
ATOM     24  C   UNL A   1      32.518  20.321  24.465  1.00  0.00     0.196 C 
ATOM     25  C   UNL A   1      34.738  20.470  25.255  1.00  0.00     0.196 C 
ATOM     26  O   UNL A   1      33.425  19.923  25.521  1.00  0.00    -0.372 OA
ENDBRANCH  15  18
ENDBRANCH  13  15
ENDBRANCH   9  13
ENDBRANCH   3   6
ENDBRANCH   1   2
BRANCH   1  27
ATOM     27  C   UNL A   1      33.884  30.839  27.424  1.00  0.00     0.042 C 
BRANCH  27  28
ATOM     28  C   UNL A   1      34.589  31.781  28.389  1.00  0.00     0.118 C 
BRANCH  28  29
ATOM     29  N   UNL A   1      33.680  32.765  28.993  1.00  0.00    -0.352 N 
ATOM     30  C   UNL A   1      33.991  33.812  29.845  1.00  0.00     0.251 C 
ATOM     31  H   UNL A   1      32.728  32.668  28.763  1.00  0.00     0.163 HD
ATOM     32  O   UNL A   1      33.157  34.646  30.169  1.00  0.00    -0.269 OA
BRANCH  30  33
ATOM     33  C   UNL A   1      35.406  33.964  30.237  1.00  0.00     0.039 A 
ATOM     34  C   UNL A   1      36.279  34.419  29.247  1.00  0.00     0.014 A 
ATOM     35  C   UNL A   1      35.866  33.260  31.345  1.00  0.00     0.014 A 
ATOM     36  C   UNL A   1      37.563  33.892  29.206  1.00  0.00     0.010 A 
ATOM     37  C   UNL A   1      37.110  32.667  31.256  1.00  0.00     0.010 A 
ATOM     38  C   UNL A   1      37.915  32.915  30.140  1.00  0.00    -0.014 A 
BRANCH  38  39
ATOM     39  C   UNL A   1      39.098  32.082  29.970  1.00  0.00     0.031 A 
ATOM     40  C   UNL A   1      38.911  30.687  29.545  1.00  0.00     0.074 A 
ATOM     41  C   UNL A   1      40.341  32.509  30.287  1.00  0.00     0.049 A 
ATOM     42  N   UNL A   1      39.589  29.693  30.012  1.00  0.00    -0.248 NA
ATOM     43  C   UNL A   1      37.877  30.302  28.597  1.00  0.00     0.031 C 
ATOM     44  C   UNL A   1      41.590  31.774  30.095  1.00  0.00     0.029 A 
ATOM     45  N   UNL A   1      40.711  33.592  31.084  1.00  0.00    -0.354 N 
ATOM     46  C   UNL A   1      39.310  28.614  29.210  1.00  0.00     0.074 A 
ATOM     47  C   UNL A   1      38.161  29.009  28.426  1.00  0.00     0.031 C 
ATOM     48  C   UNL A   1      42.482  32.205  31.000  1.00  0.00     0.029 A 
ATOM     49  C   UNL A   1      41.808  33.163  31.855  1.00  0.00     0.049 A 
ATOM     50  H   UNL A   1      40.289  34.481  31.103  1.00  0.00     0.167 HD
ATOM     51  C   UNL A   1      40.173  27.561  29.164  1.00  0.00     0.031 A 
ATOM     52  C   UNL A   1      41.824  33.175  33.220  1.00  0.00     0.031 A 
ATOM     53  C   UNL A   1      41.312  27.736  30.066  1.00  0.00     0.049 A 
ATOM     54  C   UNL A   1      42.048  31.809  33.838  1.00  0.00     0.074 A 
ATOM     55  C   UNL A   1      42.636  28.099  29.868  1.00  0.00     0.029 A 
ATOM     56  N   UNL A   1      41.094  27.821  31.434  1.00  0.00    -0.354 N 
ATOM     57  N   UNL A   1      42.168  30.700  33.163  1.00  0.00    -0.248 NA
ATOM     58  C   UNL A   1      42.023  31.574  35.279  1.00  0.00     0.031 C 
ATOM     59  C   UNL A   1      43.211  28.403  31.133  1.00  0.00     0.029 A 
ATOM     60  C   UNL A   1      42.244  28.211  32.100  1.00  0.00     0.049 A 
ATOM     61  H   UNL A   1      40.233  27.631  31.873  1.00  0.00     0.167 HD
ATOM     62  C   UNL A   1      42.180  29.627  34.020  1.00  0.00     0.074 A 
ATOM     63  C   UNL A   1      42.087  30.232  35.337  1.00  0.00     0.031 C 
ATOM     64  C   UNL A   1      42.219  28.338  33.556  1.00  0.00     0.031 A 
BRANCH  51  65
ATOM     65  C   UNL A   1      40.123  26.536  28.055  1.00  0.00    -0.014 A 
ATOM     66  C   UNL A   1      39.285  25.414  28.177  1.00  0.00     0.009 A 
ATOM     67  C   UNL A   1      40.916  26.588  26.895  1.00  0.00     0.009 A 
ATOM     68  C   UNL A   1      39.332  24.352  27.264  1.00  0.00     0.001 A 
ATOM     69  C   UNL A   1      41.007  25.509  26.005  1.00  0.00     0.001 A 
ATOM     70  C   UNL A   1      40.223  24.382  26.199  1.00  0.00     0.000 A 
ENDBRANCH  51  65
BRANCH  52  71
ATOM     71  C   UNL A   1      40.978  34.247  33.809  1.00  0.00    -0.014 A 
ATOM     72  C   UNL A   1      39.660  33.910  34.175  1.00  0.00     0.009 A 
ATOM     73  C   UNL A   1      41.569  35.381  34.385  1.00  0.00     0.009 A 
ATOM     74  C   UNL A   1      39.013  34.588  35.211  1.00  0.00     0.001 A 
ATOM     75  C   UNL A   1      40.908  36.065  35.410  1.00  0.00     0.001 A 
ATOM     76  C   UNL A   1      39.657  35.638  35.858  1.00  0.00     0.000 A 
ENDBRANCH  52  71
BRANCH  64  77
ATOM     77  C   UNL A   1      42.216  27.057  34.375  1.00  0.00    -0.014 A 
ATOM     78  C   UNL A   1      41.239  26.687  35.307  1.00  0.00     0.009 A 
ATOM     79  C   UNL A   1      43.305  26.158  34.248  1.00  0.00     0.009 A 
ATOM     80  C   UNL A   1      41.300  25.466  36.000  1.00  0.00     0.001 A 
ATOM     81  C   UNL A   1      43.379  24.946  34.940  1.00  0.00     0.001 A 
ATOM     82  C   UNL A   1      42.363  24.592  35.810  1.00  0.00     0.000 A 
ENDBRANCH  64  77
ENDBRANCH  38  39
ENDBRANCH  30  33
ENDBRANCH  28  29
ENDBRANCH  27  28
ENDBRANCH   1  27
TORSDOF 13
ENDMDL
MODEL 3
REMARK VINA RESULT:     -12.4      2.769      8.192
REMARK SMILES Cc1c(NS(=O)(=O)c2ccc3c(c2)COC3)cccc1C(=O)NCCCNC(=O)c1ccc(-c2c3nc(c(-c4ccccc4)c4ccc([nH]4)c(-c4ccccc4)c4nc(c(-c5ccccc5)c5ccc2[nH]5)C=C4)C=C3)cc1
REMARK SMILES IDX 24 1 23 2 21 3 22 4 20 6 1 7 2 8 3 9 17 10 19 11 18 12 4 13
REMARK SMILES IDX 5 15 6 16 7 17 8 18 9 19 13 20 10 21 12 22 11 23 14 24 16 25
REMARK SMILES IDX 15 26 25 27 26 28 27 29 28 30 29 32 30 33 31 34 77 35 32 36
REMARK SMILES IDX 76 37 33 38 34 39 35 40 70 41 36 42 75 43 69 44 71 45 37 46
REMARK SMILES IDX 74 47 68 48 67 49 38 51 60 52 45 53 59 54 46 55 49 56 58 57
REMARK SMILES IDX 72 58 47 59 48 60 57 62 73 63 50 64 39 65 40 66 44 67 41 68
REMARK SMILES IDX 43 69 42 70 61 71 62 72 66 73 63 74 65 75 64 76 51 77 52 78
REMARK SMILES IDX 56 79 53 80 55 81 54 82
REMARK H PARENT 23 5 4 14 27 31 71 50 49 61
REMARK Flexibility Score: inf
ROOT
ATOM      1  C   UNL A   1      37.965  23.481  25.914  1.00  0.00     0.118 C 
ENDROOT
BRANCH   1   2
ATOM      2  N   UNL A   1      37.433  23.496  24.559  1.00  0.00    -0.352 N 
ATOM      3  C   UNL A   1      36.226  23.064  24.054  1.00  0.00     0.251 C 
ATOM      4  O   UNL A   1      35.990  23.217  22.858  1.00  0.00    -0.269 OA
ATOM      5  H   UNL A   1      38.040  23.882  23.887  1.00  0.00     0.163 HD
BRANCH   3   6
ATOM      6  C   UNL A   1      35.150  22.516  24.929  1.00  0.00     0.044 A 
ATOM      7  C   UNL A   1      34.615  24.713  26.087  1.00  0.00     0.047 C 
ATOM      8  C   UNL A   1      34.318  23.277  25.778  1.00  0.00    -0.014 A 
ATOM      9  C   UNL A   1      33.217  22.640  26.392  1.00  0.00     0.053 A 
ATOM     10  C   UNL A   1      33.072  21.251  26.309  1.00  0.00     0.027 A 
ATOM     11  C   UNL A   1      35.025  21.117  24.908  1.00  0.00     0.014 A 
ATOM     12  C   UNL A   1      34.010  20.485  25.623  1.00  0.00     0.003 A 
BRANCH   9  13
ATOM     13  N   UNL A   1      32.156  23.400  26.994  1.00  0.00    -0.279 N 
ATOM     14  H   UNL A   1      32.279  23.701  27.923  1.00  0.00     0.180 HD
BRANCH  13  15
ATOM     15  S   UNL A   1      30.707  23.813  26.213  1.00  0.00     0.261 S 
ATOM     16  O   UNL A   1      30.661  23.021  25.000  1.00  0.00    -0.201 OA
ATOM     17  O   UNL A   1      29.685  23.648  27.225  1.00  0.00    -0.201 OA
BRANCH  15  18
ATOM     18  C   UNL A   1      30.723  25.516  25.732  1.00  0.00     0.088 A 
ATOM     19  C   UNL A   1      31.457  26.431  26.514  1.00  0.00     0.022 A 
ATOM     20  C   UNL A   1      30.052  25.934  24.581  1.00  0.00     0.028 A 
ATOM     21  C   UNL A   1      31.631  27.745  26.080  1.00  0.00     0.008 A 
ATOM     22  C   UNL A   1      30.315  27.213  24.123  1.00  0.00    -0.015 A 
ATOM     23  C   UNL A   1      31.104  28.094  24.850  1.00  0.00    -0.017 A 
ATOM     24  C   UNL A   1      29.917  27.853  22.846  1.00  0.00     0.196 C 
ATOM     25  C   UNL A   1      31.270  29.348  24.075  1.00  0.00     0.196 C 
ATOM     26  O   UNL A   1      30.778  29.014  22.756  1.00  0.00    -0.372 OA
ENDBRANCH  15  18
ENDBRANCH  13  15
ENDBRANCH   9  13
ENDBRANCH   3   6
ENDBRANCH   1   2
BRANCH   1  27
ATOM     27  C   UNL A   1      38.894  22.286  26.144  1.00  0.00     0.042 C 
BRANCH  27  28
ATOM     28  C   UNL A   1      40.382  22.606  26.128  1.00  0.00     0.118 C 
BRANCH  28  29
ATOM     29  N   UNL A   1      41.188  21.546  25.509  1.00  0.00    -0.352 N 
ATOM     30  C   UNL A   1      42.489  21.172  25.805  1.00  0.00     0.251 C 
ATOM     31  H   UNL A   1      40.748  21.036  24.791  1.00  0.00     0.163 HD
ATOM     32  O   UNL A   1      43.001  20.178  25.309  1.00  0.00    -0.269 OA
BRANCH  30  33
ATOM     33  C   UNL A   1      43.189  21.940  26.853  1.00  0.00     0.039 A 
ATOM     34  C   UNL A   1      42.730  21.768  28.161  1.00  0.00     0.014 A 
ATOM     35  C   UNL A   1      43.907  23.071  26.477  1.00  0.00     0.014 A 
ATOM     36  C   UNL A   1      42.714  22.870  29.005  1.00  0.00     0.010 A 
ATOM     37  C   UNL A   1      43.810  24.189  27.283  1.00  0.00     0.010 A 
ATOM     38  C   UNL A   1      43.132  24.104  28.503  1.00  0.00    -0.014 A 
BRANCH  38  39
ATOM     39  C   UNL A   1      42.841  25.352  29.194  1.00  0.00     0.031 A 
ATOM     40  C   UNL A   1      41.677  26.136  28.755  1.00  0.00     0.074 A 
ATOM     41  C   UNL A   1      43.654  25.865  30.146  1.00  0.00     0.049 A 
ATOM     42  N   UNL A   1      41.665  27.423  28.667  1.00  0.00    -0.248 NA
ATOM     43  C   UNL A   1      40.446  25.502  28.308  1.00  0.00     0.031 C 
ATOM     44  C   UNL A   1      43.417  27.072  30.936  1.00  0.00     0.029 A 
ATOM     45  N   UNL A   1      44.984  25.545  30.418  1.00  0.00    -0.354 N 
ATOM     46  C   UNL A   1      40.357  27.792  28.470  1.00  0.00     0.074 A 
ATOM     47  C   UNL A   1      39.662  26.569  28.138  1.00  0.00     0.031 C 
ATOM     48  C   UNL A   1      44.603  27.574  31.313  1.00  0.00     0.029 A 
ATOM     49  C   UNL A   1      45.636  26.758  30.704  1.00  0.00     0.049 A 
ATOM     50  H   UNL A   1      45.386  24.646  30.412  1.00  0.00     0.167 HD
ATOM     51  C   UNL A   1      39.956  29.060  28.769  1.00  0.00     0.031 A 
ATOM     52  C   UNL A   1      46.720  27.216  30.012  1.00  0.00     0.031 A 
ATOM     53  C   UNL A   1      41.060  29.894  29.243  1.00  0.00     0.049 A 
ATOM     54  C   UNL A   1      46.499  28.566  29.358  1.00  0.00     0.074 A 
ATOM     55  C   UNL A   1      41.454  30.329  30.500  1.00  0.00     0.029 A 
ATOM     56  N   UNL A   1      42.127  30.162  28.396  1.00  0.00    -0.354 N 
ATOM     57  N   UNL A   1      45.379  29.232  29.392  1.00  0.00    -0.248 NA
ATOM     58  C   UNL A   1      47.495  29.209  28.504  1.00  0.00     0.031 C 
ATOM     59  C   UNL A   1      42.769  30.861  30.399  1.00  0.00     0.029 A 
ATOM     60  C   UNL A   1      43.169  30.765  29.081  1.00  0.00     0.049 A 
ATOM     61  H   UNL A   1      42.141  29.950  27.435  1.00  0.00     0.167 HD
ATOM     62  C   UNL A   1      45.455  30.322  28.559  1.00  0.00     0.074 A 
ATOM     63  C   UNL A   1      46.806  30.260  28.027  1.00  0.00     0.031 C 
ATOM     64  C   UNL A   1      44.380  31.144  28.353  1.00  0.00     0.031 A 
BRANCH  51  65
ATOM     65  C   UNL A   1      38.498  29.419  28.927  1.00  0.00    -0.014 A 
ATOM     66  C   UNL A   1      37.688  29.573  27.788  1.00  0.00     0.009 A 
ATOM     67  C   UNL A   1      37.876  29.675  30.162  1.00  0.00     0.009 A 
ATOM     68  C   UNL A   1      36.382  30.074  27.870  1.00  0.00     0.001 A 
ATOM     69  C   UNL A   1      36.589  30.224  30.250  1.00  0.00     0.001 A 
ATOM     70  C   UNL A   1      35.846  30.438  29.099  1.00  0.00     0.000 A 
ENDBRANCH  51  65
BRANCH  52  71
ATOM     71  C   UNL A   1      47.563  26.127  29.451  1.00  0.00    -0.014 A 
ATOM     72  C   UNL A   1      47.209  25.615  28.187  1.00  0.00     0.009 A 
ATOM     73  C   UNL A   1      48.871  25.930  29.916  1.00  0.00     0.009 A 
ATOM     74  C   UNL A   1      48.180  25.071  27.342  1.00  0.00     0.001 A 
ATOM     75  C   UNL A   1      49.834  25.370  29.071  1.00  0.00     0.001 A 
ATOM     76  C   UNL A   1      49.501  24.990  27.770  1.00  0.00     0.000 A 
ENDBRANCH  52  71
BRANCH  64  77
ATOM     77  C   UNL A   1      44.305  32.367  27.452  1.00  0.00    -0.014 A 
ATOM     78  C   UNL A   1      44.527  32.375  26.070  1.00  0.00     0.009 A 
ATOM     79  C   UNL A   1      44.039  33.633  28.031  1.00  0.00     0.009 A 
ATOM     80  C   UNL A   1      44.409  33.550  25.307  1.00  0.00     0.001 A 
ATOM     81  C   UNL A   1      43.929  34.808  27.283  1.00  0.00     0.001 A 
ATOM     82  C   UNL A   1      44.099  34.763  25.911  1.00  0.00     0.000 A 
ENDBRANCH  64  77
ENDBRANCH  38  39
ENDBRANCH  30  33
ENDBRANCH  28  29
ENDBRANCH  27  28
ENDBRANCH   1  27
TORSDOF 13
ENDMDL
