MODEL 1
REMARK VINA RESULT:     -11.5      0.000      0.000
REMARK SMILES CN(c1ccccc1C(=O)NCCCNC(=O)c1ccc(-c2c3nc(c(-c4ccccc4)c4ccc([nH]4)c(-c4ccccc4)c4nc(c(-c5ccccc5)c5ccc2[nH]5)C=C4)C=C3)cc1)S(=O)(=O)c1ccc(I)cc1
REMARK SMILES IDX 12 1 11 2 9 3 10 4 8 6 3 7 4 8 5 9 7 10 6 11 2 12 1 13 66 14
REMARK SMILES IDX 67 15 68 16 69 17 70 18 75 19 71 20 74 21 72 22 73 23 13 24
REMARK SMILES IDX 14 25 15 26 16 27 17 29 18 30 19 31 65 32 20 33 64 34 21 35
REMARK SMILES IDX 22 36 23 37 58 38 24 39 63 40 57 41 59 42 25 43 62 44 56 45
REMARK SMILES IDX 55 46 26 48 48 49 33 50 47 51 34 52 37 53 46 54 60 55 35 56
REMARK SMILES IDX 36 57 45 59 61 60 38 61 27 62 28 63 32 64 29 65 31 66 30 67
REMARK SMILES IDX 49 68 50 69 54 70 51 71 53 72 52 73 39 74 40 75 44 76 41 77
REMARK SMILES IDX 43 78 42 79
REMARK H PARENT 11 5 15 28 59 47 37 58
REMARK Flexibility Score: inf
ROOT
ATOM      1  C   UNL A   1      33.003  29.038  24.908  1.00  0.00     0.118 C 
ENDROOT
BRANCH   1   2
ATOM      2  N   UNL A   1      32.979  28.261  23.689  1.00  0.00    -0.352 N 
ATOM      3  C   UNL A   1      32.061  27.491  23.036  1.00  0.00     0.253 C 
ATOM      4  O   UNL A   1      32.517  26.888  22.055  1.00  0.00    -0.269 OA
ATOM      5  H   UNL A   1      33.839  28.295  23.211  1.00  0.00     0.163 HD
BRANCH   3   6
ATOM      6  C   UNL A   1      30.586  27.399  23.291  1.00  0.00     0.064 A 
ATOM      7  C   UNL A   1      29.825  26.431  23.976  1.00  0.00     0.064 A 
ATOM      8  C   UNL A   1      28.425  26.619  24.101  1.00  0.00     0.028 A 
ATOM      9  C   UNL A   1      27.766  27.704  23.524  1.00  0.00     0.002 A 
ATOM     10  C   UNL A   1      29.879  28.485  22.707  1.00  0.00     0.016 A 
ATOM     11  C   UNL A   1      28.495  28.633  22.808  1.00  0.00     0.001 A 
BRANCH   7  12
ATOM     12  N   UNL A   1      30.330  25.162  24.443  1.00  0.00    -0.269 N 
ATOM     13  C   UNL A   1      30.837  24.215  23.424  1.00  0.00     0.164 C 
BRANCH  12  14
ATOM     14  S   UNL A   1      31.040  25.093  25.996  1.00  0.00     0.264 S 
ATOM     15  O   UNL A   1      31.209  26.446  26.492  1.00  0.00    -0.201 OA
ATOM     16  O   UNL A   1      30.295  24.121  26.765  1.00  0.00    -0.201 OA
BRANCH  14  17
ATOM     17  C   UNL A   1      32.693  24.447  25.804  1.00  0.00     0.088 A 
ATOM     18  C   UNL A   1      33.645  25.191  25.100  1.00  0.00     0.023 A 
ATOM     19  C   UNL A   1      33.087  23.320  26.536  1.00  0.00     0.023 A 
ATOM     20  C   UNL A   1      34.978  24.778  25.071  1.00  0.00     0.016 A 
ATOM     21  C   UNL A   1      34.432  22.932  26.539  1.00  0.00     0.016 A 
ATOM     22  C   UNL A   1      35.368  23.656  25.799  1.00  0.00     0.013 A 
ATOM     23  I   UNL A   1      37.370  23.100  25.830  1.00  0.00    -0.044 I 
ENDBRANCH  14  17
ENDBRANCH  12  14
ENDBRANCH   7  12
ENDBRANCH   3   6
ENDBRANCH   1   2
BRANCH   1  24
ATOM     24  C   UNL A   1      34.166  28.579  25.787  1.00  0.00     0.042 C 
BRANCH  24  25
ATOM     25  C   UNL A   1      33.853  28.692  27.272  1.00  0.00     0.118 C 
BRANCH  25  26
ATOM     26  N   UNL A   1      33.778  30.086  27.701  1.00  0.00    -0.352 N 
ATOM     27  C   UNL A   1      34.673  30.839  28.425  1.00  0.00     0.251 C 
ATOM     28  H   UNL A   1      32.960  30.560  27.429  1.00  0.00     0.163 HD
ATOM     29  O   UNL A   1      34.318  31.914  28.899  1.00  0.00    -0.269 OA
BRANCH  27  30
ATOM     30  C   UNL A   1      36.055  30.357  28.646  1.00  0.00     0.039 A 
ATOM     31  C   UNL A   1      36.402  29.786  29.875  1.00  0.00     0.014 A 
ATOM     32  C   UNL A   1      37.020  30.490  27.648  1.00  0.00     0.014 A 
ATOM     33  C   UNL A   1      37.690  29.275  30.069  1.00  0.00     0.010 A 
ATOM     34  C   UNL A   1      38.259  29.883  27.801  1.00  0.00     0.010 A 
ATOM     35  C   UNL A   1      38.618  29.279  29.016  1.00  0.00    -0.014 A 
BRANCH  35  36
ATOM     36  C   UNL A   1      39.986  28.707  29.136  1.00  0.00     0.031 A 
ATOM     37  C   UNL A   1      41.130  29.621  29.494  1.00  0.00     0.074 A 
ATOM     38  C   UNL A   1      40.231  27.425  28.801  1.00  0.00     0.049 A 
ATOM     39  N   UNL A   1      42.418  29.431  29.366  1.00  0.00    -0.248 NA
ATOM     40  C   UNL A   1      40.768  30.954  30.010  1.00  0.00     0.031 C 
ATOM     41  C   UNL A   1      39.228  26.435  28.407  1.00  0.00     0.029 A 
ATOM     42  N   UNL A   1      41.421  26.744  28.710  1.00  0.00    -0.354 N 
ATOM     43  C   UNL A   1      43.011  30.639  29.714  1.00  0.00     0.074 A 
ATOM     44  C   UNL A   1      41.943  31.563  30.028  1.00  0.00     0.031 C 
ATOM     45  C   UNL A   1      39.841  25.271  28.131  1.00  0.00     0.029 A 
ATOM     46  C   UNL A   1      41.281  25.449  28.271  1.00  0.00     0.049 A 
ATOM     47  H   UNL A   1      42.290  27.146  28.937  1.00  0.00     0.167 HD
ATOM     48  C   UNL A   1      44.326  30.950  29.780  1.00  0.00     0.031 A 
ATOM     49  C   UNL A   1      42.212  24.518  27.989  1.00  0.00     0.031 A 
ATOM     50  C   UNL A   1      45.385  30.010  29.539  1.00  0.00     0.049 A 
ATOM     51  C   UNL A   1      43.668  24.865  28.135  1.00  0.00     0.074 A 
ATOM     52  C   UNL A   1      46.753  30.206  29.632  1.00  0.00     0.029 A 
ATOM     53  N   UNL A   1      45.191  28.684  29.187  1.00  0.00    -0.354 N 
ATOM     54  N   UNL A   1      44.213  26.009  28.469  1.00  0.00    -0.248 NA
ATOM     55  C   UNL A   1      44.636  23.790  27.873  1.00  0.00     0.031 C 
ATOM     56  C   UNL A   1      47.386  28.997  29.328  1.00  0.00     0.029 A 
ATOM     57  C   UNL A   1      46.412  28.044  29.080  1.00  0.00     0.049 A 
ATOM     58  H   UNL A   1      44.315  28.261  29.037  1.00  0.00     0.167 HD
ATOM     59  C   UNL A   1      45.584  25.783  28.489  1.00  0.00     0.074 A 
ATOM     60  C   UNL A   1      45.786  24.392  28.141  1.00  0.00     0.031 C 
ATOM     61  C   UNL A   1      46.585  26.651  28.768  1.00  0.00     0.031 A 
BRANCH  48  62
ATOM     62  C   UNL A   1      44.689  32.363  30.141  1.00  0.00    -0.014 A 
ATOM     63  C   UNL A   1      44.772  32.770  31.482  1.00  0.00     0.009 A 
ATOM     64  C   UNL A   1      44.975  33.292  29.129  1.00  0.00     0.009 A 
ATOM     65  C   UNL A   1      45.095  34.092  31.800  1.00  0.00     0.001 A 
ATOM     66  C   UNL A   1      45.327  34.603  29.451  1.00  0.00     0.001 A 
ATOM     67  C   UNL A   1      45.377  35.005  30.785  1.00  0.00     0.000 A 
ENDBRANCH  48  62
BRANCH  49  68
ATOM     68  C   UNL A   1      41.803  23.160  27.545  1.00  0.00    -0.014 A 
ATOM     69  C   UNL A   1      41.640  22.883  26.179  1.00  0.00     0.009 A 
ATOM     70  C   UNL A   1      41.561  22.140  28.478  1.00  0.00     0.009 A 
ATOM     71  C   UNL A   1      41.212  21.621  25.757  1.00  0.00     0.001 A 
ATOM     72  C   UNL A   1      41.161  20.871  28.052  1.00  0.00     0.001 A 
ATOM     73  C   UNL A   1      40.975  20.616  26.694  1.00  0.00     0.000 A 
ENDBRANCH  49  68
BRANCH  61  74
ATOM     74  C   UNL A   1      47.984  26.110  28.784  1.00  0.00    -0.014 A 
ATOM     75  C   UNL A   1      48.743  26.019  27.609  1.00  0.00     0.009 A 
ATOM     76  C   UNL A   1      48.569  25.755  30.010  1.00  0.00     0.009 A 
ATOM     77  C   UNL A   1      50.062  25.563  27.661  1.00  0.00     0.001 A 
ATOM     78  C   UNL A   1      49.894  25.319  30.060  1.00  0.00     0.001 A 
ATOM     79  C   UNL A   1      50.636  25.219  28.884  1.00  0.00     0.000 A 
ENDBRANCH  61  74
ENDBRANCH  35  36
ENDBRANCH  27  30
ENDBRANCH  25  26
ENDBRANCH  24  25
ENDBRANCH   1  24
TORSDOF 13
ENDMDL
MODEL 2
REMARK VINA RESULT:     -11.3      3.221      7.972
REMARK SMILES CN(c1ccccc1C(=O)NCCCNC(=O)c1ccc(-c2c3nc(c(-c4ccccc4)c4ccc([nH]4)c(-c4ccccc4)c4nc(c(-c5ccccc5)c5ccc2[nH]5)C=C4)C=C3)cc1)S(=O)(=O)c1ccc(I)cc1
REMARK SMILES IDX 12 1 11 2 9 3 10 4 8 6 3 7 4 8 5 9 7 10 6 11 2 12 1 13 66 14
REMARK SMILES IDX 67 15 68 16 69 17 70 18 75 19 71 20 74 21 72 22 73 23 13 24
REMARK SMILES IDX 14 25 15 26 16 27 17 29 18 30 19 31 65 32 20 33 64 34 21 35
REMARK SMILES IDX 22 36 23 37 58 38 24 39 63 40 57 41 59 42 25 43 62 44 56 45
REMARK SMILES IDX 55 46 26 48 48 49 33 50 47 51 34 52 37 53 46 54 60 55 35 56
REMARK SMILES IDX 36 57 45 59 61 60 38 61 27 62 28 63 32 64 29 65 31 66 30 67
REMARK SMILES IDX 49 68 50 69 54 70 51 71 53 72 52 73 39 74 40 75 44 76 41 77
REMARK SMILES IDX 43 78 42 79
REMARK H PARENT 11 5 15 28 59 47 37 58
REMARK Flexibility Score: inf
ROOT
ATOM      1  C   UNL A   1      35.513  22.262  26.150  1.00  0.00     0.118 C 
ENDROOT
BRANCH   1   2
ATOM      2  N   UNL A   1      34.137  22.540  26.495  1.00  0.00    -0.352 N 
ATOM      3  C   UNL A   1      32.934  22.472  25.853  1.00  0.00     0.253 C 
ATOM      4  O   UNL A   1      31.990  22.938  26.504  1.00  0.00    -0.269 OA
ATOM      5  H   UNL A   1      34.044  22.858  27.421  1.00  0.00     0.163 HD
BRANCH   3   6
ATOM      6  C   UNL A   1      32.621  21.803  24.548  1.00  0.00     0.064 A 
ATOM      7  C   UNL A   1      32.329  22.342  23.280  1.00  0.00     0.064 A 
ATOM      8  C   UNL A   1      32.108  21.460  22.192  1.00  0.00     0.028 A 
ATOM      9  C   UNL A   1      32.118  20.073  22.344  1.00  0.00     0.002 A 
ATOM     10  C   UNL A   1      32.613  20.386  24.667  1.00  0.00     0.016 A 
ATOM     11  C   UNL A   1      32.354  19.535  23.593  1.00  0.00     0.001 A 
BRANCH   7  12
ATOM     12  N   UNL A   1      32.081  23.738  23.013  1.00  0.00    -0.269 N 
ATOM     13  C   UNL A   1      30.907  24.358  23.669  1.00  0.00     0.164 C 
BRANCH  12  14
ATOM     14  S   UNL A   1      33.417  24.751  22.683  1.00  0.00     0.264 S 
ATOM     15  O   UNL A   1      34.638  24.023  22.975  1.00  0.00    -0.201 OA
ATOM     16  O   UNL A   1      33.205  25.328  21.374  1.00  0.00    -0.201 OA
BRANCH  14  17
ATOM     17  C   UNL A   1      33.375  26.097  23.855  1.00  0.00     0.088 A 
ATOM     18  C   UNL A   1      33.662  25.847  25.201  1.00  0.00     0.023 A 
ATOM     19  C   UNL A   1      33.274  27.416  23.395  1.00  0.00     0.023 A 
ATOM     20  C   UNL A   1      33.785  26.906  26.101  1.00  0.00     0.016 A 
ATOM     21  C   UNL A   1      33.440  28.478  24.292  1.00  0.00     0.016 A 
ATOM     22  C   UNL A   1      33.684  28.218  25.642  1.00  0.00     0.013 A 
ATOM     23  I   UNL A   1      33.962  29.793  26.968  1.00  0.00    -0.044 I 
ENDBRANCH  14  17
ENDBRANCH  12  14
ENDBRANCH   7  12
ENDBRANCH   3   6
ENDBRANCH   1   2
BRANCH   1  24
ATOM     24  C   UNL A   1      36.279  23.576  25.995  1.00  0.00     0.042 C 
BRANCH  24  25
ATOM     25  C   UNL A   1      37.416  23.472  24.987  1.00  0.00     0.118 C 
BRANCH  25  26
ATOM     26  N   UNL A   1      38.477  22.590  25.464  1.00  0.00    -0.352 N 
ATOM     27  C   UNL A   1      39.618  22.880  26.175  1.00  0.00     0.251 C 
ATOM     28  H   UNL A   1      38.357  21.639  25.242  1.00  0.00     0.163 HD
ATOM     29  O   UNL A   1      40.510  22.041  26.262  1.00  0.00    -0.269 OA
BRANCH  27  30
ATOM     30  C   UNL A   1      39.783  24.200  26.824  1.00  0.00     0.039 A 
ATOM     31  C   UNL A   1      39.273  24.408  28.111  1.00  0.00     0.014 A 
ATOM     32  C   UNL A   1      40.420  25.246  26.157  1.00  0.00     0.014 A 
ATOM     33  C   UNL A   1      39.476  25.634  28.754  1.00  0.00     0.010 A 
ATOM     34  C   UNL A   1      40.719  26.418  26.837  1.00  0.00     0.010 A 
ATOM     35  C   UNL A   1      40.242  26.636  28.138  1.00  0.00    -0.014 A 
BRANCH  35  36
ATOM     36  C   UNL A   1      40.541  27.942  28.784  1.00  0.00     0.031 A 
ATOM     37  C   UNL A   1      41.845  28.108  29.524  1.00  0.00     0.074 A 
ATOM     38  C   UNL A   1      39.615  28.920  28.829  1.00  0.00     0.049 A 
ATOM     39  N   UNL A   1      42.194  29.016  30.398  1.00  0.00    -0.248 NA
ATOM     40  C   UNL A   1      42.868  27.075  29.289  1.00  0.00     0.031 C 
ATOM     41  C   UNL A   1      38.301  28.886  28.185  1.00  0.00     0.029 A 
ATOM     42  N   UNL A   1      39.633  30.130  29.479  1.00  0.00    -0.354 N 
ATOM     43  C   UNL A   1      43.441  28.622  30.869  1.00  0.00     0.074 A 
ATOM     44  C   UNL A   1      43.773  27.380  30.207  1.00  0.00     0.031 C 
ATOM     45  C   UNL A   1      37.645  30.026  28.459  1.00  0.00     0.029 A 
ATOM     46  C   UNL A   1      38.467  30.844  29.343  1.00  0.00     0.049 A 
ATOM     47  H   UNL A   1      40.408  30.454  29.992  1.00  0.00     0.167 HD
ATOM     48  C   UNL A   1      44.247  29.244  31.761  1.00  0.00     0.031 A 
ATOM     49  C   UNL A   1      38.092  32.016  29.892  1.00  0.00     0.031 A 
ATOM     50  C   UNL A   1      43.948  30.514  32.361  1.00  0.00     0.049 A 
ATOM     51  C   UNL A   1      39.033  32.723  30.828  1.00  0.00     0.074 A 
ATOM     52  C   UNL A   1      44.719  31.260  33.236  1.00  0.00     0.029 A 
ATOM     53  N   UNL A   1      42.794  31.243  32.120  1.00  0.00    -0.354 N 
ATOM     54  N   UNL A   1      40.210  32.342  31.260  1.00  0.00    -0.248 NA
ATOM     55  C   UNL A   1      38.595  34.028  31.347  1.00  0.00     0.031 C 
ATOM     56  C   UNL A   1      44.026  32.438  33.531  1.00  0.00     0.029 A 
ATOM     57  C   UNL A   1      42.841  32.439  32.813  1.00  0.00     0.049 A 
ATOM     58  H   UNL A   1      42.052  30.953  31.541  1.00  0.00     0.167 HD
ATOM     59  C   UNL A   1      40.666  33.371  32.073  1.00  0.00     0.074 A 
ATOM     60  C   UNL A   1      39.645  34.396  32.069  1.00  0.00     0.031 C 
ATOM     61  C   UNL A   1      41.828  33.458  32.763  1.00  0.00     0.031 A 
BRANCH  48  62
ATOM     62  C   UNL A   1      45.534  28.562  32.128  1.00  0.00    -0.014 A 
ATOM     63  C   UNL A   1      46.700  28.758  31.373  1.00  0.00     0.009 A 
ATOM     64  C   UNL A   1      45.588  27.732  33.259  1.00  0.00     0.009 A 
ATOM     65  C   UNL A   1      47.885  28.104  31.718  1.00  0.00     0.001 A 
ATOM     66  C   UNL A   1      46.781  27.103  33.619  1.00  0.00     0.001 A 
ATOM     67  C   UNL A   1      47.925  27.281  32.843  1.00  0.00     0.000 A 
ENDBRANCH  48  62
BRANCH  49  68
ATOM     68  C   UNL A   1      36.767  32.605  29.568  1.00  0.00    -0.014 A 
ATOM     69  C   UNL A   1      36.582  33.310  28.369  1.00  0.00     0.009 A 
ATOM     70  C   UNL A   1      35.687  32.478  30.455  1.00  0.00     0.009 A 
ATOM     71  C   UNL A   1      35.351  33.906  28.080  1.00  0.00     0.001 A 
ATOM     72  C   UNL A   1      34.449  33.050  30.149  1.00  0.00     0.001 A 
ATOM     73  C   UNL A   1      34.286  33.773  28.968  1.00  0.00     0.000 A 
ENDBRANCH  49  68
BRANCH  61  74
ATOM     74  C   UNL A   1      42.094  34.730  33.511  1.00  0.00    -0.014 A 
ATOM     75  C   UNL A   1      42.812  35.784  32.924  1.00  0.00     0.009 A 
ATOM     76  C   UNL A   1      41.553  34.899  34.795  1.00  0.00     0.009 A 
ATOM     77  C   UNL A   1      42.997  36.978  33.623  1.00  0.00     0.001 A 
ATOM     78  C   UNL A   1      41.723  36.102  35.481  1.00  0.00     0.001 A 
ATOM     79  C   UNL A   1      42.449  37.138  34.895  1.00  0.00     0.000 A 
ENDBRANCH  61  74
ENDBRANCH  35  36
ENDBRANCH  27  30
ENDBRANCH  25  26
ENDBRANCH  24  25
ENDBRANCH   1  24
TORSDOF 13
ENDMDL
MODEL 3
REMARK VINA RESULT:     -11.2      3.009      7.694
REMARK SMILES CN(c1ccccc1C(=O)NCCCNC(=O)c1ccc(-c2c3nc(c(-c4ccccc4)c4ccc([nH]4)c(-c4ccccc4)c4nc(c(-c5ccccc5)c5ccc2[nH]5)C=C4)C=C3)cc1)S(=O)(=O)c1ccc(I)cc1
REMARK SMILES IDX 12 1 11 2 9 3 10 4 8 6 3 7 4 8 5 9 7 10 6 11 2 12 1 13 66 14
REMARK SMILES IDX 67 15 68 16 69 17 70 18 75 19 71 20 74 21 72 22 73 23 13 24
REMARK SMILES IDX 14 25 15 26 16 27 17 29 18 30 19 31 65 32 20 33 64 34 21 35
REMARK SMILES IDX 22 36 23 37 58 38 24 39 63 40 57 41 59 42 25 43 62 44 56 45
REMARK SMILES IDX 55 46 26 48 48 49 33 50 47 51 34 52 37 53 46 54 60 55 35 56
REMARK SMILES IDX 36 57 45 59 61 60 38 61 27 62 28 63 32 64 29 65 31 66 30 67
REMARK SMILES IDX 49 68 50 69 54 70 51 71 53 72 52 73 39 74 40 75 44 76 41 77
REMARK SMILES IDX 43 78 42 79
REMARK H PARENT 11 5 15 28 59 47 37 58
REMARK Flexibility Score: inf
ROOT
ATOM      1  C   UNL A   1      36.984  21.119  24.654  1.00  0.00     0.118 C 
ENDROOT
BRANCH   1   2
ATOM      2  N   UNL A   1      35.967  21.258  25.673  1.00  0.00    -0.352 N 
ATOM      3  C   UNL A   1      34.609  21.133  25.725  1.00  0.00     0.253 C 
ATOM      4  O   UNL A   1      34.114  21.475  26.807  1.00  0.00    -0.269 OA
ATOM      5  H   UNL A   1      36.349  21.504  26.546  1.00  0.00     0.163 HD
BRANCH   3   6
ATOM      6  C   UNL A   1      33.698  20.529  24.697  1.00  0.00     0.064 A 
ATOM      7  C   UNL A   1      32.922  21.127  23.686  1.00  0.00     0.064 A 
ATOM      8  C   UNL A   1      32.171  20.297  22.814  1.00  0.00     0.028 A 
ATOM      9  C   UNL A   1      32.133  18.910  22.957  1.00  0.00     0.002 A 
ATOM     10  C   UNL A   1      33.626  19.115  24.819  1.00  0.00     0.016 A 
ATOM     11  C   UNL A   1      32.851  18.318  23.977  1.00  0.00     0.001 A 
BRANCH   7  12
ATOM     12  N   UNL A   1      32.697  22.545  23.546  1.00  0.00    -0.269 N 
ATOM     13  C   UNL A   1      33.041  23.165  22.246  1.00  0.00     0.164 C 
BRANCH  12  14
ATOM     14  S   UNL A   1      31.425  23.257  24.438  1.00  0.00     0.264 S 
ATOM     15  O   UNL A   1      30.432  23.766  23.510  1.00  0.00    -0.201 OA
ATOM     16  O   UNL A   1      31.047  22.317  25.470  1.00  0.00    -0.201 OA
BRANCH  14  17
ATOM     17  C   UNL A   1      32.085  24.696  25.263  1.00  0.00     0.088 A 
ATOM     18  C   UNL A   1      33.464  24.925  25.249  1.00  0.00     0.023 A 
ATOM     19  C   UNL A   1      31.215  25.692  25.724  1.00  0.00     0.023 A 
ATOM     20  C   UNL A   1      33.983  26.118  25.753  1.00  0.00     0.016 A 
ATOM     21  C   UNL A   1      31.736  26.905  26.190  1.00  0.00     0.016 A 
ATOM     22  C   UNL A   1      33.117  27.108  26.212  1.00  0.00     0.013 A 
ATOM     23  I   UNL A   1      33.889  28.921  26.872  1.00  0.00    -0.044 I 
ENDBRANCH  14  17
ENDBRANCH  12  14
ENDBRANCH   7  12
ENDBRANCH   3   6
ENDBRANCH   1   2
BRANCH   1  24
ATOM     24  C   UNL A   1      37.868  19.913  24.973  1.00  0.00     0.042 C 
BRANCH  24  25
ATOM     25  C   UNL A   1      39.018  20.265  25.906  1.00  0.00     0.118 C 
BRANCH  25  26
ATOM     26  N   UNL A   1      40.029  19.211  25.935  1.00  0.00    -0.352 N 
ATOM     27  C   UNL A   1      41.399  19.301  26.015  1.00  0.00     0.251 C 
ATOM     28  H   UNL A   1      39.674  18.295  25.888  1.00  0.00     0.163 HD
ATOM     29  O   UNL A   1      42.088  18.314  25.772  1.00  0.00    -0.269 OA
BRANCH  27  30
ATOM     30  C   UNL A   1      42.048  20.579  26.383  1.00  0.00     0.039 A 
ATOM     31  C   UNL A   1      42.478  21.452  25.378  1.00  0.00     0.014 A 
ATOM     32  C   UNL A   1      42.256  20.911  27.721  1.00  0.00     0.014 A 
ATOM     33  C   UNL A   1      43.039  22.688  25.718  1.00  0.00     0.010 A 
ATOM     34  C   UNL A   1      42.706  22.180  28.056  1.00  0.00     0.010 A 
ATOM     35  C   UNL A   1      43.116  23.083  27.063  1.00  0.00    -0.014 A 
BRANCH  35  36
ATOM     36  C   UNL A   1      43.652  24.402  27.493  1.00  0.00     0.031 A 
ATOM     37  C   UNL A   1      42.690  25.456  27.979  1.00  0.00     0.074 A 
ATOM     38  C   UNL A   1      44.954  24.706  27.330  1.00  0.00     0.049 A 
ATOM     39  N   UNL A   1      42.870  26.745  28.117  1.00  0.00    -0.248 NA
ATOM     40  C   UNL A   1      41.323  25.003  28.292  1.00  0.00     0.031 C 
ATOM     41  C   UNL A   1      45.993  23.795  26.843  1.00  0.00     0.029 A 
ATOM     42  N   UNL A   1      45.621  25.890  27.530  1.00  0.00    -0.354 N 
ATOM     43  C   UNL A   1      41.625  27.261  28.460  1.00  0.00     0.074 A 
ATOM     44  C   UNL A   1      40.695  26.154  28.478  1.00  0.00     0.031 C 
ATOM     45  C   UNL A   1      47.166  24.449  26.797  1.00  0.00     0.029 A 
ATOM     46  C   UNL A   1      46.952  25.836  27.193  1.00  0.00     0.049 A 
ATOM     47  H   UNL A   1      45.186  26.700  27.882  1.00  0.00     0.167 HD
ATOM     48  C   UNL A   1      41.288  28.540  28.748  1.00  0.00     0.031 A 
ATOM     49  C   UNL A   1      47.889  26.803  27.180  1.00  0.00     0.031 A 
ATOM     50  C   UNL A   1      42.228  29.625  28.800  1.00  0.00     0.049 A 
ATOM     51  C   UNL A   1      47.506  28.204  27.570  1.00  0.00     0.074 A 
ATOM     52  C   UNL A   1      42.002  30.949  29.135  1.00  0.00     0.029 A 
ATOM     53  N   UNL A   1      43.584  29.500  28.541  1.00  0.00    -0.354 N 
ATOM     54  N   UNL A   1      46.328  28.676  27.896  1.00  0.00    -0.248 NA
ATOM     55  C   UNL A   1      48.584  29.204  27.597  1.00  0.00     0.031 C 
ATOM     56  C   UNL A   1      43.222  31.628  29.069  1.00  0.00     0.029 A 
ATOM     57  C   UNL A   1      44.210  30.719  28.727  1.00  0.00     0.049 A 
ATOM     58  H   UNL A   1      44.033  28.669  28.265  1.00  0.00     0.167 HD
ATOM     59  C   UNL A   1      46.528  30.017  28.198  1.00  0.00     0.074 A 
ATOM     60  C   UNL A   1      47.941  30.282  28.024  1.00  0.00     0.031 C 
ATOM     61  C   UNL A   1      45.622  30.947  28.583  1.00  0.00     0.031 A 
BRANCH  48  62
ATOM     62  C   UNL A   1      39.843  28.828  29.041  1.00  0.00    -0.014 A 
ATOM     63  C   UNL A   1      39.322  28.682  30.336  1.00  0.00     0.009 A 
ATOM     64  C   UNL A   1      38.996  29.274  28.014  1.00  0.00     0.009 A 
ATOM     65  C   UNL A   1      37.973  28.938  30.589  1.00  0.00     0.001 A 
ATOM     66  C   UNL A   1      37.655  29.558  28.276  1.00  0.00     0.001 A 
ATOM     67  C   UNL A   1      37.142  29.381  29.560  1.00  0.00     0.000 A 
ENDBRANCH  48  62
BRANCH  49  68
ATOM     68  C   UNL A   1      49.288  26.486  26.792  1.00  0.00    -0.014 A 
ATOM     69  C   UNL A   1      50.211  26.063  27.761  1.00  0.00     0.009 A 
ATOM     70  C   UNL A   1      49.713  26.613  25.461  1.00  0.00     0.009 A 
ATOM     71  C   UNL A   1      51.540  25.807  27.411  1.00  0.00     0.001 A 
ATOM     72  C   UNL A   1      51.034  26.329  25.109  1.00  0.00     0.001 A 
ATOM     73  C   UNL A   1      51.949  25.937  26.085  1.00  0.00     0.000 A 
ENDBRANCH  49  68
BRANCH  61  74
ATOM     74  C   UNL A   1      46.136  32.316  28.916  1.00  0.00    -0.014 A 
ATOM     75  C   UNL A   1      46.566  32.638  30.212  1.00  0.00     0.009 A 
ATOM     76  C   UNL A   1      46.257  33.271  27.895  1.00  0.00     0.009 A 
ATOM     77  C   UNL A   1      47.091  33.904  30.481  1.00  0.00     0.001 A 
ATOM     78  C   UNL A   1      46.802  34.527  28.164  1.00  0.00     0.001 A 
ATOM     79  C   UNL A   1      47.214  34.843  29.458  1.00  0.00     0.000 A 
ENDBRANCH  61  74
ENDBRANCH  35  36
ENDBRANCH  27  30
ENDBRANCH  25  26
ENDBRANCH  24  25
ENDBRANCH   1  24
TORSDOF 13
ENDMDL
