MODEL 1
REMARK VINA RESULT:     -11.3      0.000      0.000
REMARK SMILES CCc1cc(C(=O)N[C@@H]2C=C[C@H](C(=O)NCCCNC(=O)c3ccc(-c4c5nc(c(-c6ccccc6)c6ccc([nH]6)c(-c6ccccc6)c6nc(c(-c7ccccc7)c7ccc4[nH]7)C=C6)C=C5)cc3)C2)n(C)n1
REMARK SMILES IDX 16 1 15 2 13 3 14 4 12 6 9 7 10 8 70 9 11 10 8 11 6 12 7 13
REMARK SMILES IDX 5 15 3 16 4 17 73 18 71 19 72 20 2 21 1 22 17 23 18 24 19 25
REMARK SMILES IDX 20 26 21 28 22 29 23 30 69 31 24 32 68 33 25 34 26 35 27 36
REMARK SMILES IDX 62 37 28 38 67 39 61 40 63 41 29 42 66 43 60 44 59 45 30 47
REMARK SMILES IDX 52 48 37 49 51 50 38 51 41 52 50 53 64 54 39 55 40 56 49 58
REMARK SMILES IDX 65 59 42 60 31 61 32 62 36 63 33 64 35 65 34 66 53 67 54 68
REMARK SMILES IDX 58 69 55 70 57 71 56 72 43 73 44 74 48 75 45 76 47 77 46 78
REMARK H PARENT 15 5 8 14 19 27 63 46 41 57
REMARK Flexibility Score: inf
ROOT
ATOM      1  C   UNL A   1      37.505  21.171  24.641  1.00  0.00     0.117 C 
ENDROOT
BRANCH   1   2
ATOM      2  N   UNL A   1      36.679  21.504  25.785  1.00  0.00    -0.356 N 
ATOM      3  C   UNL A   1      35.319  21.482  25.876  1.00  0.00     0.227 C 
ATOM      4  O   UNL A   1      34.791  21.862  26.918  1.00  0.00    -0.274 OA
ATOM      5  H   UNL A   1      37.161  21.781  26.597  1.00  0.00     0.163 HD
BRANCH   3   6
ATOM      6  C   UNL A   1      34.549  20.943  24.679  1.00  0.00     0.103 C 
ATOM      7  C   UNL A   1      32.114  21.227  24.824  1.00  0.00     0.106 C 
ATOM      8  C   UNL A   1      32.542  19.829  25.161  1.00  0.00    -0.006 C 
ATOM      9  C   UNL A   1      33.396  21.848  24.271  1.00  0.00     0.047 C 
ATOM     10  C   UNL A   1      33.866  19.668  25.066  1.00  0.00    -0.016 C 
BRANCH   7  11
ATOM     11  N   UNL A   1      31.544  21.817  26.007  1.00  0.00    -0.344 N 
ATOM     12  C   UNL A   1      31.206  23.086  26.384  1.00  0.00     0.270 C 
ATOM     13  O   UNL A   1      30.554  23.157  27.431  1.00  0.00    -0.268 OA
ATOM     14  H   UNL A   1      31.356  21.152  26.708  1.00  0.00     0.164 HD
BRANCH  12  15
ATOM     15  C   UNL A   1      31.654  24.283  25.712  1.00  0.00     0.126 A 
ATOM     16  C   UNL A   1      32.685  26.244  25.360  1.00  0.00     0.063 A 
ATOM     17  C   UNL A   1      32.442  25.251  26.324  1.00  0.00     0.059 A 
ATOM     18  N   UNL A   1      32.055  25.962  24.218  1.00  0.00    -0.178 NA
ATOM     19  N   UNL A   1      31.392  24.812  24.473  1.00  0.00    -0.263 N 
ATOM     20  C   UNL A   1      30.493  24.370  23.437  1.00  0.00     0.174 C 
BRANCH  16  21
ATOM     21  C   UNL A   1      33.483  27.495  25.513  1.00  0.00     0.055 C 
ATOM     22  C   UNL A   1      33.419  28.086  26.913  1.00  0.00     0.011 C 
ENDBRANCH  16  21
ENDBRANCH  12  15
ENDBRANCH   7  11
ENDBRANCH   3   6
ENDBRANCH   1   2
BRANCH   1  23
ATOM     23  C   UNL A   1      38.315  19.913  24.907  1.00  0.00     0.042 C 
BRANCH  23  24
ATOM     24  C   UNL A   1      39.204  20.046  26.136  1.00  0.00     0.118 C 
BRANCH  24  25
ATOM     25  N   UNL A   1      40.399  19.213  26.035  1.00  0.00    -0.352 N 
ATOM     26  C   UNL A   1      41.720  19.574  26.027  1.00  0.00     0.251 C 
ATOM     27  H   UNL A   1      40.229  18.246  25.961  1.00  0.00     0.163 HD
ATOM     28  O   UNL A   1      42.574  18.795  25.624  1.00  0.00    -0.269 OA
BRANCH  26  29
ATOM     29  C   UNL A   1      42.097  20.912  26.511  1.00  0.00     0.039 A 
ATOM     30  C   UNL A   1      42.402  21.918  25.593  1.00  0.00     0.014 A 
ATOM     31  C   UNL A   1      42.144  21.164  27.884  1.00  0.00     0.014 A 
ATOM     32  C   UNL A   1      42.698  23.197  26.058  1.00  0.00     0.010 A 
ATOM     33  C   UNL A   1      42.324  22.459  28.338  1.00  0.00     0.010 A 
ATOM     34  C   UNL A   1      42.625  23.484  27.431  1.00  0.00    -0.014 A 
BRANCH  34  35
ATOM     35  C   UNL A   1      42.892  24.842  27.955  1.00  0.00     0.031 A 
ATOM     36  C   UNL A   1      44.293  25.239  28.324  1.00  0.00     0.074 A 
ATOM     37  C   UNL A   1      41.864  25.687  28.163  1.00  0.00     0.049 A 
ATOM     38  N   UNL A   1      44.723  26.358  28.847  1.00  0.00    -0.248 NA
ATOM     39  C   UNL A   1      45.347  24.233  28.107  1.00  0.00     0.031 C 
ATOM     40  C   UNL A   1      40.456  25.399  27.881  1.00  0.00     0.029 A 
ATOM     41  N   UNL A   1      41.850  26.964  28.660  1.00  0.00    -0.354 N 
ATOM     42  C   UNL A   1      46.088  26.181  29.036  1.00  0.00     0.074 A 
ATOM     43  C   UNL A   1      46.400  24.826  28.643  1.00  0.00     0.031 C 
ATOM     44  C   UNL A   1      39.722  26.486  28.164  1.00  0.00     0.029 A 
ATOM     45  C   UNL A   1      40.599  27.525  28.693  1.00  0.00     0.049 A 
ATOM     46  H   UNL A   1      42.660  27.433  28.965  1.00  0.00     0.167 HD
ATOM     47  C   UNL A   1      47.007  27.075  29.471  1.00  0.00     0.031 A 
ATOM     48  C   UNL A   1      40.204  28.745  29.100  1.00  0.00     0.031 A 
ATOM     49  C   UNL A   1      46.690  28.421  29.865  1.00  0.00     0.049 A 
ATOM     50  C   UNL A   1      41.234  29.709  29.616  1.00  0.00     0.074 A 
ATOM     51  C   UNL A   1      47.547  29.425  30.278  1.00  0.00     0.029 A 
ATOM     52  N   UNL A   1      45.406  28.947  29.899  1.00  0.00    -0.354 N 
ATOM     53  N   UNL A   1      42.532  29.554  29.727  1.00  0.00    -0.248 NA
ATOM     54  C   UNL A   1      40.743  31.023  30.054  1.00  0.00     0.031 C 
ATOM     55  C   UNL A   1      46.774  30.540  30.622  1.00  0.00     0.029 A 
ATOM     56  C   UNL A   1      45.444  30.254  30.355  1.00  0.00     0.049 A 
ATOM     57  H   UNL A   1      44.591  28.464  29.638  1.00  0.00     0.167 HD
ATOM     58  C   UNL A   1      43.018  30.760  30.215  1.00  0.00     0.074 A 
ATOM     59  C   UNL A   1      41.875  31.639  30.366  1.00  0.00     0.031 C 
ATOM     60  C   UNL A   1      44.295  31.111  30.506  1.00  0.00     0.031 A 
BRANCH  47  61
ATOM     61  C   UNL A   1      48.434  26.603  29.557  1.00  0.00    -0.014 A 
ATOM     62  C   UNL A   1      48.931  25.985  30.718  1.00  0.00     0.009 A 
ATOM     63  C   UNL A   1      49.300  26.790  28.470  1.00  0.00     0.009 A 
ATOM     64  C   UNL A   1      50.276  25.619  30.808  1.00  0.00     0.001 A 
ATOM     65  C   UNL A   1      50.635  26.389  28.548  1.00  0.00     0.001 A 
ATOM     66  C   UNL A   1      51.125  25.819  29.722  1.00  0.00     0.000 A 
ENDBRANCH  47  61
BRANCH  48  67
ATOM     67  C   UNL A   1      38.774  29.134  28.995  1.00  0.00    -0.014 A 
ATOM     68  C   UNL A   1      37.916  28.972  30.094  1.00  0.00     0.009 A 
ATOM     69  C   UNL A   1      38.261  29.683  27.809  1.00  0.00     0.009 A 
ATOM     70  C   UNL A   1      36.570  29.332  30.002  1.00  0.00     0.001 A 
ATOM     71  C   UNL A   1      36.921  30.069  27.730  1.00  0.00     0.001 A 
ATOM     72  C   UNL A   1      36.076  29.886  28.822  1.00  0.00     0.000 A 
ENDBRANCH  48  67
BRANCH  60  73
ATOM     73  C   UNL A   1      44.529  32.519  30.978  1.00  0.00    -0.014 A 
ATOM     74  C   UNL A   1      44.524  32.846  32.343  1.00  0.00     0.009 A 
ATOM     75  C   UNL A   1      44.798  33.527  30.039  1.00  0.00     0.009 A 
ATOM     76  C   UNL A   1      44.748  34.161  32.754  1.00  0.00     0.001 A 
ATOM     77  C   UNL A   1      45.055  34.833  30.454  1.00  0.00     0.001 A 
ATOM     78  C   UNL A   1      45.018  35.152  31.810  1.00  0.00     0.000 A 
ENDBRANCH  60  73
ENDBRANCH  34  35
ENDBRANCH  26  29
ENDBRANCH  24  25
ENDBRANCH  23  24
ENDBRANCH   1  23
TORSDOF 13
ENDMDL
MODEL 2
REMARK VINA RESULT:     -11.1      1.794      2.410
REMARK SMILES CCc1cc(C(=O)N[C@@H]2C=C[C@H](C(=O)NCCCNC(=O)c3ccc(-c4c5nc(c(-c6ccccc6)c6ccc([nH]6)c(-c6ccccc6)c6nc(c(-c7ccccc7)c7ccc4[nH]7)C=C6)C=C5)cc3)C2)n(C)n1
REMARK SMILES IDX 16 1 15 2 13 3 14 4 12 6 9 7 10 8 70 9 11 10 8 11 6 12 7 13
REMARK SMILES IDX 5 15 3 16 4 17 73 18 71 19 72 20 2 21 1 22 17 23 18 24 19 25
REMARK SMILES IDX 20 26 21 28 22 29 23 30 69 31 24 32 68 33 25 34 26 35 27 36
REMARK SMILES IDX 62 37 28 38 67 39 61 40 63 41 29 42 66 43 60 44 59 45 30 47
REMARK SMILES IDX 52 48 37 49 51 50 38 51 41 52 50 53 64 54 39 55 40 56 49 58
REMARK SMILES IDX 65 59 42 60 31 61 32 62 36 63 33 64 35 65 34 66 53 67 54 68
REMARK SMILES IDX 58 69 55 70 57 71 56 72 43 73 44 74 48 75 45 76 47 77 46 78
REMARK H PARENT 15 5 8 14 19 27 63 46 41 57
REMARK Flexibility Score: inf
ROOT
ATOM      1  C   UNL A   1      36.749  20.476  24.975  1.00  0.00     0.117 C 
ENDROOT
BRANCH   1   2
ATOM      2  N   UNL A   1      36.897  21.516  23.976  1.00  0.00    -0.356 N 
ATOM      3  C   UNL A   1      36.102  22.604  23.769  1.00  0.00     0.227 C 
ATOM      4  O   UNL A   1      36.354  23.348  22.824  1.00  0.00    -0.274 OA
ATOM      5  H   UNL A   1      37.669  21.425  23.372  1.00  0.00     0.163 HD
BRANCH   3   6
ATOM      6  C   UNL A   1      34.972  22.841  24.762  1.00  0.00     0.103 C 
ATOM      7  C   UNL A   1      33.330  24.522  24.052  1.00  0.00     0.106 C 
ATOM      8  C   UNL A   1      34.305  25.069  25.052  1.00  0.00    -0.006 C 
ATOM      9  C   UNL A   1      33.625  23.024  24.079  1.00  0.00     0.047 C 
ATOM     10  C   UNL A   1      35.189  24.151  25.452  1.00  0.00    -0.016 C 
BRANCH   7  11
ATOM     11  N   UNL A   1      33.529  25.218  22.808  1.00  0.00    -0.344 N 
ATOM     12  C   UNL A   1      33.153  26.436  22.312  1.00  0.00     0.270 C 
ATOM     13  O   UNL A   1      33.693  26.748  21.247  1.00  0.00    -0.268 OA
ATOM     14  H   UNL A   1      34.056  24.695  22.162  1.00  0.00     0.164 HD
BRANCH  12  15
ATOM     15  C   UNL A   1      32.126  27.269  22.890  1.00  0.00     0.126 A 
ATOM     16  C   UNL A   1      30.141  28.274  23.181  1.00  0.00     0.063 A 
ATOM     17  C   UNL A   1      30.857  27.406  22.339  1.00  0.00     0.059 A 
ATOM     18  N   UNL A   1      30.910  28.707  24.181  1.00  0.00    -0.178 NA
ATOM     19  N   UNL A   1      32.116  28.140  23.951  1.00  0.00    -0.263 N 
ATOM     20  C   UNL A   1      33.184  28.579  24.812  1.00  0.00     0.174 C 
BRANCH  16  21
ATOM     21  C   UNL A   1      28.731  28.738  23.035  1.00  0.00     0.055 C 
ATOM     22  C   UNL A   1      28.588  30.253  23.055  1.00  0.00     0.011 C 
ENDBRANCH  16  21
ENDBRANCH  12  15
ENDBRANCH   7  11
ENDBRANCH   3   6
ENDBRANCH   1   2
BRANCH   1  23
ATOM     23  C   UNL A   1      37.976  19.581  25.010  1.00  0.00     0.042 C 
BRANCH  23  24
ATOM     24  C   UNL A   1      39.121  20.196  25.802  1.00  0.00     0.118 C 
BRANCH  24  25
ATOM     25  N   UNL A   1      40.236  19.267  25.957  1.00  0.00    -0.352 N 
ATOM     26  C   UNL A   1      41.568  19.522  26.151  1.00  0.00     0.251 C 
ATOM     27  H   UNL A   1      39.995  18.313  25.914  1.00  0.00     0.163 HD
ATOM     28  O   UNL A   1      42.403  18.651  25.948  1.00  0.00    -0.269 OA
BRANCH  26  29
ATOM     29  C   UNL A   1      41.978  20.860  26.610  1.00  0.00     0.039 A 
ATOM     30  C   UNL A   1      42.442  21.794  25.684  1.00  0.00     0.014 A 
ATOM     31  C   UNL A   1      41.897  21.181  27.967  1.00  0.00     0.014 A 
ATOM     32  C   UNL A   1      42.770  23.077  26.117  1.00  0.00     0.010 A 
ATOM     33  C   UNL A   1      42.113  22.486  28.377  1.00  0.00     0.010 A 
ATOM     34  C   UNL A   1      42.574  23.440  27.460  1.00  0.00    -0.014 A 
BRANCH  34  35
ATOM     35  C   UNL A   1      42.872  24.807  27.946  1.00  0.00     0.031 A 
ATOM     36  C   UNL A   1      44.290  25.199  28.248  1.00  0.00     0.074 A 
ATOM     37  C   UNL A   1      41.860  25.664  28.179  1.00  0.00     0.049 A 
ATOM     38  N   UNL A   1      44.750  26.325  28.731  1.00  0.00    -0.248 NA
ATOM     39  C   UNL A   1      45.326  24.180  28.007  1.00  0.00     0.031 C 
ATOM     40  C   UNL A   1      40.439  25.381  27.961  1.00  0.00     0.029 A 
ATOM     41  N   UNL A   1      41.876  26.950  28.650  1.00  0.00    -0.354 N 
ATOM     42  C   UNL A   1      46.120  26.140  28.866  1.00  0.00     0.074 A 
ATOM     43  C   UNL A   1      46.406  24.775  28.488  1.00  0.00     0.031 C 
ATOM     44  C   UNL A   1      39.726  26.480  28.252  1.00  0.00     0.029 A 
ATOM     45  C   UNL A   1      40.631  27.522  28.724  1.00  0.00     0.049 A 
ATOM     46  H   UNL A   1      42.701  27.418  28.912  1.00  0.00     0.167 HD
ATOM     47  C   UNL A   1      47.063  27.035  29.245  1.00  0.00     0.031 A 
ATOM     48  C   UNL A   1      40.262  28.753  29.123  1.00  0.00     0.031 A 
ATOM     49  C   UNL A   1      46.772  28.391  29.625  1.00  0.00     0.049 A 
ATOM     50  C   UNL A   1      41.320  29.719  29.577  1.00  0.00     0.074 A 
ATOM     51  C   UNL A   1      47.653  29.396  29.982  1.00  0.00     0.029 A 
ATOM     52  N   UNL A   1      45.495  28.928  29.702  1.00  0.00    -0.354 N 
ATOM     53  N   UNL A   1      42.620  29.555  29.637  1.00  0.00    -0.248 NA
ATOM     54  C   UNL A   1      40.858  31.044  30.008  1.00  0.00     0.031 C 
ATOM     55  C   UNL A   1      46.903  30.523  30.336  1.00  0.00     0.029 A 
ATOM     56  C   UNL A   1      45.562  30.244  30.129  1.00  0.00     0.049 A 
ATOM     57  H   UNL A   1      44.666  28.446  29.484  1.00  0.00     0.167 HD
ATOM     58  C   UNL A   1      43.135  30.766  30.080  1.00  0.00     0.074 A 
ATOM     59  C   UNL A   1      42.006  31.657  30.261  1.00  0.00     0.031 C 
ATOM     60  C   UNL A   1      44.426  31.112  30.311  1.00  0.00     0.031 A 
BRANCH  47  61
ATOM     61  C   UNL A   1      48.488  26.553  29.281  1.00  0.00    -0.014 A 
ATOM     62  C   UNL A   1      49.027  25.950  30.432  1.00  0.00     0.009 A 
ATOM     63  C   UNL A   1      49.311  26.715  28.157  1.00  0.00     0.009 A 
ATOM     64  C   UNL A   1      50.372  25.575  30.473  1.00  0.00     0.001 A 
ATOM     65  C   UNL A   1      50.645  26.304  28.188  1.00  0.00     0.001 A 
ATOM     66  C   UNL A   1      51.179  25.750  29.350  1.00  0.00     0.000 A 
ENDBRANCH  47  61
BRANCH  48  67
ATOM     67  C   UNL A   1      38.832  29.151  29.070  1.00  0.00    -0.014 A 
ATOM     68  C   UNL A   1      38.292  29.687  27.891  1.00  0.00     0.009 A 
ATOM     69  C   UNL A   1      37.995  28.983  30.185  1.00  0.00     0.009 A 
ATOM     70  C   UNL A   1      36.950  30.067  27.835  1.00  0.00     0.001 A 
ATOM     71  C   UNL A   1      36.646  29.337  30.116  1.00  0.00     0.001 A 
ATOM     72  C   UNL A   1      36.126  29.885  28.945  1.00  0.00     0.000 A 
ENDBRANCH  48  67
BRANCH  60  73
ATOM     73  C   UNL A   1      44.689  32.528  30.745  1.00  0.00    -0.014 A 
ATOM     74  C   UNL A   1      44.754  32.879  32.102  1.00  0.00     0.009 A 
ATOM     75  C   UNL A   1      44.916  33.517  29.775  1.00  0.00     0.009 A 
ATOM     76  C   UNL A   1      45.005  34.200  32.477  1.00  0.00     0.001 A 
ATOM     77  C   UNL A   1      45.200  34.829  30.153  1.00  0.00     0.001 A 
ATOM     78  C   UNL A   1      45.232  35.172  31.503  1.00  0.00     0.000 A 
ENDBRANCH  60  73
ENDBRANCH  34  35
ENDBRANCH  26  29
ENDBRANCH  24  25
ENDBRANCH  23  24
ENDBRANCH   1  23
TORSDOF 13
ENDMDL
MODEL 3
REMARK VINA RESULT:     -11.0      2.316      6.556
REMARK SMILES CCc1cc(C(=O)N[C@@H]2C=C[C@H](C(=O)NCCCNC(=O)c3ccc(-c4c5nc(c(-c6ccccc6)c6ccc([nH]6)c(-c6ccccc6)c6nc(c(-c7ccccc7)c7ccc4[nH]7)C=C6)C=C5)cc3)C2)n(C)n1
REMARK SMILES IDX 16 1 15 2 13 3 14 4 12 6 9 7 10 8 70 9 11 10 8 11 6 12 7 13
REMARK SMILES IDX 5 15 3 16 4 17 73 18 71 19 72 20 2 21 1 22 17 23 18 24 19 25
REMARK SMILES IDX 20 26 21 28 22 29 23 30 69 31 24 32 68 33 25 34 26 35 27 36
REMARK SMILES IDX 62 37 28 38 67 39 61 40 63 41 29 42 66 43 60 44 59 45 30 47
REMARK SMILES IDX 52 48 37 49 51 50 38 51 41 52 50 53 64 54 39 55 40 56 49 58
REMARK SMILES IDX 65 59 42 60 31 61 32 62 36 63 33 64 35 65 34 66 53 67 54 68
REMARK SMILES IDX 58 69 55 70 57 71 56 72 43 73 44 74 48 75 45 76 47 77 46 78
REMARK H PARENT 15 5 8 14 19 27 63 46 41 57
REMARK Flexibility Score: inf
ROOT
ATOM      1  C   UNL A   1      36.940  20.582  25.029  1.00  0.00     0.117 C 
ENDROOT
BRANCH   1   2
ATOM      2  N   UNL A   1      37.037  21.600  24.000  1.00  0.00    -0.356 N 
ATOM      3  C   UNL A   1      36.196  22.649  23.773  1.00  0.00     0.227 C 
ATOM      4  O   UNL A   1      36.409  23.376  22.806  1.00  0.00    -0.274 OA
ATOM      5  H   UNL A   1      37.805  21.523  23.390  1.00  0.00     0.163 HD
BRANCH   3   6
ATOM      6  C   UNL A   1      35.068  22.868  24.772  1.00  0.00     0.103 C 
ATOM      7  C   UNL A   1      33.378  24.499  24.055  1.00  0.00     0.106 C 
ATOM      8  C   UNL A   1      34.346  25.082  25.042  1.00  0.00    -0.006 C 
ATOM      9  C   UNL A   1      33.712  23.009  24.097  1.00  0.00     0.047 C 
ATOM     10  C   UNL A   1      35.256  24.191  25.445  1.00  0.00    -0.016 C 
BRANCH   7  11
ATOM     11  N   UNL A   1      33.550  25.185  22.802  1.00  0.00    -0.344 N 
ATOM     12  C   UNL A   1      33.128  26.381  22.291  1.00  0.00     0.270 C 
ATOM     13  O   UNL A   1      33.655  26.700  21.221  1.00  0.00    -0.268 OA
ATOM     14  H   UNL A   1      34.097  24.674  22.163  1.00  0.00     0.164 HD
BRANCH  12  15
ATOM     15  C   UNL A   1      32.070  27.182  22.859  1.00  0.00     0.126 A 
ATOM     16  C   UNL A   1      30.024  28.037  23.202  1.00  0.00     0.063 A 
ATOM     17  C   UNL A   1      30.757  27.144  22.402  1.00  0.00     0.059 A 
ATOM     18  N   UNL A   1      30.819  28.647  24.083  1.00  0.00    -0.178 NA
ATOM     19  N   UNL A   1      32.053  28.165  23.817  1.00  0.00    -0.263 N 
ATOM     20  C   UNL A   1      33.134  28.791  24.534  1.00  0.00     0.174 C 
BRANCH  16  21
ATOM     21  C   UNL A   1      28.569  28.357  23.124  1.00  0.00     0.055 C 
ATOM     22  C   UNL A   1      28.286  29.773  22.646  1.00  0.00     0.011 C 
ENDBRANCH  16  21
ENDBRANCH  12  15
ENDBRANCH   7  11
ENDBRANCH   3   6
ENDBRANCH   1   2
BRANCH   1  23
ATOM     23  C   UNL A   1      38.144  19.657  24.989  1.00  0.00     0.042 C 
BRANCH  23  24
ATOM     24  C   UNL A   1      39.254  20.110  25.927  1.00  0.00     0.118 C 
BRANCH  24  25
ATOM     25  N   UNL A   1      40.281  19.085  26.089  1.00  0.00    -0.352 N 
ATOM     26  C   UNL A   1      41.645  19.210  26.125  1.00  0.00     0.251 C 
ATOM     27  H   UNL A   1      39.943  18.165  26.184  1.00  0.00     0.163 HD
ATOM     28  O   UNL A   1      42.363  18.234  25.952  1.00  0.00    -0.269 OA
BRANCH  26  29
ATOM     29  C   UNL A   1      42.233  20.536  26.378  1.00  0.00     0.039 A 
ATOM     30  C   UNL A   1      42.645  21.324  25.304  1.00  0.00     0.014 A 
ATOM     31  C   UNL A   1      42.371  20.993  27.691  1.00  0.00     0.014 A 
ATOM     32  C   UNL A   1      43.144  22.602  25.549  1.00  0.00     0.010 A 
ATOM     33  C   UNL A   1      42.757  22.302  27.925  1.00  0.00     0.010 A 
ATOM     34  C   UNL A   1      43.169  23.111  26.858  1.00  0.00    -0.014 A 
BRANCH  34  35
ATOM     35  C   UNL A   1      43.653  24.480  27.149  1.00  0.00     0.031 A 
ATOM     36  C   UNL A   1      42.680  25.537  27.588  1.00  0.00     0.074 A 
ATOM     37  C   UNL A   1      44.949  24.782  26.949  1.00  0.00     0.049 A 
ATOM     38  N   UNL A   1      42.895  26.803  27.839  1.00  0.00    -0.248 NA
ATOM     39  C   UNL A   1      41.274  25.126  27.734  1.00  0.00     0.031 C 
ATOM     40  C   UNL A   1      45.978  23.849  26.485  1.00  0.00     0.029 A 
ATOM     41  N   UNL A   1      45.621  25.965  27.114  1.00  0.00    -0.354 N 
ATOM     42  C   UNL A   1      41.652  27.338  28.152  1.00  0.00     0.074 A 
ATOM     43  C   UNL A   1      40.680  26.281  27.988  1.00  0.00     0.031 C 
ATOM     44  C   UNL A   1      47.160  24.484  26.451  1.00  0.00     0.029 A 
ATOM     45  C   UNL A   1      46.962  25.876  26.839  1.00  0.00     0.049 A 
ATOM     46  H   UNL A   1      45.183  26.798  27.401  1.00  0.00     0.167 HD
ATOM     47  C   UNL A   1      41.348  28.590  28.568  1.00  0.00     0.031 A 
ATOM     48  C   UNL A   1      47.926  26.813  26.898  1.00  0.00     0.031 A 
ATOM     49  C   UNL A   1      42.318  29.638  28.725  1.00  0.00     0.049 A 
ATOM     50  C   UNL A   1      47.561  28.207  27.324  1.00  0.00     0.074 A 
ATOM     51  C   UNL A   1      42.129  30.930  29.182  1.00  0.00     0.029 A 
ATOM     52  N   UNL A   1      43.667  29.513  28.421  1.00  0.00    -0.354 N 
ATOM     53  N   UNL A   1      46.392  28.683  27.683  1.00  0.00    -0.248 NA
ATOM     54  C   UNL A   1      48.652  29.189  27.363  1.00  0.00     0.031 C 
ATOM     55  C   UNL A   1      43.352  31.605  29.096  1.00  0.00     0.029 A 
ATOM     56  C   UNL A   1      44.317  30.713  28.653  1.00  0.00     0.049 A 
ATOM     57  H   UNL A   1      44.097  28.693  28.090  1.00  0.00     0.167 HD
ATOM     58  C   UNL A   1      46.614  30.012  28.023  1.00  0.00     0.074 A 
ATOM     59  C   UNL A   1      48.029  30.259  27.838  1.00  0.00     0.031 C 
ATOM     60  C   UNL A   1      45.726  30.942  28.455  1.00  0.00     0.031 A 
BRANCH  47  61
ATOM     61  C   UNL A   1      39.900  28.882  28.857  1.00  0.00    -0.014 A 
ATOM     62  C   UNL A   1      39.361  28.701  30.144  1.00  0.00     0.009 A 
ATOM     63  C   UNL A   1      39.057  29.331  27.830  1.00  0.00     0.009 A 
ATOM     64  C   UNL A   1      37.999  28.906  30.378  1.00  0.00     0.001 A 
ATOM     65  C   UNL A   1      37.704  29.573  28.077  1.00  0.00     0.001 A 
ATOM     66  C   UNL A   1      37.173  29.344  29.345  1.00  0.00     0.000 A 
ENDBRANCH  47  61
BRANCH  48  67
ATOM     67  C   UNL A   1      49.332  26.450  26.585  1.00  0.00    -0.014 A 
ATOM     68  C   UNL A   1      50.162  25.918  27.584  1.00  0.00     0.009 A 
ATOM     69  C   UNL A   1      49.848  26.615  25.290  1.00  0.00     0.009 A 
ATOM     70  C   UNL A   1      51.486  25.578  27.298  1.00  0.00     0.001 A 
ATOM     71  C   UNL A   1      51.164  26.247  25.000  1.00  0.00     0.001 A 
ATOM     72  C   UNL A   1      51.983  25.737  26.004  1.00  0.00     0.000 A 
ENDBRANCH  48  67
BRANCH  60  73
ATOM     73  C   UNL A   1      46.269  32.302  28.797  1.00  0.00    -0.014 A 
ATOM     74  C   UNL A   1      46.758  32.597  30.079  1.00  0.00     0.009 A 
ATOM     75  C   UNL A   1      46.328  33.292  27.803  1.00  0.00     0.009 A 
ATOM     76  C   UNL A   1      47.261  33.867  30.367  1.00  0.00     0.001 A 
ATOM     77  C   UNL A   1      46.862  34.549  28.084  1.00  0.00     0.001 A 
ATOM     78  C   UNL A   1      47.317  34.839  29.369  1.00  0.00     0.000 A 
ENDBRANCH  60  73
ENDBRANCH  34  35
ENDBRANCH  26  29
ENDBRANCH  24  25
ENDBRANCH  23  24
ENDBRANCH   1  23
TORSDOF 13
ENDMDL
