MODEL 1
REMARK VINA RESULT:     -11.8      0.000      0.000
REMARK SMILES C[C@H](CC(=O)NCCCNC(=O)c1ccc(-c2c3nc(c(-c4ccccc4)c4ccc([nH]4)c(-c4ccccc4)c4nc(c(-c5ccccc5)c5ccc2[nH]5)C=C4)C=C3)cc1)N1C(=O)S/C(=C\c2ccc(Cl)cc2)C1=O
REMARK SMILES IDX 7 1 6 2 4 3 5 4 3 6 2 7 1 8 61 9 62 10 74 11 63 12 64 13
REMARK SMILES IDX 65 14 75 15 66 16 67 17 68 18 73 19 69 20 72 21 70 22 71 23
REMARK SMILES IDX 8 24 9 25 10 26 11 27 12 29 13 30 14 31 60 32 15 33 59 34
REMARK SMILES IDX 16 35 17 36 18 37 53 38 19 39 58 40 52 41 54 42 20 43 57 44
REMARK SMILES IDX 51 45 50 46 21 48 43 49 28 50 42 51 29 52 32 53 41 54 55 55
REMARK SMILES IDX 30 56 31 57 40 59 56 60 33 61 22 62 23 63 27 64 24 65 26 66
REMARK SMILES IDX 25 67 44 68 45 69 49 70 46 71 48 72 47 73 34 74 35 75 39 76
REMARK SMILES IDX 36 77 38 78 37 79
REMARK H PARENT 6 5 10 28 54 47 32 58
REMARK Flexibility Score: inf
ROOT
ATOM      1  C   UNL A   1      35.752  20.324  24.980  1.00  0.00     0.117 C 
ENDROOT
BRANCH   1   2
ATOM      2  N   UNL A   1      34.607  19.432  24.949  1.00  0.00    -0.356 N 
ATOM      3  C   UNL A   1      33.275  19.705  25.014  1.00  0.00     0.222 C 
ATOM      4  O   UNL A   1      32.497  18.762  25.169  1.00  0.00    -0.275 OA
ATOM      5  H   UNL A   1      34.830  18.476  24.868  1.00  0.00     0.163 HD
BRANCH   3   6
ATOM      6  C   UNL A   1      32.752  21.119  24.850  1.00  0.00     0.125 C 
BRANCH   6   7
ATOM      7  C   UNL A   1      32.898  21.782  23.461  1.00  0.00     0.101 C 
ATOM      8  C   UNL A   1      32.009  21.181  22.370  1.00  0.00     0.032 C 
BRANCH   7   9
ATOM      9  N   UNL A   1      32.833  23.252  23.579  1.00  0.00    -0.265 N 
ATOM     10  C   UNL A   1      33.949  24.023  23.349  1.00  0.00     0.293 C 
ATOM     11  C   UNL A   1      31.726  23.938  24.004  1.00  0.00     0.268 C 
ATOM     12  O   UNL A   1      35.027  23.643  22.918  1.00  0.00    -0.261 OA
ATOM     13  S   UNL A   1      33.655  25.696  23.820  1.00  0.00    -0.022 SA
ATOM     14  C   UNL A   1      32.096  25.319  24.405  1.00  0.00     0.083 C 
ATOM     15  O   UNL A   1      30.583  23.512  24.072  1.00  0.00    -0.268 OA
ATOM     16  C   UNL A   1      31.278  26.025  25.194  1.00  0.00     0.029 C 
BRANCH  16  17
ATOM     17  C   UNL A   1      31.420  27.384  25.709  1.00  0.00    -0.024 A 
ATOM     18  C   UNL A   1      31.330  28.490  24.854  1.00  0.00     0.009 A 
ATOM     19  C   UNL A   1      31.851  27.559  27.027  1.00  0.00     0.009 A 
ATOM     20  C   UNL A   1      31.708  29.758  25.309  1.00  0.00     0.021 A 
ATOM     21  C   UNL A   1      32.238  28.822  27.477  1.00  0.00     0.021 A 
ATOM     22  C   UNL A   1      32.179  29.913  26.612  1.00  0.00     0.041 A 
ATOM     23  Cl  UNL A   1      32.732  31.451  27.148  1.00  0.00    -0.084 Cl
ENDBRANCH  16  17
ENDBRANCH   7   9
ENDBRANCH   6   7
ENDBRANCH   3   6
ENDBRANCH   1   2
BRANCH   1  24
ATOM     24  C   UNL A   1      37.054  19.525  24.904  1.00  0.00     0.042 C 
BRANCH  24  25
ATOM     25  C   UNL A   1      38.301  20.324  25.252  1.00  0.00     0.118 C 
BRANCH  25  26
ATOM     26  N   UNL A   1      39.434  19.451  25.533  1.00  0.00    -0.352 N 
ATOM     27  C   UNL A   1      40.729  19.678  25.935  1.00  0.00     0.251 C 
ATOM     28  H   UNL A   1      39.228  18.497  25.407  1.00  0.00     0.163 HD
ATOM     29  O   UNL A   1      41.522  18.744  25.798  1.00  0.00    -0.269 OA
BRANCH  27  30
ATOM     30  C   UNL A   1      41.230  20.963  26.502  1.00  0.00     0.039 A 
ATOM     31  C   UNL A   1      41.158  21.136  27.896  1.00  0.00     0.014 A 
ATOM     32  C   UNL A   1      41.654  22.045  25.732  1.00  0.00     0.014 A 
ATOM     33  C   UNL A   1      41.520  22.353  28.496  1.00  0.00     0.010 A 
ATOM     34  C   UNL A   1      42.110  23.223  26.337  1.00  0.00     0.010 A 
ATOM     35  C   UNL A   1      42.027  23.407  27.724  1.00  0.00    -0.014 A 
BRANCH  35  36
ATOM     36  C   UNL A   1      42.435  24.710  28.325  1.00  0.00     0.031 A 
ATOM     37  C   UNL A   1      41.422  25.814  28.526  1.00  0.00     0.074 A 
ATOM     38  C   UNL A   1      43.728  24.945  28.628  1.00  0.00     0.049 A 
ATOM     39  N   UNL A   1      41.609  27.057  28.899  1.00  0.00    -0.248 NA
ATOM     40  C   UNL A   1      40.016  25.484  28.240  1.00  0.00     0.031 C 
ATOM     41  C   UNL A   1      44.826  23.990  28.469  1.00  0.00     0.029 A 
ATOM     42  N   UNL A   1      44.339  26.073  29.123  1.00  0.00    -0.354 N 
ATOM     43  C   UNL A   1      40.358  27.664  28.848  1.00  0.00     0.074 A 
ATOM     44  C   UNL A   1      39.426  26.663  28.374  1.00  0.00     0.031 C 
ATOM     45  C   UNL A   1      45.969  24.562  28.880  1.00  0.00     0.029 A 
ATOM     46  C   UNL A   1      45.698  25.938  29.283  1.00  0.00     0.049 A 
ATOM     47  H   UNL A   1      43.850  26.899  29.342  1.00  0.00     0.167 HD
ATOM     48  C   UNL A   1      40.007  28.931  29.179  1.00  0.00     0.031 A 
ATOM     49  C   UNL A   1      46.627  26.822  29.693  1.00  0.00     0.031 A 
ATOM     50  C   UNL A   1      40.916  29.920  29.692  1.00  0.00     0.049 A 
ATOM     51  C   UNL A   1      46.214  28.220  30.062  1.00  0.00     0.074 A 
ATOM     52  C   UNL A   1      40.639  31.208  30.118  1.00  0.00     0.029 A 
ATOM     53  N   UNL A   1      42.278  29.729  29.858  1.00  0.00    -0.354 N 
ATOM     54  N   UNL A   1      45.021  28.761  30.045  1.00  0.00    -0.248 NA
ATOM     55  C   UNL A   1      47.280  29.127  30.515  1.00  0.00     0.031 C 
ATOM     56  C   UNL A   1      41.841  31.812  30.504  1.00  0.00     0.029 A 
ATOM     57  C   UNL A   1      42.858  30.882  30.365  1.00  0.00     0.049 A 
ATOM     58  H   UNL A   1      42.763  28.898  29.647  1.00  0.00     0.167 HD
ATOM     59  C   UNL A   1      45.188  30.060  30.508  1.00  0.00     0.074 A 
ATOM     60  C   UNL A   1      46.594  30.222  30.811  1.00  0.00     0.031 C 
ATOM     61  C   UNL A   1      44.257  31.030  30.667  1.00  0.00     0.031 A 
BRANCH  48  62
ATOM     62  C   UNL A   1      38.567  29.325  28.990  1.00  0.00    -0.014 A 
ATOM     63  C   UNL A   1      38.084  29.752  27.743  1.00  0.00     0.009 A 
ATOM     64  C   UNL A   1      37.670  29.231  30.067  1.00  0.00     0.009 A 
ATOM     65  C   UNL A   1      36.744  30.116  27.589  1.00  0.00     0.001 A 
ATOM     66  C   UNL A   1      36.325  29.566  29.903  1.00  0.00     0.001 A 
ATOM     67  C   UNL A   1      35.865  30.020  28.668  1.00  0.00     0.000 A 
ENDBRANCH  48  62
BRANCH  49  68
ATOM     68  C   UNL A   1      48.051  26.409  29.789  1.00  0.00    -0.014 A 
ATOM     69  C   UNL A   1      48.902  26.538  28.680  1.00  0.00     0.009 A 
ATOM     70  C   UNL A   1      48.567  25.880  30.983  1.00  0.00     0.009 A 
ATOM     71  C   UNL A   1      50.234  26.126  28.759  1.00  0.00     0.001 A 
ATOM     72  C   UNL A   1      49.906  25.494  31.066  1.00  0.00     0.001 A 
ATOM     73  C   UNL A   1      50.736  25.610  29.953  1.00  0.00     0.000 A 
ENDBRANCH  49  68
BRANCH  61  74
ATOM     74  C   UNL A   1      44.720  32.344  31.230  1.00  0.00    -0.014 A 
ATOM     75  C   UNL A   1      44.810  32.553  32.615  1.00  0.00     0.009 A 
ATOM     76  C   UNL A   1      45.109  33.374  30.359  1.00  0.00     0.009 A 
ATOM     77  C   UNL A   1      45.254  33.779  33.115  1.00  0.00     0.001 A 
ATOM     78  C   UNL A   1      45.576  34.588  30.862  1.00  0.00     0.001 A 
ATOM     79  C   UNL A   1      45.640  34.793  32.239  1.00  0.00     0.000 A 
ENDBRANCH  61  74
ENDBRANCH  35  36
ENDBRANCH  27  30
ENDBRANCH  25  26
ENDBRANCH  24  25
ENDBRANCH   1  24
TORSDOF 13
ENDMDL
MODEL 2
REMARK VINA RESULT:     -11.6      1.379      1.992
REMARK SMILES C[C@H](CC(=O)NCCCNC(=O)c1ccc(-c2c3nc(c(-c4ccccc4)c4ccc([nH]4)c(-c4ccccc4)c4nc(c(-c5ccccc5)c5ccc2[nH]5)C=C4)C=C3)cc1)N1C(=O)S/C(=C\c2ccc(Cl)cc2)C1=O
REMARK SMILES IDX 7 1 6 2 4 3 5 4 3 6 2 7 1 8 61 9 62 10 74 11 63 12 64 13
REMARK SMILES IDX 65 14 75 15 66 16 67 17 68 18 73 19 69 20 72 21 70 22 71 23
REMARK SMILES IDX 8 24 9 25 10 26 11 27 12 29 13 30 14 31 60 32 15 33 59 34
REMARK SMILES IDX 16 35 17 36 18 37 53 38 19 39 58 40 52 41 54 42 20 43 57 44
REMARK SMILES IDX 51 45 50 46 21 48 43 49 28 50 42 51 29 52 32 53 41 54 55 55
REMARK SMILES IDX 30 56 31 57 40 59 56 60 33 61 22 62 23 63 27 64 24 65 26 66
REMARK SMILES IDX 25 67 44 68 45 69 49 70 46 71 48 72 47 73 34 74 35 75 39 76
REMARK SMILES IDX 36 77 38 78 37 79
REMARK H PARENT 6 5 10 28 54 47 32 58
REMARK Flexibility Score: inf
ROOT
ATOM      1  C   UNL A   1      35.883  20.500  25.019  1.00  0.00     0.117 C 
ENDROOT
BRANCH   1   2
ATOM      2  N   UNL A   1      34.673  19.697  25.031  1.00  0.00    -0.356 N 
ATOM      3  C   UNL A   1      33.379  20.057  25.253  1.00  0.00     0.222 C 
ATOM      4  O   UNL A   1      32.547  19.160  25.407  1.00  0.00    -0.275 OA
ATOM      5  H   UNL A   1      34.811  18.739  24.849  1.00  0.00     0.163 HD
BRANCH   3   6
ATOM      6  C   UNL A   1      32.956  21.513  25.261  1.00  0.00     0.125 C 
BRANCH   6   7
ATOM      7  C   UNL A   1      32.670  22.169  26.631  1.00  0.00     0.101 C 
ATOM      8  C   UNL A   1      33.830  22.104  27.626  1.00  0.00     0.032 C 
BRANCH   7   9
ATOM      9  N   UNL A   1      32.078  23.510  26.450  1.00  0.00    -0.265 N 
ATOM     10  C   UNL A   1      30.775  23.756  26.819  1.00  0.00     0.293 C 
ATOM     11  C   UNL A   1      32.719  24.553  25.835  1.00  0.00     0.268 C 
ATOM     12  O   UNL A   1      30.029  23.001  27.422  1.00  0.00    -0.261 OA
ATOM     13  S   UNL A   1      30.258  25.341  26.246  1.00  0.00    -0.022 SA
ATOM     14  C   UNL A   1      31.743  25.602  25.444  1.00  0.00     0.083 C 
ATOM     15  O   UNL A   1      33.916  24.645  25.609  1.00  0.00    -0.268 OA
ATOM     16  C   UNL A   1      32.073  26.504  24.514  1.00  0.00     0.029 C 
BRANCH  16  17
ATOM     17  C   UNL A   1      31.296  27.619  23.977  1.00  0.00    -0.024 A 
ATOM     18  C   UNL A   1      31.418  28.906  24.515  1.00  0.00     0.009 A 
ATOM     19  C   UNL A   1      30.279  27.343  23.058  1.00  0.00     0.009 A 
ATOM     20  C   UNL A   1      30.500  29.901  24.161  1.00  0.00     0.021 A 
ATOM     21  C   UNL A   1      29.358  28.333  22.714  1.00  0.00     0.021 A 
ATOM     22  C   UNL A   1      29.463  29.603  23.278  1.00  0.00     0.041 A 
ATOM     23  Cl  UNL A   1      28.279  30.795  22.911  1.00  0.00    -0.084 Cl
ENDBRANCH  16  17
ENDBRANCH   7   9
ENDBRANCH   6   7
ENDBRANCH   3   6
ENDBRANCH   1   2
BRANCH   1  24
ATOM     24  C   UNL A   1      37.119  19.602  24.959  1.00  0.00     0.042 C 
BRANCH  24  25
ATOM     25  C   UNL A   1      38.440  20.344  25.099  1.00  0.00     0.118 C 
BRANCH  25  26
ATOM     26  N   UNL A   1      39.515  19.449  25.506  1.00  0.00    -0.352 N 
ATOM     27  C   UNL A   1      40.787  19.652  25.989  1.00  0.00     0.251 C 
ATOM     28  H   UNL A   1      39.283  18.497  25.414  1.00  0.00     0.163 HD
ATOM     29  O   UNL A   1      41.551  18.685  25.959  1.00  0.00    -0.269 OA
BRANCH  27  30
ATOM     30  C   UNL A   1      41.295  20.947  26.526  1.00  0.00     0.039 A 
ATOM     31  C   UNL A   1      41.231  21.152  27.915  1.00  0.00     0.014 A 
ATOM     32  C   UNL A   1      41.720  22.010  25.730  1.00  0.00     0.014 A 
ATOM     33  C   UNL A   1      41.600  22.380  28.487  1.00  0.00     0.010 A 
ATOM     34  C   UNL A   1      42.183  23.200  26.306  1.00  0.00     0.010 A 
ATOM     35  C   UNL A   1      42.107  23.415  27.689  1.00  0.00    -0.014 A 
BRANCH  35  36
ATOM     36  C   UNL A   1      42.523  24.730  28.258  1.00  0.00     0.031 A 
ATOM     37  C   UNL A   1      41.506  25.824  28.485  1.00  0.00     0.074 A 
ATOM     38  C   UNL A   1      43.824  24.982  28.509  1.00  0.00     0.049 A 
ATOM     39  N   UNL A   1      41.693  27.073  28.837  1.00  0.00    -0.248 NA
ATOM     40  C   UNL A   1      40.094  25.476  28.258  1.00  0.00     0.031 C 
ATOM     41  C   UNL A   1      44.925  24.038  28.319  1.00  0.00     0.029 A 
ATOM     42  N   UNL A   1      44.440  26.123  28.967  1.00  0.00    -0.354 N 
ATOM     43  C   UNL A   1      40.434  27.666  28.826  1.00  0.00     0.074 A 
ATOM     44  C   UNL A   1      39.496  26.649  28.400  1.00  0.00     0.031 C 
ATOM     45  C   UNL A   1      46.077  24.627  28.679  1.00  0.00     0.029 A 
ATOM     46  C   UNL A   1      45.806  26.004  29.077  1.00  0.00     0.049 A 
ATOM     47  H   UNL A   1      43.950  26.946  29.195  1.00  0.00     0.167 HD
ATOM     48  C   UNL A   1      40.081  28.933  29.156  1.00  0.00     0.031 A 
ATOM     49  C   UNL A   1      46.739  26.904  29.441  1.00  0.00     0.031 A 
ATOM     50  C   UNL A   1      40.998  29.938  29.623  1.00  0.00     0.049 A 
ATOM     51  C   UNL A   1      46.325  28.301  29.809  1.00  0.00     0.074 A 
ATOM     52  C   UNL A   1      40.722  31.228  30.045  1.00  0.00     0.029 A 
ATOM     53  N   UNL A   1      42.368  29.765  29.739  1.00  0.00    -0.354 N 
ATOM     54  N   UNL A   1      45.126  28.829  29.831  1.00  0.00    -0.248 NA
ATOM     55  C   UNL A   1      47.397  29.225  30.209  1.00  0.00     0.031 C 
ATOM     56  C   UNL A   1      41.931  31.849  30.377  1.00  0.00     0.029 A 
ATOM     57  C   UNL A   1      42.953  30.929  30.210  1.00  0.00     0.049 A 
ATOM     58  H   UNL A   1      42.853  28.937  29.519  1.00  0.00     0.167 HD
ATOM     59  C   UNL A   1      45.296  30.135  30.272  1.00  0.00     0.074 A 
ATOM     60  C   UNL A   1      46.711  30.316  30.519  1.00  0.00     0.031 C 
ATOM     61  C   UNL A   1      44.360  31.097  30.456  1.00  0.00     0.031 A 
BRANCH  48  62
ATOM     62  C   UNL A   1      38.630  29.309  29.018  1.00  0.00    -0.014 A 
ATOM     63  C   UNL A   1      38.113  29.791  27.806  1.00  0.00     0.009 A 
ATOM     64  C   UNL A   1      37.759  29.142  30.107  1.00  0.00     0.009 A 
ATOM     65  C   UNL A   1      36.764  30.137  27.699  1.00  0.00     0.001 A 
ATOM     66  C   UNL A   1      36.405  29.459  29.989  1.00  0.00     0.001 A 
ATOM     67  C   UNL A   1      35.910  29.968  28.789  1.00  0.00     0.000 A 
ENDBRANCH  48  62
BRANCH  49  68
ATOM     68  C   UNL A   1      48.171  26.508  29.487  1.00  0.00    -0.014 A 
ATOM     69  C   UNL A   1      48.989  26.675  28.358  1.00  0.00     0.009 A 
ATOM     70  C   UNL A   1      48.727  25.958  30.653  1.00  0.00     0.009 A 
ATOM     71  C   UNL A   1      50.328  26.278  28.389  1.00  0.00     0.001 A 
ATOM     72  C   UNL A   1      50.073  25.588  30.688  1.00  0.00     0.001 A 
ATOM     73  C   UNL A   1      50.870  25.741  29.555  1.00  0.00     0.000 A 
ENDBRANCH  49  68
BRANCH  61  74
ATOM     74  C   UNL A   1      44.829  32.423  30.986  1.00  0.00    -0.014 A 
ATOM     75  C   UNL A   1      45.198  33.464  30.121  1.00  0.00     0.009 A 
ATOM     76  C   UNL A   1      44.863  32.642  32.372  1.00  0.00     0.009 A 
ATOM     77  C   UNL A   1      45.620  34.692  30.637  1.00  0.00     0.001 A 
ATOM     78  C   UNL A   1      45.261  33.879  32.883  1.00  0.00     0.001 A 
ATOM     79  C   UNL A   1      45.647  34.899  32.016  1.00  0.00     0.000 A 
ENDBRANCH  61  74
ENDBRANCH  35  36
ENDBRANCH  27  30
ENDBRANCH  25  26
ENDBRANCH  24  25
ENDBRANCH   1  24
TORSDOF 13
ENDMDL
MODEL 3
REMARK VINA RESULT:     -11.6      3.105      7.891
REMARK SMILES C[C@H](CC(=O)NCCCNC(=O)c1ccc(-c2c3nc(c(-c4ccccc4)c4ccc([nH]4)c(-c4ccccc4)c4nc(c(-c5ccccc5)c5ccc2[nH]5)C=C4)C=C3)cc1)N1C(=O)S/C(=C\c2ccc(Cl)cc2)C1=O
REMARK SMILES IDX 7 1 6 2 4 3 5 4 3 6 2 7 1 8 61 9 62 10 74 11 63 12 64 13
REMARK SMILES IDX 65 14 75 15 66 16 67 17 68 18 73 19 69 20 72 21 70 22 71 23
REMARK SMILES IDX 8 24 9 25 10 26 11 27 12 29 13 30 14 31 60 32 15 33 59 34
REMARK SMILES IDX 16 35 17 36 18 37 53 38 19 39 58 40 52 41 54 42 20 43 57 44
REMARK SMILES IDX 51 45 50 46 21 48 43 49 28 50 42 51 29 52 32 53 41 54 55 55
REMARK SMILES IDX 30 56 31 57 40 59 56 60 33 61 22 62 23 63 27 64 24 65 26 66
REMARK SMILES IDX 25 67 44 68 45 69 49 70 46 71 48 72 47 73 34 74 35 75 39 76
REMARK SMILES IDX 36 77 38 78 37 79
REMARK H PARENT 6 5 10 28 54 47 32 58
REMARK Flexibility Score: inf
ROOT
ATOM      1  C   UNL A   1      34.767  24.632  24.883  1.00  0.00     0.117 C 
ENDROOT
BRANCH   1   2
ATOM      2  N   UNL A   1      34.408  25.671  25.831  1.00  0.00    -0.356 N 
ATOM      3  C   UNL A   1      33.610  26.764  25.681  1.00  0.00     0.222 C 
ATOM      4  O   UNL A   1      33.615  27.613  26.575  1.00  0.00    -0.275 OA
ATOM      5  H   UNL A   1      34.805  25.570  26.727  1.00  0.00     0.163 HD
BRANCH   3   6
ATOM      6  C   UNL A   1      32.701  26.916  24.476  1.00  0.00     0.125 C 
BRANCH   6   7
ATOM      7  C   UNL A   1      31.228  26.473  24.629  1.00  0.00     0.101 C 
ATOM      8  C   UNL A   1      30.252  27.160  23.671  1.00  0.00     0.032 C 
BRANCH   7   9
ATOM      9  N   UNL A   1      31.132  25.000  24.667  1.00  0.00    -0.265 N 
ATOM     10  C   UNL A   1      30.713  24.355  25.809  1.00  0.00     0.293 C 
ATOM     11  C   UNL A   1      31.527  24.180  23.643  1.00  0.00     0.268 C 
ATOM     12  O   UNL A   1      30.271  24.872  26.822  1.00  0.00    -0.261 OA
ATOM     13  S   UNL A   1      30.952  22.615  25.660  1.00  0.00    -0.022 SA
ATOM     14  C   UNL A   1      31.693  22.787  24.131  1.00  0.00     0.083 C 
ATOM     15  O   UNL A   1      31.736  24.505  22.485  1.00  0.00    -0.268 OA
ATOM     16  C   UNL A   1      32.423  21.917  23.425  1.00  0.00     0.029 C 
BRANCH  16  17
ATOM     17  C   UNL A   1      32.721  20.512  23.694  1.00  0.00    -0.024 A 
ATOM     18  C   UNL A   1      33.752  20.151  24.570  1.00  0.00     0.009 A 
ATOM     19  C   UNL A   1      32.101  19.535  22.909  1.00  0.00     0.009 A 
ATOM     20  C   UNL A   1      34.184  18.821  24.629  1.00  0.00     0.021 A 
ATOM     21  C   UNL A   1      32.540  18.212  22.961  1.00  0.00     0.021 A 
ATOM     22  C   UNL A   1      33.589  17.863  23.810  1.00  0.00     0.041 A 
ATOM     23  Cl  UNL A   1      34.178  16.247  23.810  1.00  0.00    -0.084 Cl
ENDBRANCH  16  17
ENDBRANCH   7   9
ENDBRANCH   6   7
ENDBRANCH   3   6
ENDBRANCH   1   2
BRANCH   1  24
ATOM     24  C   UNL A   1      35.816  23.697  25.487  1.00  0.00     0.042 C 
BRANCH  24  25
ATOM     25  C   UNL A   1      37.056  23.509  24.628  1.00  0.00     0.118 C 
BRANCH  25  26
ATOM     26  N   UNL A   1      38.035  22.651  25.283  1.00  0.00    -0.352 N 
ATOM     27  C   UNL A   1      39.117  22.894  26.096  1.00  0.00     0.251 C 
ATOM     28  H   UNL A   1      37.892  21.693  25.103  1.00  0.00     0.163 HD
ATOM     29  O   UNL A   1      39.917  21.968  26.244  1.00  0.00    -0.269 OA
BRANCH  27  30
ATOM     30  C   UNL A   1      39.385  24.188  26.787  1.00  0.00     0.039 A 
ATOM     31  C   UNL A   1      40.100  25.172  26.082  1.00  0.00     0.014 A 
ATOM     32  C   UNL A   1      39.076  24.440  28.123  1.00  0.00     0.014 A 
ATOM     33  C   UNL A   1      40.475  26.378  26.696  1.00  0.00     0.010 A 
ATOM     34  C   UNL A   1      39.360  25.681  28.706  1.00  0.00     0.010 A 
ATOM     35  C   UNL A   1      40.086  26.660  28.012  1.00  0.00    -0.014 A 
BRANCH  35  36
ATOM     36  C   UNL A   1      40.452  27.935  28.696  1.00  0.00     0.031 A 
ATOM     37  C   UNL A   1      41.812  28.100  29.334  1.00  0.00     0.074 A 
ATOM     38  C   UNL A   1      39.547  28.927  28.815  1.00  0.00     0.049 A 
ATOM     39  N   UNL A   1      42.263  29.071  30.090  1.00  0.00    -0.248 NA
ATOM     40  C   UNL A   1      42.783  27.015  29.119  1.00  0.00     0.031 C 
ATOM     41  C   UNL A   1      38.188  28.908  28.275  1.00  0.00     0.029 A 
ATOM     42  N   UNL A   1      39.636  30.145  29.448  1.00  0.00    -0.354 N 
ATOM     43  C   UNL A   1      43.546  28.692  30.475  1.00  0.00     0.074 A 
ATOM     44  C   UNL A   1      43.787  27.387  29.898  1.00  0.00     0.031 C 
ATOM     45  C   UNL A   1      37.578  30.066  28.577  1.00  0.00     0.029 A 
ATOM     46  C   UNL A   1      38.482  30.889  29.374  1.00  0.00     0.049 A 
ATOM     47  H   UNL A   1      40.448  30.455  29.909  1.00  0.00     0.167 HD
ATOM     48  C   UNL A   1      44.450  29.370  31.224  1.00  0.00     0.031 A 
ATOM     49  C   UNL A   1      38.175  32.090  29.899  1.00  0.00     0.031 A 
ATOM     50  C   UNL A   1      44.237  30.686  31.765  1.00  0.00     0.049 A 
ATOM     51  C   UNL A   1      39.196  32.827  30.721  1.00  0.00     0.074 A 
ATOM     52  C   UNL A   1      45.121  31.478  32.479  1.00  0.00     0.029 A 
ATOM     53  N   UNL A   1      43.061  31.408  31.645  1.00  0.00    -0.354 N 
ATOM     54  N   UNL A   1      40.416  32.469  31.038  1.00  0.00    -0.248 NA
ATOM     55  C   UNL A   1      38.796  34.140  31.250  1.00  0.00     0.031 C 
ATOM     56  C   UNL A   1      44.465  32.665  32.826  1.00  0.00     0.029 A 
ATOM     57  C   UNL A   1      43.190  32.630  32.285  1.00  0.00     0.049 A 
ATOM     58  H   UNL A   1      42.254  31.098  31.174  1.00  0.00     0.167 HD
ATOM     59  C   UNL A   1      40.937  33.521  31.781  1.00  0.00     0.074 A 
ATOM     60  C   UNL A   1      39.908  34.536  31.855  1.00  0.00     0.031 C 
ATOM     61  C   UNL A   1      42.161  33.634  32.349  1.00  0.00     0.031 A 
BRANCH  48  62
ATOM     62  C   UNL A   1      45.763  28.693  31.510  1.00  0.00    -0.014 A 
ATOM     63  C   UNL A   1      45.931  27.869  32.634  1.00  0.00     0.009 A 
ATOM     64  C   UNL A   1      46.838  28.850  30.619  1.00  0.00     0.009 A 
ATOM     65  C   UNL A   1      47.159  27.251  32.883  1.00  0.00     0.001 A 
ATOM     66  C   UNL A   1      48.055  28.207  30.854  1.00  0.00     0.001 A 
ATOM     67  C   UNL A   1      48.219  27.418  31.991  1.00  0.00     0.000 A 
ENDBRANCH  48  62
BRANCH  49  68
ATOM     68  C   UNL A   1      36.835  32.685  29.654  1.00  0.00    -0.014 A 
ATOM     69  C   UNL A   1      35.808  32.529  30.599  1.00  0.00     0.009 A 
ATOM     70  C   UNL A   1      36.573  33.406  28.479  1.00  0.00     0.009 A 
ATOM     71  C   UNL A   1      34.540  33.064  30.360  1.00  0.00     0.001 A 
ATOM     72  C   UNL A   1      35.312  33.962  28.256  1.00  0.00     0.001 A 
ATOM     73  C   UNL A   1      34.295  33.784  29.192  1.00  0.00     0.000 A 
ENDBRANCH  49  68
BRANCH  61  74
ATOM     74  C   UNL A   1      42.472  34.915  33.069  1.00  0.00    -0.014 A 
ATOM     75  C   UNL A   1      43.198  35.943  32.449  1.00  0.00     0.009 A 
ATOM     76  C   UNL A   1      41.994  35.110  34.375  1.00  0.00     0.009 A 
ATOM     77  C   UNL A   1      43.464  37.130  33.134  1.00  0.00     0.001 A 
ATOM     78  C   UNL A   1      42.241  36.308  35.048  1.00  0.00     0.001 A 
ATOM     79  C   UNL A   1      42.982  37.313  34.430  1.00  0.00     0.000 A 
ENDBRANCH  61  74
ENDBRANCH  35  36
ENDBRANCH  27  30
ENDBRANCH  25  26
ENDBRANCH  24  25
ENDBRANCH   1  24
TORSDOF 13
ENDMDL
