MODEL 1
REMARK VINA RESULT:     -11.1      0.000      0.000
REMARK SMILES CC[C@@H](C)NC(=O)[C@H](C)[NH+]1CC(n2cc(C(=O)NCCCNC(=O)c3ccc(-c4c5nc(c(-c6ccccc6)c6ccc([nH]6)c(-c6ccccc6)c6nc(c(-c7ccccc7)c7ccc4[nH]7)C=C6)C=C5)cc3)nn2)C1
REMARK SMILES IDX 16 1 17 2 18 3 15 5 13 6 14 7 74 8 73 9 12 10 10 11 11 12
REMARK SMILES IDX 75 13 8 15 9 16 6 17 5 18 7 20 3 21 4 22 2 23 1 24 19 25
REMARK SMILES IDX 20 26 21 27 22 28 23 29 24 31 25 32 26 33 72 34 27 35 71 36
REMARK SMILES IDX 28 37 29 38 30 39 65 40 31 41 70 42 64 43 66 44 32 45 69 46
REMARK SMILES IDX 63 47 62 48 33 50 55 51 40 52 54 53 41 54 44 55 53 56 67 57
REMARK SMILES IDX 42 58 43 59 52 61 68 62 45 63 34 64 35 65 39 66 36 67 38 68
REMARK SMILES IDX 37 69 56 70 57 71 61 72 58 73 60 74 59 75 46 76 47 77 51 78
REMARK SMILES IDX 48 79 50 80 49 81
REMARK H PARENT 18 4 10 14 5 19 22 30 66 49 44 60
REMARK Flexibility Score: inf
ROOT
ATOM      1  C   UNL A   1      32.093  28.871  23.796  1.00  0.00     0.273 C 
ATOM      2  O   UNL A   1      32.027  29.323  22.654  1.00  0.00    -0.267 OA
ATOM      3  N   UNL A   1      32.656  29.681  24.757  1.00  0.00    -0.351 N 
ATOM      4  H   UNL A   1      33.063  30.509  24.413  1.00  0.00     0.163 HD
ENDROOT
BRANCH   1   5
ATOM      5  C   UNL A   1      31.573  27.555  24.145  1.00  0.00     0.170 A 
ATOM      6  N   UNL A   1      31.226  25.511  24.788  1.00  0.00    -0.237 N 
ATOM      7  C   UNL A   1      32.224  26.364  24.411  1.00  0.00     0.145 A 
ATOM      8  N   UNL A   1      30.025  26.090  24.663  1.00  0.00    -0.066 NA
ATOM      9  N   UNL A   1      30.219  27.333  24.248  1.00  0.00    -0.125 NA
BRANCH   6  10
ATOM     10  C   UNL A   1      31.448  24.185  25.275  1.00  0.00     0.218 C 
ATOM     11  N   UNL A   1      32.751  22.559  25.085  1.00  0.00    -0.321 N 
ATOM     12  C   UNL A   1      32.885  23.888  25.742  1.00  0.00     0.296 C 
ATOM     13  C   UNL A   1      31.795  23.194  24.134  1.00  0.00     0.296 C 
ATOM     14  H   UNL A   1      32.509  21.728  25.625  1.00  0.00     0.348 HD
BRANCH  11  15
ATOM     15  C   UNL A   1      33.985  22.007  24.456  1.00  0.00     0.271 C 
ATOM     16  C   UNL A   1      34.936  22.956  23.721  1.00  0.00     0.086 C 
BRANCH  15  17
ATOM     17  C   UNL A   1      34.832  21.096  25.378  1.00  0.00     0.278 C 
ATOM     18  N   UNL A   1      34.664  19.745  25.376  1.00  0.00    -0.349 N 
ATOM     19  H   UNL A   1      35.193  19.271  26.058  1.00  0.00     0.163 HD
ATOM     20  O   UNL A   1      35.743  21.515  26.096  1.00  0.00    -0.268 OA
BRANCH  18  21
ATOM     21  C   UNL A   1      33.843  18.870  24.544  1.00  0.00     0.078 C 
ATOM     22  C   UNL A   1      32.528  18.607  25.271  1.00  0.00     0.031 C 
BRANCH  21  23
ATOM     23  C   UNL A   1      34.633  17.585  24.250  1.00  0.00     0.021 C 
ATOM     24  C   UNL A   1      34.028  16.737  23.143  1.00  0.00     0.006 C 
ENDBRANCH  21  23
ENDBRANCH  18  21
ENDBRANCH  15  17
ENDBRANCH  11  15
ENDBRANCH   6  10
ENDBRANCH   1   5
BRANCH   3  25
ATOM     25  C   UNL A   1      32.746  29.510  26.196  1.00  0.00     0.118 C 
BRANCH  25  26
ATOM     26  C   UNL A   1      33.012  30.834  26.919  1.00  0.00     0.042 C 
BRANCH  26  27
ATOM     27  C   UNL A   1      34.385  30.861  27.568  1.00  0.00     0.118 C 
BRANCH  27  28
ATOM     28  N   UNL A   1      34.425  31.729  28.749  1.00  0.00    -0.352 N 
ATOM     29  C   UNL A   1      35.311  31.710  29.811  1.00  0.00     0.251 C 
ATOM     30  H   UNL A   1      33.725  32.420  28.791  1.00  0.00     0.163 HD
ATOM     31  O   UNL A   1      35.040  32.260  30.863  1.00  0.00    -0.269 OA
BRANCH  29  32
ATOM     32  C   UNL A   1      36.594  31.008  29.642  1.00  0.00     0.039 A 
ATOM     33  C   UNL A   1      37.789  31.705  29.438  1.00  0.00     0.014 A 
ATOM     34  C   UNL A   1      36.583  29.622  29.735  1.00  0.00     0.014 A 
ATOM     35  C   UNL A   1      38.986  30.994  29.419  1.00  0.00     0.010 A 
ATOM     36  C   UNL A   1      37.762  28.952  29.904  1.00  0.00     0.010 A 
ATOM     37  C   UNL A   1      38.963  29.617  29.675  1.00  0.00    -0.014 A 
BRANCH  37  38
ATOM     38  C   UNL A   1      40.187  28.842  29.830  1.00  0.00     0.031 A 
ATOM     39  C   UNL A   1      40.642  28.662  31.236  1.00  0.00     0.074 A 
ATOM     40  C   UNL A   1      40.686  28.114  28.805  1.00  0.00     0.049 A 
ATOM     41  N   UNL A   1      41.771  29.021  31.746  1.00  0.00    -0.248 NA
ATOM     42  C   UNL A   1      39.689  28.123  32.225  1.00  0.00     0.031 C 
ATOM     43  C   UNL A   1      40.137  27.972  27.449  1.00  0.00     0.029 A 
ATOM     44  N   UNL A   1      41.691  27.200  28.810  1.00  0.00    -0.354 N 
ATOM     45  C   UNL A   1      41.758  28.584  33.068  1.00  0.00     0.074 A 
ATOM     46  C   UNL A   1      40.399  28.202  33.353  1.00  0.00     0.031 C 
ATOM     47  C   UNL A   1      40.624  26.849  26.880  1.00  0.00     0.029 A 
ATOM     48  C   UNL A   1      41.635  26.289  27.757  1.00  0.00     0.049 A 
ATOM     49  H   UNL A   1      42.396  27.182  29.496  1.00  0.00     0.167 HD
ATOM     50  C   UNL A   1      42.915  28.337  33.744  1.00  0.00     0.031 A 
ATOM     51  C   UNL A   1      42.329  25.129  27.643  1.00  0.00     0.031 A 
ATOM     52  C   UNL A   1      44.057  28.880  33.053  1.00  0.00     0.049 A 
ATOM     53  C   UNL A   1      43.479  25.215  28.574  1.00  0.00     0.074 A 
ATOM     54  C   UNL A   1      44.428  30.144  32.640  1.00  0.00     0.029 A 
ATOM     55  N   UNL A   1      44.819  28.000  32.319  1.00  0.00    -0.354 N 
ATOM     56  N   UNL A   1      44.464  26.052  28.410  1.00  0.00    -0.248 NA
ATOM     57  C   UNL A   1      43.298  24.725  29.933  1.00  0.00     0.031 C 
ATOM     58  C   UNL A   1      45.005  29.947  31.351  1.00  0.00     0.029 A 
ATOM     59  C   UNL A   1      45.039  28.575  31.095  1.00  0.00     0.049 A 
ATOM     60  H   UNL A   1      45.146  27.121  32.618  1.00  0.00     0.167 HD
ATOM     61  C   UNL A   1      44.712  26.550  29.681  1.00  0.00     0.074 A 
ATOM     62  C   UNL A   1      44.045  25.617  30.591  1.00  0.00     0.031 C 
ATOM     63  C   UNL A   1      45.163  27.827  29.862  1.00  0.00     0.031 A 
BRANCH  50  64
ATOM     64  C   UNL A   1      43.070  27.259  34.788  1.00  0.00    -0.014 A 
ATOM     65  C   UNL A   1      43.041  25.915  34.374  1.00  0.00     0.009 A 
ATOM     66  C   UNL A   1      42.948  27.500  36.169  1.00  0.00     0.009 A 
ATOM     67  C   UNL A   1      42.811  24.877  35.286  1.00  0.00     0.001 A 
ATOM     68  C   UNL A   1      42.761  26.462  37.087  1.00  0.00     0.001 A 
ATOM     69  C   UNL A   1      42.661  25.152  36.640  1.00  0.00     0.000 A 
ENDBRANCH  50  64
BRANCH  51  70
ATOM     70  C   UNL A   1      41.932  23.867  26.977  1.00  0.00    -0.014 A 
ATOM     71  C   UNL A   1      42.832  23.176  26.147  1.00  0.00     0.009 A 
ATOM     72  C   UNL A   1      40.754  23.196  27.354  1.00  0.00     0.009 A 
ATOM     73  C   UNL A   1      42.581  21.854  25.751  1.00  0.00     0.001 A 
ATOM     74  C   UNL A   1      40.499  21.879  26.952  1.00  0.00     0.001 A 
ATOM     75  C   UNL A   1      41.422  21.202  26.165  1.00  0.00     0.000 A 
ENDBRANCH  51  70
BRANCH  63  76
ATOM     76  C   UNL A   1      45.578  28.620  28.643  1.00  0.00    -0.014 A 
ATOM     77  C   UNL A   1      46.884  28.602  28.121  1.00  0.00     0.009 A 
ATOM     78  C   UNL A   1      44.578  29.260  27.899  1.00  0.00     0.009 A 
ATOM     79  C   UNL A   1      47.182  29.230  26.907  1.00  0.00     0.001 A 
ATOM     80  C   UNL A   1      44.870  29.867  26.676  1.00  0.00     0.001 A 
ATOM     81  C   UNL A   1      46.173  29.857  26.182  1.00  0.00     0.000 A 
ENDBRANCH  63  76
ENDBRANCH  37  38
ENDBRANCH  29  32
ENDBRANCH  27  28
ENDBRANCH  26  27
ENDBRANCH  25  26
ENDBRANCH   3  25
TORSDOF 15
ENDMDL
MODEL 2
REMARK VINA RESULT:     -10.9      5.149     10.101
REMARK SMILES CC[C@@H](C)NC(=O)[C@H](C)[NH+]1CC(n2cc(C(=O)NCCCNC(=O)c3ccc(-c4c5nc(c(-c6ccccc6)c6ccc([nH]6)c(-c6ccccc6)c6nc(c(-c7ccccc7)c7ccc4[nH]7)C=C6)C=C5)cc3)nn2)C1
REMARK SMILES IDX 16 1 17 2 18 3 15 5 13 6 14 7 74 8 73 9 12 10 10 11 11 12
REMARK SMILES IDX 75 13 8 15 9 16 6 17 5 18 7 20 3 21 4 22 2 23 1 24 19 25
REMARK SMILES IDX 20 26 21 27 22 28 23 29 24 31 25 32 26 33 72 34 27 35 71 36
REMARK SMILES IDX 28 37 29 38 30 39 65 40 31 41 70 42 64 43 66 44 32 45 69 46
REMARK SMILES IDX 63 47 62 48 33 50 55 51 40 52 54 53 41 54 44 55 53 56 67 57
REMARK SMILES IDX 42 58 43 59 52 61 68 62 45 63 34 64 35 65 39 66 36 67 38 68
REMARK SMILES IDX 37 69 56 70 57 71 61 72 58 73 60 74 59 75 46 76 47 77 51 78
REMARK SMILES IDX 48 79 50 80 49 81
REMARK H PARENT 18 4 10 14 5 19 22 30 66 49 44 60
REMARK Flexibility Score: inf
ROOT
ATOM      1  C   UNL A   1      46.614  28.206  25.996  1.00  0.00     0.273 C 
ATOM      2  O   UNL A   1      47.259  28.879  25.193  1.00  0.00    -0.267 OA
ATOM      3  N   UNL A   1      47.190  27.980  27.227  1.00  0.00    -0.351 N 
ATOM      4  H   UNL A   1      48.123  28.282  27.308  1.00  0.00     0.163 HD
ENDROOT
BRANCH   1   5
ATOM      5  C   UNL A   1      45.284  27.694  25.693  1.00  0.00     0.170 A 
ATOM      6  N   UNL A   1      43.507  26.527  25.254  1.00  0.00    -0.237 N 
ATOM      7  C   UNL A   1      44.870  26.453  25.245  1.00  0.00     0.145 A 
ATOM      8  N   UNL A   1      43.094  27.759  25.579  1.00  0.00    -0.066 NA
ATOM      9  N   UNL A   1      44.169  28.491  25.827  1.00  0.00    -0.125 NA
BRANCH   6  10
ATOM     10  C   UNL A   1      42.643  25.421  24.977  1.00  0.00     0.218 C 
ATOM     11  N   UNL A   1      42.236  23.460  25.581  1.00  0.00    -0.321 N 
ATOM     12  C   UNL A   1      41.976  24.784  26.210  1.00  0.00     0.296 C 
ATOM     13  C   UNL A   1      43.416  24.079  24.911  1.00  0.00     0.296 C 
ATOM     14  H   UNL A   1      41.507  22.974  25.058  1.00  0.00     0.348 HD
BRANCH  11  15
ATOM     15  C   UNL A   1      42.561  22.341  26.511  1.00  0.00     0.271 C 
ATOM     16  C   UNL A   1      42.160  22.455  27.984  1.00  0.00     0.086 C 
BRANCH  15  17
ATOM     17  C   UNL A   1      42.148  20.936  26.007  1.00  0.00     0.278 C 
ATOM     18  N   UNL A   1      43.058  20.101  25.434  1.00  0.00    -0.349 N 
ATOM     19  H   UNL A   1      42.672  19.269  25.075  1.00  0.00     0.163 HD
ATOM     20  O   UNL A   1      41.018  20.465  26.159  1.00  0.00    -0.268 OA
BRANCH  18  21
ATOM     21  C   UNL A   1      44.502  20.213  25.256  1.00  0.00     0.078 C 
ATOM     22  C   UNL A   1      44.773  20.959  23.954  1.00  0.00     0.031 C 
BRANCH  21  23
ATOM     23  C   UNL A   1      45.112  18.802  25.278  1.00  0.00     0.021 C 
ATOM     24  C   UNL A   1      46.589  18.783  25.638  1.00  0.00     0.006 C 
ENDBRANCH  21  23
ENDBRANCH  18  21
ENDBRANCH  15  17
ENDBRANCH  11  15
ENDBRANCH   6  10
ENDBRANCH   1   5
BRANCH   3  25
ATOM     25  C   UNL A   1      46.641  27.367  28.423  1.00  0.00     0.118 C 
BRANCH  25  26
ATOM     26  C   UNL A   1      46.973  25.874  28.510  1.00  0.00     0.042 C 
BRANCH  26  27
ATOM     27  C   UNL A   1      45.780  25.005  28.149  1.00  0.00     0.118 C 
BRANCH  27  28
ATOM     28  N   UNL A   1      45.230  24.304  29.313  1.00  0.00    -0.352 N 
ATOM     29  C   UNL A   1      44.481  24.813  30.360  1.00  0.00     0.251 C 
ATOM     30  H   UNL A   1      45.419  23.339  29.356  1.00  0.00     0.163 HD
ATOM     31  O   UNL A   1      44.370  24.201  31.406  1.00  0.00    -0.269 OA
BRANCH  29  32
ATOM     32  C   UNL A   1      43.820  26.117  30.180  1.00  0.00     0.039 A 
ATOM     33  C   UNL A   1      42.901  26.334  29.149  1.00  0.00     0.014 A 
ATOM     34  C   UNL A   1      44.110  27.115  31.101  1.00  0.00     0.014 A 
ATOM     35  C   UNL A   1      42.209  27.542  29.110  1.00  0.00     0.010 A 
ATOM     36  C   UNL A   1      43.303  28.215  31.174  1.00  0.00     0.010 A 
ATOM     37  C   UNL A   1      42.402  28.469  30.143  1.00  0.00    -0.014 A 
BRANCH  37  38
ATOM     38  C   UNL A   1      41.597  29.678  30.253  1.00  0.00     0.031 A 
ATOM     39  C   UNL A   1      42.323  30.945  29.959  1.00  0.00     0.074 A 
ATOM     40  C   UNL A   1      40.248  29.614  30.327  1.00  0.00     0.049 A 
ATOM     41  N   UNL A   1      42.481  31.957  30.743  1.00  0.00    -0.248 NA
ATOM     42  C   UNL A   1      43.061  31.059  28.687  1.00  0.00     0.031 C 
ATOM     43  C   UNL A   1      39.400  28.413  30.311  1.00  0.00     0.029 A 
ATOM     44  N   UNL A   1      39.335  30.616  30.249  1.00  0.00    -0.354 N 
ATOM     45  C   UNL A   1      43.169  32.917  30.005  1.00  0.00     0.074 A 
ATOM     46  C   UNL A   1      43.649  32.249  28.822  1.00  0.00     0.031 C 
ATOM     47  C   UNL A   1      38.146  28.752  29.945  1.00  0.00     0.029 A 
ATOM     48  C   UNL A   1      38.063  30.198  29.864  1.00  0.00     0.049 A 
ATOM     49  H   UNL A   1      39.552  31.556  30.446  1.00  0.00     0.167 HD
ATOM     50  C   UNL A   1      43.075  34.243  30.305  1.00  0.00     0.031 A 
ATOM     51  C   UNL A   1      37.034  30.981  29.456  1.00  0.00     0.031 A 
ATOM     52  C   UNL A   1      42.482  34.450  31.602  1.00  0.00     0.049 A 
ATOM     53  C   UNL A   1      37.322  32.359  29.920  1.00  0.00     0.074 A 
ATOM     54  C   UNL A   1      42.802  34.058  32.888  1.00  0.00     0.029 A 
ATOM     55  N   UNL A   1      41.152  34.803  31.632  1.00  0.00    -0.354 N 
ATOM     56  N   UNL A   1      37.338  32.694  31.179  1.00  0.00    -0.248 NA
ATOM     57  C   UNL A   1      38.066  33.239  29.031  1.00  0.00     0.031 C 
ATOM     58  C   UNL A   1      41.552  33.717  33.482  1.00  0.00     0.029 A 
ATOM     59  C   UNL A   1      40.540  34.008  32.565  1.00  0.00     0.049 A 
ATOM     60  H   UNL A   1      40.721  35.498  31.085  1.00  0.00     0.167 HD
ATOM     61  C   UNL A   1      38.449  33.516  31.305  1.00  0.00     0.074 A 
ATOM     62  C   UNL A   1      38.790  33.906  29.936  1.00  0.00     0.031 C 
ATOM     63  C   UNL A   1      39.170  33.553  32.465  1.00  0.00     0.031 A 
BRANCH  50  64
ATOM     64  C   UNL A   1      43.120  35.347  29.279  1.00  0.00    -0.014 A 
ATOM     65  C   UNL A   1      42.002  35.535  28.445  1.00  0.00     0.009 A 
ATOM     66  C   UNL A   1      44.306  36.006  28.906  1.00  0.00     0.009 A 
ATOM     67  C   UNL A   1      42.096  36.267  27.255  1.00  0.00     0.001 A 
ATOM     68  C   UNL A   1      44.391  36.773  27.740  1.00  0.00     0.001 A 
ATOM     69  C   UNL A   1      43.294  36.877  26.899  1.00  0.00     0.000 A 
ENDBRANCH  50  64
BRANCH  51  70
ATOM     70  C   UNL A   1      35.955  30.672  28.489  1.00  0.00    -0.014 A 
ATOM     71  C   UNL A   1      35.825  29.385  27.939  1.00  0.00     0.009 A 
ATOM     72  C   UNL A   1      34.888  31.569  28.293  1.00  0.00     0.009 A 
ATOM     73  C   UNL A   1      34.658  29.001  27.263  1.00  0.00     0.001 A 
ATOM     74  C   UNL A   1      33.725  31.189  27.611  1.00  0.00     0.001 A 
ATOM     75  C   UNL A   1      33.603  29.899  27.111  1.00  0.00     0.000 A 
ENDBRANCH  51  70
BRANCH  63  76
ATOM     76  C   UNL A   1      38.619  32.832  33.674  1.00  0.00    -0.014 A 
ATOM     77  C   UNL A   1      38.856  31.469  33.933  1.00  0.00     0.009 A 
ATOM     78  C   UNL A   1      37.995  33.594  34.671  1.00  0.00     0.009 A 
ATOM     79  C   UNL A   1      38.453  30.885  35.138  1.00  0.00     0.001 A 
ATOM     80  C   UNL A   1      37.613  33.017  35.884  1.00  0.00     0.001 A 
ATOM     81  C   UNL A   1      37.836  31.662  36.116  1.00  0.00     0.000 A 
ENDBRANCH  63  76
ENDBRANCH  37  38
ENDBRANCH  29  32
ENDBRANCH  27  28
ENDBRANCH  26  27
ENDBRANCH  25  26
ENDBRANCH   3  25
TORSDOF 15
ENDMDL
MODEL 3
REMARK VINA RESULT:     -10.9      3.049      8.424
REMARK SMILES CC[C@@H](C)NC(=O)[C@H](C)[NH+]1CC(n2cc(C(=O)NCCCNC(=O)c3ccc(-c4c5nc(c(-c6ccccc6)c6ccc([nH]6)c(-c6ccccc6)c6nc(c(-c7ccccc7)c7ccc4[nH]7)C=C6)C=C5)cc3)nn2)C1
REMARK SMILES IDX 16 1 17 2 18 3 15 5 13 6 14 7 74 8 73 9 12 10 10 11 11 12
REMARK SMILES IDX 75 13 8 15 9 16 6 17 5 18 7 20 3 21 4 22 2 23 1 24 19 25
REMARK SMILES IDX 20 26 21 27 22 28 23 29 24 31 25 32 26 33 72 34 27 35 71 36
REMARK SMILES IDX 28 37 29 38 30 39 65 40 31 41 70 42 64 43 66 44 32 45 69 46
REMARK SMILES IDX 63 47 62 48 33 50 55 51 40 52 54 53 41 54 44 55 53 56 67 57
REMARK SMILES IDX 42 58 43 59 52 61 68 62 45 63 34 64 35 65 39 66 36 67 38 68
REMARK SMILES IDX 37 69 56 70 57 71 61 72 58 73 60 74 59 75 46 76 47 77 51 78
REMARK SMILES IDX 48 79 50 80 49 81
REMARK H PARENT 18 4 10 14 5 19 22 30 66 49 44 60
REMARK Flexibility Score: inf
ROOT
ATOM      1  C   UNL A   1      36.230  21.266  25.086  1.00  0.00     0.273 C 
ATOM      2  O   UNL A   1      36.489  20.067  24.988  1.00  0.00    -0.267 OA
ATOM      3  N   UNL A   1      37.018  22.007  25.938  1.00  0.00    -0.351 N 
ATOM      4  H   UNL A   1      37.647  21.481  26.482  1.00  0.00     0.163 HD
ENDROOT
BRANCH   1   5
ATOM      5  C   UNL A   1      35.165  21.899  24.319  1.00  0.00     0.170 A 
ATOM      6  N   UNL A   1      33.313  22.690  23.508  1.00  0.00    -0.237 N 
ATOM      7  C   UNL A   1      33.791  21.767  24.394  1.00  0.00     0.145 A 
ATOM      8  N   UNL A   1      34.315  23.284  22.845  1.00  0.00    -0.066 NA
ATOM      9  N   UNL A   1      35.452  22.793  23.312  1.00  0.00    -0.125 NA
BRANCH   6  10
ATOM     10  C   UNL A   1      31.927  22.995  23.339  1.00  0.00     0.218 C 
ATOM     11  N   UNL A   1      30.491  24.444  23.805  1.00  0.00    -0.321 N 
ATOM     12  C   UNL A   1      31.623  24.419  22.838  1.00  0.00     0.296 C 
ATOM     13  C   UNL A   1      31.275  23.499  24.652  1.00  0.00     0.296 C 
ATOM     14  H   UNL A   1      29.538  24.241  23.504  1.00  0.00     0.348 HD
BRANCH  11  15
ATOM     15  C   UNL A   1      30.198  25.759  24.443  1.00  0.00     0.271 C 
ATOM     16  C   UNL A   1      29.024  26.594  23.926  1.00  0.00     0.086 C 
BRANCH  15  17
ATOM     17  C   UNL A   1      30.124  25.730  25.989  1.00  0.00     0.278 C 
ATOM     18  N   UNL A   1      30.938  26.515  26.746  1.00  0.00    -0.349 N 
ATOM     19  H   UNL A   1      30.866  26.356  27.716  1.00  0.00     0.163 HD
ATOM     20  O   UNL A   1      29.292  25.070  26.617  1.00  0.00    -0.268 OA
BRANCH  18  21
ATOM     21  C   UNL A   1      31.898  27.553  26.383  1.00  0.00     0.078 C 
ATOM     22  C   UNL A   1      33.261  26.900  26.175  1.00  0.00     0.031 C 
BRANCH  21  23
ATOM     23  C   UNL A   1      31.909  28.623  27.486  1.00  0.00     0.021 C 
ATOM     24  C   UNL A   1      32.005  30.044  26.955  1.00  0.00     0.006 C 
ENDBRANCH  21  23
ENDBRANCH  18  21
ENDBRANCH  15  17
ENDBRANCH  11  15
ENDBRANCH   6  10
ENDBRANCH   1   5
BRANCH   3  25
ATOM     25  C   UNL A   1      37.070  23.441  26.162  1.00  0.00     0.118 C 
BRANCH  25  26
ATOM     26  C   UNL A   1      38.497  23.989  26.065  1.00  0.00     0.042 C 
BRANCH  26  27
ATOM     27  C   UNL A   1      39.480  23.160  26.873  1.00  0.00     0.118 C 
BRANCH  27  28
ATOM     28  N   UNL A   1      40.823  23.163  26.286  1.00  0.00    -0.352 N 
ATOM     29  C   UNL A   1      41.706  24.219  26.141  1.00  0.00     0.251 C 
ATOM     30  H   UNL A   1      41.141  22.295  25.948  1.00  0.00     0.163 HD
ATOM     31  O   UNL A   1      42.636  24.156  25.358  1.00  0.00    -0.269 OA
BRANCH  29  32
ATOM     32  C   UNL A   1      41.495  25.426  26.959  1.00  0.00     0.039 A 
ATOM     33  C   UNL A   1      41.953  25.505  28.278  1.00  0.00     0.014 A 
ATOM     34  C   UNL A   1      40.859  26.504  26.358  1.00  0.00     0.014 A 
ATOM     35  C   UNL A   1      41.843  26.717  28.955  1.00  0.00     0.010 A 
ATOM     36  C   UNL A   1      40.922  27.734  26.949  1.00  0.00     0.010 A 
ATOM     37  C   UNL A   1      41.345  27.834  28.272  1.00  0.00    -0.014 A 
BRANCH  37  38
ATOM     38  C   UNL A   1      41.352  29.165  28.865  1.00  0.00     0.031 A 
ATOM     39  C   UNL A   1      42.521  30.010  28.496  1.00  0.00     0.074 A 
ATOM     40  C   UNL A   1      40.245  29.672  29.454  1.00  0.00     0.049 A 
ATOM     41  N   UNL A   1      43.387  30.539  29.292  1.00  0.00    -0.248 NA
ATOM     42  C   UNL A   1      42.837  30.197  27.067  1.00  0.00     0.031 C 
ATOM     43  C   UNL A   1      38.929  29.035  29.600  1.00  0.00     0.029 A 
ATOM     44  N   UNL A   1      40.006  30.937  29.889  1.00  0.00    -0.354 N 
ATOM     45  C   UNL A   1      44.246  31.287  28.491  1.00  0.00     0.074 A 
ATOM     46  C   UNL A   1      43.970  30.899  27.131  1.00  0.00     0.031 C 
ATOM     47  C   UNL A   1      37.990  29.982  29.811  1.00  0.00     0.029 A 
ATOM     48  C   UNL A   1      38.654  31.260  29.980  1.00  0.00     0.049 A 
ATOM     49  H   UNL A   1      40.725  31.569  30.119  1.00  0.00     0.167 HD
ATOM     50  C   UNL A   1      44.941  32.346  28.993  1.00  0.00     0.031 A 
ATOM     51  C   UNL A   1      38.119  32.497  30.129  1.00  0.00     0.031 A 
ATOM     52  C   UNL A   1      44.917  32.359  30.434  1.00  0.00     0.049 A 
ATOM     53  C   UNL A   1      39.195  33.381  30.637  1.00  0.00     0.074 A 
ATOM     54  C   UNL A   1      45.317  31.475  31.417  1.00  0.00     0.029 A 
ATOM     55  N   UNL A   1      44.031  33.223  31.036  1.00  0.00    -0.354 N 
ATOM     56  N   UNL A   1      39.721  33.250  31.821  1.00  0.00    -0.248 NA
ATOM     57  C   UNL A   1      40.018  34.086  29.665  1.00  0.00     0.031 C 
ATOM     58  C   UNL A   1      44.286  31.539  32.400  1.00  0.00     0.029 A 
ATOM     59  C   UNL A   1      43.372  32.519  32.009  1.00  0.00     0.049 A 
ATOM     60  H   UNL A   1      43.897  34.171  30.810  1.00  0.00     0.167 HD
ATOM     61  C   UNL A   1      41.082  33.419  31.618  1.00  0.00     0.074 A 
ATOM     62  C   UNL A   1      41.195  34.042  30.297  1.00  0.00     0.031 C 
ATOM     63  C   UNL A   1      41.998  32.762  32.391  1.00  0.00     0.031 A 
BRANCH  50  64
ATOM     64  C   UNL A   1      45.277  33.587  28.205  1.00  0.00    -0.014 A 
ATOM     65  C   UNL A   1      46.579  34.112  28.301  1.00  0.00     0.009 A 
ATOM     66  C   UNL A   1      44.303  34.414  27.615  1.00  0.00     0.009 A 
ATOM     67  C   UNL A   1      46.865  35.427  27.912  1.00  0.00     0.001 A 
ATOM     68  C   UNL A   1      44.596  35.712  27.186  1.00  0.00     0.001 A 
ATOM     69  C   UNL A   1      45.871  36.229  27.364  1.00  0.00     0.000 A 
ENDBRANCH  50  64
BRANCH  51  70
ATOM     70  C   UNL A   1      36.824  33.018  29.631  1.00  0.00    -0.014 A 
ATOM     71  C   UNL A   1      36.381  32.725  28.330  1.00  0.00     0.009 A 
ATOM     72  C   UNL A   1      35.894  33.594  30.517  1.00  0.00     0.009 A 
ATOM     73  C   UNL A   1      35.051  32.958  27.949  1.00  0.00     0.001 A 
ATOM     74  C   UNL A   1      34.569  33.834  30.135  1.00  0.00     0.001 A 
ATOM     75  C   UNL A   1      34.142  33.499  28.856  1.00  0.00     0.000 A 
ENDBRANCH  51  70
BRANCH  63  76
ATOM     76  C   UNL A   1      41.500  32.005  33.601  1.00  0.00    -0.014 A 
ATOM     77  C   UNL A   1      41.064  30.668  33.547  1.00  0.00     0.009 A 
ATOM     78  C   UNL A   1      41.646  32.601  34.861  1.00  0.00     0.009 A 
ATOM     79  C   UNL A   1      40.757  29.963  34.716  1.00  0.00     0.001 A 
ATOM     80  C   UNL A   1      41.362  31.891  36.030  1.00  0.00     0.001 A 
ATOM     81  C   UNL A   1      40.911  30.574  35.958  1.00  0.00     0.000 A 
ENDBRANCH  63  76
ENDBRANCH  37  38
ENDBRANCH  29  32
ENDBRANCH  27  28
ENDBRANCH  26  27
ENDBRANCH  25  26
ENDBRANCH   3  25
TORSDOF 15
ENDMDL
