MODEL 1
REMARK VINA RESULT:     -11.5      0.000      0.000
REMARK SMILES C[C@@H](NC(=O)N1CC[N@@H+]2CCCC[C@H]2C1)C(=O)NCCCNC(=O)c1ccc(-c2c3nc(c(-c4ccccc4)c4ccc([nH]4)c(-c4ccccc4)c4nc(c(-c5ccccc5)c5ccc2[nH]5)C=C4)C=C3)cc1
REMARK SMILES IDX 20 1 19 2 18 3 16 4 17 5 2 7 1 8 3 9 4 10 5 12 6 13 7 14
REMARK SMILES IDX 15 15 8 16 14 17 9 18 13 19 10 20 12 22 11 23 21 24 22 25
REMARK SMILES IDX 23 26 24 28 25 29 26 30 72 31 27 32 71 33 28 34 29 35 30 36
REMARK SMILES IDX 65 37 31 38 70 39 64 40 66 41 32 42 69 43 63 44 62 45 33 47
REMARK SMILES IDX 55 48 40 49 54 50 41 51 44 52 53 53 67 54 42 55 43 56 52 58
REMARK SMILES IDX 68 59 45 60 34 61 35 62 39 63 36 64 38 65 37 66 56 67 57 68
REMARK SMILES IDX 61 69 58 70 60 71 59 72 46 73 47 74 51 75 48 76 50 77 49 78
REMARK H PARENT 18 6 3 11 9 21 22 27 66 46 44 57
REMARK Flexibility Score: inf
ROOT
ATOM      1  C   UNL A   1      36.972  21.073  24.855  1.00  0.00     0.042 C 
ENDROOT
BRANCH   1   2
ATOM      2  C   UNL A   1      35.794  21.406  25.762  1.00  0.00     0.117 C 
BRANCH   2   3
ATOM      3  N   UNL A   1      34.817  20.335  25.805  1.00  0.00    -0.354 N 
ATOM      4  C   UNL A   1      33.477  20.386  25.556  1.00  0.00     0.242 C 
ATOM      5  O   UNL A   1      32.830  19.350  25.750  1.00  0.00    -0.273 OA
ATOM      6  H   UNL A   1      35.169  19.450  26.049  1.00  0.00     0.163 HD
BRANCH   4   7
ATOM      7  C   UNL A   1      32.746  21.701  25.231  1.00  0.00     0.170 C 
ATOM      8  C   UNL A   1      32.188  21.547  23.811  1.00  0.00     0.041 C 
BRANCH   7   9
ATOM      9  N   UNL A   1      31.676  22.104  26.140  1.00  0.00    -0.326 N 
ATOM     10  C   UNL A   1      31.084  23.287  26.409  1.00  0.00     0.318 C 
ATOM     11  H   UNL A   1      31.310  21.356  26.666  1.00  0.00     0.166 HD
ATOM     12  O   UNL A   1      30.244  23.277  27.310  1.00  0.00    -0.249 OA
BRANCH  10  13
ATOM     13  N   UNL A   1      31.549  24.441  25.860  1.00  0.00    -0.313 N 
ATOM     14  C   UNL A   1      32.773  25.157  26.210  1.00  0.00     0.183 C 
ATOM     15  C   UNL A   1      30.993  24.870  24.576  1.00  0.00     0.186 C 
ATOM     16  C   UNL A   1      32.599  26.692  26.133  1.00  0.00     0.284 C 
ATOM     17  C   UNL A   1      30.678  26.378  24.644  1.00  0.00     0.203 C 
ATOM     18  N   UNL A   1      31.880  27.195  24.936  1.00  0.00    -0.330 N 
ATOM     19  C   UNL A   1      30.026  26.862  23.346  1.00  0.00     0.067 C 
ATOM     20  C   UNL A   1      31.500  28.604  25.141  1.00  0.00     0.262 C 
ATOM     21  H   UNL A   1      32.507  27.125  24.135  1.00  0.00     0.348 HD
ATOM     22  C   UNL A   1      29.599  28.319  23.489  1.00  0.00     0.012 C 
ATOM     23  C   UNL A   1      30.770  29.190  23.929  1.00  0.00     0.062 C 
ENDBRANCH  10  13
ENDBRANCH   7   9
ENDBRANCH   4   7
ENDBRANCH   2   3
ENDBRANCH   1   2
BRANCH   1  24
ATOM     24  C   UNL A   1      38.330  21.282  25.514  1.00  0.00     0.118 C 
BRANCH  24  25
ATOM     25  N   UNL A   1      39.192  20.111  25.461  1.00  0.00    -0.352 N 
ATOM     26  C   UNL A   1      40.481  19.967  25.919  1.00  0.00     0.251 C 
ATOM     27  H   UNL A   1      38.799  19.313  25.038  1.00  0.00     0.163 HD
ATOM     28  O   UNL A   1      41.082  18.912  25.736  1.00  0.00    -0.269 OA
BRANCH  26  29
ATOM     29  C   UNL A   1      41.168  21.101  26.578  1.00  0.00     0.039 A 
ATOM     30  C   UNL A   1      41.807  22.039  25.764  1.00  0.00     0.014 A 
ATOM     31  C   UNL A   1      41.145  21.276  27.965  1.00  0.00     0.014 A 
ATOM     32  C   UNL A   1      42.324  23.205  26.329  1.00  0.00     0.010 A 
ATOM     33  C   UNL A   1      41.601  22.467  28.521  1.00  0.00     0.010 A 
ATOM     34  C   UNL A   1      42.169  23.452  27.703  1.00  0.00    -0.014 A 
BRANCH  34  35
ATOM     35  C   UNL A   1      42.507  24.778  28.266  1.00  0.00     0.031 A 
ATOM     36  C   UNL A   1      43.904  25.099  28.702  1.00  0.00     0.074 A 
ATOM     37  C   UNL A   1      41.514  25.673  28.435  1.00  0.00     0.049 A 
ATOM     38  N   UNL A   1      44.379  26.228  29.164  1.00  0.00    -0.248 NA
ATOM     39  C   UNL A   1      44.890  24.012  28.631  1.00  0.00     0.031 C 
ATOM     40  C   UNL A   1      40.102  25.439  28.118  1.00  0.00     0.029 A 
ATOM     41  N   UNL A   1      41.538  26.960  28.906  1.00  0.00    -0.354 N 
ATOM     42  C   UNL A   1      45.718  25.987  29.436  1.00  0.00     0.074 A 
ATOM     43  C   UNL A   1      45.968  24.593  29.139  1.00  0.00     0.031 C 
ATOM     44  C   UNL A   1      39.403  26.558  28.366  1.00  0.00     0.029 A 
ATOM     45  C   UNL A   1      40.312  27.577  28.878  1.00  0.00     0.049 A 
ATOM     46  H   UNL A   1      42.357  27.399  29.233  1.00  0.00     0.167 HD
ATOM     47  C   UNL A   1      46.658  26.858  29.874  1.00  0.00     0.031 A 
ATOM     48  C   UNL A   1      39.961  28.833  29.212  1.00  0.00     0.031 A 
ATOM     49  C   UNL A   1      46.399  28.241  30.177  1.00  0.00     0.049 A 
ATOM     50  C   UNL A   1      41.026  29.783  29.677  1.00  0.00     0.074 A 
ATOM     51  C   UNL A   1      47.290  29.221  30.574  1.00  0.00     0.029 A 
ATOM     52  N   UNL A   1      45.146  28.835  30.121  1.00  0.00    -0.354 N 
ATOM     53  N   UNL A   1      42.310  29.570  29.833  1.00  0.00    -0.248 NA
ATOM     54  C   UNL A   1      40.596  31.153  29.989  1.00  0.00     0.031 C 
ATOM     55  C   UNL A   1      46.569  30.400  30.802  1.00  0.00     0.029 A 
ATOM     56  C   UNL A   1      45.237  30.165  30.498  1.00  0.00     0.049 A 
ATOM     57  H   UNL A   1      44.316  28.380  29.853  1.00  0.00     0.167 HD
ATOM     58  C   UNL A   1      42.848  30.783  30.239  1.00  0.00     0.074 A 
ATOM     59  C   UNL A   1      41.752  31.731  30.286  1.00  0.00     0.031 C 
ATOM     60  C   UNL A   1      44.132  31.087  30.545  1.00  0.00     0.031 A 
BRANCH  47  61
ATOM     61  C   UNL A   1      48.056  26.331  30.050  1.00  0.00    -0.014 A 
ATOM     62  C   UNL A   1      48.970  26.336  28.984  1.00  0.00     0.009 A 
ATOM     63  C   UNL A   1      48.473  25.849  31.300  1.00  0.00     0.009 A 
ATOM     64  C   UNL A   1      50.262  25.834  29.156  1.00  0.00     0.001 A 
ATOM     65  C   UNL A   1      49.773  25.372  31.476  1.00  0.00     0.001 A 
ATOM     66  C   UNL A   1      50.663  25.356  30.403  1.00  0.00     0.000 A 
ENDBRANCH  47  61
BRANCH  48  67
ATOM     67  C   UNL A   1      38.549  29.272  29.070  1.00  0.00    -0.014 A 
ATOM     68  C   UNL A   1      38.071  29.736  27.835  1.00  0.00     0.009 A 
ATOM     69  C   UNL A   1      37.670  29.219  30.162  1.00  0.00     0.009 A 
ATOM     70  C   UNL A   1      36.747  30.162  27.704  1.00  0.00     0.001 A 
ATOM     71  C   UNL A   1      36.340  29.621  30.021  1.00  0.00     0.001 A 
ATOM     72  C   UNL A   1      35.883  30.100  28.794  1.00  0.00     0.000 A 
ENDBRANCH  48  67
BRANCH  60  73
ATOM     73  C   UNL A   1      44.418  32.509  30.935  1.00  0.00    -0.014 A 
ATOM     74  C   UNL A   1      44.375  32.916  32.278  1.00  0.00     0.009 A 
ATOM     75  C   UNL A   1      44.756  33.445  29.946  1.00  0.00     0.009 A 
ATOM     76  C   UNL A   1      44.630  34.245  32.618  1.00  0.00     0.001 A 
ATOM     77  C   UNL A   1      45.038  34.766  30.294  1.00  0.00     0.001 A 
ATOM     78  C   UNL A   1      44.965  35.167  31.627  1.00  0.00     0.000 A 
ENDBRANCH  60  73
ENDBRANCH  34  35
ENDBRANCH  26  29
ENDBRANCH  24  25
ENDBRANCH   1  24
TORSDOF 12
ENDMDL
MODEL 2
REMARK VINA RESULT:     -11.5      3.323      8.610
REMARK SMILES C[C@@H](NC(=O)N1CC[N@@H+]2CCCC[C@H]2C1)C(=O)NCCCNC(=O)c1ccc(-c2c3nc(c(-c4ccccc4)c4ccc([nH]4)c(-c4ccccc4)c4nc(c(-c5ccccc5)c5ccc2[nH]5)C=C4)C=C3)cc1
REMARK SMILES IDX 20 1 19 2 18 3 16 4 17 5 2 7 1 8 3 9 4 10 5 12 6 13 7 14
REMARK SMILES IDX 15 15 8 16 14 17 9 18 13 19 10 20 12 22 11 23 21 24 22 25
REMARK SMILES IDX 23 26 24 28 25 29 26 30 72 31 27 32 71 33 28 34 29 35 30 36
REMARK SMILES IDX 65 37 31 38 70 39 64 40 66 41 32 42 69 43 63 44 62 45 33 47
REMARK SMILES IDX 55 48 40 49 54 50 41 51 44 52 53 53 67 54 42 55 43 56 52 58
REMARK SMILES IDX 68 59 45 60 34 61 35 62 39 63 36 64 38 65 37 66 56 67 57 68
REMARK SMILES IDX 61 69 58 70 60 71 59 72 46 73 47 74 51 75 48 76 50 77 49 78
REMARK H PARENT 18 6 3 11 9 21 22 27 66 46 44 57
REMARK Flexibility Score: inf
ROOT
ATOM      1  C   UNL A   1      31.892  30.363  26.260  1.00  0.00     0.042 C 
ENDROOT
BRANCH   1   2
ATOM      2  C   UNL A   1      32.470  29.042  25.769  1.00  0.00     0.117 C 
BRANCH   2   3
ATOM      3  N   UNL A   1      33.455  29.232  24.720  1.00  0.00    -0.354 N 
ATOM      4  C   UNL A   1      33.422  28.804  23.426  1.00  0.00     0.242 C 
ATOM      5  O   UNL A   1      34.431  29.011  22.740  1.00  0.00    -0.273 OA
ATOM      6  H   UNL A   1      34.257  29.740  24.978  1.00  0.00     0.163 HD
BRANCH   4   7
ATOM      7  C   UNL A   1      32.278  27.938  22.870  1.00  0.00     0.170 C 
ATOM      8  C   UNL A   1      31.099  28.886  22.618  1.00  0.00     0.041 C 
BRANCH   7   9
ATOM      9  N   UNL A   1      32.559  27.168  21.661  1.00  0.00    -0.326 N 
ATOM     10  C   UNL A   1      32.708  25.849  21.414  1.00  0.00     0.318 C 
ATOM     11  H   UNL A   1      32.659  27.729  20.858  1.00  0.00     0.166 HD
ATOM     12  O   UNL A   1      33.020  25.548  20.261  1.00  0.00    -0.249 OA
BRANCH  10  13
ATOM     13  N   UNL A   1      32.719  24.946  22.431  1.00  0.00    -0.313 N 
ATOM     14  C   UNL A   1      31.563  24.374  23.118  1.00  0.00     0.183 C 
ATOM     15  C   UNL A   1      33.949  24.193  22.675  1.00  0.00     0.186 C 
ATOM     16  C   UNL A   1      31.824  24.157  24.627  1.00  0.00     0.284 C 
ATOM     17  C   UNL A   1      34.236  24.179  24.190  1.00  0.00     0.203 C 
ATOM     18  N   UNL A   1      33.138  23.556  24.969  1.00  0.00    -0.330 N 
ATOM     19  C   UNL A   1      35.555  23.461  24.492  1.00  0.00     0.067 C 
ATOM     20  C   UNL A   1      33.391  23.705  26.413  1.00  0.00     0.262 C 
ATOM     21  H   UNL A   1      33.107  22.566  24.729  1.00  0.00     0.348 HD
ATOM     22  C   UNL A   1      35.885  23.580  25.976  1.00  0.00     0.012 C 
ATOM     23  C   UNL A   1      34.726  23.086  26.834  1.00  0.00     0.062 C 
ENDBRANCH  10  13
ENDBRANCH   7   9
ENDBRANCH   4   7
ENDBRANCH   2   3
ENDBRANCH   1   2
BRANCH   1  24
ATOM     24  C   UNL A   1      32.895  31.228  27.014  1.00  0.00     0.118 C 
BRANCH  24  25
ATOM     25  N   UNL A   1      32.399  32.559  27.327  1.00  0.00    -0.352 N 
ATOM     26  C   UNL A   1      33.011  33.561  28.044  1.00  0.00     0.251 C 
ATOM     27  H   UNL A   1      31.503  32.772  26.978  1.00  0.00     0.163 HD
ATOM     28  O   UNL A   1      32.415  34.613  28.260  1.00  0.00    -0.269 OA
BRANCH  26  29
ATOM     29  C   UNL A   1      34.364  33.353  28.610  1.00  0.00     0.039 A 
ATOM     30  C   UNL A   1      34.465  32.680  29.830  1.00  0.00     0.014 A 
ATOM     31  C   UNL A   1      35.519  33.759  27.936  1.00  0.00     0.014 A 
ATOM     32  C   UNL A   1      35.721  32.319  30.317  1.00  0.00     0.010 A 
ATOM     33  C   UNL A   1      36.768  33.343  28.386  1.00  0.00     0.010 A 
ATOM     34  C   UNL A   1      36.875  32.595  29.566  1.00  0.00    -0.014 A 
BRANCH  34  35
ATOM     35  C   UNL A   1      38.179  32.018  29.960  1.00  0.00     0.031 A 
ATOM     36  C   UNL A   1      39.103  32.754  30.881  1.00  0.00     0.074 A 
ATOM     37  C   UNL A   1      38.545  30.837  29.423  1.00  0.00     0.049 A 
ATOM     38  N   UNL A   1      40.254  32.366  31.368  1.00  0.00    -0.248 NA
ATOM     39  C   UNL A   1      38.696  34.105  31.293  1.00  0.00     0.031 C 
ATOM     40  C   UNL A   1      37.757  30.070  28.453  1.00  0.00     0.029 A 
ATOM     41  N   UNL A   1      39.665  30.073  29.618  1.00  0.00    -0.354 N 
ATOM     42  C   UNL A   1      40.707  33.422  32.146  1.00  0.00     0.074 A 
ATOM     43  C   UNL A   1      39.735  34.488  32.023  1.00  0.00     0.031 C 
ATOM     44  C   UNL A   1      38.400  28.926  28.170  1.00  0.00     0.029 A 
ATOM     45  C   UNL A   1      39.650  28.891  28.919  1.00  0.00     0.049 A 
ATOM     46  H   UNL A   1      40.408  30.345  30.204  1.00  0.00     0.167 HD
ATOM     47  C   UNL A   1      41.824  33.489  32.909  1.00  0.00     0.031 A 
ATOM     48  C   UNL A   1      40.540  27.881  28.897  1.00  0.00     0.031 A 
ATOM     49  C   UNL A   1      42.791  32.429  33.017  1.00  0.00     0.049 A 
ATOM     50  C   UNL A   1      41.760  27.971  29.768  1.00  0.00     0.074 A 
ATOM     51  C   UNL A   1      43.928  32.372  33.804  1.00  0.00     0.029 A 
ATOM     52  N   UNL A   1      42.735  31.239  32.306  1.00  0.00    -0.354 N 
ATOM     53  N   UNL A   1      42.126  28.936  30.576  1.00  0.00    -0.248 NA
ATOM     54  C   UNL A   1      42.677  26.824  29.737  1.00  0.00     0.031 C 
ATOM     55  C   UNL A   1      44.584  31.164  33.536  1.00  0.00     0.029 A 
ATOM     56  C   UNL A   1      43.829  30.449  32.620  1.00  0.00     0.049 A 
ATOM     57  H   UNL A   1      42.023  30.991  31.673  1.00  0.00     0.167 HD
ATOM     58  C   UNL A   1      43.303  28.504  31.171  1.00  0.00     0.074 A 
ATOM     59  C   UNL A   1      43.577  27.182  30.642  1.00  0.00     0.031 C 
ATOM     60  C   UNL A   1      44.086  29.141  32.074  1.00  0.00     0.031 A 
BRANCH  47  61
ATOM     61  C   UNL A   1      42.053  34.756  33.686  1.00  0.00    -0.014 A 
ATOM     62  C   UNL A   1      41.563  34.901  34.993  1.00  0.00     0.009 A 
ATOM     63  C   UNL A   1      42.789  35.806  33.116  1.00  0.00     0.009 A 
ATOM     64  C   UNL A   1      41.772  36.087  35.701  1.00  0.00     0.001 A 
ATOM     65  C   UNL A   1      43.019  36.981  33.836  1.00  0.00     0.001 A 
ATOM     66  C   UNL A   1      42.503  37.124  35.122  1.00  0.00     0.000 A 
ENDBRANCH  47  61
BRANCH  48  67
ATOM     67  C   UNL A   1      40.281  26.681  28.061  1.00  0.00    -0.014 A 
ATOM     68  C   UNL A   1      39.485  25.633  28.550  1.00  0.00     0.009 A 
ATOM     69  C   UNL A   1      40.815  26.581  26.767  1.00  0.00     0.009 A 
ATOM     70  C   UNL A   1      39.252  24.498  27.769  1.00  0.00     0.001 A 
ATOM     71  C   UNL A   1      40.558  25.457  25.980  1.00  0.00     0.001 A 
ATOM     72  C   UNL A   1      39.785  24.414  26.485  1.00  0.00     0.000 A 
ENDBRANCH  48  67
BRANCH  60  73
ATOM     73  C   UNL A   1      45.301  28.403  32.559  1.00  0.00    -0.014 A 
ATOM     74  C   UNL A   1      46.547  28.567  31.935  1.00  0.00     0.009 A 
ATOM     75  C   UNL A   1      45.198  27.550  33.668  1.00  0.00     0.009 A 
ATOM     76  C   UNL A   1      47.661  27.862  32.391  1.00  0.00     0.001 A 
ATOM     77  C   UNL A   1      46.320  26.868  34.139  1.00  0.00     0.001 A 
ATOM     78  C   UNL A   1      47.547  27.016  33.495  1.00  0.00     0.000 A 
ENDBRANCH  60  73
ENDBRANCH  34  35
ENDBRANCH  26  29
ENDBRANCH  24  25
ENDBRANCH   1  24
TORSDOF 12
ENDMDL
MODEL 3
REMARK VINA RESULT:     -11.4      2.493      7.692
REMARK SMILES C[C@@H](NC(=O)N1CC[N@@H+]2CCCC[C@H]2C1)C(=O)NCCCNC(=O)c1ccc(-c2c3nc(c(-c4ccccc4)c4ccc([nH]4)c(-c4ccccc4)c4nc(c(-c5ccccc5)c5ccc2[nH]5)C=C4)C=C3)cc1
REMARK SMILES IDX 20 1 19 2 18 3 16 4 17 5 2 7 1 8 3 9 4 10 5 12 6 13 7 14
REMARK SMILES IDX 15 15 8 16 14 17 9 18 13 19 10 20 12 22 11 23 21 24 22 25
REMARK SMILES IDX 23 26 24 28 25 29 26 30 72 31 27 32 71 33 28 34 29 35 30 36
REMARK SMILES IDX 65 37 31 38 70 39 64 40 66 41 32 42 69 43 63 44 62 45 33 47
REMARK SMILES IDX 55 48 40 49 54 50 41 51 44 52 53 53 67 54 42 55 43 56 52 58
REMARK SMILES IDX 68 59 45 60 34 61 35 62 39 63 36 64 38 65 37 66 56 67 57 68
REMARK SMILES IDX 61 69 58 70 60 71 59 72 46 73 47 74 51 75 48 76 50 77 49 78
REMARK H PARENT 18 6 3 11 9 21 22 27 66 46 44 57
REMARK Flexibility Score: inf
ROOT
ATOM      1  C   UNL A   1      32.114  28.959  26.643  1.00  0.00     0.042 C 
ENDROOT
BRANCH   1   2
ATOM      2  C   UNL A   1      31.844  29.654  25.315  1.00  0.00     0.117 C 
BRANCH   2   3
ATOM      3  N   UNL A   1      32.993  29.611  24.430  1.00  0.00    -0.354 N 
ATOM      4  C   UNL A   1      33.166  28.895  23.282  1.00  0.00     0.242 C 
ATOM      5  O   UNL A   1      34.279  28.951  22.747  1.00  0.00    -0.273 OA
ATOM      6  H   UNL A   1      33.754  30.175  24.696  1.00  0.00     0.163 HD
BRANCH   4   7
ATOM      7  C   UNL A   1      32.108  27.908  22.757  1.00  0.00     0.170 C 
ATOM      8  C   UNL A   1      30.857  28.739  22.444  1.00  0.00     0.041 C 
BRANCH   7   9
ATOM      9  N   UNL A   1      32.472  27.107  21.592  1.00  0.00    -0.326 N 
ATOM     10  C   UNL A   1      32.639  25.782  21.392  1.00  0.00     0.318 C 
ATOM     11  H   UNL A   1      32.628  27.645  20.783  1.00  0.00     0.166 HD
ATOM     12  O   UNL A   1      33.031  25.450  20.272  1.00  0.00    -0.249 OA
BRANCH  10  13
ATOM     13  N   UNL A   1      32.580  24.906  22.431  1.00  0.00    -0.313 N 
ATOM     14  C   UNL A   1      31.381  24.419  23.110  1.00  0.00     0.183 C 
ATOM     15  C   UNL A   1      33.760  24.092  22.719  1.00  0.00     0.186 C 
ATOM     16  C   UNL A   1      31.602  24.228  24.629  1.00  0.00     0.284 C 
ATOM     17  C   UNL A   1      34.019  24.101  24.239  1.00  0.00     0.203 C 
ATOM     18  N   UNL A   1      32.873  23.563  25.012  1.00  0.00    -0.330 N 
ATOM     19  C   UNL A   1      35.289  23.318  24.586  1.00  0.00     0.067 C 
ATOM     20  C   UNL A   1      33.108  23.735  26.457  1.00  0.00     0.262 C 
ATOM     21  H   UNL A   1      32.790  22.570  24.796  1.00  0.00     0.348 HD
ATOM     22  C   UNL A   1      35.598  23.458  26.072  1.00  0.00     0.012 C 
ATOM     23  C   UNL A   1      34.397  23.053  26.919  1.00  0.00     0.062 C 
ENDBRANCH  10  13
ENDBRANCH   7   9
ENDBRANCH   4   7
ENDBRANCH   2   3
ENDBRANCH   1   2
BRANCH   1  24
ATOM     24  C   UNL A   1      33.501  29.237  27.209  1.00  0.00     0.118 C 
BRANCH  24  25
ATOM     25  N   UNL A   1      33.622  30.539  27.847  1.00  0.00    -0.352 N 
ATOM     26  C   UNL A   1      34.701  31.079  28.508  1.00  0.00     0.251 C 
ATOM     27  H   UNL A   1      32.822  31.111  27.800  1.00  0.00     0.163 HD
ATOM     28  O   UNL A   1      34.605  32.182  29.040  1.00  0.00    -0.269 OA
BRANCH  26  29
ATOM     29  C   UNL A   1      35.959  30.309  28.634  1.00  0.00     0.039 A 
ATOM     30  C   UNL A   1      36.843  30.319  27.552  1.00  0.00     0.014 A 
ATOM     31  C   UNL A   1      36.298  29.630  29.808  1.00  0.00     0.014 A 
ATOM     32  C   UNL A   1      38.106  29.745  27.686  1.00  0.00     0.010 A 
ATOM     33  C   UNL A   1      37.581  29.115  29.966  1.00  0.00     0.010 A 
ATOM     34  C   UNL A   1      38.504  29.195  28.915  1.00  0.00    -0.014 A 
BRANCH  34  35
ATOM     35  C   UNL A   1      39.911  28.794  29.135  1.00  0.00     0.031 A 
ATOM     36  C   UNL A   1      40.890  29.729  29.777  1.00  0.00     0.074 A 
ATOM     37  C   UNL A   1      40.310  27.586  28.689  1.00  0.00     0.049 A 
ATOM     38  N   UNL A   1      42.142  29.515  30.092  1.00  0.00    -0.248 NA
ATOM     39  C   UNL A   1      40.411  31.083  30.088  1.00  0.00     0.031 C 
ATOM     40  C   UNL A   1      39.460  26.625  27.979  1.00  0.00     0.029 A 
ATOM     41  N   UNL A   1      41.524  26.957  28.771  1.00  0.00    -0.354 N 
ATOM     42  C   UNL A   1      42.599  30.705  30.640  1.00  0.00     0.074 A 
ATOM     43  C   UNL A   1      41.509  31.654  30.565  1.00  0.00     0.031 C 
ATOM     44  C   UNL A   1      40.168  25.513  27.727  1.00  0.00     0.029 A 
ATOM     45  C   UNL A   1      41.523  25.692  28.236  1.00  0.00     0.049 A 
ATOM     46  H   UNL A   1      42.320  27.372  29.175  1.00  0.00     0.167 HD
ATOM     47  C   UNL A   1      43.814  30.974  31.175  1.00  0.00     0.031 A 
ATOM     48  C   UNL A   1      42.502  24.770  28.178  1.00  0.00     0.031 A 
ATOM     49  C   UNL A   1      44.897  30.028  31.235  1.00  0.00     0.049 A 
ATOM     50  C   UNL A   1      43.833  25.087  28.795  1.00  0.00     0.074 A 
ATOM     51  C   UNL A   1      46.148  30.180  31.805  1.00  0.00     0.029 A 
ATOM     52  N   UNL A   1      44.854  28.750  30.697  1.00  0.00    -0.354 N 
ATOM     53  N   UNL A   1      44.220  26.183  29.400  1.00  0.00    -0.248 NA
ATOM     54  C   UNL A   1      44.853  24.031  28.740  1.00  0.00     0.031 C 
ATOM     55  C   UNL A   1      46.879  29.009  31.572  1.00  0.00     0.029 A 
ATOM     56  C   UNL A   1      46.065  28.110  30.902  1.00  0.00     0.049 A 
ATOM     57  H   UNL A   1      44.077  28.355  30.237  1.00  0.00     0.167 HD
ATOM     58  C   UNL A   1      45.521  25.943  29.821  1.00  0.00     0.074 A 
ATOM     59  C   UNL A   1      45.847  24.589  29.417  1.00  0.00     0.031 C 
ATOM     60  C   UNL A   1      46.369  26.766  30.483  1.00  0.00     0.031 A 
BRANCH  47  61
ATOM     61  C   UNL A   1      44.029  32.352  31.736  1.00  0.00    -0.014 A 
ATOM     62  C   UNL A   1      44.527  33.391  30.933  1.00  0.00     0.009 A 
ATOM     63  C   UNL A   1      43.707  32.625  33.075  1.00  0.00     0.009 A 
ATOM     64  C   UNL A   1      44.733  34.664  31.469  1.00  0.00     0.001 A 
ATOM     65  C   UNL A   1      43.890  33.905  33.600  1.00  0.00     0.001 A 
ATOM     66  C   UNL A   1      44.411  34.921  32.800  1.00  0.00     0.000 A 
ENDBRANCH  47  61
BRANCH  48  67
ATOM     67  C   UNL A   1      42.240  23.447  27.555  1.00  0.00    -0.014 A 
ATOM     68  C   UNL A   1      42.585  23.212  26.215  1.00  0.00     0.009 A 
ATOM     69  C   UNL A   1      41.657  22.409  28.298  1.00  0.00     0.009 A 
ATOM     70  C   UNL A   1      42.327  21.973  25.625  1.00  0.00     0.001 A 
ATOM     71  C   UNL A   1      41.424  21.164  27.712  1.00  0.00     0.001 A 
ATOM     72  C   UNL A   1      41.752  20.950  26.374  1.00  0.00     0.000 A 
ENDBRANCH  48  67
BRANCH  60  73
ATOM     73  C   UNL A   1      47.722  26.211  30.827  1.00  0.00    -0.014 A 
ATOM     74  C   UNL A   1      48.759  26.187  29.881  1.00  0.00     0.009 A 
ATOM     75  C   UNL A   1      47.965  25.728  32.121  1.00  0.00     0.009 A 
ATOM     76  C   UNL A   1      50.004  25.655  30.216  1.00  0.00     0.001 A 
ATOM     77  C   UNL A   1      49.220  25.223  32.461  1.00  0.00     0.001 A 
ATOM     78  C   UNL A   1      50.235  25.177  31.506  1.00  0.00     0.000 A 
ENDBRANCH  60  73
ENDBRANCH  34  35
ENDBRANCH  26  29
ENDBRANCH  24  25
ENDBRANCH   1  24
TORSDOF 12
ENDMDL
