MODEL 1
REMARK VINA RESULT:     -11.7      0.000      0.000
REMARK SMILES Cn1cc(-c2cc(C(F)(F)F)c3c(C4CC4)nn(CC(=O)NCCCNC(=O)c4ccc(-c5c6nc(c(-c7ccccc7)c7ccc([nH]7)c(-c7ccccc7)c7nc(c(-c8ccccc8)c8ccc5[nH]8)C=C7)C=C6)cc4)c3n2)cn1
REMARK SMILES IDX 24 1 23 2 22 3 20 4 21 5 19 7 18 8 5 9 6 10 78 11 7 12 77 13
REMARK SMILES IDX 12 14 13 15 17 16 4 17 1 18 2 19 3 20 80 21 79 22 8 23 9 24
REMARK SMILES IDX 10 25 11 26 14 27 15 28 16 29 25 30 26 31 27 32 28 34 29 35
REMARK SMILES IDX 30 36 76 37 31 38 75 39 32 40 33 41 34 42 69 43 35 44 74 45
REMARK SMILES IDX 68 46 70 47 36 48 73 49 67 50 66 51 37 53 59 54 44 55 58 56
REMARK SMILES IDX 45 57 48 58 57 59 71 60 46 61 47 62 56 64 72 65 49 66 38 67
REMARK SMILES IDX 39 68 43 69 40 70 42 71 41 72 60 73 61 74 65 75 62 76 64 77
REMARK SMILES IDX 63 78 50 79 51 80 55 81 52 82 54 83 53 84
REMARK H PARENT 22 6 26 33 70 52 48 63
REMARK Flexibility Score: inf
ROOT
ATOM      1  C   UNL A   1      34.112  31.019  27.725  1.00  0.00     0.042 C 
ENDROOT
BRANCH   1   2
ATOM      2  C   UNL A   1      34.453  29.693  27.044  1.00  0.00     0.117 C 
BRANCH   2   3
ATOM      3  N   UNL A   1      34.060  29.651  25.645  1.00  0.00    -0.354 N 
ATOM      4  C   UNL A   1      33.112  28.846  25.078  1.00  0.00     0.241 C 
ATOM      5  O   UNL A   1      32.848  28.969  23.881  1.00  0.00    -0.273 OA
ATOM      6  H   UNL A   1      34.528  30.270  25.040  1.00  0.00     0.163 HD
BRANCH   4   7
ATOM      7  C   UNL A   1      32.367  27.895  25.960  1.00  0.00     0.246 C 
BRANCH   7   8
ATOM      8  N   UNL A   1      33.016  26.604  26.085  1.00  0.00    -0.237 N 
ATOM      9  C   UNL A   1      30.552  24.314  25.980  1.00  0.00     0.077 A 
ATOM     10  C   UNL A   1      31.240  23.107  26.083  1.00  0.00     0.043 A 
ATOM     11  N   UNL A   1      31.026  25.389  26.649  1.00  0.00    -0.228 NA
ATOM     12  C   UNL A   1      32.608  23.137  26.456  1.00  0.00     0.071 A 
ATOM     13  C   UNL A   1      32.351  25.471  26.439  1.00  0.00     0.159 A 
ATOM     14  C   UNL A   1      33.195  24.394  26.221  1.00  0.00     0.055 A 
ATOM     15  C   UNL A   1      34.302  24.995  25.559  1.00  0.00     0.076 A 
ATOM     16  N   UNL A   1      34.237  26.340  25.565  1.00  0.00    -0.175 NA
BRANCH   9  17
ATOM     17  C   UNL A   1      30.077  24.811  24.663  1.00  0.00     0.038 A 
ATOM     18  C   UNL A   1      31.921  26.029  21.860  1.00  0.00     0.173 C 
ATOM     19  N   UNL A   1      30.851  25.670  22.773  1.00  0.00    -0.275 N 
ATOM     20  C   UNL A   1      30.789  24.509  23.502  1.00  0.00     0.118 A 
ATOM     21  N   UNL A   1      30.008  26.614  23.227  1.00  0.00    -0.181 NA
ATOM     22  C   UNL A   1      29.592  26.122  24.401  1.00  0.00     0.145 A 
ENDBRANCH   9  17
BRANCH  12  23
ATOM     23  C   UNL A   1      33.232  22.043  27.278  1.00  0.00     0.417 C 
ATOM     24  F   UNL A   1      33.230  20.811  26.717  1.00  0.00    -0.166 F 
ATOM     25  F   UNL A   1      34.543  22.315  27.546  1.00  0.00    -0.166 F 
ATOM     26  F   UNL A   1      32.639  21.892  28.496  1.00  0.00    -0.166 F 
ENDBRANCH  12  23
BRANCH  15  27
ATOM     27  C   UNL A   1      35.330  24.354  24.625  1.00  0.00     0.041 C 
ATOM     28  C   UNL A   1      35.488  22.882  24.370  1.00  0.00     0.011 C 
ATOM     29  C   UNL A   1      34.813  23.716  23.341  1.00  0.00     0.011 C 
ENDBRANCH  15  27
ENDBRANCH   7   8
ENDBRANCH   4   7
ENDBRANCH   2   3
ENDBRANCH   1   2
BRANCH   1  30
ATOM     30  C   UNL A   1      35.314  31.927  27.789  1.00  0.00     0.118 C 
BRANCH  30  31
ATOM     31  N   UNL A   1      35.248  32.810  28.949  1.00  0.00    -0.352 N 
ATOM     32  C   UNL A   1      35.816  32.640  30.191  1.00  0.00     0.251 C 
ATOM     33  H   UNL A   1      34.729  33.638  28.826  1.00  0.00     0.163 HD
ATOM     34  O   UNL A   1      35.464  33.306  31.143  1.00  0.00    -0.269 OA
BRANCH  32  35
ATOM     35  C   UNL A   1      36.865  31.621  30.327  1.00  0.00     0.039 A 
ATOM     36  C   UNL A   1      36.543  30.320  30.712  1.00  0.00     0.014 A 
ATOM     37  C   UNL A   1      38.179  31.989  30.035  1.00  0.00     0.014 A 
ATOM     38  C   UNL A   1      37.561  29.379  30.765  1.00  0.00     0.010 A 
ATOM     39  C   UNL A   1      39.140  31.028  29.907  1.00  0.00     0.010 A 
ATOM     40  C   UNL A   1      38.852  29.750  30.357  1.00  0.00    -0.014 A 
BRANCH  40  41
ATOM     41  C   UNL A   1      39.932  28.789  30.347  1.00  0.00     0.031 A 
ATOM     42  C   UNL A   1      40.544  28.556  31.670  1.00  0.00     0.074 A 
ATOM     43  C   UNL A   1      40.234  28.046  29.264  1.00  0.00     0.049 A 
ATOM     44  N   UNL A   1      41.672  29.018  32.086  1.00  0.00    -0.248 NA
ATOM     45  C   UNL A   1      39.754  27.862  32.699  1.00  0.00     0.031 C 
ATOM     46  C   UNL A   1      39.490  27.933  28.001  1.00  0.00     0.029 A 
ATOM     47  N   UNL A   1      41.242  27.152  29.102  1.00  0.00    -0.354 N 
ATOM     48  C   UNL A   1      41.842  28.484  33.354  1.00  0.00     0.074 A 
ATOM     49  C   UNL A   1      40.563  27.955  33.757  1.00  0.00     0.031 C 
ATOM     50  C   UNL A   1      39.942  26.866  27.302  1.00  0.00     0.029 A 
ATOM     51  C   UNL A   1      41.126  26.361  27.966  1.00  0.00     0.049 A 
ATOM     52  H   UNL A   1      41.992  27.071  29.734  1.00  0.00     0.167 HD
ATOM     53  C   UNL A   1      43.088  28.240  33.844  1.00  0.00     0.031 A 
ATOM     54  C   UNL A   1      41.971  25.369  27.603  1.00  0.00     0.031 A 
ATOM     55  C   UNL A   1      44.111  28.797  33.001  1.00  0.00     0.049 A 
ATOM     56  C   UNL A   1      43.271  25.660  28.243  1.00  0.00     0.074 A 
ATOM     57  C   UNL A   1      44.665  30.041  32.787  1.00  0.00     0.029 A 
ATOM     58  N   UNL A   1      44.395  28.029  31.899  1.00  0.00    -0.354 N 
ATOM     59  N   UNL A   1      43.984  26.714  27.963  1.00  0.00    -0.248 NA
ATOM     60  C   UNL A   1      43.649  24.950  29.460  1.00  0.00     0.031 C 
ATOM     61  C   UNL A   1      45.134  30.043  31.438  1.00  0.00     0.029 A 
ATOM     62  C   UNL A   1      44.895  28.792  30.875  1.00  0.00     0.049 A 
ATOM     63  H   UNL A   1      44.258  27.055  31.850  1.00  0.00     0.167 HD
ATOM     64  C   UNL A   1      44.600  27.032  29.157  1.00  0.00     0.074 A 
ATOM     65  C   UNL A   1      44.509  25.831  29.976  1.00  0.00     0.031 C 
ATOM     66  C   UNL A   1      44.840  28.327  29.506  1.00  0.00     0.031 A 
BRANCH  53  67
ATOM     67  C   UNL A   1      43.382  27.112  34.789  1.00  0.00    -0.014 A 
ATOM     68  C   UNL A   1      43.463  25.799  34.302  1.00  0.00     0.009 A 
ATOM     69  C   UNL A   1      43.339  27.276  36.190  1.00  0.00     0.009 A 
ATOM     70  C   UNL A   1      43.514  24.706  35.178  1.00  0.00     0.001 A 
ATOM     71  C   UNL A   1      43.427  26.193  37.065  1.00  0.00     0.001 A 
ATOM     72  C   UNL A   1      43.505  24.905  36.558  1.00  0.00     0.000 A 
ENDBRANCH  53  67
BRANCH  54  73
ATOM     73  C   UNL A   1      41.662  24.041  27.034  1.00  0.00    -0.014 A 
ATOM     74  C   UNL A   1      42.520  23.493  26.065  1.00  0.00     0.009 A 
ATOM     75  C   UNL A   1      40.754  23.181  27.675  1.00  0.00     0.009 A 
ATOM     76  C   UNL A   1      42.545  22.116  25.826  1.00  0.00     0.001 A 
ATOM     77  C   UNL A   1      40.774  21.804  27.426  1.00  0.00     0.001 A 
ATOM     78  C   UNL A   1      41.690  21.269  26.524  1.00  0.00     0.000 A 
ENDBRANCH  54  73
BRANCH  66  79
ATOM     79  C   UNL A   1      44.876  29.352  28.410  1.00  0.00    -0.014 A 
ATOM     80  C   UNL A   1      43.779  30.153  28.054  1.00  0.00     0.009 A 
ATOM     81  C   UNL A   1      46.108  29.581  27.780  1.00  0.00     0.009 A 
ATOM     82  C   UNL A   1      43.921  31.163  27.093  1.00  0.00     0.001 A 
ATOM     83  C   UNL A   1      46.252  30.595  26.834  1.00  0.00     0.001 A 
ATOM     84  C   UNL A   1      45.160  31.389  26.492  1.00  0.00     0.000 A 
ENDBRANCH  66  79
ENDBRANCH  40  41
ENDBRANCH  32  35
ENDBRANCH  30  31
ENDBRANCH   1  30
TORSDOF 14
ENDMDL
MODEL 2
REMARK VINA RESULT:     -11.5      3.109      7.791
REMARK SMILES Cn1cc(-c2cc(C(F)(F)F)c3c(C4CC4)nn(CC(=O)NCCCNC(=O)c4ccc(-c5c6nc(c(-c7ccccc7)c7ccc([nH]7)c(-c7ccccc7)c7nc(c(-c8ccccc8)c8ccc5[nH]8)C=C7)C=C6)cc4)c3n2)cn1
REMARK SMILES IDX 24 1 23 2 22 3 20 4 21 5 19 7 18 8 5 9 6 10 78 11 7 12 77 13
REMARK SMILES IDX 12 14 13 15 17 16 4 17 1 18 2 19 3 20 80 21 79 22 8 23 9 24
REMARK SMILES IDX 10 25 11 26 14 27 15 28 16 29 25 30 26 31 27 32 28 34 29 35
REMARK SMILES IDX 30 36 76 37 31 38 75 39 32 40 33 41 34 42 69 43 35 44 74 45
REMARK SMILES IDX 68 46 70 47 36 48 73 49 67 50 66 51 37 53 59 54 44 55 58 56
REMARK SMILES IDX 45 57 48 58 57 59 71 60 46 61 47 62 56 64 72 65 49 66 38 67
REMARK SMILES IDX 39 68 43 69 40 70 42 71 41 72 60 73 61 74 65 75 62 76 64 77
REMARK SMILES IDX 63 78 50 79 51 80 55 81 52 82 54 83 53 84
REMARK H PARENT 22 6 26 33 70 52 48 63
REMARK Flexibility Score: inf
ROOT
ATOM      1  C   UNL A   1      38.785  22.194  25.862  1.00  0.00     0.042 C 
ENDROOT
BRANCH   1   2
ATOM      2  C   UNL A   1      37.695  23.246  26.073  1.00  0.00     0.117 C 
BRANCH   2   3
ATOM      3  N   UNL A   1      36.443  22.683  26.550  1.00  0.00    -0.354 N 
ATOM      4  C   UNL A   1      35.239  22.679  25.901  1.00  0.00     0.241 C 
ATOM      5  O   UNL A   1      34.275  22.107  26.412  1.00  0.00    -0.273 OA
ATOM      6  H   UNL A   1      36.462  22.259  27.438  1.00  0.00     0.163 HD
BRANCH   4   7
ATOM      7  C   UNL A   1      35.162  23.304  24.543  1.00  0.00     0.246 C 
BRANCH   7   8
ATOM      8  N   UNL A   1      34.728  24.686  24.575  1.00  0.00    -0.237 N 
ATOM      9  C   UNL A   1      32.374  24.975  22.188  1.00  0.00     0.077 A 
ATOM     10  C   UNL A   1      31.988  26.309  22.285  1.00  0.00     0.043 A 
ATOM     11  N   UNL A   1      33.665  24.654  22.425  1.00  0.00    -0.228 NA
ATOM     12  C   UNL A   1      32.783  27.189  23.064  1.00  0.00     0.071 A 
ATOM     13  C   UNL A   1      34.060  25.278  23.548  1.00  0.00     0.159 A 
ATOM     14  C   UNL A   1      33.581  26.499  23.996  1.00  0.00     0.055 A 
ATOM     15  C   UNL A   1      33.879  26.459  25.386  1.00  0.00     0.076 A 
ATOM     16  N   UNL A   1      34.657  25.410  25.716  1.00  0.00    -0.175 NA
BRANCH   9  17
ATOM     17  C   UNL A   1      31.552  23.897  22.797  1.00  0.00     0.038 A 
ATOM     18  C   UNL A   1      30.818  23.219  26.224  1.00  0.00     0.173 C 
ATOM     19  N   UNL A   1      30.928  23.128  24.779  1.00  0.00    -0.275 N 
ATOM     20  C   UNL A   1      30.749  24.170  23.904  1.00  0.00     0.118 A 
ATOM     21  N   UNL A   1      31.555  22.080  24.216  1.00  0.00    -0.181 NA
ATOM     22  C   UNL A   1      31.988  22.567  23.047  1.00  0.00     0.145 A 
ENDBRANCH   9  17
BRANCH  12  23
ATOM     23  C   UNL A   1      32.955  28.638  22.702  1.00  0.00     0.417 C 
ATOM     24  F   UNL A   1      33.422  29.439  23.688  1.00  0.00    -0.166 F 
ATOM     25  F   UNL A   1      33.834  28.787  21.668  1.00  0.00    -0.166 F 
ATOM     26  F   UNL A   1      31.797  29.218  22.277  1.00  0.00    -0.166 F 
ENDBRANCH  12  23
BRANCH  15  27
ATOM     27  C   UNL A   1      33.217  27.221  26.536  1.00  0.00     0.041 C 
ATOM     28  C   UNL A   1      32.331  28.426  26.397  1.00  0.00     0.011 C 
ATOM     29  C   UNL A   1      31.704  27.107  26.677  1.00  0.00     0.011 C 
ENDBRANCH  15  27
ENDBRANCH   7   8
ENDBRANCH   4   7
ENDBRANCH   2   3
ENDBRANCH   1   2
BRANCH   1  30
ATOM     30  C   UNL A   1      39.825  22.258  26.952  1.00  0.00     0.118 C 
BRANCH  30  31
ATOM     31  N   UNL A   1      41.173  22.145  26.404  1.00  0.00    -0.352 N 
ATOM     32  C   UNL A   1      42.088  23.145  26.163  1.00  0.00     0.251 C 
ATOM     33  H   UNL A   1      41.467  21.233  26.176  1.00  0.00     0.163 HD
ATOM     34  O   UNL A   1      43.059  22.956  25.459  1.00  0.00    -0.269 OA
BRANCH  32  35
ATOM     35  C   UNL A   1      41.849  24.452  26.789  1.00  0.00     0.039 A 
ATOM     36  C   UNL A   1      42.316  24.717  28.076  1.00  0.00     0.014 A 
ATOM     37  C   UNL A   1      41.168  25.419  26.049  1.00  0.00     0.014 A 
ATOM     38  C   UNL A   1      42.119  25.987  28.598  1.00  0.00     0.010 A 
ATOM     39  C   UNL A   1      41.140  26.712  26.486  1.00  0.00     0.010 A 
ATOM     40  C   UNL A   1      41.532  26.972  27.788  1.00  0.00    -0.014 A 
BRANCH  40  41
ATOM     41  C   UNL A   1      41.354  28.322  28.274  1.00  0.00     0.031 A 
ATOM     42  C   UNL A   1      42.452  29.241  27.916  1.00  0.00     0.074 A 
ATOM     43  C   UNL A   1      40.209  28.743  28.847  1.00  0.00     0.049 A 
ATOM     44  N   UNL A   1      43.390  29.656  28.695  1.00  0.00    -0.248 NA
ATOM     45  C   UNL A   1      42.618  29.625  26.505  1.00  0.00     0.031 C 
ATOM     46  C   UNL A   1      38.927  28.031  28.951  1.00  0.00     0.029 A 
ATOM     47  N   UNL A   1      39.926  29.956  29.387  1.00  0.00    -0.354 N 
ATOM     48  C   UNL A   1      44.140  30.537  27.929  1.00  0.00     0.074 A 
ATOM     49  C   UNL A   1      43.751  30.329  26.557  1.00  0.00     0.031 C 
ATOM     50  C   UNL A   1      37.954  28.898  29.312  1.00  0.00     0.029 A 
ATOM     51  C   UNL A   1      38.579  30.159  29.658  1.00  0.00     0.049 A 
ATOM     52  H   UNL A   1      40.615  30.633  29.571  1.00  0.00     0.167 HD
ATOM     53  C   UNL A   1      44.791  31.580  28.511  1.00  0.00     0.031 A 
ATOM     54  C   UNL A   1      38.034  31.293  30.152  1.00  0.00     0.031 A 
ATOM     55  C   UNL A   1      44.771  31.490  29.946  1.00  0.00     0.049 A 
ATOM     56  C   UNL A   1      39.110  32.004  30.877  1.00  0.00     0.074 A 
ATOM     57  C   UNL A   1      45.458  30.792  30.914  1.00  0.00     0.029 A 
ATOM     58  N   UNL A   1      43.592  31.914  30.507  1.00  0.00    -0.354 N 
ATOM     59  N   UNL A   1      39.694  31.522  31.936  1.00  0.00    -0.248 NA
ATOM     60  C   UNL A   1      39.790  33.123  30.236  1.00  0.00     0.031 C 
ATOM     61  C   UNL A   1      44.565  30.659  32.022  1.00  0.00     0.029 A 
ATOM     62  C   UNL A   1      43.374  31.313  31.721  1.00  0.00     0.049 A 
ATOM     63  H   UNL A   1      42.982  32.567  30.092  1.00  0.00     0.167 HD
ATOM     64  C   UNL A   1      40.992  31.983  31.845  1.00  0.00     0.074 A 
ATOM     65  C   UNL A   1      40.947  33.093  30.902  1.00  0.00     0.031 C 
ATOM     66  C   UNL A   1      42.042  31.233  32.282  1.00  0.00     0.031 A 
BRANCH  53  67
ATOM     67  C   UNL A   1      45.008  32.892  27.813  1.00  0.00    -0.014 A 
ATOM     68  C   UNL A   1      43.939  33.787  27.666  1.00  0.00     0.009 A 
ATOM     69  C   UNL A   1      46.181  33.165  27.078  1.00  0.00     0.009 A 
ATOM     70  C   UNL A   1      44.047  34.911  26.835  1.00  0.00     0.001 A 
ATOM     71  C   UNL A   1      46.305  34.301  26.278  1.00  0.00     0.001 A 
ATOM     72  C   UNL A   1      45.232  35.171  26.149  1.00  0.00     0.000 A 
ENDBRANCH  53  67
BRANCH  54  73
ATOM     73  C   UNL A   1      36.772  31.964  29.776  1.00  0.00    -0.014 A 
ATOM     74  C   UNL A   1      36.029  32.633  30.763  1.00  0.00     0.009 A 
ATOM     75  C   UNL A   1      36.486  32.247  28.429  1.00  0.00     0.009 A 
ATOM     76  C   UNL A   1      35.110  33.629  30.419  1.00  0.00     0.001 A 
ATOM     77  C   UNL A   1      35.558  33.236  28.086  1.00  0.00     0.001 A 
ATOM     78  C   UNL A   1      34.893  33.948  29.081  1.00  0.00     0.000 A 
ENDBRANCH  54  73
BRANCH  66  79
ATOM     79  C   UNL A   1      41.759  30.145  33.276  1.00  0.00    -0.014 A 
ATOM     80  C   UNL A   1      41.516  28.808  32.923  1.00  0.00     0.009 A 
ATOM     81  C   UNL A   1      41.843  30.476  34.636  1.00  0.00     0.009 A 
ATOM     82  C   UNL A   1      41.367  27.829  33.913  1.00  0.00     0.001 A 
ATOM     83  C   UNL A   1      41.708  29.499  35.622  1.00  0.00     0.001 A 
ATOM     84  C   UNL A   1      41.473  28.174  35.262  1.00  0.00     0.000 A 
ENDBRANCH  66  79
ENDBRANCH  40  41
ENDBRANCH  32  35
ENDBRANCH  30  31
ENDBRANCH   1  30
TORSDOF 14
ENDMDL
MODEL 3
REMARK VINA RESULT:     -11.3      2.768      7.516
REMARK SMILES Cn1cc(-c2cc(C(F)(F)F)c3c(C4CC4)nn(CC(=O)NCCCNC(=O)c4ccc(-c5c6nc(c(-c7ccccc7)c7ccc([nH]7)c(-c7ccccc7)c7nc(c(-c8ccccc8)c8ccc5[nH]8)C=C7)C=C6)cc4)c3n2)cn1
REMARK SMILES IDX 24 1 23 2 22 3 20 4 21 5 19 7 18 8 5 9 6 10 78 11 7 12 77 13
REMARK SMILES IDX 12 14 13 15 17 16 4 17 1 18 2 19 3 20 80 21 79 22 8 23 9 24
REMARK SMILES IDX 10 25 11 26 14 27 15 28 16 29 25 30 26 31 27 32 28 34 29 35
REMARK SMILES IDX 30 36 76 37 31 38 75 39 32 40 33 41 34 42 69 43 35 44 74 45
REMARK SMILES IDX 68 46 70 47 36 48 73 49 67 50 66 51 37 53 59 54 44 55 58 56
REMARK SMILES IDX 45 57 48 58 57 59 71 60 46 61 47 62 56 64 72 65 49 66 38 67
REMARK SMILES IDX 39 68 43 69 40 70 42 71 41 72 60 73 61 74 65 75 62 76 64 77
REMARK SMILES IDX 63 78 50 79 51 80 55 81 52 82 54 83 53 84
REMARK H PARENT 22 6 26 33 70 52 48 63
REMARK Flexibility Score: inf
ROOT
ATOM      1  C   UNL A   1      39.038  21.563  26.105  1.00  0.00     0.042 C 
ENDROOT
BRANCH   1   2
ATOM      2  C   UNL A   1      37.862  22.494  25.802  1.00  0.00     0.117 C 
BRANCH   2   3
ATOM      3  N   UNL A   1      37.527  22.550  24.389  1.00  0.00    -0.354 N 
ATOM      4  C   UNL A   1      36.500  23.244  23.811  1.00  0.00     0.241 C 
ATOM      5  O   UNL A   1      36.379  23.241  22.585  1.00  0.00    -0.273 OA
ATOM      6  H   UNL A   1      38.101  22.031  23.781  1.00  0.00     0.163 HD
BRANCH   4   7
ATOM      7  C   UNL A   1      35.606  24.056  24.694  1.00  0.00     0.246 C 
BRANCH   7   8
ATOM      8  N   UNL A   1      34.410  23.346  25.103  1.00  0.00    -0.237 N 
ATOM      9  C   UNL A   1      31.893  25.569  24.890  1.00  0.00     0.077 A 
ATOM     10  C   UNL A   1      30.781  24.823  25.272  1.00  0.00     0.043 A 
ATOM     11  N   UNL A   1      33.082  25.308  25.478  1.00  0.00    -0.228 NA
ATOM     12  C   UNL A   1      30.989  23.552  25.866  1.00  0.00     0.071 A 
ATOM     13  C   UNL A   1      33.268  23.976  25.488  1.00  0.00     0.159 A 
ATOM     14  C   UNL A   1      32.261  23.028  25.566  1.00  0.00     0.055 A 
ATOM     15  C   UNL A   1      32.883  21.868  25.029  1.00  0.00     0.076 A 
ATOM     16  N   UNL A   1      34.206  22.034  24.840  1.00  0.00    -0.175 NA
BRANCH   9  17
ATOM     17  C   UNL A   1      32.178  25.832  23.455  1.00  0.00     0.038 A 
ATOM     18  C   UNL A   1      33.209  23.601  20.867  1.00  0.00     0.173 C 
ATOM     19  N   UNL A   1      32.866  24.790  21.625  1.00  0.00    -0.275 N 
ATOM     20  C   UNL A   1      31.803  24.903  22.485  1.00  0.00     0.118 A 
ATOM     21  N   UNL A   1      33.777  25.765  21.796  1.00  0.00    -0.181 NA
ATOM     22  C   UNL A   1      33.397  26.351  22.938  1.00  0.00     0.145 A 
ENDBRANCH   9  17
BRANCH  12  23
ATOM     23  C   UNL A   1      30.069  23.008  26.924  1.00  0.00     0.417 C 
ATOM     24  F   UNL A   1      29.100  23.852  27.351  1.00  0.00    -0.166 F 
ATOM     25  F   UNL A   1      29.412  21.897  26.482  1.00  0.00    -0.166 F 
ATOM     26  F   UNL A   1      30.730  22.612  28.048  1.00  0.00    -0.166 F 
ENDBRANCH  12  23
BRANCH  15  27
ATOM     27  C   UNL A   1      32.239  20.641  24.380  1.00  0.00     0.041 C 
ATOM     28  C   UNL A   1      32.974  19.505  23.727  1.00  0.00     0.011 C 
ATOM     29  C   UNL A   1      32.407  19.301  25.086  1.00  0.00     0.011 C 
ENDBRANCH  15  27
ENDBRANCH   7   8
ENDBRANCH   4   7
ENDBRANCH   2   3
ENDBRANCH   1   2
BRANCH   1  30
ATOM     30  C   UNL A   1      40.070  22.247  26.964  1.00  0.00     0.118 C 
BRANCH  30  31
ATOM     31  N   UNL A   1      41.389  22.207  26.341  1.00  0.00    -0.352 N 
ATOM     32  C   UNL A   1      42.241  23.252  26.066  1.00  0.00     0.251 C 
ATOM     33  H   UNL A   1      41.711  21.312  26.081  1.00  0.00     0.163 HD
ATOM     34  O   UNL A   1      43.179  23.120  25.306  1.00  0.00    -0.269 OA
BRANCH  32  35
ATOM     35  C   UNL A   1      41.977  24.537  26.725  1.00  0.00     0.039 A 
ATOM     36  C   UNL A   1      42.494  24.803  27.993  1.00  0.00     0.014 A 
ATOM     37  C   UNL A   1      41.219  25.485  26.036  1.00  0.00     0.014 A 
ATOM     38  C   UNL A   1      42.269  26.054  28.546  1.00  0.00     0.010 A 
ATOM     39  C   UNL A   1      41.157  26.769  26.497  1.00  0.00     0.010 A 
ATOM     40  C   UNL A   1      41.601  27.025  27.783  1.00  0.00    -0.014 A 
BRANCH  40  41
ATOM     41  C   UNL A   1      41.388  28.359  28.300  1.00  0.00     0.031 A 
ATOM     42  C   UNL A   1      42.467  29.311  27.973  1.00  0.00     0.074 A 
ATOM     43  C   UNL A   1      40.231  28.739  28.876  1.00  0.00     0.049 A 
ATOM     44  N   UNL A   1      43.391  29.728  28.769  1.00  0.00    -0.248 NA
ATOM     45  C   UNL A   1      42.634  29.734  26.574  1.00  0.00     0.031 C 
ATOM     46  C   UNL A   1      38.965  27.995  28.953  1.00  0.00     0.029 A 
ATOM     47  N   UNL A   1      39.916  29.931  29.443  1.00  0.00    -0.354 N 
ATOM     48  C   UNL A   1      44.125  30.644  28.031  1.00  0.00     0.074 A 
ATOM     49  C   UNL A   1      43.750  30.462  26.651  1.00  0.00     0.031 C 
ATOM     50  C   UNL A   1      37.969  28.831  29.328  1.00  0.00     0.029 A 
ATOM     51  C   UNL A   1      38.563  30.097  29.710  1.00  0.00     0.049 A 
ATOM     52  H   UNL A   1      40.589  30.619  29.649  1.00  0.00     0.167 HD
ATOM     53  C   UNL A   1      44.748  31.687  28.642  1.00  0.00     0.031 A 
ATOM     54  C   UNL A   1      37.989  31.206  30.228  1.00  0.00     0.031 A 
ATOM     55  C   UNL A   1      44.721  31.561  30.075  1.00  0.00     0.049 A 
ATOM     56  C   UNL A   1      39.043  31.922  30.977  1.00  0.00     0.074 A 
ATOM     57  C   UNL A   1      45.417  30.855  31.030  1.00  0.00     0.029 A 
ATOM     58  N   UNL A   1      43.528  31.944  30.637  1.00  0.00    -0.354 N 
ATOM     59  N   UNL A   1      39.632  31.428  32.029  1.00  0.00    -0.248 NA
ATOM     60  C   UNL A   1      39.702  33.072  30.369  1.00  0.00     0.031 C 
ATOM     61  C   UNL A   1      44.520  30.675  32.128  1.00  0.00     0.029 A 
ATOM     62  C   UNL A   1      43.316  31.309  31.834  1.00  0.00     0.049 A 
ATOM     63  H   UNL A   1      42.907  32.593  30.235  1.00  0.00     0.167 HD
ATOM     64  C   UNL A   1      40.919  31.921  31.958  1.00  0.00     0.074 A 
ATOM     65  C   UNL A   1      40.855  33.052  31.043  1.00  0.00     0.031 C 
ATOM     66  C   UNL A   1      41.983  31.184  32.384  1.00  0.00     0.031 A 
BRANCH  53  67
ATOM     67  C   UNL A   1      44.940  33.020  27.979  1.00  0.00    -0.014 A 
ATOM     68  C   UNL A   1      43.839  33.868  27.790  1.00  0.00     0.009 A 
ATOM     69  C   UNL A   1      46.135  33.361  27.311  1.00  0.00     0.009 A 
ATOM     70  C   UNL A   1      43.938  35.011  26.984  1.00  0.00     0.001 A 
ATOM     71  C   UNL A   1      46.248  34.516  26.537  1.00  0.00     0.001 A 
ATOM     72  C   UNL A   1      45.143  35.338  26.366  1.00  0.00     0.000 A 
ENDBRANCH  53  67
BRANCH  54  73
ATOM     73  C   UNL A   1      36.715  31.857  29.859  1.00  0.00    -0.014 A 
ATOM     74  C   UNL A   1      35.758  32.108  30.856  1.00  0.00     0.009 A 
ATOM     75  C   UNL A   1      36.586  32.536  28.635  1.00  0.00     0.009 A 
ATOM     76  C   UNL A   1      34.772  33.082  30.677  1.00  0.00     0.001 A 
ATOM     77  C   UNL A   1      35.591  33.503  28.453  1.00  0.00     0.001 A 
ATOM     78  C   UNL A   1      34.704  33.798  29.485  1.00  0.00     0.000 A 
ENDBRANCH  54  73
BRANCH  66  79
ATOM     79  C   UNL A   1      41.719  30.066  33.349  1.00  0.00    -0.014 A 
ATOM     80  C   UNL A   1      41.515  28.731  32.962  1.00  0.00     0.009 A 
ATOM     81  C   UNL A   1      41.779  30.366  34.717  1.00  0.00     0.009 A 
ATOM     82  C   UNL A   1      41.382  27.725  33.927  1.00  0.00     0.001 A 
ATOM     83  C   UNL A   1      41.660  29.362  35.678  1.00  0.00     0.001 A 
ATOM     84  C   UNL A   1      41.464  28.041  35.284  1.00  0.00     0.000 A 
ENDBRANCH  66  79
ENDBRANCH  40  41
ENDBRANCH  32  35
ENDBRANCH  30  31
ENDBRANCH   1  30
TORSDOF 14
ENDMDL
