MODEL 1
REMARK VINA RESULT:     -11.9      0.000      0.000
REMARK SMILES O=C(NCCCNC(=O)c1nn(-c2ccc([N+](=O)[O-])cc2)cc1CCO)c1ccc(-c2c3nc(c(-c4ccccc4)c4ccc([nH]4)c(-c4ccccc4)c4nc(c(-c5ccccc5)c5ccc2[nH]5)C=C4)C=C3)cc1
REMARK SMILES IDX 5 1 4 2 3 3 1 4 2 5 27 7 28 8 74 9 29 10 73 11 30 12 31 13
REMARK SMILES IDX 32 14 67 15 33 16 72 17 66 18 68 19 34 20 71 21 65 22 64 23
REMARK SMILES IDX 35 25 57 26 42 27 56 28 43 29 46 30 55 31 69 32 44 33 45 34
REMARK SMILES IDX 54 36 70 37 47 38 36 39 37 40 41 41 38 42 40 43 39 44 58 45
REMARK SMILES IDX 59 46 63 47 60 48 62 49 61 50 48 51 49 52 53 53 50 54 52 55
REMARK SMILES IDX 51 56 6 57 7 58 8 59 9 61 10 62 11 63 23 64 12 65 22 66
REMARK SMILES IDX 24 67 25 68 26 69 13 71 14 72 21 73 15 74 20 75 16 76 17 77
REMARK SMILES IDX 18 78 19 79
REMARK H PARENT 3 6 68 24 46 35 7 60 26 70
REMARK Flexibility Score: inf
ROOT
ATOM      1  C   UNL A   1      37.049  23.078  24.736  1.00  0.00     0.042 C 
ENDROOT
BRANCH   1   2
ATOM      2  C   UNL A   1      37.549  22.175  25.861  1.00  0.00     0.118 C 
BRANCH   2   3
ATOM      3  N   UNL A   1      38.962  21.855  25.808  1.00  0.00    -0.352 N 
ATOM      4  O   UNL A   1      41.142  21.772  26.141  1.00  0.00    -0.269 OA
ATOM      5  C   UNL A   1      40.107  22.428  26.283  1.00  0.00     0.251 C 
ATOM      6  H   UNL A   1      39.139  21.025  25.309  1.00  0.00     0.163 HD
BRANCH   5   7
ATOM      7  C   UNL A   1      40.207  23.782  26.889  1.00  0.00     0.039 A 
ATOM      8  C   UNL A   1      39.412  24.885  26.570  1.00  0.00     0.014 A 
ATOM      9  C   UNL A   1      41.193  23.931  27.885  1.00  0.00     0.014 A 
ATOM     10  C   UNL A   1      39.645  26.119  27.179  1.00  0.00     0.010 A 
ATOM     11  C   UNL A   1      41.420  25.155  28.503  1.00  0.00     0.010 A 
ATOM     12  C   UNL A   1      40.661  26.259  28.131  1.00  0.00    -0.014 A 
BRANCH  12  13
ATOM     13  C   UNL A   1      40.787  27.532  28.841  1.00  0.00     0.031 A 
ATOM     14  C   UNL A   1      41.788  28.481  28.270  1.00  0.00     0.074 A 
ATOM     15  C   UNL A   1      39.952  27.936  29.822  1.00  0.00     0.049 A 
ATOM     16  N   UNL A   1      42.802  29.031  28.858  1.00  0.00    -0.248 NA
ATOM     17  C   UNL A   1      41.675  28.808  26.838  1.00  0.00     0.031 C 
ATOM     18  C   UNL A   1      38.727  27.282  30.286  1.00  0.00     0.029 A 
ATOM     19  N   UNL A   1      39.970  29.101  30.535  1.00  0.00    -0.354 N 
ATOM     20  C   UNL A   1      43.372  29.891  27.919  1.00  0.00     0.074 A 
ATOM     21  C   UNL A   1      42.708  29.633  26.667  1.00  0.00     0.031 C 
ATOM     22  C   UNL A   1      38.009  28.158  31.027  1.00  0.00     0.029 A 
ATOM     23  C   UNL A   1      38.781  29.377  31.198  1.00  0.00     0.049 A 
ATOM     24  H   UNL A   1      40.756  29.693  30.575  1.00  0.00     0.167 HD
ATOM     25  C   UNL A   1      44.223  30.895  28.267  1.00  0.00     0.031 A 
ATOM     26  C   UNL A   1      38.429  30.545  31.793  1.00  0.00     0.031 A 
ATOM     27  C   UNL A   1      44.782  30.713  29.576  1.00  0.00     0.049 A 
ATOM     28  C   UNL A   1      39.661  31.331  32.021  1.00  0.00     0.074 A 
ATOM     29  C   UNL A   1      45.567  29.748  30.176  1.00  0.00     0.029 A 
ATOM     30  N   UNL A   1      44.257  31.456  30.605  1.00  0.00    -0.354 N 
ATOM     31  N   UNL A   1      40.577  31.005  32.884  1.00  0.00    -0.248 NA
ATOM     32  C   UNL A   1      40.072  32.282  31.002  1.00  0.00     0.031 C 
ATOM     33  C   UNL A   1      45.072  29.650  31.508  1.00  0.00     0.029 A 
ATOM     34  C   UNL A   1      44.056  30.596  31.652  1.00  0.00     0.049 A 
ATOM     35  H   UNL A   1      44.064  32.422  30.592  1.00  0.00     0.167 HD
ATOM     36  C   UNL A   1      41.772  31.348  32.273  1.00  0.00     0.074 A 
ATOM     37  C   UNL A   1      41.395  32.230  31.171  1.00  0.00     0.031 C 
ATOM     38  C   UNL A   1      42.923  30.665  32.546  1.00  0.00     0.031 A 
BRANCH  25  39
ATOM     39  C   UNL A   1      44.265  32.226  27.558  1.00  0.00    -0.014 A 
ATOM     40  C   UNL A   1      43.756  33.368  28.204  1.00  0.00     0.009 A 
ATOM     41  C   UNL A   1      44.527  32.343  26.180  1.00  0.00     0.009 A 
ATOM     42  C   UNL A   1      43.472  34.541  27.494  1.00  0.00     0.001 A 
ATOM     43  C   UNL A   1      44.284  33.526  25.476  1.00  0.00     0.001 A 
ATOM     44  C   UNL A   1      43.731  34.617  26.129  1.00  0.00     0.000 A 
ENDBRANCH  25  39
BRANCH  26  45
ATOM     45  C   UNL A   1      37.088  31.149  31.945  1.00  0.00    -0.014 A 
ATOM     46  C   UNL A   1      36.697  31.745  33.154  1.00  0.00     0.009 A 
ATOM     47  C   UNL A   1      36.292  31.388  30.810  1.00  0.00     0.009 A 
ATOM     48  C   UNL A   1      35.572  32.579  33.215  1.00  0.00     0.001 A 
ATOM     49  C   UNL A   1      35.168  32.218  30.871  1.00  0.00     0.001 A 
ATOM     50  C   UNL A   1      34.817  32.826  32.071  1.00  0.00     0.000 A 
ENDBRANCH  26  45
BRANCH  38  51
ATOM     51  C   UNL A   1      42.912  29.694  33.701  1.00  0.00    -0.014 A 
ATOM     52  C   UNL A   1      43.296  30.051  35.007  1.00  0.00     0.009 A 
ATOM     53  C   UNL A   1      42.362  28.420  33.499  1.00  0.00     0.009 A 
ATOM     54  C   UNL A   1      43.169  29.147  36.067  1.00  0.00     0.001 A 
ATOM     55  C   UNL A   1      42.212  27.526  34.562  1.00  0.00     0.001 A 
ATOM     56  C   UNL A   1      42.622  27.886  35.842  1.00  0.00     0.000 A 
ENDBRANCH  38  51
ENDBRANCH  12  13
ENDBRANCH   5   7
ENDBRANCH   2   3
ENDBRANCH   1   2
BRANCH   1  57
ATOM     57  C   UNL A   1      35.880  23.993  25.118  1.00  0.00     0.118 C 
BRANCH  57  58
ATOM     58  N   UNL A   1      35.102  24.436  23.968  1.00  0.00    -0.351 N 
ATOM     59  C   UNL A   1      33.955  23.906  23.437  1.00  0.00     0.272 C 
ATOM     60  H   UNL A   1      35.450  25.233  23.506  1.00  0.00     0.163 HD
ATOM     61  O   UNL A   1      33.504  24.382  22.380  1.00  0.00    -0.267 OA
BRANCH  59  62
ATOM     62  C   UNL A   1      33.321  22.760  24.082  1.00  0.00     0.153 A 
ATOM     63  N   UNL A   1      33.951  21.575  24.181  1.00  0.00    -0.162 NA
ATOM     64  C   UNL A   1      32.051  22.718  24.729  1.00  0.00     0.006 A 
ATOM     65  N   UNL A   1      33.027  20.732  24.679  1.00  0.00    -0.240 N 
ATOM     66  C   UNL A   1      31.858  21.375  24.998  1.00  0.00     0.119 A 
BRANCH  64  67
ATOM     67  C   UNL A   1      31.104  23.848  25.004  1.00  0.00     0.068 C 
BRANCH  67  68
ATOM     68  C   UNL A   1      30.680  23.941  26.474  1.00  0.00     0.161 C 
BRANCH  68  69
ATOM     69  O   UNL A   1      29.478  24.684  26.642  1.00  0.00    -0.396 OA
ATOM     70  H   UNL A   1      29.477  25.103  27.517  1.00  0.00     0.210 HD
ENDBRANCH  68  69
ENDBRANCH  67  68
ENDBRANCH  64  67
BRANCH  65  71
ATOM     71  C   UNL A   1      33.314  19.353  24.787  1.00  0.00     0.065 A 
ATOM     72  C   UNL A   1      32.379  18.514  25.410  1.00  0.00     0.035 A 
ATOM     73  C   UNL A   1      34.533  18.845  24.318  1.00  0.00     0.035 A 
ATOM     74  C   UNL A   1      32.646  17.149  25.538  1.00  0.00     0.088 A 
ATOM     75  C   UNL A   1      34.826  17.490  24.501  1.00  0.00     0.088 A 
ATOM     76  C   UNL A   1      33.876  16.646  25.098  1.00  0.00     0.269 A 
BRANCH  76  77
ATOM     77  N   UNL A   1      34.178  15.220  25.273  1.00  0.00     0.062 N 
ATOM     78  O   UNL A   1      35.368  14.878  25.267  1.00  0.00    -0.258 OA
ATOM     79  O   UNL A   1      33.223  14.444  25.420  1.00  0.00    -0.258 OA
ENDBRANCH  76  77
ENDBRANCH  65  71
ENDBRANCH  59  62
ENDBRANCH  57  58
ENDBRANCH   1  57
TORSDOF 15
ENDMDL
MODEL 2
REMARK VINA RESULT:     -11.7      2.946      7.622
REMARK SMILES O=C(NCCCNC(=O)c1nn(-c2ccc([N+](=O)[O-])cc2)cc1CCO)c1ccc(-c2c3nc(c(-c4ccccc4)c4ccc([nH]4)c(-c4ccccc4)c4nc(c(-c5ccccc5)c5ccc2[nH]5)C=C4)C=C3)cc1
REMARK SMILES IDX 5 1 4 2 3 3 1 4 2 5 27 7 28 8 74 9 29 10 73 11 30 12 31 13
REMARK SMILES IDX 32 14 67 15 33 16 72 17 66 18 68 19 34 20 71 21 65 22 64 23
REMARK SMILES IDX 35 25 57 26 42 27 56 28 43 29 46 30 55 31 69 32 44 33 45 34
REMARK SMILES IDX 54 36 70 37 47 38 36 39 37 40 41 41 38 42 40 43 39 44 58 45
REMARK SMILES IDX 59 46 63 47 60 48 62 49 61 50 48 51 49 52 53 53 50 54 52 55
REMARK SMILES IDX 51 56 6 57 7 58 8 59 9 61 10 62 11 63 23 64 12 65 22 66
REMARK SMILES IDX 24 67 25 68 26 69 13 71 14 72 21 73 15 74 20 75 16 76 17 77
REMARK SMILES IDX 18 78 19 79
REMARK H PARENT 3 6 68 24 46 35 7 60 26 70
REMARK Flexibility Score: inf
ROOT
ATOM      1  C   UNL A   1      32.110  29.669  27.131  1.00  0.00     0.042 C 
ENDROOT
BRANCH   1   2
ATOM      2  C   UNL A   1      33.437  30.369  26.851  1.00  0.00     0.118 C 
BRANCH   2   3
ATOM      3  N   UNL A   1      33.740  31.482  27.728  1.00  0.00    -0.352 N 
ATOM      4  O   UNL A   1      34.745  32.991  28.987  1.00  0.00    -0.269 OA
ATOM      5  C   UNL A   1      34.830  31.885  28.446  1.00  0.00     0.251 C 
ATOM      6  H   UNL A   1      32.977  32.095  27.832  1.00  0.00     0.163 HD
BRANCH   5   7
ATOM      7  C   UNL A   1      36.060  31.081  28.672  1.00  0.00     0.039 A 
ATOM      8  C   UNL A   1      36.159  29.691  28.588  1.00  0.00     0.014 A 
ATOM      9  C   UNL A   1      37.220  31.818  28.981  1.00  0.00     0.014 A 
ATOM     10  C   UNL A   1      37.366  29.053  28.876  1.00  0.00     0.010 A 
ATOM     11  C   UNL A   1      38.428  31.189  29.257  1.00  0.00     0.010 A 
ATOM     12  C   UNL A   1      38.496  29.800  29.229  1.00  0.00    -0.014 A 
BRANCH  12  13
ATOM     13  C   UNL A   1      39.773  29.105  29.393  1.00  0.00     0.031 A 
ATOM     14  C   UNL A   1      40.216  28.917  30.807  1.00  0.00     0.074 A 
ATOM     15  C   UNL A   1      40.439  28.499  28.388  1.00  0.00     0.049 A 
ATOM     16  N   UNL A   1      41.323  29.293  31.361  1.00  0.00    -0.248 NA
ATOM     17  C   UNL A   1      39.267  28.278  31.736  1.00  0.00     0.031 C 
ATOM     18  C   UNL A   1      39.996  28.303  27.006  1.00  0.00     0.029 A 
ATOM     19  N   UNL A   1      41.620  27.816  28.434  1.00  0.00    -0.354 N 
ATOM     20  C   UNL A   1      41.284  28.811  32.669  1.00  0.00     0.074 A 
ATOM     21  C   UNL A   1      39.956  28.291  32.878  1.00  0.00     0.031 C 
ATOM     22  C   UNL A   1      40.779  27.370  26.416  1.00  0.00     0.029 A 
ATOM     23  C   UNL A   1      41.849  27.004  27.329  1.00  0.00     0.049 A 
ATOM     24  H   UNL A   1      42.255  27.892  29.183  1.00  0.00     0.167 HD
ATOM     25  C   UNL A   1      42.400  28.695  33.441  1.00  0.00     0.031 A 
ATOM     26  C   UNL A   1      42.811  26.057  27.196  1.00  0.00     0.031 A 
ATOM     27  C   UNL A   1      43.492  29.483  32.949  1.00  0.00     0.049 A 
ATOM     28  C   UNL A   1      43.853  26.317  28.213  1.00  0.00     0.074 A 
ATOM     29  C   UNL A   1      43.702  30.831  32.730  1.00  0.00     0.029 A 
ATOM     30  N   UNL A   1      44.490  28.836  32.262  1.00  0.00    -0.354 N 
ATOM     31  N   UNL A   1      44.657  27.338  28.179  1.00  0.00    -0.248 NA
ATOM     32  C   UNL A   1      43.745  25.648  29.499  1.00  0.00     0.031 C 
ATOM     33  C   UNL A   1      44.482  30.890  31.539  1.00  0.00     0.029 A 
ATOM     34  C   UNL A   1      44.744  29.579  31.139  1.00  0.00     0.049 A 
ATOM     35  H   UNL A   1      44.937  28.000  32.527  1.00  0.00     0.167 HD
ATOM     36  C   UNL A   1      44.808  27.709  29.505  1.00  0.00     0.074 A 
ATOM     37  C   UNL A   1      44.318  26.569  30.276  1.00  0.00     0.031 C 
ATOM     38  C   UNL A   1      45.054  29.008  29.848  1.00  0.00     0.031 A 
BRANCH  25  39
ATOM     39  C   UNL A   1      42.603  27.581  34.438  1.00  0.00    -0.014 A 
ATOM     40  C   UNL A   1      42.984  26.307  33.981  1.00  0.00     0.009 A 
ATOM     41  C   UNL A   1      42.160  27.669  35.772  1.00  0.00     0.009 A 
ATOM     42  C   UNL A   1      42.872  25.175  34.799  1.00  0.00     0.001 A 
ATOM     43  C   UNL A   1      42.088  26.548  36.605  1.00  0.00     0.001 A 
ATOM     44  C   UNL A   1      42.420  25.297  36.109  1.00  0.00     0.000 A 
ENDBRANCH  25  39
BRANCH  26  45
ATOM     45  C   UNL A   1      42.775  24.791  26.433  1.00  0.00    -0.014 A 
ATOM     46  C   UNL A   1      43.664  24.564  25.370  1.00  0.00     0.009 A 
ATOM     47  C   UNL A   1      42.053  23.691  26.928  1.00  0.00     0.009 A 
ATOM     48  C   UNL A   1      43.849  23.276  24.848  1.00  0.00     0.001 A 
ATOM     49  C   UNL A   1      42.235  22.406  26.407  1.00  0.00     0.001 A 
ATOM     50  C   UNL A   1      43.145  22.196  25.376  1.00  0.00     0.000 A 
ENDBRANCH  26  45
BRANCH  38  51
ATOM     51  C   UNL A   1      45.397  29.978  28.744  1.00  0.00    -0.014 A 
ATOM     52  C   UNL A   1      46.718  30.237  28.333  1.00  0.00     0.009 A 
ATOM     53  C   UNL A   1      44.350  30.541  27.999  1.00  0.00     0.009 A 
ATOM     54  C   UNL A   1      46.980  31.063  27.235  1.00  0.00     0.001 A 
ATOM     55  C   UNL A   1      44.612  31.346  26.888  1.00  0.00     0.001 A 
ATOM     56  C   UNL A   1      45.926  31.613  26.512  1.00  0.00     0.000 A 
ENDBRANCH  38  51
ENDBRANCH  12  13
ENDBRANCH   5   7
ENDBRANCH   2   3
ENDBRANCH   1   2
BRANCH   1  57
ATOM     57  C   UNL A   1      32.234  28.207  27.573  1.00  0.00     0.118 C 
BRANCH  57  58
ATOM     58  N   UNL A   1      31.064  27.406  27.236  1.00  0.00    -0.351 N 
ATOM     59  C   UNL A   1      30.914  26.449  26.266  1.00  0.00     0.272 C 
ATOM     60  H   UNL A   1      30.265  27.576  27.786  1.00  0.00     0.163 HD
ATOM     61  O   UNL A   1      29.790  25.952  26.078  1.00  0.00    -0.267 OA
BRANCH  59  62
ATOM     62  C   UNL A   1      32.055  26.076  25.435  1.00  0.00     0.153 A 
ATOM     63  N   UNL A   1      32.753  24.949  25.670  1.00  0.00    -0.162 NA
ATOM     64  C   UNL A   1      32.548  26.750  24.279  1.00  0.00     0.006 A 
ATOM     65  N   UNL A   1      33.802  25.010  24.829  1.00  0.00    -0.240 N 
ATOM     66  C   UNL A   1      33.731  26.095  23.991  1.00  0.00     0.119 A 
BRANCH  64  67
ATOM     67  C   UNL A   1      31.966  27.935  23.569  1.00  0.00     0.068 C 
BRANCH  67  68
ATOM     68  C   UNL A   1      30.826  27.570  22.611  1.00  0.00     0.161 C 
BRANCH  68  69
ATOM     69  O   UNL A   1      30.607  28.574  21.627  1.00  0.00    -0.396 OA
ATOM     70  H   UNL A   1      29.781  28.387  21.154  1.00  0.00     0.210 HD
ENDBRANCH  68  69
ENDBRANCH  67  68
ENDBRANCH  64  67
BRANCH  65  71
ATOM     71  C   UNL A   1      34.825  24.039  24.903  1.00  0.00     0.065 A 
ATOM     72  C   UNL A   1      35.526  23.703  23.736  1.00  0.00     0.035 A 
ATOM     73  C   UNL A   1      35.102  23.395  26.117  1.00  0.00     0.035 A 
ATOM     74  C   UNL A   1      36.534  22.738  23.784  1.00  0.00     0.088 A 
ATOM     75  C   UNL A   1      36.069  22.386  26.152  1.00  0.00     0.088 A 
ATOM     76  C   UNL A   1      36.791  22.071  24.988  1.00  0.00     0.269 A 
BRANCH  76  77
ATOM     77  N   UNL A   1      37.818  21.024  25.030  1.00  0.00     0.062 N 
ATOM     78  O   UNL A   1      38.935  21.330  25.469  1.00  0.00    -0.258 OA
ATOM     79  O   UNL A   1      37.506  19.895  24.626  1.00  0.00    -0.258 OA
ENDBRANCH  76  77
ENDBRANCH  65  71
ENDBRANCH  59  62
ENDBRANCH  57  58
ENDBRANCH   1  57
TORSDOF 15
ENDMDL
MODEL 3
REMARK VINA RESULT:     -11.7      5.386     12.003
REMARK SMILES O=C(NCCCNC(=O)c1nn(-c2ccc([N+](=O)[O-])cc2)cc1CCO)c1ccc(-c2c3nc(c(-c4ccccc4)c4ccc([nH]4)c(-c4ccccc4)c4nc(c(-c5ccccc5)c5ccc2[nH]5)C=C4)C=C3)cc1
REMARK SMILES IDX 5 1 4 2 3 3 1 4 2 5 27 7 28 8 74 9 29 10 73 11 30 12 31 13
REMARK SMILES IDX 32 14 67 15 33 16 72 17 66 18 68 19 34 20 71 21 65 22 64 23
REMARK SMILES IDX 35 25 57 26 42 27 56 28 43 29 46 30 55 31 69 32 44 33 45 34
REMARK SMILES IDX 54 36 70 37 47 38 36 39 37 40 41 41 38 42 40 43 39 44 58 45
REMARK SMILES IDX 59 46 63 47 60 48 62 49 61 50 48 51 49 52 53 53 50 54 52 55
REMARK SMILES IDX 51 56 6 57 7 58 8 59 9 61 10 62 11 63 23 64 12 65 22 66
REMARK SMILES IDX 24 67 25 68 26 69 13 71 14 72 21 73 15 74 20 75 16 76 17 77
REMARK SMILES IDX 18 78 19 79
REMARK H PARENT 3 6 68 24 46 35 7 60 26 70
REMARK Flexibility Score: inf
ROOT
ATOM      1  C   UNL A   1      40.260  33.741  35.195  1.00  0.00     0.042 C 
ENDROOT
BRANCH   1   2
ATOM      2  C   UNL A   1      40.914  34.338  33.952  1.00  0.00     0.118 C 
BRANCH   2   3
ATOM      3  N   UNL A   1      40.041  34.465  32.801  1.00  0.00    -0.352 N 
ATOM      4  O   UNL A   1      38.783  34.084  31.028  1.00  0.00    -0.269 OA
ATOM      5  C   UNL A   1      39.674  33.654  31.765  1.00  0.00     0.251 C 
ATOM      6  H   UNL A   1      39.609  35.348  32.755  1.00  0.00     0.163 HD
BRANCH   5   7
ATOM      7  C   UNL A   1      40.301  32.348  31.428  1.00  0.00     0.039 A 
ATOM      8  C   UNL A   1      41.533  31.885  31.892  1.00  0.00     0.014 A 
ATOM      9  C   UNL A   1      39.551  31.518  30.571  1.00  0.00     0.014 A 
ATOM     10  C   UNL A   1      42.032  30.657  31.456  1.00  0.00     0.010 A 
ATOM     11  C   UNL A   1      40.038  30.288  30.144  1.00  0.00     0.010 A 
ATOM     12  C   UNL A   1      41.294  29.867  30.567  1.00  0.00    -0.014 A 
BRANCH  12  13
ATOM     13  C   UNL A   1      41.789  28.530  30.238  1.00  0.00     0.031 A 
ATOM     14  C   UNL A   1      42.627  27.886  31.293  1.00  0.00     0.074 A 
ATOM     15  C   UNL A   1      41.391  27.820  29.162  1.00  0.00     0.049 A 
ATOM     16  N   UNL A   1      43.833  27.426  31.195  1.00  0.00    -0.248 NA
ATOM     17  C   UNL A   1      42.063  27.803  32.652  1.00  0.00     0.031 C 
ATOM     18  C   UNL A   1      40.338  28.157  28.201  1.00  0.00     0.029 A 
ATOM     19  N   UNL A   1      41.775  26.569  28.772  1.00  0.00    -0.354 N 
ATOM     20  C   UNL A   1      44.132  26.859  32.433  1.00  0.00     0.074 A 
ATOM     21  C   UNL A   1      43.054  27.214  33.321  1.00  0.00     0.031 C 
ATOM     22  C   UNL A   1      40.016  27.053  27.488  1.00  0.00     0.029 A 
ATOM     23  C   UNL A   1      40.923  25.976  27.848  1.00  0.00     0.049 A 
ATOM     24  H   UNL A   1      42.585  26.125  29.116  1.00  0.00     0.167 HD
ATOM     25  C   UNL A   1      45.151  25.973  32.606  1.00  0.00     0.031 A 
ATOM     26  C   UNL A   1      40.923  24.679  27.452  1.00  0.00     0.031 A 
ATOM     27  C   UNL A   1      46.104  26.016  31.534  1.00  0.00     0.049 A 
ATOM     28  C   UNL A   1      42.233  24.091  27.806  1.00  0.00     0.074 A 
ATOM     29  C   UNL A   1      46.942  26.981  31.012  1.00  0.00     0.029 A 
ATOM     30  N   UNL A   1      46.047  25.022  30.588  1.00  0.00    -0.354 N 
ATOM     31  N   UNL A   1      43.351  24.414  27.226  1.00  0.00    -0.248 NA
ATOM     32  C   UNL A   1      42.365  23.422  29.089  1.00  0.00     0.031 C 
ATOM     33  C   UNL A   1      46.928  26.754  29.605  1.00  0.00     0.029 A 
ATOM     34  C   UNL A   1      46.129  25.635  29.365  1.00  0.00     0.049 A 
ATOM     35  H   UNL A   1      45.963  24.056  30.756  1.00  0.00     0.167 HD
ATOM     36  C   UNL A   1      44.291  24.399  28.242  1.00  0.00     0.074 A 
ATOM     37  C   UNL A   1      43.653  23.673  29.338  1.00  0.00     0.031 C 
ATOM     38  C   UNL A   1      45.387  25.213  28.199  1.00  0.00     0.031 A 
BRANCH  25  39
ATOM     39  C   UNL A   1      45.086  24.816  33.573  1.00  0.00    -0.014 A 
ATOM     40  C   UNL A   1      44.199  23.755  33.318  1.00  0.00     0.009 A 
ATOM     41  C   UNL A   1      45.656  24.870  34.859  1.00  0.00     0.009 A 
ATOM     42  C   UNL A   1      43.860  22.833  34.317  1.00  0.00     0.001 A 
ATOM     43  C   UNL A   1      45.353  23.927  35.845  1.00  0.00     0.001 A 
ATOM     44  C   UNL A   1      44.433  22.924  35.581  1.00  0.00     0.000 A 
ENDBRANCH  25  39
BRANCH  26  45
ATOM     45  C   UNL A   1      39.787  23.833  27.026  1.00  0.00    -0.014 A 
ATOM     46  C   UNL A   1      38.550  24.403  26.685  1.00  0.00     0.009 A 
ATOM     47  C   UNL A   1      40.003  22.485  26.685  1.00  0.00     0.009 A 
ATOM     48  C   UNL A   1      37.581  23.662  25.995  1.00  0.00     0.001 A 
ATOM     49  C   UNL A   1      39.035  21.744  26.000  1.00  0.00     0.001 A 
ATOM     50  C   UNL A   1      37.829  22.338  25.641  1.00  0.00     0.000 A 
ENDBRANCH  26  45
BRANCH  38  51
ATOM     51  C   UNL A   1      45.672  25.947  26.912  1.00  0.00    -0.014 A 
ATOM     52  C   UNL A   1      44.999  27.124  26.536  1.00  0.00     0.009 A 
ATOM     53  C   UNL A   1      46.751  25.520  26.124  1.00  0.00     0.009 A 
ATOM     54  C   UNL A   1      45.371  27.828  25.386  1.00  0.00     0.001 A 
ATOM     55  C   UNL A   1      47.137  26.237  24.989  1.00  0.00     0.001 A 
ATOM     56  C   UNL A   1      46.443  27.385  24.616  1.00  0.00     0.000 A 
ENDBRANCH  38  51
ENDBRANCH  12  13
ENDBRANCH   5   7
ENDBRANCH   2   3
ENDBRANCH   1   2
BRANCH   1  57
ATOM     57  C   UNL A   1      40.623  32.278  35.473  1.00  0.00     0.118 C 
BRANCH  57  58
ATOM     58  N   UNL A   1      39.710  31.630  36.407  1.00  0.00    -0.351 N 
ATOM     59  C   UNL A   1      38.371  31.365  36.272  1.00  0.00     0.272 C 
ATOM     60  H   UNL A   1      40.113  31.339  37.256  1.00  0.00     0.163 HD
ATOM     61  O   UNL A   1      37.751  30.890  37.240  1.00  0.00    -0.267 OA
BRANCH  59  62
ATOM     62  C   UNL A   1      37.688  31.699  35.026  1.00  0.00     0.153 A 
ATOM     63  N   UNL A   1      36.973  32.832  34.902  1.00  0.00    -0.162 NA
ATOM     64  C   UNL A   1      37.714  30.975  33.798  1.00  0.00     0.006 A 
ATOM     65  N   UNL A   1      36.371  32.733  33.702  1.00  0.00    -0.240 N 
ATOM     66  C   UNL A   1      36.770  31.613  33.015  1.00  0.00     0.119 A 
BRANCH  64  67
ATOM     67  C   UNL A   1      38.522  29.763  33.444  1.00  0.00     0.068 C 
BRANCH  67  68
ATOM     68  C   UNL A   1      37.745  28.737  32.609  1.00  0.00     0.161 C 
BRANCH  68  69
ATOM     69  O   UNL A   1      38.147  27.401  32.889  1.00  0.00    -0.396 OA
ATOM     70  H   UNL A   1      38.271  27.295  33.845  1.00  0.00     0.210 HD
ENDBRANCH  68  69
ENDBRANCH  67  68
ENDBRANCH  64  67
BRANCH  65  71
ATOM     71  C   UNL A   1      35.425  33.703  33.303  1.00  0.00     0.065 A 
ATOM     72  C   UNL A   1      34.782  33.552  32.066  1.00  0.00     0.035 A 
ATOM     73  C   UNL A   1      35.169  34.816  34.114  1.00  0.00     0.035 A 
ATOM     74  C   UNL A   1      33.851  34.504  31.646  1.00  0.00     0.088 A 
ATOM     75  C   UNL A   1      34.282  35.801  33.665  1.00  0.00     0.088 A 
ATOM     76  C   UNL A   1      33.617  35.634  32.440  1.00  0.00     0.269 A 
BRANCH  76  77
ATOM     77  N   UNL A   1      32.673  36.659  31.979  1.00  0.00     0.062 N 
ATOM     78  O   UNL A   1      31.703  36.916  32.704  1.00  0.00    -0.258 OA
ATOM     79  O   UNL A   1      32.906  37.208  30.892  1.00  0.00    -0.258 OA
ENDBRANCH  76  77
ENDBRANCH  65  71
ENDBRANCH  59  62
ENDBRANCH  57  58
ENDBRANCH   1  57
TORSDOF 15
ENDMDL
