MODEL 1
REMARK VINA RESULT:     -11.8      0.000      0.000
REMARK SMILES COc1ccc(C(=O)NC(=S)Nc2ccc(Br)cc2C(=O)NCCCNC(=O)c2ccc(-c3c4nc(c(-c5ccccc5)c5ccc([nH]5)c(-c5ccccc5)c5nc(c(-c6ccccc6)c6ccc3[nH]6)C=C5)C=C4)cc2)cc1Br
REMARK SMILES IDX 20 1 21 2 22 3 19 5 13 6 14 7 15 8 18 9 16 10 17 11 12 12
REMARK SMILES IDX 10 14 11 15 9 16 7 17 8 18 6 20 3 21 4 22 78 23 5 24 77 25
REMARK SMILES IDX 79 26 2 27 1 28 23 29 24 30 25 31 26 32 27 33 28 35 29 36
REMARK SMILES IDX 30 37 76 38 31 39 75 40 32 41 33 42 34 43 69 44 35 45 74 46
REMARK SMILES IDX 68 47 70 48 36 49 73 50 67 51 66 52 37 54 59 55 44 56 58 57
REMARK SMILES IDX 45 58 48 59 57 60 71 61 46 62 47 63 56 65 72 66 49 67 38 68
REMARK SMILES IDX 39 69 43 70 40 71 42 72 41 73 60 74 61 75 65 76 62 77 64 78
REMARK SMILES IDX 63 79 50 80 51 81 55 82 52 83 54 84 53 85
REMARK H PARENT 22 4 12 13 9 19 26 34 70 53 48 64
REMARK Flexibility Score: inf
ROOT
ATOM      1  C   UNL A   1      33.091  28.878  24.326  1.00  0.00     0.253 C 
ATOM      2  O   UNL A   1      34.161  28.434  23.923  1.00  0.00    -0.269 OA
ATOM      3  N   UNL A   1      33.060  29.662  25.441  1.00  0.00    -0.352 N 
ATOM      4  H   UNL A   1      33.906  30.024  25.793  1.00  0.00     0.163 HD
ENDROOT
BRANCH   1   5
ATOM      5  C   UNL A   1      31.819  28.531  23.623  1.00  0.00     0.064 A 
ATOM      6  C   UNL A   1      30.684  27.273  24.123  1.00  0.00     0.053 A 
ATOM      7  C   UNL A   1      28.904  27.390  23.837  1.00  0.00     0.028 A 
ATOM      8  C   UNL A   1      28.177  28.637  22.787  1.00  0.00     0.018 A 
ATOM      9  C   UNL A   1      31.233  29.802  22.543  1.00  0.00     0.031 A 
ATOM     10  C   UNL A   1      29.272  29.876  22.023  1.00  0.00     0.018 A 
ATOM     11  Br  UNL A   1      28.048  30.911  20.823  1.00  0.00    -0.051 Br
BRANCH   6  12
ATOM     12  N   UNL A   1      31.046  25.959  23.539  1.00  0.00    -0.332 N 
ATOM     13  H   UNL A   1      30.853  25.904  22.577  1.00  0.00     0.169 HD
BRANCH  12  14
ATOM     14  C   UNL A   1      31.597  24.788  24.046  1.00  0.00     0.177 C 
ATOM     15  S   UNL A   1      32.448  23.849  22.935  1.00  0.00    -0.040 S 
BRANCH  14  16
ATOM     16  N   UNL A   1      31.580  24.279  25.388  1.00  0.00    -0.299 N 
ATOM     17  C   UNL A   1      32.169  23.552  26.559  1.00  0.00     0.257 C 
ATOM     18  O   UNL A   1      31.529  23.448  27.600  1.00  0.00    -0.269 OA
ATOM     19  H   UNL A   1      30.698  24.560  25.721  1.00  0.00     0.172 HD
BRANCH  17  20
ATOM     20  C   UNL A   1      33.506  22.929  26.447  1.00  0.00     0.041 A 
ATOM     21  C   UNL A   1      36.234  20.854  24.961  1.00  0.00     0.133 A 
ATOM     22  C   UNL A   1      36.480  22.527  25.540  1.00  0.00     0.048 A 
ATOM     23  C   UNL A   1      34.582  20.118  25.130  1.00  0.00     0.060 A 
ATOM     24  C   UNL A   1      35.144  23.526  26.239  1.00  0.00     0.018 A 
ATOM     25  C   UNL A   1      33.204  21.301  26.007  1.00  0.00     0.033 A 
ATOM     26  Br  UNL A   1      34.634  18.268  24.391  1.00  0.00    -0.047 Br
BRANCH  21  27
ATOM     27  O   UNL A   1      37.241  20.229  24.289  1.00  0.00    -0.496 OA
ATOM     28  C   UNL A   1      38.138  19.657  25.245  1.00  0.00     0.278 C 
ENDBRANCH  21  27
ENDBRANCH  17  20
ENDBRANCH  14  16
ENDBRANCH  12  14
ENDBRANCH   6  12
ENDBRANCH   1   5
BRANCH   3  29
ATOM     29  C   UNL A   1      31.844  29.979  26.112  1.00  0.00     0.118 C 
BRANCH  29  30
ATOM     30  C   UNL A   1      31.613  31.423  26.411  1.00  0.00     0.042 C 
BRANCH  30  31
ATOM     31  C   UNL A   1      32.760  32.023  27.161  1.00  0.00     0.118 C 
BRANCH  31  32
ATOM     32  N   UNL A   1      32.520  33.423  27.507  1.00  0.00    -0.352 N 
ATOM     33  C   UNL A   1      33.166  34.233  28.410  1.00  0.00     0.251 C 
ATOM     34  H   UNL A   1      31.781  33.852  27.018  1.00  0.00     0.163 HD
ATOM     35  O   UNL A   1      32.666  35.296  28.761  1.00  0.00    -0.269 OA
BRANCH  33  36
ATOM     36  C   UNL A   1      34.454  33.784  28.970  1.00  0.00     0.039 A 
ATOM     37  C   UNL A   1      34.485  33.009  30.127  1.00  0.00     0.014 A 
ATOM     38  C   UNL A   1      35.633  34.078  28.288  1.00  0.00     0.014 A 
ATOM     39  C   UNL A   1      35.698  32.462  30.538  1.00  0.00     0.010 A 
ATOM     40  C   UNL A   1      36.774  33.356  28.563  1.00  0.00     0.010 A 
ATOM     41  C   UNL A   1      36.840  32.585  29.725  1.00  0.00    -0.014 A 
BRANCH  41  42
ATOM     42  C   UNL A   1      38.133  31.969  30.088  1.00  0.00     0.031 A 
ATOM     43  C   UNL A   1      39.072  32.702  31.010  1.00  0.00     0.074 A 
ATOM     44  C   UNL A   1      38.483  30.788  29.546  1.00  0.00     0.049 A 
ATOM     45  N   UNL A   1      40.262  32.351  31.421  1.00  0.00    -0.248 NA
ATOM     46  C   UNL A   1      38.636  34.020  31.512  1.00  0.00     0.031 C 
ATOM     47  C   UNL A   1      37.678  30.014  28.596  1.00  0.00     0.029 A 
ATOM     48  N   UNL A   1      39.606  30.025  29.726  1.00  0.00    -0.354 N 
ATOM     49  C   UNL A   1      40.713  33.404  32.206  1.00  0.00     0.074 A 
ATOM     50  C   UNL A   1      39.715  34.443  32.148  1.00  0.00     0.031 C 
ATOM     51  C   UNL A   1      38.307  28.861  28.327  1.00  0.00     0.029 A 
ATOM     52  C   UNL A   1      39.585  28.843  29.029  1.00  0.00     0.049 A 
ATOM     53  H   UNL A   1      40.358  30.299  30.301  1.00  0.00     0.167 HD
ATOM     54  C   UNL A   1      41.845  33.488  32.940  1.00  0.00     0.031 A 
ATOM     55  C   UNL A   1      40.500  27.858  28.956  1.00  0.00     0.031 A 
ATOM     56  C   UNL A   1      42.833  32.447  32.996  1.00  0.00     0.049 A 
ATOM     57  C   UNL A   1      41.769  27.994  29.751  1.00  0.00     0.074 A 
ATOM     58  C   UNL A   1      43.993  32.404  33.746  1.00  0.00     0.029 A 
ATOM     59  N   UNL A   1      42.782  31.272  32.261  1.00  0.00    -0.354 N 
ATOM     60  N   UNL A   1      42.145  28.960  30.554  1.00  0.00    -0.248 NA
ATOM     61  C   UNL A   1      42.735  26.894  29.638  1.00  0.00     0.031 C 
ATOM     62  C   UNL A   1      44.688  31.244  33.400  1.00  0.00     0.029 A 
ATOM     63  C   UNL A   1      43.914  30.516  32.510  1.00  0.00     0.049 A 
ATOM     64  H   UNL A   1      42.050  31.015  31.654  1.00  0.00     0.167 HD
ATOM     65  C   UNL A   1      43.375  28.569  31.067  1.00  0.00     0.074 A 
ATOM     66  C   UNL A   1      43.667  27.269  30.501  1.00  0.00     0.031 C 
ATOM     67  C   UNL A   1      44.189  29.225  31.930  1.00  0.00     0.031 A 
BRANCH  54  68
ATOM     68  C   UNL A   1      42.077  34.752  33.721  1.00  0.00    -0.014 A 
ATOM     69  C   UNL A   1      42.755  35.849  33.164  1.00  0.00     0.009 A 
ATOM     70  C   UNL A   1      41.582  34.857  35.029  1.00  0.00     0.009 A 
ATOM     71  C   UNL A   1      42.966  37.007  33.914  1.00  0.00     0.001 A 
ATOM     72  C   UNL A   1      41.758  36.031  35.763  1.00  0.00     0.001 A 
ATOM     73  C   UNL A   1      42.459  37.101  35.210  1.00  0.00     0.000 A 
ENDBRANCH  54  68
BRANCH  55  74
ATOM     74  C   UNL A   1      40.250  26.667  28.104  1.00  0.00    -0.014 A 
ATOM     75  C   UNL A   1      39.482  25.592  28.576  1.00  0.00     0.009 A 
ATOM     76  C   UNL A   1      40.794  26.592  26.811  1.00  0.00     0.009 A 
ATOM     77  C   UNL A   1      39.298  24.452  27.788  1.00  0.00     0.001 A 
ATOM     78  C   UNL A   1      40.574  25.470  26.010  1.00  0.00     0.001 A 
ATOM     79  C   UNL A   1      39.839  24.396  26.505  1.00  0.00     0.000 A 
ENDBRANCH  55  74
BRANCH  67  80
ATOM     80  C   UNL A   1      45.452  28.526  32.354  1.00  0.00    -0.014 A 
ATOM     81  C   UNL A   1      45.482  27.658  33.455  1.00  0.00     0.009 A 
ATOM     82  C   UNL A   1      46.625  28.713  31.605  1.00  0.00     0.009 A 
ATOM     83  C   UNL A   1      46.673  27.030  33.826  1.00  0.00     0.001 A 
ATOM     84  C   UNL A   1      47.802  28.050  31.950  1.00  0.00     0.001 A 
ATOM     85  C   UNL A   1      47.829  27.222  33.069  1.00  0.00     0.000 A 
ENDBRANCH  67  80
ENDBRANCH  41  42
ENDBRANCH  33  36
ENDBRANCH  31  32
ENDBRANCH  30  31
ENDBRANCH  29  30
ENDBRANCH   3  29
TORSDOF 15
ENDMDL
MODEL 2
REMARK VINA RESULT:     -11.6      0.660      5.800
REMARK SMILES COc1ccc(C(=O)NC(=S)Nc2ccc(Br)cc2C(=O)NCCCNC(=O)c2ccc(-c3c4nc(c(-c5ccccc5)c5ccc([nH]5)c(-c5ccccc5)c5nc(c(-c6ccccc6)c6ccc3[nH]6)C=C5)C=C4)cc2)cc1Br
REMARK SMILES IDX 20 1 21 2 22 3 19 5 13 6 14 7 15 8 18 9 16 10 17 11 12 12
REMARK SMILES IDX 10 14 11 15 9 16 7 17 8 18 6 20 3 21 4 22 78 23 5 24 77 25
REMARK SMILES IDX 79 26 2 27 1 28 23 29 24 30 25 31 26 32 27 33 28 35 29 36
REMARK SMILES IDX 30 37 76 38 31 39 75 40 32 41 33 42 34 43 69 44 35 45 74 46
REMARK SMILES IDX 68 47 70 48 36 49 73 50 67 51 66 52 37 54 59 55 44 56 58 57
REMARK SMILES IDX 45 58 48 59 57 60 71 61 46 62 47 63 56 65 72 66 49 67 38 68
REMARK SMILES IDX 39 69 43 70 40 71 42 72 41 73 60 74 61 75 65 76 62 77 64 78
REMARK SMILES IDX 63 79 50 80 51 81 55 82 52 83 54 84 53 85
REMARK H PARENT 22 4 12 13 9 19 26 34 70 53 48 64
REMARK Flexibility Score: inf
ROOT
ATOM      1  C   UNL A   1      32.508  28.722  24.050  1.00  0.00     0.253 C 
ATOM      2  O   UNL A   1      33.417  27.943  23.780  1.00  0.00    -0.269 OA
ATOM      3  N   UNL A   1      32.699  29.684  24.998  1.00  0.00    -0.352 N 
ATOM      4  H   UNL A   1      33.614  29.869  25.311  1.00  0.00     0.163 HD
ENDROOT
BRANCH   1   5
ATOM      5  C   UNL A   1      31.182  28.596  23.373  1.00  0.00     0.064 A 
ATOM      6  C   UNL A   1      29.809  27.662  23.977  1.00  0.00     0.053 A 
ATOM      7  C   UNL A   1      28.093  28.134  23.670  1.00  0.00     0.028 A 
ATOM      8  C   UNL A   1      27.638  29.408  22.506  1.00  0.00     0.018 A 
ATOM      9  C   UNL A   1      30.869  29.861  22.178  1.00  0.00     0.031 A 
ATOM     10  C   UNL A   1      28.964  30.308  21.640  1.00  0.00     0.018 A 
ATOM     11  Br  UNL A   1      27.976  31.471  20.343  1.00  0.00    -0.051 Br
BRANCH   6  12
ATOM     12  N   UNL A   1      29.873  26.254  23.517  1.00  0.00    -0.332 N 
ATOM     13  H   UNL A   1      29.294  26.080  22.742  1.00  0.00     0.169 HD
BRANCH  12  14
ATOM     14  C   UNL A   1      30.566  25.125  23.936  1.00  0.00     0.177 C 
ATOM     15  S   UNL A   1      31.591  24.438  22.787  1.00  0.00    -0.040 S 
BRANCH  14  16
ATOM     16  N   UNL A   1      30.566  24.477  25.217  1.00  0.00    -0.299 N 
ATOM     17  C   UNL A   1      31.214  23.759  26.362  1.00  0.00     0.257 C 
ATOM     18  O   UNL A   1      30.542  23.414  27.328  1.00  0.00    -0.269 OA
ATOM     19  H   UNL A   1      29.625  24.538  25.496  1.00  0.00     0.172 HD
BRANCH  17  20
ATOM     20  C   UNL A   1      32.656  23.432  26.309  1.00  0.00     0.041 A 
ATOM     21  C   UNL A   1      35.799  21.880  25.019  1.00  0.00     0.133 A 
ATOM     22  C   UNL A   1      35.667  23.608  25.453  1.00  0.00     0.048 A 
ATOM     23  C   UNL A   1      34.341  20.821  25.244  1.00  0.00     0.060 A 
ATOM     24  C   UNL A   1      34.132  24.350  26.057  1.00  0.00     0.018 A 
ATOM     25  C   UNL A   1      32.722  21.747  26.010  1.00  0.00     0.033 A 
ATOM     26  Br  UNL A   1      34.807  18.971  24.668  1.00  0.00    -0.047 Br
BRANCH  21  27
ATOM     27  O   UNL A   1      36.933  21.433  24.407  1.00  0.00    -0.496 OA
ATOM     28  C   UNL A   1      37.978  21.367  25.381  1.00  0.00     0.278 C 
ENDBRANCH  21  27
ENDBRANCH  17  20
ENDBRANCH  14  16
ENDBRANCH  12  14
ENDBRANCH   6  12
ENDBRANCH   1   5
BRANCH   3  29
ATOM     29  C   UNL A   1      31.618  30.431  25.548  1.00  0.00     0.118 C 
BRANCH  29  30
ATOM     30  C   UNL A   1      31.796  30.910  26.951  1.00  0.00     0.042 C 
BRANCH  30  31
ATOM     31  C   UNL A   1      32.999  31.788  27.087  1.00  0.00     0.118 C 
BRANCH  31  32
ATOM     32  N   UNL A   1      32.641  33.163  27.434  1.00  0.00    -0.352 N 
ATOM     33  C   UNL A   1      33.188  34.008  28.370  1.00  0.00     0.251 C 
ATOM     34  H   UNL A   1      31.893  33.541  26.918  1.00  0.00     0.163 HD
ATOM     35  O   UNL A   1      32.596  35.027  28.709  1.00  0.00    -0.269 OA
BRANCH  33  36
ATOM     36  C   UNL A   1      34.482  33.650  28.978  1.00  0.00     0.039 A 
ATOM     37  C   UNL A   1      34.523  32.936  30.173  1.00  0.00     0.014 A 
ATOM     38  C   UNL A   1      35.661  33.967  28.307  1.00  0.00     0.014 A 
ATOM     39  C   UNL A   1      35.751  32.469  30.636  1.00  0.00     0.010 A 
ATOM     40  C   UNL A   1      36.828  33.316  28.643  1.00  0.00     0.010 A 
ATOM     41  C   UNL A   1      36.904  32.607  29.843  1.00  0.00    -0.014 A 
BRANCH  41  42
ATOM     42  C   UNL A   1      38.216  32.074  30.263  1.00  0.00     0.031 A 
ATOM     43  C   UNL A   1      38.699  30.762  29.701  1.00  0.00     0.074 A 
ATOM     44  C   UNL A   1      38.939  32.737  31.185  1.00  0.00     0.049 A 
ATOM     45  N   UNL A   1      39.801  30.110  29.966  1.00  0.00    -0.248 NA
ATOM     46  C   UNL A   1      37.817  30.071  28.741  1.00  0.00     0.031 C 
ATOM     47  C   UNL A   1      38.544  33.987  31.841  1.00  0.00     0.029 A 
ATOM     48  N   UNL A   1      40.166  32.453  31.724  1.00  0.00    -0.354 N 
ATOM     49  C   UNL A   1      39.730  28.939  29.225  1.00  0.00     0.074 A 
ATOM     50  C   UNL A   1      38.447  28.922  28.566  1.00  0.00     0.031 C 
ATOM     51  C   UNL A   1      39.538  34.391  32.646  1.00  0.00     0.029 A 
ATOM     52  C   UNL A   1      40.607  33.400  32.615  1.00  0.00     0.049 A 
ATOM     53  H   UNL A   1      40.684  31.647  31.494  1.00  0.00     0.167 HD
ATOM     54  C   UNL A   1      40.665  27.973  29.075  1.00  0.00     0.031 A 
ATOM     55  C   UNL A   1      41.742  33.457  33.334  1.00  0.00     0.031 A 
ATOM     56  C   UNL A   1      41.942  27.998  29.732  1.00  0.00     0.049 A 
ATOM     57  C   UNL A   1      42.749  32.351  33.181  1.00  0.00     0.074 A 
ATOM     58  C   UNL A   1      42.985  27.100  29.613  1.00  0.00     0.029 A 
ATOM     59  N   UNL A   1      42.343  28.967  30.640  1.00  0.00    -0.354 N 
ATOM     60  N   UNL A   1      42.703  31.289  32.412  1.00  0.00    -0.248 NA
ATOM     61  C   UNL A   1      43.971  32.459  33.988  1.00  0.00     0.031 C 
ATOM     62  C   UNL A   1      43.983  27.476  30.515  1.00  0.00     0.029 A 
ATOM     63  C   UNL A   1      43.603  28.663  31.121  1.00  0.00     0.049 A 
ATOM     64  H   UNL A   1      41.809  29.752  30.901  1.00  0.00     0.167 HD
ATOM     65  C   UNL A   1      43.903  30.621  32.617  1.00  0.00     0.074 A 
ATOM     66  C   UNL A   1      44.662  31.410  33.565  1.00  0.00     0.031 C 
ATOM     67  C   UNL A   1      44.340  29.460  32.070  1.00  0.00     0.031 A 
BRANCH  54  68
ATOM     68  C   UNL A   1      40.329  26.809  28.185  1.00  0.00    -0.014 A 
ATOM     69  C   UNL A   1      40.780  26.742  26.856  1.00  0.00     0.009 A 
ATOM     70  C   UNL A   1      39.571  25.744  28.696  1.00  0.00     0.009 A 
ATOM     71  C   UNL A   1      40.444  25.654  26.048  1.00  0.00     0.001 A 
ATOM     72  C   UNL A   1      39.272  24.639  27.899  1.00  0.00     0.001 A 
ATOM     73  C   UNL A   1      39.699  24.599  26.572  1.00  0.00     0.000 A 
ENDBRANCH  54  68
BRANCH  55  74
ATOM     74  C   UNL A   1      41.985  34.595  34.259  1.00  0.00    -0.014 A 
ATOM     75  C   UNL A   1      41.606  34.520  35.608  1.00  0.00     0.009 A 
ATOM     76  C   UNL A   1      42.587  35.775  33.792  1.00  0.00     0.009 A 
ATOM     77  C   UNL A   1      41.788  35.614  36.458  1.00  0.00     0.001 A 
ATOM     78  C   UNL A   1      42.806  36.851  34.652  1.00  0.00     0.001 A 
ATOM     79  C   UNL A   1      42.392  36.776  35.980  1.00  0.00     0.000 A 
ENDBRANCH  55  74
BRANCH  67  80
ATOM     80  C   UNL A   1      45.721  28.997  32.445  1.00  0.00    -0.014 A 
ATOM     81  C   UNL A   1      46.857  29.411  31.735  1.00  0.00     0.009 A 
ATOM     82  C   UNL A   1      45.885  28.160  33.561  1.00  0.00     0.009 A 
ATOM     83  C   UNL A   1      48.125  28.957  32.105  1.00  0.00     0.001 A 
ATOM     84  C   UNL A   1      47.156  27.745  33.956  1.00  0.00     0.001 A 
ATOM     85  C   UNL A   1      48.273  28.131  33.220  1.00  0.00     0.000 A 
ENDBRANCH  67  80
ENDBRANCH  41  42
ENDBRANCH  33  36
ENDBRANCH  31  32
ENDBRANCH  30  31
ENDBRANCH  29  30
ENDBRANCH   3  29
TORSDOF 15
ENDMDL
MODEL 3
REMARK VINA RESULT:     -11.5      2.136      3.265
REMARK SMILES COc1ccc(C(=O)NC(=S)Nc2ccc(Br)cc2C(=O)NCCCNC(=O)c2ccc(-c3c4nc(c(-c5ccccc5)c5ccc([nH]5)c(-c5ccccc5)c5nc(c(-c6ccccc6)c6ccc3[nH]6)C=C5)C=C4)cc2)cc1Br
REMARK SMILES IDX 20 1 21 2 22 3 19 5 13 6 14 7 15 8 18 9 16 10 17 11 12 12
REMARK SMILES IDX 10 14 11 15 9 16 7 17 8 18 6 20 3 21 4 22 78 23 5 24 77 25
REMARK SMILES IDX 79 26 2 27 1 28 23 29 24 30 25 31 26 32 27 33 28 35 29 36
REMARK SMILES IDX 30 37 76 38 31 39 75 40 32 41 33 42 34 43 69 44 35 45 74 46
REMARK SMILES IDX 68 47 70 48 36 49 73 50 67 51 66 52 37 54 59 55 44 56 58 57
REMARK SMILES IDX 45 58 48 59 57 60 71 61 46 62 47 63 56 65 72 66 49 67 38 68
REMARK SMILES IDX 39 69 43 70 40 71 42 72 41 73 60 74 61 75 65 76 62 77 64 78
REMARK SMILES IDX 63 79 50 80 51 81 55 82 52 83 54 84 53 85
REMARK H PARENT 22 4 12 13 9 19 26 34 70 53 48 64
REMARK Flexibility Score: inf
ROOT
ATOM      1  C   UNL A   1      33.054  28.452  23.460  1.00  0.00     0.253 C 
ATOM      2  O   UNL A   1      33.950  27.851  22.875  1.00  0.00    -0.269 OA
ATOM      3  N   UNL A   1      33.347  29.196  24.564  1.00  0.00    -0.352 N 
ATOM      4  H   UNL A   1      34.289  29.403  24.763  1.00  0.00     0.163 HD
ENDROOT
BRANCH   1   5
ATOM      5  C   UNL A   1      31.641  28.339  22.989  1.00  0.00     0.064 A 
ATOM      6  C   UNL A   1      30.389  27.345  23.740  1.00  0.00     0.053 A 
ATOM      7  C   UNL A   1      28.641  27.800  23.732  1.00  0.00     0.028 A 
ATOM      8  C   UNL A   1      27.997  29.131  22.732  1.00  0.00     0.018 A 
ATOM      9  C   UNL A   1      31.133  29.666  21.936  1.00  0.00     0.031 A 
ATOM     10  C   UNL A   1      29.162  30.106  21.728  1.00  0.00     0.018 A 
ATOM     11  Br  UNL A   1      27.973  31.323  20.673  1.00  0.00    -0.051 Br
BRANCH   6  12
ATOM     12  N   UNL A   1      30.395  25.968  23.192  1.00  0.00    -0.332 N 
ATOM     13  H   UNL A   1      29.939  25.902  22.323  1.00  0.00     0.169 HD
BRANCH  12  14
ATOM     14  C   UNL A   1      30.898  24.749  23.629  1.00  0.00     0.177 C 
ATOM     15  S   UNL A   1      32.207  24.150  22.751  1.00  0.00    -0.040 S 
BRANCH  14  16
ATOM     16  N   UNL A   1      30.491  23.940  24.743  1.00  0.00    -0.299 N 
ATOM     17  C   UNL A   1      30.740  23.029  25.907  1.00  0.00     0.257 C 
ATOM     18  O   UNL A   1      29.797  22.614  26.572  1.00  0.00    -0.269 OA
ATOM     19  H   UNL A   1      29.512  24.037  24.741  1.00  0.00     0.172 HD
BRANCH  17  20
ATOM     20  C   UNL A   1      32.119  22.601  26.230  1.00  0.00     0.041 A 
ATOM     21  C   UNL A   1      35.489  21.094  25.658  1.00  0.00     0.133 A 
ATOM     22  C   UNL A   1      35.248  22.699  26.405  1.00  0.00     0.048 A 
ATOM     23  C   UNL A   1      34.021  20.137  25.179  1.00  0.00     0.060 A 
ATOM     24  C   UNL A   1      33.610  23.425  26.657  1.00  0.00     0.018 A 
ATOM     25  C   UNL A   1      32.254  21.016  25.595  1.00  0.00     0.033 A 
ATOM     26  Br  UNL A   1      34.622  18.416  24.375  1.00  0.00    -0.047 Br
BRANCH  21  27
ATOM     27  O   UNL A   1      36.752  20.691  25.342  1.00  0.00    -0.496 OA
ATOM     28  C   UNL A   1      37.259  21.548  24.316  1.00  0.00     0.278 C 
ENDBRANCH  21  27
ENDBRANCH  17  20
ENDBRANCH  14  16
ENDBRANCH  12  14
ENDBRANCH   6  12
ENDBRANCH   1   5
BRANCH   3  29
ATOM     29  C   UNL A   1      32.335  29.687  25.437  1.00  0.00     0.118 C 
BRANCH  29  30
ATOM     30  C   UNL A   1      32.297  29.087  26.804  1.00  0.00     0.042 C 
BRANCH  30  31
ATOM     31  C   UNL A   1      33.601  29.254  27.517  1.00  0.00     0.118 C 
BRANCH  31  32
ATOM     32  N   UNL A   1      33.733  30.581  28.120  1.00  0.00    -0.352 N 
ATOM     33  C   UNL A   1      34.770  31.124  28.839  1.00  0.00     0.251 C 
ATOM     34  H   UNL A   1      32.959  31.175  27.992  1.00  0.00     0.163 HD
ATOM     35  O   UNL A   1      34.605  32.149  29.492  1.00  0.00    -0.269 OA
BRANCH  33  36
ATOM     36  C   UNL A   1      36.074  30.436  28.834  1.00  0.00     0.039 A 
ATOM     37  C   UNL A   1      36.912  30.526  27.725  1.00  0.00     0.014 A 
ATOM     38  C   UNL A   1      36.490  29.757  29.977  1.00  0.00     0.014 A 
ATOM     39  C   UNL A   1      38.201  30.007  27.812  1.00  0.00     0.010 A 
ATOM     40  C   UNL A   1      37.824  29.454  30.137  1.00  0.00     0.010 A 
ATOM     41  C   UNL A   1      38.685  29.519  29.039  1.00  0.00    -0.014 A 
BRANCH  41  42
ATOM     42  C   UNL A   1      40.065  29.015  29.197  1.00  0.00     0.031 A 
ATOM     43  C   UNL A   1      41.125  29.921  29.766  1.00  0.00     0.074 A 
ATOM     44  C   UNL A   1      40.371  27.773  28.778  1.00  0.00     0.049 A 
ATOM     45  N   UNL A   1      42.397  29.682  29.953  1.00  0.00    -0.248 NA
ATOM     46  C   UNL A   1      40.717  31.288  30.144  1.00  0.00     0.031 C 
ATOM     47  C   UNL A   1      39.438  26.828  28.159  1.00  0.00     0.029 A 
ATOM     48  N   UNL A   1      41.557  27.089  28.820  1.00  0.00    -0.354 N 
ATOM     49  C   UNL A   1      42.932  30.863  30.448  1.00  0.00     0.074 A 
ATOM     50  C   UNL A   1      41.875  31.845  30.454  1.00  0.00     0.031 C 
ATOM     51  C   UNL A   1      40.073  25.668  27.936  1.00  0.00     0.029 A 
ATOM     52  C   UNL A   1      41.469  25.808  28.333  1.00  0.00     0.049 A 
ATOM     53  H   UNL A   1      42.394  27.478  29.165  1.00  0.00     0.167 HD
ATOM     54  C   UNL A   1      44.185  31.105  30.893  1.00  0.00     0.031 A 
ATOM     55  C   UNL A   1      42.413  24.856  28.211  1.00  0.00     0.031 A 
ATOM     56  C   UNL A   1      45.231  30.121  30.887  1.00  0.00     0.049 A 
ATOM     57  C   UNL A   1      43.809  25.163  28.676  1.00  0.00     0.074 A 
ATOM     58  C   UNL A   1      46.524  30.240  31.360  1.00  0.00     0.029 A 
ATOM     59  N   UNL A   1      45.106  28.840  30.370  1.00  0.00    -0.354 N 
ATOM     60  N   UNL A   1      44.280  26.260  29.219  1.00  0.00    -0.248 NA
ATOM     61  C   UNL A   1      44.802  24.092  28.521  1.00  0.00     0.031 C 
ATOM     62  C   UNL A   1      47.207  29.063  31.051  1.00  0.00     0.029 A 
ATOM     63  C   UNL A   1      46.314  28.174  30.475  1.00  0.00     0.049 A 
ATOM     64  H   UNL A   1      44.281  28.463  29.986  1.00  0.00     0.167 HD
ATOM     65  C   UNL A   1      45.615  26.000  29.501  1.00  0.00     0.074 A 
ATOM     66  C   UNL A   1      45.869  24.635  29.090  1.00  0.00     0.031 C 
ATOM     67  C   UNL A   1      46.547  26.816  30.053  1.00  0.00     0.031 A 
BRANCH  54  68
ATOM     68  C   UNL A   1      44.491  32.487  31.401  1.00  0.00    -0.014 A 
ATOM     69  C   UNL A   1      44.314  32.831  32.752  1.00  0.00     0.009 A 
ATOM     70  C   UNL A   1      44.994  33.453  30.518  1.00  0.00     0.009 A 
ATOM     71  C   UNL A   1      44.595  34.125  33.196  1.00  0.00     0.001 A 
ATOM     72  C   UNL A   1      45.313  34.733  30.972  1.00  0.00     0.001 A 
ATOM     73  C   UNL A   1      45.104  35.072  32.307  1.00  0.00     0.000 A 
ENDBRANCH  54  68
BRANCH  55  74
ATOM     74  C   UNL A   1      42.070  23.534  27.627  1.00  0.00    -0.014 A 
ATOM     75  C   UNL A   1      41.524  22.514  28.422  1.00  0.00     0.009 A 
ATOM     76  C   UNL A   1      42.301  23.277  26.266  1.00  0.00     0.009 A 
ATOM     77  C   UNL A   1      41.256  21.256  27.877  1.00  0.00     0.001 A 
ATOM     78  C   UNL A   1      41.993  22.033  25.713  1.00  0.00     0.001 A 
ATOM     79  C   UNL A   1      41.485  21.019  26.523  1.00  0.00     0.000 A 
ENDBRANCH  55  74
BRANCH  67  80
ATOM     80  C   UNL A   1      47.916  26.238  30.289  1.00  0.00    -0.014 A 
ATOM     81  C   UNL A   1      48.279  25.678  31.522  1.00  0.00     0.009 A 
ATOM     82  C   UNL A   1      48.846  26.222  29.236  1.00  0.00     0.009 A 
ATOM     83  C   UNL A   1      49.560  25.156  31.711  1.00  0.00     0.001 A 
ATOM     84  C   UNL A   1      50.109  25.659  29.413  1.00  0.00     0.001 A 
ATOM     85  C   UNL A   1      50.471  25.141  30.654  1.00  0.00     0.000 A 
ENDBRANCH  67  80
ENDBRANCH  41  42
ENDBRANCH  33  36
ENDBRANCH  31  32
ENDBRANCH  30  31
ENDBRANCH  29  30
ENDBRANCH   3  29
TORSDOF 15
ENDMDL
