MODEL 1
REMARK VINA RESULT:      -9.1      0.000      0.000
REMARK SMILES Cc1cc([C@H]([NH3+])C(=O)NCCCNC(=O)c2ccc(-c3c4nc(c(-c5ccccc5)c5ccc([nH]5)c(-c5ccccc5)c5nc(c(-c6ccccc6)c6ccc3[nH]6)C=C5)C=C4)cc2)ccc1F
REMARK SMILES IDX 11 1 10 2 9 3 7 4 8 5 5 7 4 8 1 9 2 10 3 11 66 12 65 13
REMARK SMILES IDX 67 14 64 15 6 16 12 20 13 21 14 22 15 24 16 25 17 26 63 27
REMARK SMILES IDX 18 28 62 29 19 30 20 31 21 32 56 33 22 34 61 35 55 36 57 37
REMARK SMILES IDX 23 38 60 39 54 40 53 41 24 43 46 44 31 45 45 46 32 47 35 48
REMARK SMILES IDX 44 49 58 50 33 51 34 52 43 54 59 55 36 56 25 57 26 58 30 59
REMARK SMILES IDX 27 60 29 61 28 62 47 63 48 64 52 65 49 66 51 67 50 68 37 69
REMARK SMILES IDX 38 70 42 71 39 72 41 73 40 74
REMARK H PARENT 9 6 6 17 6 18 6 19 13 23 57 42 35 53
REMARK Flexibility Score: inf
ROOT
ATOM      1  C   UNL A   1      44.962  20.758  24.390  1.00  0.00     0.042 C 
ENDROOT
BRANCH   1   2
ATOM      2  C   UNL A   1      45.666  21.928  25.042  1.00  0.00     0.118 C 
BRANCH   2   3
ATOM      3  N   UNL A   1      46.312  22.845  24.129  1.00  0.00    -0.351 N 
ATOM      4  C   UNL A   1      46.944  24.026  24.423  1.00  0.00     0.283 C 
ATOM      5  O   UNL A   1      47.551  24.582  23.501  1.00  0.00    -0.268 OA
ATOM      6  H   UNL A   1      46.296  22.589  23.178  1.00  0.00     0.163 HD
BRANCH   4   7
ATOM      7  C   UNL A   1      46.904  24.668  25.844  1.00  0.00     0.302 C 
BRANCH   7   8
ATOM      8  C   UNL A   1      46.036  25.916  25.927  1.00  0.00     0.019 A 
ATOM      9  C   UNL A   1      42.470  27.027  25.149  1.00  0.00     0.047 C 
ATOM     10  C   UNL A   1      43.897  27.073  25.603  1.00  0.00    -0.015 A 
ATOM     11  C   UNL A   1      44.748  25.988  25.368  1.00  0.00     0.017 A 
ATOM     12  C   UNL A   1      44.409  28.179  26.271  1.00  0.00     0.126 A 
ATOM     13  C   UNL A   1      45.711  28.181  26.758  1.00  0.00     0.040 A 
ATOM     14  F   UNL A   1      43.641  29.261  26.455  1.00  0.00    -0.207 F 
ATOM     15  C   UNL A   1      46.511  27.043  26.619  1.00  0.00     0.013 A 
ENDBRANCH   7   8
BRANCH   7  16
ATOM     16  N   UNL A   1      48.265  24.861  26.389  1.00  0.00    -0.343 N 
ATOM     17  H   UNL A   1      48.419  25.852  26.577  1.00  0.00     0.345 HD
ATOM     18  H   UNL A   1      48.953  24.534  25.711  1.00  0.00     0.345 HD
ATOM     19  H   UNL A   1      48.363  24.332  27.255  1.00  0.00     0.345 HD
ENDBRANCH   7  16
ENDBRANCH   4   7
ENDBRANCH   2   3
ENDBRANCH   1   2
BRANCH   1  20
ATOM     20  C   UNL A   1      44.638  19.612  25.324  1.00  0.00     0.118 C 
BRANCH  20  21
ATOM     21  N   UNL A   1      43.250  19.174  25.248  1.00  0.00    -0.352 N 
ATOM     22  C   UNL A   1      42.092  19.731  25.740  1.00  0.00     0.251 C 
ATOM     23  H   UNL A   1      43.116  18.332  24.756  1.00  0.00     0.163 HD
ATOM     24  O   UNL A   1      41.043  19.101  25.669  1.00  0.00    -0.269 OA
BRANCH  22  25
ATOM     25  C   UNL A   1      42.101  21.063  26.391  1.00  0.00     0.039 A 
ATOM     26  C   UNL A   1      42.118  21.132  27.788  1.00  0.00     0.014 A 
ATOM     27  C   UNL A   1      42.092  22.242  25.648  1.00  0.00     0.014 A 
ATOM     28  C   UNL A   1      42.221  22.372  28.423  1.00  0.00     0.010 A 
ATOM     29  C   UNL A   1      42.331  23.461  26.271  1.00  0.00     0.010 A 
ATOM     30  C   UNL A   1      42.387  23.544  27.669  1.00  0.00    -0.014 A 
BRANCH  30  31
ATOM     31  C   UNL A   1      42.615  24.861  28.321  1.00  0.00     0.031 A 
ATOM     32  C   UNL A   1      43.961  25.201  28.907  1.00  0.00     0.074 A 
ATOM     33  C   UNL A   1      41.591  25.731  28.438  1.00  0.00     0.049 A 
ATOM     34  N   UNL A   1      44.337  26.288  29.533  1.00  0.00    -0.248 NA
ATOM     35  C   UNL A   1      45.014  24.176  28.805  1.00  0.00     0.031 C 
ATOM     36  C   UNL A   1      40.223  25.500  27.968  1.00  0.00     0.029 A 
ATOM     37  N   UNL A   1      41.545  26.987  28.988  1.00  0.00    -0.354 N 
ATOM     38  C   UNL A   1      45.657  26.069  29.910  1.00  0.00     0.074 A 
ATOM     39  C   UNL A   1      45.995  24.724  29.504  1.00  0.00     0.031 C 
ATOM     40  C   UNL A   1      39.486  26.598  28.205  1.00  0.00     0.029 A 
ATOM     41  C   UNL A   1      40.313  27.588  28.885  1.00  0.00     0.049 A 
ATOM     42  H   UNL A   1      42.320  27.418  29.415  1.00  0.00     0.167 HD
ATOM     43  C   UNL A   1      46.522  26.918  30.515  1.00  0.00     0.031 A 
ATOM     44  C   UNL A   1      39.894  28.801  29.291  1.00  0.00     0.031 A 
ATOM     45  C   UNL A   1      46.189  28.261  30.910  1.00  0.00     0.049 A 
ATOM     46  C   UNL A   1      40.871  29.722  29.968  1.00  0.00     0.074 A 
ATOM     47  C   UNL A   1      47.010  29.221  31.474  1.00  0.00     0.029 A 
ATOM     48  N   UNL A   1      44.931  28.830  30.788  1.00  0.00    -0.354 N 
ATOM     49  N   UNL A   1      42.138  29.529  30.242  1.00  0.00    -0.248 NA
ATOM     50  C   UNL A   1      40.358  31.036  30.382  1.00  0.00     0.031 C 
ATOM     51  C   UNL A   1      46.233  30.351  31.749  1.00  0.00     0.029 A 
ATOM     52  C   UNL A   1      44.945  30.119  31.294  1.00  0.00     0.049 A 
ATOM     53  H   UNL A   1      44.143  28.384  30.398  1.00  0.00     0.167 HD
ATOM     54  C   UNL A   1      42.581  30.704  30.834  1.00  0.00     0.074 A 
ATOM     55  C   UNL A   1      41.452  31.612  30.857  1.00  0.00     0.031 C 
ATOM     56  C   UNL A   1      43.811  31.005  31.319  1.00  0.00     0.031 A 
BRANCH  43  57
ATOM     57  C   UNL A   1      47.913  26.413  30.788  1.00  0.00    -0.014 A 
ATOM     58  C   UNL A   1      48.930  26.518  29.825  1.00  0.00     0.009 A 
ATOM     59  C   UNL A   1      48.219  25.850  32.036  1.00  0.00     0.009 A 
ATOM     60  C   UNL A   1      50.212  26.034  30.093  1.00  0.00     0.001 A 
ATOM     61  C   UNL A   1      49.511  25.398  32.313  1.00  0.00     0.001 A 
ATOM     62  C   UNL A   1      50.503  25.479  31.338  1.00  0.00     0.000 A 
ENDBRANCH  43  57
BRANCH  44  63
ATOM     63  C   UNL A   1      38.489  29.226  29.052  1.00  0.00    -0.014 A 
ATOM     64  C   UNL A   1      38.105  29.753  27.809  1.00  0.00     0.009 A 
ATOM     65  C   UNL A   1      37.527  29.117  30.067  1.00  0.00     0.009 A 
ATOM     66  C   UNL A   1      36.794  30.191  27.598  1.00  0.00     0.001 A 
ATOM     67  C   UNL A   1      36.210  29.525  29.844  1.00  0.00     0.001 A 
ATOM     68  C   UNL A   1      35.847  30.071  28.614  1.00  0.00     0.000 A 
ENDBRANCH  44  63
BRANCH  56  69
ATOM     69  C   UNL A   1      44.002  32.384  31.889  1.00  0.00    -0.014 A 
ATOM     70  C   UNL A   1      43.787  32.650  33.250  1.00  0.00     0.009 A 
ATOM     71  C   UNL A   1      44.426  33.429  31.051  1.00  0.00     0.009 A 
ATOM     72  C   UNL A   1      43.950  33.943  33.751  1.00  0.00     0.001 A 
ATOM     73  C   UNL A   1      44.623  34.711  31.562  1.00  0.00     0.001 A 
ATOM     74  C   UNL A   1      44.371  34.971  32.908  1.00  0.00     0.000 A 
ENDBRANCH  56  69
ENDBRANCH  30  31
ENDBRANCH  22  25
ENDBRANCH  20  21
ENDBRANCH   1  20
TORSDOF 12
ENDMDL
MODEL 2
REMARK VINA RESULT:      -8.7      1.204      6.438
REMARK SMILES Cc1cc([C@H]([NH3+])C(=O)NCCCNC(=O)c2ccc(-c3c4nc(c(-c5ccccc5)c5ccc([nH]5)c(-c5ccccc5)c5nc(c(-c6ccccc6)c6ccc3[nH]6)C=C5)C=C4)cc2)ccc1F
REMARK SMILES IDX 11 1 10 2 9 3 7 4 8 5 5 7 4 8 1 9 2 10 3 11 66 12 65 13
REMARK SMILES IDX 67 14 64 15 6 16 12 20 13 21 14 22 15 24 16 25 17 26 63 27
REMARK SMILES IDX 18 28 62 29 19 30 20 31 21 32 56 33 22 34 61 35 55 36 57 37
REMARK SMILES IDX 23 38 60 39 54 40 53 41 24 43 46 44 31 45 45 46 32 47 35 48
REMARK SMILES IDX 44 49 58 50 33 51 34 52 43 54 59 55 36 56 25 57 26 58 30 59
REMARK SMILES IDX 27 60 29 61 28 62 47 63 48 64 52 65 49 66 51 67 50 68 37 69
REMARK SMILES IDX 38 70 42 71 39 72 41 73 40 74
REMARK H PARENT 9 6 6 17 6 18 6 19 13 23 57 42 35 53
REMARK Flexibility Score: inf
ROOT
ATOM      1  C   UNL A   1      44.195  18.800  24.460  1.00  0.00     0.042 C 
ENDROOT
BRANCH   1   2
ATOM      2  C   UNL A   1      45.404  19.702  24.346  1.00  0.00     0.118 C 
BRANCH   2   3
ATOM      3  N   UNL A   1      45.694  20.496  25.520  1.00  0.00    -0.351 N 
ATOM      4  C   UNL A   1      45.827  21.857  25.607  1.00  0.00     0.283 C 
ATOM      5  O   UNL A   1      45.936  22.339  26.741  1.00  0.00    -0.268 OA
ATOM      6  H   UNL A   1      45.810  19.996  26.360  1.00  0.00     0.163 HD
BRANCH   4   7
ATOM      7  C   UNL A   1      45.853  22.781  24.350  1.00  0.00     0.302 C 
BRANCH   7   8
ATOM      8  C   UNL A   1      46.027  24.258  24.680  1.00  0.00     0.019 A 
ATOM      9  C   UNL A   1      43.901  27.309  25.531  1.00  0.00     0.047 C 
ATOM     10  C   UNL A   1      45.101  26.454  25.258  1.00  0.00    -0.015 A 
ATOM     11  C   UNL A   1      44.944  25.149  24.783  1.00  0.00     0.017 A 
ATOM     12  C   UNL A   1      46.390  26.927  25.472  1.00  0.00     0.126 A 
ATOM     13  C   UNL A   1      47.494  26.102  25.290  1.00  0.00     0.040 A 
ATOM     14  F   UNL A   1      46.579  28.194  25.864  1.00  0.00    -0.207 F 
ATOM     15  C   UNL A   1      47.313  24.763  24.931  1.00  0.00     0.013 A 
ENDBRANCH   7   8
BRANCH   7  16
ATOM     16  N   UNL A   1      44.709  22.509  23.454  1.00  0.00    -0.343 N 
ATOM     17  H   UNL A   1      43.837  22.628  23.970  1.00  0.00     0.345 HD
ATOM     18  H   UNL A   1      44.769  21.553  23.105  1.00  0.00     0.345 HD
ATOM     19  H   UNL A   1      44.730  23.160  22.669  1.00  0.00     0.345 HD
ENDBRANCH   7  16
ENDBRANCH   4   7
ENDBRANCH   2   3
ENDBRANCH   1   2
BRANCH   1  20
ATOM     20  C   UNL A   1      43.545  18.779  25.826  1.00  0.00     0.118 C 
BRANCH  20  21
ATOM     21  N   UNL A   1      42.093  18.896  25.781  1.00  0.00    -0.352 N 
ATOM     22  C   UNL A   1      41.245  19.889  26.216  1.00  0.00     0.251 C 
ATOM     23  H   UNL A   1      41.637  18.129  25.364  1.00  0.00     0.163 HD
ATOM     24  O   UNL A   1      40.035  19.700  26.194  1.00  0.00    -0.269 OA
BRANCH  22  25
ATOM     25  C   UNL A   1      41.776  21.167  26.747  1.00  0.00     0.039 A 
ATOM     26  C   UNL A   1      42.064  22.203  25.852  1.00  0.00     0.014 A 
ATOM     27  C   UNL A   1      41.995  21.360  28.111  1.00  0.00     0.014 A 
ATOM     28  C   UNL A   1      42.477  23.447  26.337  1.00  0.00     0.010 A 
ATOM     29  C   UNL A   1      42.272  22.631  28.599  1.00  0.00     0.010 A 
ATOM     30  C   UNL A   1      42.528  23.690  27.718  1.00  0.00    -0.014 A 
BRANCH  30  31
ATOM     31  C   UNL A   1      42.852  25.036  28.258  1.00  0.00     0.031 A 
ATOM     32  C   UNL A   1      41.769  26.068  28.437  1.00  0.00     0.074 A 
ATOM     33  C   UNL A   1      44.133  25.352  28.533  1.00  0.00     0.049 A 
ATOM     34  N   UNL A   1      41.866  27.300  28.870  1.00  0.00    -0.248 NA
ATOM     35  C   UNL A   1      40.401  25.679  28.050  1.00  0.00     0.031 C 
ATOM     36  C   UNL A   1      45.285  24.467  28.347  1.00  0.00     0.029 A 
ATOM     37  N   UNL A   1      44.682  26.508  29.031  1.00  0.00    -0.354 N 
ATOM     38  C   UNL A   1      40.584  27.831  28.792  1.00  0.00     0.074 A 
ATOM     39  C   UNL A   1      39.740  26.814  28.209  1.00  0.00     0.031 C 
ATOM     40  C   UNL A   1      46.395  25.092  28.773  1.00  0.00     0.029 A 
ATOM     41  C   UNL A   1      46.042  26.437  29.215  1.00  0.00     0.049 A 
ATOM     42  H   UNL A   1      44.151  27.311  29.238  1.00  0.00     0.167 HD
ATOM     43  C   UNL A   1      40.139  29.045  29.195  1.00  0.00     0.031 A 
ATOM     44  C   UNL A   1      46.911  27.351  29.686  1.00  0.00     0.031 A 
ATOM     45  C   UNL A   1      40.976  30.055  29.786  1.00  0.00     0.049 A 
ATOM     46  C   UNL A   1      46.393  28.695  30.118  1.00  0.00     0.074 A 
ATOM     47  C   UNL A   1      40.612  31.294  30.283  1.00  0.00     0.029 A 
ATOM     48  N   UNL A   1      42.348  29.943  29.953  1.00  0.00    -0.354 N 
ATOM     49  N   UNL A   1      45.165  29.149  30.114  1.00  0.00    -0.248 NA
ATOM     50  C   UNL A   1      47.387  29.648  30.632  1.00  0.00     0.031 C 
ATOM     51  C   UNL A   1      41.773  31.956  30.696  1.00  0.00     0.029 A 
ATOM     52  C   UNL A   1      42.850  31.103  30.519  1.00  0.00     0.049 A 
ATOM     53  H   UNL A   1      42.886  29.155  29.707  1.00  0.00     0.167 HD
ATOM     54  C   UNL A   1      45.232  30.429  30.649  1.00  0.00     0.074 A 
ATOM     55  C   UNL A   1      46.620  30.667  30.988  1.00  0.00     0.031 C 
ATOM     56  C   UNL A   1      44.236  31.329  30.839  1.00  0.00     0.031 A 
BRANCH  43  57
ATOM     57  C   UNL A   1      38.677  29.347  29.004  1.00  0.00    -0.014 A 
ATOM     58  C   UNL A   1      38.175  29.775  27.764  1.00  0.00     0.009 A 
ATOM     59  C   UNL A   1      37.782  29.172  30.071  1.00  0.00     0.009 A 
ATOM     60  C   UNL A   1      36.817  30.062  27.609  1.00  0.00     0.001 A 
ATOM     61  C   UNL A   1      36.420  29.425  29.904  1.00  0.00     0.001 A 
ATOM     62  C   UNL A   1      35.939  29.881  28.677  1.00  0.00     0.000 A 
ENDBRANCH  43  57
BRANCH  44  63
ATOM     63  C   UNL A   1      48.357  27.022  29.795  1.00  0.00    -0.014 A 
ATOM     64  C   UNL A   1      49.231  27.288  28.728  1.00  0.00     0.009 A 
ATOM     65  C   UNL A   1      48.871  26.431  30.959  1.00  0.00     0.009 A 
ATOM     66  C   UNL A   1      50.582  26.941  28.815  1.00  0.00     0.001 A 
ATOM     67  C   UNL A   1      50.228  26.114  31.055  1.00  0.00     0.001 A 
ATOM     68  C   UNL A   1      51.079  26.359  29.980  1.00  0.00     0.000 A 
ENDBRANCH  44  63
BRANCH  56  69
ATOM     69  C   UNL A   1      44.612  32.642  31.469  1.00  0.00    -0.014 A 
ATOM     70  C   UNL A   1      44.971  33.752  30.688  1.00  0.00     0.009 A 
ATOM     71  C   UNL A   1      44.585  32.775  32.867  1.00  0.00     0.009 A 
ATOM     72  C   UNL A   1      45.337  34.954  31.296  1.00  0.00     0.001 A 
ATOM     73  C   UNL A   1      44.917  33.988  33.470  1.00  0.00     0.001 A 
ATOM     74  C   UNL A   1      45.307  35.072  32.686  1.00  0.00     0.000 A 
ENDBRANCH  56  69
ENDBRANCH  30  31
ENDBRANCH  22  25
ENDBRANCH  20  21
ENDBRANCH   1  20
TORSDOF 12
ENDMDL
MODEL 3
REMARK VINA RESULT:      -8.4      5.092     11.042
REMARK SMILES Cc1cc([C@H]([NH3+])C(=O)NCCCNC(=O)c2ccc(-c3c4nc(c(-c5ccccc5)c5ccc([nH]5)c(-c5ccccc5)c5nc(c(-c6ccccc6)c6ccc3[nH]6)C=C5)C=C4)cc2)ccc1F
REMARK SMILES IDX 11 1 10 2 9 3 7 4 8 5 5 7 4 8 1 9 2 10 3 11 66 12 65 13
REMARK SMILES IDX 67 14 64 15 6 16 12 20 13 21 14 22 15 24 16 25 17 26 63 27
REMARK SMILES IDX 18 28 62 29 19 30 20 31 21 32 56 33 22 34 61 35 55 36 57 37
REMARK SMILES IDX 23 38 60 39 54 40 53 41 24 43 46 44 31 45 45 46 32 47 35 48
REMARK SMILES IDX 44 49 58 50 33 51 34 52 43 54 59 55 36 56 25 57 26 58 30 59
REMARK SMILES IDX 27 60 29 61 28 62 47 63 48 64 52 65 49 66 51 67 50 68 37 69
REMARK SMILES IDX 38 70 42 71 39 72 41 73 40 74
REMARK H PARENT 9 6 6 17 6 18 6 19 13 23 57 42 35 53
REMARK Flexibility Score: inf
ROOT
ATOM      1  C   UNL A   1      34.332  35.497  28.695  1.00  0.00     0.042 C 
ENDROOT
BRANCH   1   2
ATOM      2  C   UNL A   1      33.144  35.683  29.613  1.00  0.00     0.118 C 
BRANCH   2   3
ATOM      3  N   UNL A   1      33.122  36.929  30.347  1.00  0.00    -0.351 N 
ATOM      4  C   UNL A   1      33.181  37.110  31.705  1.00  0.00     0.283 C 
ATOM      5  O   UNL A   1      33.289  38.272  32.112  1.00  0.00    -0.268 OA
ATOM      6  H   UNL A   1      33.058  37.748  29.805  1.00  0.00     0.163 HD
BRANCH   4   7
ATOM      7  C   UNL A   1      33.103  35.923  32.715  1.00  0.00     0.302 C 
BRANCH   7   8
ATOM      8  C   UNL A   1      34.187  34.873  32.508  1.00  0.00     0.019 A 
ATOM      9  C   UNL A   1      37.985  34.557  32.657  1.00  0.00     0.047 C 
ATOM     10  C   UNL A   1      36.543  34.192  32.481  1.00  0.00    -0.015 A 
ATOM     11  C   UNL A   1      35.558  35.184  32.494  1.00  0.00     0.017 A 
ATOM     12  C   UNL A   1      36.147  32.872  32.308  1.00  0.00     0.126 A 
ATOM     13  C   UNL A   1      34.800  32.535  32.224  1.00  0.00     0.040 A 
ATOM     14  F   UNL A   1      37.068  31.904  32.225  1.00  0.00    -0.207 F 
ATOM     15  C   UNL A   1      33.822  33.525  32.359  1.00  0.00     0.013 A 
ENDBRANCH   7   8
BRANCH   7  16
ATOM     16  N   UNL A   1      31.739  35.355  32.779  1.00  0.00    -0.343 N 
ATOM     17  H   UNL A   1      31.779  34.351  32.602  1.00  0.00     0.345 HD
ATOM     18  H   UNL A   1      31.151  35.800  32.074  1.00  0.00     0.345 HD
ATOM     19  H   UNL A   1      31.344  35.522  33.704  1.00  0.00     0.345 HD
ENDBRANCH   7  16
ENDBRANCH   4   7
ENDBRANCH   2   3
ENDBRANCH   1   2
BRANCH   1  20
ATOM     20  C   UNL A   1      35.064  34.183  28.861  1.00  0.00     0.118 C 
BRANCH  20  21
ATOM     21  N   UNL A   1      34.377  33.053  28.248  1.00  0.00    -0.352 N 
ATOM     22  C   UNL A   1      34.733  31.729  28.124  1.00  0.00     0.251 C 
ATOM     23  H   UNL A   1      33.504  33.276  27.851  1.00  0.00     0.163 HD
ATOM     24  O   UNL A   1      34.046  30.983  27.436  1.00  0.00    -0.269 OA
BRANCH  22  25
ATOM     25  C   UNL A   1      35.954  31.203  28.778  1.00  0.00     0.039 A 
ATOM     26  C   UNL A   1      35.869  30.015  29.513  1.00  0.00     0.014 A 
ATOM     27  C   UNL A   1      37.180  31.860  28.681  1.00  0.00     0.014 A 
ATOM     28  C   UNL A   1      37.024  29.450  30.060  1.00  0.00     0.010 A 
ATOM     29  C   UNL A   1      38.344  31.232  29.106  1.00  0.00     0.010 A 
ATOM     30  C   UNL A   1      38.281  30.023  29.812  1.00  0.00    -0.014 A 
BRANCH  30  31
ATOM     31  C   UNL A   1      39.534  29.379  30.285  1.00  0.00     0.031 A 
ATOM     32  C   UNL A   1      40.239  29.890  31.514  1.00  0.00     0.074 A 
ATOM     33  C   UNL A   1      40.071  28.367  29.574  1.00  0.00     0.049 A 
ATOM     34  N   UNL A   1      41.352  29.469  32.061  1.00  0.00    -0.248 NA
ATOM     35  C   UNL A   1      39.635  31.043  32.203  1.00  0.00     0.031 C 
ATOM     36  C   UNL A   1      39.522  27.817  28.332  1.00  0.00     0.029 A 
ATOM     37  N   UNL A   1      41.201  27.619  29.796  1.00  0.00    -0.354 N 
ATOM     38  C   UNL A   1      41.585  30.313  33.141  1.00  0.00     0.074 A 
ATOM     39  C   UNL A   1      40.538  31.309  33.133  1.00  0.00     0.031 C 
ATOM     40  C   UNL A   1      40.287  26.788  27.931  1.00  0.00     0.029 A 
ATOM     41  C   UNL A   1      41.404  26.637  28.856  1.00  0.00     0.049 A 
ATOM     42  H   UNL A   1      41.807  27.771  30.556  1.00  0.00     0.167 HD
ATOM     43  C   UNL A   1      42.565  30.252  34.074  1.00  0.00     0.031 A 
ATOM     44  C   UNL A   1      42.380  25.717  28.749  1.00  0.00     0.031 A 
ATOM     45  C   UNL A   1      43.602  29.255  34.089  1.00  0.00     0.049 A 
ATOM     46  C   UNL A   1      43.462  25.675  29.792  1.00  0.00     0.074 A 
ATOM     47  C   UNL A   1      44.605  29.070  35.024  1.00  0.00     0.029 A 
ATOM     48  N   UNL A   1      43.772  28.280  33.119  1.00  0.00    -0.354 N 
ATOM     49  N   UNL A   1      43.619  26.429  30.852  1.00  0.00    -0.248 NA
ATOM     50  C   UNL A   1      44.495  24.644  29.627  1.00  0.00     0.031 C 
ATOM     51  C   UNL A   1      45.419  28.019  34.588  1.00  0.00     0.029 A 
ATOM     52  C   UNL A   1      44.882  27.507  33.417  1.00  0.00     0.049 A 
ATOM     53  H   UNL A   1      43.190  28.154  32.335  1.00  0.00     0.167 HD
ATOM     54  C   UNL A   1      44.752  25.947  31.495  1.00  0.00     0.074 A 
ATOM     55  C   UNL A   1      45.226  24.820  30.718  1.00  0.00     0.031 C 
ATOM     56  C   UNL A   1      45.348  26.397  32.627  1.00  0.00     0.031 A 
BRANCH  43  57
ATOM     57  C   UNL A   1      42.559  31.299  35.156  1.00  0.00    -0.014 A 
ATOM     58  C   UNL A   1      41.889  31.089  36.372  1.00  0.00     0.009 A 
ATOM     59  C   UNL A   1      43.259  32.501  34.968  1.00  0.00     0.009 A 
ATOM     60  C   UNL A   1      41.885  32.077  37.359  1.00  0.00     0.001 A 
ATOM     61  C   UNL A   1      43.283  33.472  35.970  1.00  0.00     0.001 A 
ATOM     62  C   UNL A   1      42.587  33.265  37.161  1.00  0.00     0.000 A 
ENDBRANCH  43  57
BRANCH  44  63
ATOM     63  C   UNL A   1      42.372  24.745  27.623  1.00  0.00    -0.014 A 
ATOM     64  C   UNL A   1      41.693  23.522  27.742  1.00  0.00     0.009 A 
ATOM     65  C   UNL A   1      43.051  25.029  26.428  1.00  0.00     0.009 A 
ATOM     66  C   UNL A   1      41.720  22.591  26.699  1.00  0.00     0.001 A 
ATOM     67  C   UNL A   1      43.050  24.111  25.375  1.00  0.00     0.001 A 
ATOM     68  C   UNL A   1      42.394  22.890  25.515  1.00  0.00     0.000 A 
ENDBRANCH  44  63
BRANCH  56  69
ATOM     69  C   UNL A   1      46.563  25.650  33.102  1.00  0.00    -0.014 A 
ATOM     70  C   UNL A   1      47.853  25.997  32.669  1.00  0.00     0.009 A 
ATOM     71  C   UNL A   1      46.416  24.595  34.018  1.00  0.00     0.009 A 
ATOM     72  C   UNL A   1      48.963  25.274  33.107  1.00  0.00     0.001 A 
ATOM     73  C   UNL A   1      47.531  23.898  34.482  1.00  0.00     0.001 A 
ATOM     74  C   UNL A   1      48.802  24.228  34.016  1.00  0.00     0.000 A 
ENDBRANCH  56  69
ENDBRANCH  30  31
ENDBRANCH  22  25
ENDBRANCH  20  21
ENDBRANCH   1  20
TORSDOF 12
ENDMDL
