MODEL 1
REMARK VINA RESULT:      -9.9      0.000      0.000
REMARK SMILES CC(C)[C@](C)(CC(=O)NC#N)C(=O)NCCCNC(=O)c1ccc(-c2c3nc(c(-c4ccccc4)c4ccc([nH]4)c(-c4ccccc4)c4nc(c(-c5ccccc5)c5ccc2[nH]5)C=C4)C=C3)cc1
REMARK SMILES IDX 15 1 14 2 12 3 13 4 4 6 5 7 2 8 1 9 3 10 6 11 7 12 8 13 9 14
REMARK SMILES IDX 10 16 11 17 16 18 17 19 18 20 19 21 20 23 21 24 22 25 68 26
REMARK SMILES IDX 23 27 67 28 24 29 25 30 26 31 61 32 27 33 66 34 60 35 62 36
REMARK SMILES IDX 28 37 65 38 59 39 58 40 29 42 51 43 36 44 50 45 37 46 40 47
REMARK SMILES IDX 49 48 63 49 38 50 39 51 48 53 64 54 41 55 30 56 31 57 35 58
REMARK SMILES IDX 32 59 34 60 33 61 52 62 53 63 57 64 54 65 56 66 55 67 42 68
REMARK SMILES IDX 43 69 47 70 44 71 46 72 45 73
REMARK H PARENT 14 5 9 15 18 22 62 41 40 52
REMARK Flexibility Score: inf
ROOT
ATOM      1  C   UNL A   1      31.755  27.230  26.256  1.00  0.00     0.117 C 
ENDROOT
BRANCH   1   2
ATOM      2  N   UNL A   1      31.035  26.056  26.716  1.00  0.00    -0.356 N 
ATOM      3  C   UNL A   1      31.221  24.728  26.504  1.00  0.00     0.226 C 
ATOM      4  O   UNL A   1      30.391  23.977  27.025  1.00  0.00    -0.274 OA
ATOM      5  H   UNL A   1      30.264  26.263  27.291  1.00  0.00     0.163 HD
BRANCH   3   6
ATOM      6  C   UNL A   1      32.388  24.176  25.651  1.00  0.00     0.057 C 
ATOM      7  C   UNL A   1      33.669  24.920  26.114  1.00  0.00     0.022 C 
BRANCH   6   8
ATOM      8  C   UNL A   1      32.111  24.473  24.110  1.00  0.00    -0.002 C 
ATOM      9  C   UNL A   1      33.165  23.921  23.136  1.00  0.00     0.008 C 
ATOM     10  C   UNL A   1      30.724  24.044  23.609  1.00  0.00     0.008 C 
ENDBRANCH   6   8
BRANCH   6  11
ATOM     11  C   UNL A   1      32.573  22.661  25.967  1.00  0.00     0.118 C 
BRANCH  11  12
ATOM     12  C   UNL A   1      33.366  22.337  27.229  1.00  0.00     0.234 C 
ATOM     13  O   UNL A   1      32.890  22.502  28.351  1.00  0.00    -0.274 OA
ATOM     14  N   UNL A   1      34.620  21.817  27.091  1.00  0.00    -0.263 N 
ATOM     15  H   UNL A   1      35.064  21.632  27.951  1.00  0.00     0.182 HD
BRANCH  14  16
ATOM     16  C   UNL A   1      35.368  21.505  26.027  1.00  0.00     0.183 C 
ATOM     17  N   UNL A   1      36.023  21.220  25.113  1.00  0.00    -0.172 NA
ENDBRANCH  14  16
ENDBRANCH  11  12
ENDBRANCH   6  11
ENDBRANCH   3   6
ENDBRANCH   1   2
BRANCH   1  18
ATOM     18  C   UNL A   1      32.174  28.131  27.402  1.00  0.00     0.042 C 
BRANCH  18  19
ATOM     19  C   UNL A   1      33.560  28.728  27.220  1.00  0.00     0.118 C 
BRANCH  19  20
ATOM     20  N   UNL A   1      33.624  30.126  27.633  1.00  0.00    -0.352 N 
ATOM     21  C   UNL A   1      34.626  30.798  28.290  1.00  0.00     0.251 C 
ATOM     22  H   UNL A   1      32.833  30.668  27.408  1.00  0.00     0.163 HD
ATOM     23  O   UNL A   1      34.430  31.921  28.743  1.00  0.00    -0.269 OA
BRANCH  21  24
ATOM     24  C   UNL A   1      35.936  30.144  28.469  1.00  0.00     0.039 A 
ATOM     25  C   UNL A   1      36.861  30.161  27.423  1.00  0.00     0.014 A 
ATOM     26  C   UNL A   1      36.259  29.549  29.690  1.00  0.00     0.014 A 
ATOM     27  C   UNL A   1      38.144  29.656  27.632  1.00  0.00     0.010 A 
ATOM     28  C   UNL A   1      37.565  29.145  29.930  1.00  0.00     0.010 A 
ATOM     29  C   UNL A   1      38.519  29.190  28.902  1.00  0.00    -0.014 A 
BRANCH  29  30
ATOM     30  C   UNL A   1      39.901  28.735  29.195  1.00  0.00     0.031 A 
ATOM     31  C   UNL A   1      40.896  29.701  29.772  1.00  0.00     0.074 A 
ATOM     32  C   UNL A   1      40.287  27.493  28.847  1.00  0.00     0.049 A 
ATOM     33  N   UNL A   1      42.178  29.543  29.976  1.00  0.00    -0.248 NA
ATOM     34  C   UNL A   1      40.385  31.032  30.137  1.00  0.00     0.031 C 
ATOM     35  C   UNL A   1      39.426  26.473  28.248  1.00  0.00     0.029 A 
ATOM     36  N   UNL A   1      41.516  26.886  28.929  1.00  0.00    -0.354 N 
ATOM     37  C   UNL A   1      42.629  30.760  30.469  1.00  0.00     0.074 A 
ATOM     38  C   UNL A   1      41.499  31.662  30.474  1.00  0.00     0.031 C 
ATOM     39  C   UNL A   1      40.148  25.363  28.029  1.00  0.00     0.029 A 
ATOM     40  C   UNL A   1      41.534  25.613  28.412  1.00  0.00     0.049 A 
ATOM     41  H   UNL A   1      42.307  27.320  29.320  1.00  0.00     0.167 HD
ATOM     42  C   UNL A   1      43.871  31.094  30.894  1.00  0.00     0.031 A 
ATOM     43  C   UNL A   1      42.554  24.752  28.237  1.00  0.00     0.031 A 
ATOM     44  C   UNL A   1      44.996  30.197  30.868  1.00  0.00     0.049 A 
ATOM     45  C   UNL A   1      43.938  25.155  28.668  1.00  0.00     0.074 A 
ATOM     46  C   UNL A   1      46.283  30.419  31.319  1.00  0.00     0.029 A 
ATOM     47  N   UNL A   1      44.968  28.912  30.346  1.00  0.00    -0.354 N 
ATOM     48  N   UNL A   1      44.339  26.285  29.199  1.00  0.00    -0.248 NA
ATOM     49  C   UNL A   1      45.008  24.164  28.484  1.00  0.00     0.031 C 
ATOM     50  C   UNL A   1      47.056  29.301  30.993  1.00  0.00     0.029 A 
ATOM     51  C   UNL A   1      46.229  28.345  30.426  1.00  0.00     0.049 A 
ATOM     52  H   UNL A   1      44.171  28.470  29.973  1.00  0.00     0.167 HD
ATOM     53  C   UNL A   1      45.698  26.130  29.443  1.00  0.00     0.074 A 
ATOM     54  C   UNL A   1      46.051  24.794  29.007  1.00  0.00     0.031 C 
ATOM     55  C   UNL A   1      46.569  27.013  29.988  1.00  0.00     0.031 A 
BRANCH  42  56
ATOM     56  C   UNL A   1      44.076  32.505  31.380  1.00  0.00    -0.014 A 
ATOM     57  C   UNL A   1      44.458  33.537  30.507  1.00  0.00     0.009 A 
ATOM     58  C   UNL A   1      43.888  32.804  32.739  1.00  0.00     0.009 A 
ATOM     59  C   UNL A   1      44.713  34.821  30.996  1.00  0.00     0.001 A 
ATOM     60  C   UNL A   1      44.101  34.098  33.217  1.00  0.00     0.001 A 
ATOM     61  C   UNL A   1      44.531  35.101  32.349  1.00  0.00     0.000 A 
ENDBRANCH  42  56
BRANCH  43  62
ATOM     62  C   UNL A   1      42.298  23.430  27.606  1.00  0.00    -0.014 A 
ATOM     63  C   UNL A   1      41.833  22.346  28.365  1.00  0.00     0.009 A 
ATOM     64  C   UNL A   1      42.490  23.255  26.225  1.00  0.00     0.009 A 
ATOM     65  C   UNL A   1      41.584  21.112  27.760  1.00  0.00     0.001 A 
ATOM     66  C   UNL A   1      42.207  22.031  25.617  1.00  0.00     0.001 A 
ATOM     67  C   UNL A   1      41.763  20.958  26.386  1.00  0.00     0.000 A 
ENDBRANCH  43  62
BRANCH  55  68
ATOM     68  C   UNL A   1      47.989  26.562  30.199  1.00  0.00    -0.014 A 
ATOM     69  C   UNL A   1      48.370  25.824  31.329  1.00  0.00     0.009 A 
ATOM     70  C   UNL A   1      48.940  26.802  29.192  1.00  0.00     0.009 A 
ATOM     71  C   UNL A   1      49.678  25.350  31.454  1.00  0.00     0.001 A 
ATOM     72  C   UNL A   1      50.236  26.297  29.303  1.00  0.00     0.001 A 
ATOM     73  C   UNL A   1      50.606  25.578  30.437  1.00  0.00     0.000 A 
ENDBRANCH  55  68
ENDBRANCH  29  30
ENDBRANCH  21  24
ENDBRANCH  19  20
ENDBRANCH  18  19
ENDBRANCH   1  18
TORSDOF 14
ENDMDL
MODEL 2
REMARK VINA RESULT:      -9.9      2.489      7.284
REMARK SMILES CC(C)[C@](C)(CC(=O)NC#N)C(=O)NCCCNC(=O)c1ccc(-c2c3nc(c(-c4ccccc4)c4ccc([nH]4)c(-c4ccccc4)c4nc(c(-c5ccccc5)c5ccc2[nH]5)C=C4)C=C3)cc1
REMARK SMILES IDX 15 1 14 2 12 3 13 4 4 6 5 7 2 8 1 9 3 10 6 11 7 12 8 13 9 14
REMARK SMILES IDX 10 16 11 17 16 18 17 19 18 20 19 21 20 23 21 24 22 25 68 26
REMARK SMILES IDX 23 27 67 28 24 29 25 30 26 31 61 32 27 33 66 34 60 35 62 36
REMARK SMILES IDX 28 37 65 38 59 39 58 40 29 42 51 43 36 44 50 45 37 46 40 47
REMARK SMILES IDX 49 48 63 49 38 50 39 51 48 53 64 54 41 55 30 56 31 57 35 58
REMARK SMILES IDX 32 59 34 60 33 61 52 62 53 63 57 64 54 65 56 66 55 67 42 68
REMARK SMILES IDX 43 69 47 70 44 71 46 72 45 73
REMARK H PARENT 14 5 9 15 18 22 62 41 40 52
REMARK Flexibility Score: inf
ROOT
ATOM      1  C   UNL A   1      36.709  21.391  24.903  1.00  0.00     0.117 C 
ENDROOT
BRANCH   1   2
ATOM      2  N   UNL A   1      35.838  21.537  26.055  1.00  0.00    -0.356 N 
ATOM      3  C   UNL A   1      34.607  22.089  26.208  1.00  0.00     0.226 C 
ATOM      4  O   UNL A   1      34.149  22.079  27.354  1.00  0.00    -0.274 OA
ATOM      5  H   UNL A   1      36.212  21.165  26.886  1.00  0.00     0.163 HD
BRANCH   3   6
ATOM      6  C   UNL A   1      33.820  22.710  25.029  1.00  0.00     0.057 C 
ATOM      7  C   UNL A   1      32.532  23.333  25.631  1.00  0.00     0.022 C 
BRANCH   6   8
ATOM      8  C   UNL A   1      33.438  21.570  23.982  1.00  0.00    -0.002 C 
ATOM      9  C   UNL A   1      32.753  20.332  24.582  1.00  0.00     0.008 C 
ATOM     10  C   UNL A   1      32.602  22.047  22.785  1.00  0.00     0.008 C 
ENDBRANCH   6   8
BRANCH   6  11
ATOM     11  C   UNL A   1      34.666  23.863  24.408  1.00  0.00     0.118 C 
BRANCH  11  12
ATOM     12  C   UNL A   1      34.187  25.278  24.716  1.00  0.00     0.234 C 
ATOM     13  O   UNL A   1      34.305  25.770  25.837  1.00  0.00    -0.274 OA
ATOM     14  N   UNL A   1      33.652  26.016  23.700  1.00  0.00    -0.263 N 
ATOM     15  H   UNL A   1      33.371  26.918  23.978  1.00  0.00     0.182 HD
BRANCH  14  16
ATOM     16  C   UNL A   1      33.434  25.765  22.404  1.00  0.00     0.183 C 
ATOM     17  N   UNL A   1      33.257  25.560  21.277  1.00  0.00    -0.172 NA
ENDBRANCH  14  16
ENDBRANCH  11  12
ENDBRANCH   6  11
ENDBRANCH   3   6
ENDBRANCH   1   2
BRANCH   1  18
ATOM     18  C   UNL A   1      37.643  20.204  25.037  1.00  0.00     0.042 C 
BRANCH  18  19
ATOM     19  C   UNL A   1      38.950  20.544  25.734  1.00  0.00     0.118 C 
BRANCH  19  20
ATOM     20  N   UNL A   1      39.860  19.405  25.800  1.00  0.00    -0.352 N 
ATOM     21  C   UNL A   1      41.222  19.384  25.982  1.00  0.00     0.251 C 
ATOM     22  H   UNL A   1      39.437  18.521  25.700  1.00  0.00     0.163 HD
ATOM     23  O   UNL A   1      41.858  18.352  25.805  1.00  0.00    -0.269 OA
BRANCH  21  24
ATOM     24  C   UNL A   1      41.917  20.628  26.367  1.00  0.00     0.039 A 
ATOM     25  C   UNL A   1      42.312  21.529  25.376  1.00  0.00     0.014 A 
ATOM     26  C   UNL A   1      42.137  20.916  27.715  1.00  0.00     0.014 A 
ATOM     27  C   UNL A   1      42.854  22.760  25.745  1.00  0.00     0.010 A 
ATOM     28  C   UNL A   1      42.576  22.180  28.082  1.00  0.00     0.010 A 
ATOM     29  C   UNL A   1      42.943  23.113  27.101  1.00  0.00    -0.014 A 
BRANCH  29  30
ATOM     30  C   UNL A   1      43.421  24.449  27.535  1.00  0.00     0.031 A 
ATOM     31  C   UNL A   1      42.427  25.500  27.939  1.00  0.00     0.074 A 
ATOM     32  C   UNL A   1      44.732  24.749  27.465  1.00  0.00     0.049 A 
ATOM     33  N   UNL A   1      42.628  26.762  28.221  1.00  0.00    -0.248 NA
ATOM     34  C   UNL A   1      41.018  25.083  28.002  1.00  0.00     0.031 C 
ATOM     35  C   UNL A   1      45.793  23.828  27.055  1.00  0.00     0.029 A 
ATOM     36  N   UNL A   1      45.392  25.926  27.718  1.00  0.00    -0.354 N 
ATOM     37  C   UNL A   1      41.368  27.292  28.470  1.00  0.00     0.074 A 
ATOM     38  C   UNL A   1      40.410  26.233  28.246  1.00  0.00     0.031 C 
ATOM     39  C   UNL A   1      46.971  24.469  27.096  1.00  0.00     0.029 A 
ATOM     40  C   UNL A   1      46.743  25.861  27.474  1.00  0.00     0.049 A 
ATOM     41  H   UNL A   1      44.941  26.739  28.042  1.00  0.00     0.167 HD
ATOM     42  C   UNL A   1      41.040  28.545  28.865  1.00  0.00     0.031 A 
ATOM     43  C   UNL A   1      47.689  26.817  27.520  1.00  0.00     0.031 A 
ATOM     44  C   UNL A   1      41.998  29.599  29.069  1.00  0.00     0.049 A 
ATOM     45  C   UNL A   1      47.302  28.216  27.912  1.00  0.00     0.074 A 
ATOM     46  C   UNL A   1      41.776  30.888  29.514  1.00  0.00     0.029 A 
ATOM     47  N   UNL A   1      43.358  29.487  28.820  1.00  0.00    -0.354 N 
ATOM     48  N   UNL A   1      46.117  28.688  28.215  1.00  0.00    -0.248 NA
ATOM     49  C   UNL A   1      48.381  29.212  27.978  1.00  0.00     0.031 C 
ATOM     50  C   UNL A   1      42.988  31.582  29.455  1.00  0.00     0.029 A 
ATOM     51  C   UNL A   1      43.982  30.699  29.064  1.00  0.00     0.049 A 
ATOM     52  H   UNL A   1      43.812  28.668  28.516  1.00  0.00     0.167 HD
ATOM     53  C   UNL A   1      46.311  30.026  28.538  1.00  0.00     0.074 A 
ATOM     54  C   UNL A   1      47.729  30.288  28.400  1.00  0.00     0.031 C 
ATOM     55  C   UNL A   1      45.395  30.948  28.924  1.00  0.00     0.031 A 
BRANCH  42  56
ATOM     56  C   UNL A   1      39.576  28.844  29.059  1.00  0.00    -0.014 A 
ATOM     57  C   UNL A   1      38.775  29.317  28.006  1.00  0.00     0.009 A 
ATOM     58  C   UNL A   1      38.990  28.654  30.320  1.00  0.00     0.009 A 
ATOM     59  C   UNL A   1      37.439  29.655  28.230  1.00  0.00     0.001 A 
ATOM     60  C   UNL A   1      37.643  28.952  30.530  1.00  0.00     0.001 A 
ATOM     61  C   UNL A   1      36.873  29.470  29.490  1.00  0.00     0.000 A 
ENDBRANCH  42  56
BRANCH  43  62
ATOM     62  C   UNL A   1      49.093  26.477  27.164  1.00  0.00    -0.014 A 
ATOM     63  C   UNL A   1      50.013  26.090  28.149  1.00  0.00     0.009 A 
ATOM     64  C   UNL A   1      49.512  26.509  25.824  1.00  0.00     0.009 A 
ATOM     65  C   UNL A   1      51.326  25.760  27.803  1.00  0.00     0.001 A 
ATOM     66  C   UNL A   1      50.814  26.146  25.476  1.00  0.00     0.001 A 
ATOM     67  C   UNL A   1      51.723  25.781  26.467  1.00  0.00     0.000 A 
ENDBRANCH  43  62
BRANCH  55  68
ATOM     68  C   UNL A   1      45.890  32.324  29.277  1.00  0.00    -0.014 A 
ATOM     69  C   UNL A   1      46.384  32.626  30.555  1.00  0.00     0.009 A 
ATOM     70  C   UNL A   1      45.948  33.309  28.276  1.00  0.00     0.009 A 
ATOM     71  C   UNL A   1      46.912  33.891  30.827  1.00  0.00     0.001 A 
ATOM     72  C   UNL A   1      46.508  34.559  28.541  1.00  0.00     0.001 A 
ATOM     73  C   UNL A   1      46.983  34.852  29.817  1.00  0.00     0.000 A 
ENDBRANCH  55  68
ENDBRANCH  29  30
ENDBRANCH  21  24
ENDBRANCH  19  20
ENDBRANCH  18  19
ENDBRANCH   1  18
TORSDOF 14
ENDMDL
MODEL 3
REMARK VINA RESULT:      -9.9      1.738      7.413
REMARK SMILES CC(C)[C@](C)(CC(=O)NC#N)C(=O)NCCCNC(=O)c1ccc(-c2c3nc(c(-c4ccccc4)c4ccc([nH]4)c(-c4ccccc4)c4nc(c(-c5ccccc5)c5ccc2[nH]5)C=C4)C=C3)cc1
REMARK SMILES IDX 15 1 14 2 12 3 13 4 4 6 5 7 2 8 1 9 3 10 6 11 7 12 8 13 9 14
REMARK SMILES IDX 10 16 11 17 16 18 17 19 18 20 19 21 20 23 21 24 22 25 68 26
REMARK SMILES IDX 23 27 67 28 24 29 25 30 26 31 61 32 27 33 66 34 60 35 62 36
REMARK SMILES IDX 28 37 65 38 59 39 58 40 29 42 51 43 36 44 50 45 37 46 40 47
REMARK SMILES IDX 49 48 63 49 38 50 39 51 48 53 64 54 41 55 30 56 31 57 35 58
REMARK SMILES IDX 32 59 34 60 33 61 52 62 53 63 57 64 54 65 56 66 55 67 42 68
REMARK SMILES IDX 43 69 47 70 44 71 46 72 45 73
REMARK H PARENT 14 5 9 15 18 22 62 41 40 52
REMARK Flexibility Score: inf
ROOT
ATOM      1  C   UNL A   1      36.456  20.823  25.156  1.00  0.00     0.117 C 
ENDROOT
BRANCH   1   2
ATOM      2  N   UNL A   1      35.259  20.004  25.203  1.00  0.00    -0.356 N 
ATOM      3  C   UNL A   1      33.938  20.309  25.125  1.00  0.00     0.226 C 
ATOM      4  O   UNL A   1      33.157  19.359  25.236  1.00  0.00    -0.274 OA
ATOM      5  H   UNL A   1      35.439  19.043  25.311  1.00  0.00     0.163 HD
BRANCH   3   6
ATOM      6  C   UNL A   1      33.427  21.756  24.927  1.00  0.00     0.057 C 
ATOM      7  C   UNL A   1      31.877  21.692  24.974  1.00  0.00     0.022 C 
BRANCH   6   8
ATOM      8  C   UNL A   1      33.908  22.303  23.509  1.00  0.00    -0.002 C 
ATOM      9  C   UNL A   1      32.783  22.616  22.511  1.00  0.00     0.008 C 
ATOM     10  C   UNL A   1      34.847  23.518  23.571  1.00  0.00     0.008 C 
ENDBRANCH   6   8
BRANCH   6  11
ATOM     11  C   UNL A   1      33.908  22.630  26.125  1.00  0.00     0.118 C 
BRANCH  11  12
ATOM     12  C   UNL A   1      32.814  23.136  27.059  1.00  0.00     0.234 C 
ATOM     13  O   UNL A   1      32.488  22.513  28.068  1.00  0.00    -0.274 OA
ATOM     14  N   UNL A   1      32.219  24.330  26.774  1.00  0.00    -0.263 N 
ATOM     15  H   UNL A   1      31.527  24.588  27.426  1.00  0.00     0.182 HD
BRANCH  14  16
ATOM     16  C   UNL A   1      32.386  25.224  25.792  1.00  0.00     0.183 C 
ATOM     17  N   UNL A   1      32.546  26.000  24.946  1.00  0.00    -0.172 NA
ENDBRANCH  14  16
ENDBRANCH  11  12
ENDBRANCH   6  11
ENDBRANCH   3   6
ENDBRANCH   1   2
BRANCH   1  18
ATOM     18  C   UNL A   1      37.706  19.999  24.907  1.00  0.00     0.042 C 
BRANCH  18  19
ATOM     19  C   UNL A   1      38.901  20.461  25.722  1.00  0.00     0.118 C 
BRANCH  19  20
ATOM     20  N   UNL A   1      39.938  19.438  25.821  1.00  0.00    -0.352 N 
ATOM     21  C   UNL A   1      41.276  19.574  26.102  1.00  0.00     0.251 C 
ATOM     22  H   UNL A   1      39.634  18.514  25.664  1.00  0.00     0.163 HD
ATOM     23  O   UNL A   1      42.044  18.632  25.942  1.00  0.00    -0.269 OA
BRANCH  21  24
ATOM     24  C   UNL A   1      41.784  20.876  26.574  1.00  0.00     0.039 A 
ATOM     25  C   UNL A   1      42.314  21.781  25.653  1.00  0.00     0.014 A 
ATOM     26  C   UNL A   1      41.697  21.211  27.927  1.00  0.00     0.014 A 
ATOM     27  C   UNL A   1      42.678  23.059  26.078  1.00  0.00     0.010 A 
ATOM     28  C   UNL A   1      41.958  22.513  28.327  1.00  0.00     0.010 A 
ATOM     29  C   UNL A   1      42.456  23.450  27.408  1.00  0.00    -0.014 A 
BRANCH  29  30
ATOM     30  C   UNL A   1      42.737  24.828  27.879  1.00  0.00     0.031 A 
ATOM     31  C   UNL A   1      44.119  25.189  28.341  1.00  0.00     0.074 A 
ATOM     32  C   UNL A   1      41.732  25.719  27.989  1.00  0.00     0.049 A 
ATOM     33  N   UNL A   1      44.539  26.291  28.909  1.00  0.00    -0.248 NA
ATOM     34  C   UNL A   1      45.159  24.162  28.171  1.00  0.00     0.031 C 
ATOM     35  C   UNL A   1      40.340  25.479  27.606  1.00  0.00     0.029 A 
ATOM     36  N   UNL A   1      41.728  27.001  28.478  1.00  0.00    -0.354 N 
ATOM     37  C   UNL A   1      45.883  26.077  29.185  1.00  0.00     0.074 A 
ATOM     38  C   UNL A   1      46.191  24.725  28.780  1.00  0.00     0.031 C 
ATOM     39  C   UNL A   1      39.619  26.581  27.863  1.00  0.00     0.029 A 
ATOM     40  C   UNL A   1      40.482  27.581  28.484  1.00  0.00     0.049 A 
ATOM     41  H   UNL A   1      42.538  27.461  28.795  1.00  0.00     0.167 HD
ATOM     42  C   UNL A   1      46.786  26.937  29.715  1.00  0.00     0.031 A 
ATOM     43  C   UNL A   1      40.072  28.771  28.962  1.00  0.00     0.031 A 
ATOM     44  C   UNL A   1      46.468  28.277  30.133  1.00  0.00     0.049 A 
ATOM     45  C   UNL A   1      41.076  29.695  29.593  1.00  0.00     0.074 A 
ATOM     46  C   UNL A   1      47.316  29.244  30.637  1.00  0.00     0.029 A 
ATOM     47  N   UNL A   1      45.195  28.828  30.113  1.00  0.00    -0.354 N 
ATOM     48  N   UNL A   1      42.360  29.510  29.785  1.00  0.00    -0.248 NA
ATOM     49  C   UNL A   1      40.578  30.995  30.068  1.00  0.00     0.031 C 
ATOM     50  C   UNL A   1      46.545  30.352  31.001  1.00  0.00     0.029 A 
ATOM     51  C   UNL A   1      45.230  30.110  30.634  1.00  0.00     0.049 A 
ATOM     52  H   UNL A   1      44.388  28.376  29.777  1.00  0.00     0.167 HD
ATOM     53  C   UNL A   1      42.830  30.680  30.370  1.00  0.00     0.074 A 
ATOM     54  C   UNL A   1      41.694  31.570  30.497  1.00  0.00     0.031 C 
ATOM     55  C   UNL A   1      44.092  30.988  30.757  1.00  0.00     0.031 A 
BRANCH  42  56
ATOM     56  C   UNL A   1      48.190  26.429  29.907  1.00  0.00    -0.014 A 
ATOM     57  C   UNL A   1      48.586  25.786  31.092  1.00  0.00     0.009 A 
ATOM     58  C   UNL A   1      49.137  26.601  28.885  1.00  0.00     0.009 A 
ATOM     59  C   UNL A   1      49.913  25.389  31.274  1.00  0.00     0.001 A 
ATOM     60  C   UNL A   1      50.451  26.164  29.053  1.00  0.00     0.001 A 
ATOM     61  C   UNL A   1      50.843  25.575  30.254  1.00  0.00     0.000 A 
ENDBRANCH  42  56
BRANCH  43  62
ATOM     62  C   UNL A   1      38.633  29.139  28.873  1.00  0.00    -0.014 A 
ATOM     63  C   UNL A   1      37.776  28.966  29.970  1.00  0.00     0.009 A 
ATOM     64  C   UNL A   1      38.116  29.698  27.693  1.00  0.00     0.009 A 
ATOM     65  C   UNL A   1      36.429  29.327  29.880  1.00  0.00     0.001 A 
ATOM     66  C   UNL A   1      36.778  30.090  27.617  1.00  0.00     0.001 A 
ATOM     67  C   UNL A   1      35.934  29.896  28.707  1.00  0.00     0.000 A 
ENDBRANCH  43  62
BRANCH  55  68
ATOM     68  C   UNL A   1      44.340  32.364  31.312  1.00  0.00    -0.014 A 
ATOM     69  C   UNL A   1      44.315  32.619  32.691  1.00  0.00     0.009 A 
ATOM     70  C   UNL A   1      44.701  33.401  30.436  1.00  0.00     0.009 A 
ATOM     71  C   UNL A   1      44.630  33.890  33.179  1.00  0.00     0.001 A 
ATOM     72  C   UNL A   1      45.050  34.659  30.928  1.00  0.00     0.001 A 
ATOM     73  C   UNL A   1      45.008  34.904  32.299  1.00  0.00     0.000 A 
ENDBRANCH  55  68
ENDBRANCH  29  30
ENDBRANCH  21  24
ENDBRANCH  19  20
ENDBRANCH  18  19
ENDBRANCH   1  18
TORSDOF 14
ENDMDL
