MODEL 1
REMARK VINA RESULT:     -11.0      0.000      0.000
REMARK SMILES Cc1ccc(CNC(=O)NC[C@@H](CC(C)C)C(=O)NCCCNC(=O)c2ccc(-c3c4nc(c(-c5ccccc5)c5ccc([nH]5)c(-c5ccccc5)c5nc(c(-c6ccccc6)c6ccc3[nH]6)C=C5)C=C4)cc2)s1
REMARK SMILES IDX 20 1 19 2 17 3 18 4 12 6 11 7 10 8 7 9 8 10 9 12 6 14 5 15
REMARK SMILES IDX 1 16 2 17 3 18 74 19 4 20 13 21 14 22 15 23 16 24 21 25
REMARK SMILES IDX 22 26 23 27 24 28 25 30 26 31 27 32 73 33 28 34 72 35 29 36
REMARK SMILES IDX 30 37 31 38 66 39 32 40 71 41 65 42 67 43 33 44 70 45 64 46
REMARK SMILES IDX 63 47 34 49 56 50 41 51 55 52 42 53 45 54 54 55 68 56 43 57
REMARK SMILES IDX 44 58 53 60 69 61 46 62 35 63 36 64 40 65 37 66 39 67 38 68
REMARK SMILES IDX 57 69 58 70 62 71 59 72 61 73 60 74 47 75 48 76 52 77 49 78
REMARK SMILES IDX 51 79 50 80
REMARK H PARENT 19 5 7 11 10 13 23 29 67 48 45 59
REMARK Flexibility Score: inf
ROOT
ATOM      1  C   UNL A   1      36.312  21.558  24.916  1.00  0.00     0.117 C 
ENDROOT
BRANCH   1   2
ATOM      2  N   UNL A   1      35.628  21.726  26.187  1.00  0.00    -0.356 N 
ATOM      3  C   UNL A   1      34.405  21.324  26.612  1.00  0.00     0.224 C 
ATOM      4  O   UNL A   1      34.163  21.479  27.814  1.00  0.00    -0.275 OA
ATOM      5  H   UNL A   1      36.147  22.222  26.860  1.00  0.00     0.163 HD
BRANCH   3   6
ATOM      6  C   UNL A   1      33.363  20.698  25.700  1.00  0.00     0.098 C 
BRANCH   6   7
ATOM      7  C   UNL A   1      32.289  21.685  25.226  1.00  0.00     0.131 C 
BRANCH   7   8
ATOM      8  N   UNL A   1      31.432  22.137  26.311  1.00  0.00    -0.337 N 
ATOM      9  N   UNL A   1      31.836  24.456  26.491  1.00  0.00    -0.333 N 
ATOM     10  C   UNL A   1      31.097  23.367  26.729  1.00  0.00     0.315 C 
ATOM     11  H   UNL A   1      31.329  25.297  26.546  1.00  0.00     0.165 HD
ATOM     12  O   UNL A   1      30.047  23.495  27.362  1.00  0.00    -0.249 OA
ATOM     13  H   UNL A   1      31.024  21.408  26.832  1.00  0.00     0.165 HD
BRANCH   9  14
ATOM     14  C   UNL A   1      33.235  24.639  26.168  1.00  0.00     0.164 C 
BRANCH  14  15
ATOM     15  C   UNL A   1      33.460  26.003  25.579  1.00  0.00     0.024 A 
ATOM     16  C   UNL A   1      33.925  28.789  22.845  1.00  0.00     0.056 C 
ATOM     17  C   UNL A   1      33.791  27.930  24.056  1.00  0.00     0.002 A 
ATOM     18  C   UNL A   1      33.750  28.313  25.379  1.00  0.00     0.015 A 
ATOM     19  S   UNL A   1      33.663  26.232  23.890  1.00  0.00    -0.144 S 
ATOM     20  C   UNL A   1      33.561  27.205  26.254  1.00  0.00     0.017 A 
ENDBRANCH  14  15
ENDBRANCH   9  14
ENDBRANCH   7   8
ENDBRANCH   6   7
BRANCH   6  21
ATOM     21  C   UNL A   1      33.940  19.784  24.589  1.00  0.00     0.018 C 
BRANCH  21  22
ATOM     22  C   UNL A   1      33.312  18.389  24.389  1.00  0.00    -0.017 C 
ATOM     23  C   UNL A   1      34.336  17.362  23.889  1.00  0.00     0.007 C 
ATOM     24  C   UNL A   1      32.706  17.864  25.694  1.00  0.00     0.007 C 
ENDBRANCH  21  22
ENDBRANCH   6  21
ENDBRANCH   3   6
ENDBRANCH   1   2
BRANCH   1  25
ATOM     25  C   UNL A   1      37.333  20.440  24.945  1.00  0.00     0.042 C 
BRANCH  25  26
ATOM     26  C   UNL A   1      38.624  20.836  25.646  1.00  0.00     0.118 C 
BRANCH  26  27
ATOM     27  N   UNL A   1      39.602  19.752  25.701  1.00  0.00    -0.352 N 
ATOM     28  C   UNL A   1      40.940  19.762  26.024  1.00  0.00     0.251 C 
ATOM     29  H   UNL A   1      39.243  18.866  25.468  1.00  0.00     0.163 HD
ATOM     30  O   UNL A   1      41.627  18.769  25.824  1.00  0.00    -0.269 OA
BRANCH  28  31
ATOM     31  C   UNL A   1      41.554  20.987  26.579  1.00  0.00     0.039 A 
ATOM     32  C   UNL A   1      41.984  21.993  25.711  1.00  0.00     0.014 A 
ATOM     33  C   UNL A   1      41.684  21.150  27.956  1.00  0.00     0.014 A 
ATOM     34  C   UNL A   1      42.441  23.206  26.236  1.00  0.00     0.010 A 
ATOM     35  C   UNL A   1      42.009  22.396  28.472  1.00  0.00     0.010 A 
ATOM     36  C   UNL A   1      42.398  23.439  27.619  1.00  0.00    -0.014 A 
BRANCH  36  37
ATOM     37  C   UNL A   1      42.757  24.752  28.213  1.00  0.00     0.031 A 
ATOM     38  C   UNL A   1      41.687  25.789  28.439  1.00  0.00     0.074 A 
ATOM     39  C   UNL A   1      44.051  25.053  28.448  1.00  0.00     0.049 A 
ATOM     40  N   UNL A   1      41.812  27.038  28.810  1.00  0.00    -0.248 NA
ATOM     41  C   UNL A   1      40.297  25.384  28.165  1.00  0.00     0.031 C 
ATOM     42  C   UNL A   1      45.192  24.163  28.217  1.00  0.00     0.029 A 
ATOM     43  N   UNL A   1      44.624  26.204  28.927  1.00  0.00    -0.354 N 
ATOM     44  C   UNL A   1      40.531  27.573  28.763  1.00  0.00     0.074 A 
ATOM     45  C   UNL A   1      39.650  26.533  28.283  1.00  0.00     0.031 C 
ATOM     46  C   UNL A   1      46.320  24.784  28.596  1.00  0.00     0.029 A 
ATOM     47  C   UNL A   1      45.992  26.130  29.048  1.00  0.00     0.049 A 
ATOM     48  H   UNL A   1      44.105  27.006  29.163  1.00  0.00     0.167 HD
ATOM     49  C   UNL A   1      40.117  28.815  29.111  1.00  0.00     0.031 A 
ATOM     50  C   UNL A   1      46.881  27.047  29.474  1.00  0.00     0.031 A 
ATOM     51  C   UNL A   1      40.980  29.827  29.652  1.00  0.00     0.049 A 
ATOM     52  C   UNL A   1      46.387  28.402  29.899  1.00  0.00     0.074 A 
ATOM     53  C   UNL A   1      40.642  31.081  30.130  1.00  0.00     0.029 A 
ATOM     54  N   UNL A   1      42.350  29.695  29.799  1.00  0.00    -0.354 N 
ATOM     55  N   UNL A   1      45.162  28.867  29.917  1.00  0.00    -0.248 NA
ATOM     56  C   UNL A   1      47.402  29.356  30.369  1.00  0.00     0.031 C 
ATOM     57  C   UNL A   1      41.817  31.723  30.533  1.00  0.00     0.029 A 
ATOM     58  C   UNL A   1      42.877  30.851  30.346  1.00  0.00     0.049 A 
ATOM     59  H   UNL A   1      42.872  28.897  29.552  1.00  0.00     0.167 HD
ATOM     60  C   UNL A   1      45.254  30.154  30.430  1.00  0.00     0.074 A 
ATOM     61  C   UNL A   1      46.653  30.391  30.721  1.00  0.00     0.031 C 
ATOM     62  C   UNL A   1      44.270  31.060  30.640  1.00  0.00     0.031 A 
BRANCH  49  63
ATOM     63  C   UNL A   1      38.661  29.140  28.928  1.00  0.00    -0.014 A 
ATOM     64  C   UNL A   1      37.748  29.023  29.987  1.00  0.00     0.009 A 
ATOM     65  C   UNL A   1      38.204  29.608  27.686  1.00  0.00     0.009 A 
ATOM     66  C   UNL A   1      36.399  29.333  29.797  1.00  0.00     0.001 A 
ATOM     67  C   UNL A   1      36.861  29.944  27.505  1.00  0.00     0.001 A 
ATOM     68  C   UNL A   1      35.959  29.797  28.558  1.00  0.00     0.000 A 
ENDBRANCH  49  63
BRANCH  50  69
ATOM     69  C   UNL A   1      48.327  26.714  29.554  1.00  0.00    -0.014 A 
ATOM     70  C   UNL A   1      49.186  27.044  28.493  1.00  0.00     0.009 A 
ATOM     71  C   UNL A   1      48.853  26.047  30.670  1.00  0.00     0.009 A 
ATOM     72  C   UNL A   1      50.535  26.682  28.534  1.00  0.00     0.001 A 
ATOM     73  C   UNL A   1      50.208  25.711  30.721  1.00  0.00     0.001 A 
ATOM     74  C   UNL A   1      51.045  26.018  29.649  1.00  0.00     0.000 A 
ENDBRANCH  50  69
BRANCH  62  75
ATOM     75  C   UNL A   1      44.665  32.371  31.254  1.00  0.00    -0.014 A 
ATOM     76  C   UNL A   1      45.000  33.475  30.456  1.00  0.00     0.009 A 
ATOM     77  C   UNL A   1      44.659  32.512  32.650  1.00  0.00     0.009 A 
ATOM     78  C   UNL A   1      45.352  34.690  31.048  1.00  0.00     0.001 A 
ATOM     79  C   UNL A   1      44.984  33.734  33.238  1.00  0.00     0.001 A 
ATOM     80  C   UNL A   1      45.339  34.819  32.437  1.00  0.00     0.000 A 
ENDBRANCH  62  75
ENDBRANCH  36  37
ENDBRANCH  28  31
ENDBRANCH  26  27
ENDBRANCH  25  26
ENDBRANCH   1  25
TORSDOF 16
ENDMDL
MODEL 2
REMARK VINA RESULT:     -11.0      0.352      5.999
REMARK SMILES Cc1ccc(CNC(=O)NC[C@@H](CC(C)C)C(=O)NCCCNC(=O)c2ccc(-c3c4nc(c(-c5ccccc5)c5ccc([nH]5)c(-c5ccccc5)c5nc(c(-c6ccccc6)c6ccc3[nH]6)C=C5)C=C4)cc2)s1
REMARK SMILES IDX 20 1 19 2 17 3 18 4 12 6 11 7 10 8 7 9 8 10 9 12 6 14 5 15
REMARK SMILES IDX 1 16 2 17 3 18 74 19 4 20 13 21 14 22 15 23 16 24 21 25
REMARK SMILES IDX 22 26 23 27 24 28 25 30 26 31 27 32 73 33 28 34 72 35 29 36
REMARK SMILES IDX 30 37 31 38 66 39 32 40 71 41 65 42 67 43 33 44 70 45 64 46
REMARK SMILES IDX 63 47 34 49 56 50 41 51 55 52 42 53 45 54 54 55 68 56 43 57
REMARK SMILES IDX 44 58 53 60 69 61 46 62 35 63 36 64 40 65 37 66 39 67 38 68
REMARK SMILES IDX 57 69 58 70 62 71 59 72 61 73 60 74 47 75 48 76 52 77 49 78
REMARK SMILES IDX 51 79 50 80
REMARK H PARENT 19 5 7 11 10 13 23 29 67 48 45 59
REMARK Flexibility Score: inf
ROOT
ATOM      1  C   UNL A   1      36.281  21.379  24.830  1.00  0.00     0.117 C 
ENDROOT
BRANCH   1   2
ATOM      2  N   UNL A   1      35.607  21.603  26.097  1.00  0.00    -0.356 N 
ATOM      3  C   UNL A   1      34.371  21.255  26.535  1.00  0.00     0.224 C 
ATOM      4  O   UNL A   1      34.139  21.449  27.732  1.00  0.00    -0.275 OA
ATOM      5  H   UNL A   1      36.145  22.097  26.757  1.00  0.00     0.163 HD
BRANCH   3   6
ATOM      6  C   UNL A   1      33.305  20.643  25.640  1.00  0.00     0.098 C 
BRANCH   6   7
ATOM      7  C   UNL A   1      32.233  21.643  25.192  1.00  0.00     0.131 C 
BRANCH   7   8
ATOM      8  N   UNL A   1      31.400  22.097  26.294  1.00  0.00    -0.337 N 
ATOM      9  N   UNL A   1      31.822  24.412  26.474  1.00  0.00    -0.333 N 
ATOM     10  C   UNL A   1      31.081  23.328  26.722  1.00  0.00     0.315 C 
ATOM     11  H   UNL A   1      31.322  25.257  26.542  1.00  0.00     0.165 HD
ATOM     12  O   UNL A   1      30.045  23.461  27.376  1.00  0.00    -0.249 OA
ATOM     13  H   UNL A   1      30.997  21.369  26.821  1.00  0.00     0.165 HD
BRANCH   9  14
ATOM     14  C   UNL A   1      33.216  24.588  26.124  1.00  0.00     0.164 C 
BRANCH  14  15
ATOM     15  C   UNL A   1      33.441  25.956  25.546  1.00  0.00     0.024 A 
ATOM     16  C   UNL A   1      33.895  28.763  22.831  1.00  0.00     0.056 C 
ATOM     17  C   UNL A   1      33.766  27.894  24.036  1.00  0.00     0.002 A 
ATOM     18  C   UNL A   1      33.734  28.268  25.362  1.00  0.00     0.015 A 
ATOM     19  S   UNL A   1      33.634  26.199  23.857  1.00  0.00    -0.144 S 
ATOM     20  C   UNL A   1      33.548  27.153  26.230  1.00  0.00     0.017 A 
ENDBRANCH  14  15
ENDBRANCH   9  14
ENDBRANCH   7   8
ENDBRANCH   6   7
BRANCH   6  21
ATOM     21  C   UNL A   1      33.852  19.728  24.515  1.00  0.00     0.018 C 
BRANCH  21  22
ATOM     22  C   UNL A   1      33.228  18.327  24.344  1.00  0.00    -0.017 C 
ATOM     23  C   UNL A   1      34.233  17.313  23.782  1.00  0.00     0.007 C 
ATOM     24  C   UNL A   1      32.701  17.790  25.678  1.00  0.00     0.007 C 
ENDBRANCH  21  22
ENDBRANCH   6  21
ENDBRANCH   3   6
ENDBRANCH   1   2
BRANCH   1  25
ATOM     25  C   UNL A   1      37.337  20.295  24.913  1.00  0.00     0.042 C 
BRANCH  25  26
ATOM     26  C   UNL A   1      38.614  20.766  25.593  1.00  0.00     0.118 C 
BRANCH  26  27
ATOM     27  N   UNL A   1      39.629  19.719  25.693  1.00  0.00    -0.352 N 
ATOM     28  C   UNL A   1      40.960  19.785  26.039  1.00  0.00     0.251 C 
ATOM     29  H   UNL A   1      39.305  18.815  25.476  1.00  0.00     0.163 HD
ATOM     30  O   UNL A   1      41.684  18.813  25.876  1.00  0.00    -0.269 OA
BRANCH  28  31
ATOM     31  C   UNL A   1      41.519  21.045  26.572  1.00  0.00     0.039 A 
ATOM     32  C   UNL A   1      42.073  21.977  25.692  1.00  0.00     0.014 A 
ATOM     33  C   UNL A   1      41.476  21.314  27.938  1.00  0.00     0.014 A 
ATOM     34  C   UNL A   1      42.481  23.224  26.177  1.00  0.00     0.010 A 
ATOM     35  C   UNL A   1      41.755  22.593  28.395  1.00  0.00     0.010 A 
ATOM     36  C   UNL A   1      42.267  23.564  27.522  1.00  0.00    -0.014 A 
BRANCH  36  37
ATOM     37  C   UNL A   1      42.571  24.916  28.055  1.00  0.00     0.031 A 
ATOM     38  C   UNL A   1      43.973  25.248  28.501  1.00  0.00     0.074 A 
ATOM     39  C   UNL A   1      41.575  25.806  28.240  1.00  0.00     0.049 A 
ATOM     40  N   UNL A   1      44.412  26.313  29.121  1.00  0.00    -0.248 NA
ATOM     41  C   UNL A   1      45.008  24.227  28.260  1.00  0.00     0.031 C 
ATOM     42  C   UNL A   1      40.164  25.590  27.909  1.00  0.00     0.029 A 
ATOM     43  N   UNL A   1      41.599  27.073  28.765  1.00  0.00    -0.354 N 
ATOM     44  C   UNL A   1      45.753  26.066  29.387  1.00  0.00     0.074 A 
ATOM     45  C   UNL A   1      46.046  24.735  28.906  1.00  0.00     0.031 C 
ATOM     46  C   UNL A   1      39.468  26.702  28.197  1.00  0.00     0.029 A 
ATOM     47  C   UNL A   1      40.369  27.689  28.778  1.00  0.00     0.049 A 
ATOM     48  H   UNL A   1      42.419  27.502  29.100  1.00  0.00     0.167 HD
ATOM     49  C   UNL A   1      46.669  26.883  29.959  1.00  0.00     0.031 A 
ATOM     50  C   UNL A   1      40.010  28.911  29.212  1.00  0.00     0.031 A 
ATOM     51  C   UNL A   1      46.395  28.229  30.376  1.00  0.00     0.049 A 
ATOM     52  C   UNL A   1      41.058  29.815  29.801  1.00  0.00     0.074 A 
ATOM     53  C   UNL A   1      47.276  29.173  30.874  1.00  0.00     0.029 A 
ATOM     54  N   UNL A   1      45.147  28.828  30.330  1.00  0.00    -0.354 N 
ATOM     55  N   UNL A   1      42.337  29.592  29.978  1.00  0.00    -0.248 NA
ATOM     56  C   UNL A   1      40.609  31.143  30.244  1.00  0.00     0.031 C 
ATOM     57  C   UNL A   1      46.552  30.333  31.164  1.00  0.00     0.029 A 
ATOM     58  C   UNL A   1      45.231  30.124  30.806  1.00  0.00     0.049 A 
ATOM     59  H   UNL A   1      44.324  28.396  30.006  1.00  0.00     0.167 HD
ATOM     60  C   UNL A   1      42.852  30.762  30.521  1.00  0.00     0.074 A 
ATOM     61  C   UNL A   1      41.750  31.695  30.633  1.00  0.00     0.031 C 
ATOM     62  C   UNL A   1      44.125  31.039  30.895  1.00  0.00     0.031 A 
BRANCH  49  63
ATOM     63  C   UNL A   1      48.058  26.342  30.156  1.00  0.00    -0.014 A 
ATOM     64  C   UNL A   1      49.024  26.424  29.142  1.00  0.00     0.009 A 
ATOM     65  C   UNL A   1      48.415  25.777  31.391  1.00  0.00     0.009 A 
ATOM     66  C   UNL A   1      50.309  25.917  29.345  1.00  0.00     0.001 A 
ATOM     67  C   UNL A   1      49.709  25.297  31.602  1.00  0.00     0.001 A 
ATOM     68  C   UNL A   1      50.652  25.360  30.577  1.00  0.00     0.000 A 
ENDBRANCH  49  63
BRANCH  50  69
ATOM     69  C   UNL A   1      38.604  29.374  29.082  1.00  0.00    -0.014 A 
ATOM     70  C   UNL A   1      37.724  29.269  30.171  1.00  0.00     0.009 A 
ATOM     71  C   UNL A   1      38.126  29.898  27.872  1.00  0.00     0.009 A 
ATOM     72  C   UNL A   1      36.385  29.647  30.040  1.00  0.00     0.001 A 
ATOM     73  C   UNL A   1      36.794  30.300  27.751  1.00  0.00     0.001 A 
ATOM     74  C   UNL A   1      35.922  30.164  28.831  1.00  0.00     0.000 A 
ENDBRANCH  50  69
BRANCH  62  75
ATOM     75  C   UNL A   1      44.399  32.419  31.417  1.00  0.00    -0.014 A 
ATOM     76  C   UNL A   1      44.326  32.705  32.788  1.00  0.00     0.009 A 
ATOM     77  C   UNL A   1      44.779  33.434  30.525  1.00  0.00     0.009 A 
ATOM     78  C   UNL A   1      44.599  33.993  33.253  1.00  0.00     0.001 A 
ATOM     79  C   UNL A   1      45.077  34.712  30.995  1.00  0.00     0.001 A 
ATOM     80  C   UNL A   1      44.979  34.992  32.357  1.00  0.00     0.000 A 
ENDBRANCH  62  75
ENDBRANCH  36  37
ENDBRANCH  28  31
ENDBRANCH  26  27
ENDBRANCH  25  26
ENDBRANCH   1  25
TORSDOF 16
ENDMDL
MODEL 3
REMARK VINA RESULT:     -10.7      2.543      7.752
REMARK SMILES Cc1ccc(CNC(=O)NC[C@@H](CC(C)C)C(=O)NCCCNC(=O)c2ccc(-c3c4nc(c(-c5ccccc5)c5ccc([nH]5)c(-c5ccccc5)c5nc(c(-c6ccccc6)c6ccc3[nH]6)C=C5)C=C4)cc2)s1
REMARK SMILES IDX 20 1 19 2 17 3 18 4 12 6 11 7 10 8 7 9 8 10 9 12 6 14 5 15
REMARK SMILES IDX 1 16 2 17 3 18 74 19 4 20 13 21 14 22 15 23 16 24 21 25
REMARK SMILES IDX 22 26 23 27 24 28 25 30 26 31 27 32 73 33 28 34 72 35 29 36
REMARK SMILES IDX 30 37 31 38 66 39 32 40 71 41 65 42 67 43 33 44 70 45 64 46
REMARK SMILES IDX 63 47 34 49 56 50 41 51 55 52 42 53 45 54 54 55 68 56 43 57
REMARK SMILES IDX 44 58 53 60 69 61 46 62 35 63 36 64 40 65 37 66 39 67 38 68
REMARK SMILES IDX 57 69 58 70 62 71 59 72 61 73 60 74 47 75 48 76 52 77 49 78
REMARK SMILES IDX 51 79 50 80
REMARK H PARENT 19 5 7 11 10 13 23 29 67 48 45 59
REMARK Flexibility Score: inf
ROOT
ATOM      1  C   UNL A   1      32.602  27.160  26.691  1.00  0.00     0.117 C 
ENDROOT
BRANCH   1   2
ATOM      2  N   UNL A   1      31.353  26.425  26.795  1.00  0.00    -0.356 N 
ATOM      3  C   UNL A   1      30.533  25.904  25.849  1.00  0.00     0.224 C 
ATOM      4  O   UNL A   1      29.614  25.186  26.255  1.00  0.00    -0.275 OA
ATOM      5  H   UNL A   1      31.047  26.280  27.719  1.00  0.00     0.163 HD
BRANCH   3   6
ATOM      6  C   UNL A   1      30.706  26.150  24.359  1.00  0.00     0.098 C 
BRANCH   6   7
ATOM      7  C   UNL A   1      30.819  24.863  23.534  1.00  0.00     0.131 C 
BRANCH   7   8
ATOM      8  N   UNL A   1      31.695  25.014  22.383  1.00  0.00    -0.337 N 
ATOM      9  N   UNL A   1      33.679  23.873  22.964  1.00  0.00    -0.333 N 
ATOM     10  C   UNL A   1      32.857  24.425  22.064  1.00  0.00     0.315 C 
ATOM     11  H   UNL A   1      34.291  23.205  22.582  1.00  0.00     0.165 HD
ATOM     12  O   UNL A   1      33.179  24.388  20.875  1.00  0.00    -0.249 OA
ATOM     13  H   UNL A   1      31.379  25.668  21.719  1.00  0.00     0.165 HD
BRANCH   9  14
ATOM     14  C   UNL A   1      33.843  24.066  24.389  1.00  0.00     0.164 C 
BRANCH  14  15
ATOM     15  C   UNL A   1      35.160  23.505  24.844  1.00  0.00     0.024 A 
ATOM     16  C   UNL A   1      38.060  20.901  25.353  1.00  0.00     0.056 C 
ATOM     17  C   UNL A   1      37.113  22.051  25.306  1.00  0.00     0.002 A 
ATOM     18  C   UNL A   1      37.308  23.340  25.751  1.00  0.00     0.015 A 
ATOM     19  S   UNL A   1      35.555  21.848  24.630  1.00  0.00    -0.144 S 
ATOM     20  C   UNL A   1      36.184  24.176  25.486  1.00  0.00     0.017 A 
ENDBRANCH  14  15
ENDBRANCH   9  14
ENDBRANCH   7   8
ENDBRANCH   6   7
BRANCH   6  21
ATOM     21  C   UNL A   1      29.757  27.221  23.765  1.00  0.00     0.018 C 
BRANCH  21  22
ATOM     22  C   UNL A   1      30.206  28.697  23.799  1.00  0.00    -0.017 C 
ATOM     23  C   UNL A   1      31.662  28.867  23.350  1.00  0.00     0.007 C 
ATOM     24  C   UNL A   1      29.322  29.565  22.897  1.00  0.00     0.007 C 
ENDBRANCH  21  22
ENDBRANCH   6  21
ENDBRANCH   3   6
ENDBRANCH   1   2
BRANCH   1  25
ATOM     25  C   UNL A   1      32.533  28.526  27.343  1.00  0.00     0.042 C 
BRANCH  25  26
ATOM     26  C   UNL A   1      33.654  29.452  26.896  1.00  0.00     0.118 C 
BRANCH  26  27
ATOM     27  N   UNL A   1      33.747  30.669  27.700  1.00  0.00    -0.352 N 
ATOM     28  C   UNL A   1      34.727  31.106  28.562  1.00  0.00     0.251 C 
ATOM     29  H   UNL A   1      32.979  31.278  27.609  1.00  0.00     0.163 HD
ATOM     30  O   UNL A   1      34.522  32.072  29.284  1.00  0.00    -0.269 OA
BRANCH  28  31
ATOM     31  C   UNL A   1      36.014  30.384  28.640  1.00  0.00     0.039 A 
ATOM     32  C   UNL A   1      36.890  30.421  27.552  1.00  0.00     0.014 A 
ATOM     33  C   UNL A   1      36.365  29.688  29.795  1.00  0.00     0.014 A 
ATOM     34  C   UNL A   1      38.161  29.852  27.672  1.00  0.00     0.010 A 
ATOM     35  C   UNL A   1      37.668  29.244  29.959  1.00  0.00     0.010 A 
ATOM     36  C   UNL A   1      38.582  29.314  28.898  1.00  0.00    -0.014 A 
BRANCH  36  37
ATOM     37  C   UNL A   1      39.964  28.809  29.109  1.00  0.00     0.031 A 
ATOM     38  C   UNL A   1      41.019  29.729  29.666  1.00  0.00     0.074 A 
ATOM     39  C   UNL A   1      40.295  27.567  28.703  1.00  0.00     0.049 A 
ATOM     40  N   UNL A   1      42.306  29.529  29.792  1.00  0.00    -0.248 NA
ATOM     41  C   UNL A   1      40.578  31.069  30.094  1.00  0.00     0.031 C 
ATOM     42  C   UNL A   1      39.384  26.595  28.092  1.00  0.00     0.029 A 
ATOM     43  N   UNL A   1      41.500  26.911  28.735  1.00  0.00    -0.354 N 
ATOM     44  C   UNL A   1      42.828  30.728  30.262  1.00  0.00     0.074 A 
ATOM     45  C   UNL A   1      41.732  31.665  30.353  1.00  0.00     0.031 C 
ATOM     46  C   UNL A   1      40.052  25.456  27.849  1.00  0.00     0.029 A 
ATOM     47  C   UNL A   1      41.445  25.631  28.239  1.00  0.00     0.049 A 
ATOM     48  H   UNL A   1      42.326  27.320  29.083  1.00  0.00     0.167 HD
ATOM     49  C   UNL A   1      44.105  31.019  30.610  1.00  0.00     0.031 A 
ATOM     50  C   UNL A   1      42.412  24.703  28.111  1.00  0.00     0.031 A 
ATOM     51  C   UNL A   1      45.181  30.070  30.583  1.00  0.00     0.049 A 
ATOM     52  C   UNL A   1      43.811  25.038  28.548  1.00  0.00     0.074 A 
ATOM     53  C   UNL A   1      46.486  30.236  31.011  1.00  0.00     0.029 A 
ATOM     54  N   UNL A   1      45.072  28.770  30.116  1.00  0.00    -0.354 N 
ATOM     55  N   UNL A   1      44.272  26.154  29.058  1.00  0.00    -0.248 NA
ATOM     56  C   UNL A   1      44.820  23.981  28.398  1.00  0.00     0.031 C 
ATOM     57  C   UNL A   1      47.178  29.045  30.766  1.00  0.00     0.029 A 
ATOM     58  C   UNL A   1      46.291  28.127  30.228  1.00  0.00     0.049 A 
ATOM     59  H   UNL A   1      44.249  28.365  29.757  1.00  0.00     0.167 HD
ATOM     60  C   UNL A   1      45.615  25.922  29.320  1.00  0.00     0.074 A 
ATOM     61  C   UNL A   1      45.892  24.556  28.924  1.00  0.00     0.031 C 
ATOM     62  C   UNL A   1      46.540  26.764  29.841  1.00  0.00     0.031 A 
BRANCH  49  63
ATOM     63  C   UNL A   1      44.400  32.422  31.061  1.00  0.00    -0.014 A 
ATOM     64  C   UNL A   1      44.342  32.781  32.417  1.00  0.00     0.009 A 
ATOM     65  C   UNL A   1      44.780  33.390  30.118  1.00  0.00     0.009 A 
ATOM     66  C   UNL A   1      44.622  34.089  32.816  1.00  0.00     0.001 A 
ATOM     67  C   UNL A   1      45.088  34.690  30.522  1.00  0.00     0.001 A 
ATOM     68  C   UNL A   1      45.000  35.041  31.869  1.00  0.00     0.000 A 
ENDBRANCH  49  63
BRANCH  50  69
ATOM     69  C   UNL A   1      42.095  23.354  27.573  1.00  0.00    -0.014 A 
ATOM     70  C   UNL A   1      42.288  23.075  26.210  1.00  0.00     0.009 A 
ATOM     71  C   UNL A   1      41.578  22.349  28.404  1.00  0.00     0.009 A 
ATOM     72  C   UNL A   1      41.937  21.829  25.685  1.00  0.00     0.001 A 
ATOM     73  C   UNL A   1      41.254  21.095  27.881  1.00  0.00     0.001 A 
ATOM     74  C   UNL A   1      41.423  20.840  26.521  1.00  0.00     0.000 A 
ENDBRANCH  50  69
BRANCH  62  75
ATOM     75  C   UNL A   1      47.922  26.218  30.054  1.00  0.00    -0.014 A 
ATOM     76  C   UNL A   1      48.854  26.174  29.007  1.00  0.00     0.009 A 
ATOM     77  C   UNL A   1      48.305  25.784  31.332  1.00  0.00     0.009 A 
ATOM     78  C   UNL A   1      50.139  25.675  29.231  1.00  0.00     0.001 A 
ATOM     79  C   UNL A   1      49.597  25.310  31.559  1.00  0.00     0.001 A 
ATOM     80  C   UNL A   1      50.509  25.249  30.506  1.00  0.00     0.000 A 
ENDBRANCH  62  75
ENDBRANCH  36  37
ENDBRANCH  28  31
ENDBRANCH  26  27
ENDBRANCH  25  26
ENDBRANCH   1  25
TORSDOF 16
ENDMDL
