MODEL 1
REMARK VINA RESULT:     -11.6      0.000      0.000
REMARK SMILES Cc1onc2c(=O)n(C)nc(C(=O)NCCCNC(=O)c3ccc(-c4c5nc(c(-c6ccccc6)c6ccc([nH]6)c(-c6ccccc6)c6nc(c(-c7ccccc7)c7ccc4[nH]7)C=C6)C=C5)cc3)c12
REMARK SMILES IDX 17 1 16 2 15 3 14 4 12 5 13 6 11 8 1 9 2 10 3 11 69 12 4 13
REMARK SMILES IDX 5 14 6 15 10 16 7 17 8 18 9 19 18 20 19 21 20 23 21 24 22 25
REMARK SMILES IDX 68 26 23 27 67 28 24 29 25 30 26 31 61 32 27 33 66 34 60 35
REMARK SMILES IDX 62 36 28 37 65 38 59 39 58 40 29 42 51 43 36 44 50 45 37 46
REMARK SMILES IDX 40 47 49 48 63 49 38 50 39 51 48 53 64 54 41 55 30 56 31 57
REMARK SMILES IDX 35 58 32 59 34 60 33 61 52 62 53 63 57 64 54 65 56 66 55 67
REMARK SMILES IDX 42 68 43 69 47 70 44 71 46 72 45 73
REMARK H PARENT 14 7 18 22 62 41 40 52
REMARK Flexibility Score: inf
ROOT
ATOM      1  C   UNL A   1      37.856  22.118  25.026  1.00  0.00     0.118 C 
ENDROOT
BRANCH   1   2
ATOM      2  C   UNL A   1      36.385  22.209  25.476  1.00  0.00     0.042 C 
BRANCH   2   3
ATOM      3  C   UNL A   1      35.913  23.581  25.982  1.00  0.00     0.118 C 
BRANCH   3   4
ATOM      4  N   UNL A   1      34.538  23.579  26.460  1.00  0.00    -0.351 N 
ATOM      5  C   UNL A   1      33.419  24.310  26.112  1.00  0.00     0.272 C 
ATOM      6  O   UNL A   1      32.354  23.973  26.622  1.00  0.00    -0.267 OA
ATOM      7  H   UNL A   1      34.372  22.925  27.177  1.00  0.00     0.163 HD
BRANCH   5   8
ATOM      8  C   UNL A   1      33.433  25.500  25.133  1.00  0.00     0.161 A 
ATOM      9  C   UNL A   1      33.527  22.820  22.884  1.00  0.00     0.091 C 
ATOM     10  C   UNL A   1      33.530  24.293  22.808  1.00  0.00     0.144 A 
ATOM     11  O   UNL A   1      33.588  24.786  21.534  1.00  0.00    -0.360 OA
ATOM     12  C   UNL A   1      33.492  25.350  23.691  1.00  0.00     0.083 A 
ATOM     13  N   UNL A   1      33.584  26.167  21.561  1.00  0.00    -0.074 NA
ATOM     14  C   UNL A   1      33.525  26.487  22.856  1.00  0.00     0.183 A 
ATOM     15  C   UNL A   1      33.495  27.829  23.390  1.00  0.00     0.296 A 
ATOM     16  N   UNL A   1      33.407  26.715  25.618  1.00  0.00    -0.164 NA
ATOM     17  O   UNL A   1      33.522  28.849  22.695  1.00  0.00    -0.265 OA
ATOM     18  N   UNL A   1      33.428  27.847  24.792  1.00  0.00    -0.230 N 
ATOM     19  C   UNL A   1      33.391  29.135  25.455  1.00  0.00     0.178 C 
ENDBRANCH   5   8
ENDBRANCH   3   4
ENDBRANCH   2   3
ENDBRANCH   1   2
BRANCH   1  20
ATOM     20  N   UNL A   1      38.666  21.374  25.979  1.00  0.00    -0.352 N 
ATOM     21  C   UNL A   1      39.761  21.693  26.735  1.00  0.00     0.251 C 
ATOM     22  H   UNL A   1      38.362  20.446  26.105  1.00  0.00     0.163 HD
ATOM     23  O   UNL A   1      40.387  20.758  27.236  1.00  0.00    -0.269 OA
BRANCH  21  24
ATOM     24  C   UNL A   1      40.229  23.075  27.008  1.00  0.00     0.039 A 
ATOM     25  C   UNL A   1      41.589  23.345  26.782  1.00  0.00     0.014 A 
ATOM     26  C   UNL A   1      39.446  24.039  27.646  1.00  0.00     0.014 A 
ATOM     27  C   UNL A   1      42.155  24.567  27.161  1.00  0.00     0.010 A 
ATOM     28  C   UNL A   1      40.018  25.268  28.025  1.00  0.00     0.010 A 
ATOM     29  C   UNL A   1      41.373  25.549  27.776  1.00  0.00    -0.014 A 
BRANCH  29  30
ATOM     30  C   UNL A   1      41.966  26.897  27.963  1.00  0.00     0.031 A 
ATOM     31  C   UNL A   1      41.000  28.028  27.837  1.00  0.00     0.074 A 
ATOM     32  C   UNL A   1      43.110  27.156  28.639  1.00  0.00     0.049 A 
ATOM     33  N   UNL A   1      40.242  28.409  28.824  1.00  0.00    -0.248 NA
ATOM     34  C   UNL A   1      40.642  28.620  26.550  1.00  0.00     0.031 C 
ATOM     35  C   UNL A   1      43.566  26.381  29.797  1.00  0.00     0.029 A 
ATOM     36  N   UNL A   1      43.936  28.262  28.627  1.00  0.00    -0.354 N 
ATOM     37  C   UNL A   1      39.273  29.240  28.297  1.00  0.00     0.074 A 
ATOM     38  C   UNL A   1      39.571  29.357  26.885  1.00  0.00     0.031 C 
ATOM     39  C   UNL A   1      44.459  27.123  30.486  1.00  0.00     0.029 A 
ATOM     40  C   UNL A   1      44.773  28.340  29.739  1.00  0.00     0.049 A 
ATOM     41  H   UNL A   1      43.934  28.930  27.904  1.00  0.00     0.167 HD
ATOM     42  C   UNL A   1      38.274  29.773  29.047  1.00  0.00     0.031 A 
ATOM     43  C   UNL A   1      45.226  29.495  30.305  1.00  0.00     0.031 A 
ATOM     44  C   UNL A   1      38.299  29.448  30.442  1.00  0.00     0.049 A 
ATOM     45  C   UNL A   1      43.961  30.054  30.901  1.00  0.00     0.074 A 
ATOM     46  C   UNL A   1      37.729  28.515  31.283  1.00  0.00     0.029 A 
ATOM     47  N   UNL A   1      39.133  30.176  31.256  1.00  0.00    -0.354 N 
ATOM     48  N   UNL A   1      43.393  29.687  32.016  1.00  0.00    -0.248 NA
ATOM     49  C   UNL A   1      43.110  30.849  30.011  1.00  0.00     0.031 C 
ATOM     50  C   UNL A   1      38.599  28.443  32.418  1.00  0.00     0.029 A 
ATOM     51  C   UNL A   1      39.669  29.300  32.162  1.00  0.00     0.049 A 
ATOM     52  H   UNL A   1      39.310  31.143  31.199  1.00  0.00     0.167 HD
ATOM     53  C   UNL A   1      42.033  29.938  31.835  1.00  0.00     0.074 A 
ATOM     54  C   UNL A   1      41.932  30.675  30.591  1.00  0.00     0.031 C 
ATOM     55  C   UNL A   1      41.048  29.371  32.593  1.00  0.00     0.031 A 
BRANCH  42  56
ATOM     56  C   UNL A   1      37.287  30.752  28.549  1.00  0.00    -0.014 A 
ATOM     57  C   UNL A   1      37.555  32.115  28.748  1.00  0.00     0.009 A 
ATOM     58  C   UNL A   1      36.026  30.362  28.088  1.00  0.00     0.009 A 
ATOM     59  C   UNL A   1      36.565  33.073  28.537  1.00  0.00     0.001 A 
ATOM     60  C   UNL A   1      35.038  31.326  27.864  1.00  0.00     0.001 A 
ATOM     61  C   UNL A   1      35.304  32.676  28.105  1.00  0.00     0.000 A 
ENDBRANCH  42  56
BRANCH  43  62
ATOM     62  C   UNL A   1      46.157  30.348  29.490  1.00  0.00    -0.014 A 
ATOM     63  C   UNL A   1      46.746  29.788  28.341  1.00  0.00     0.009 A 
ATOM     64  C   UNL A   1      46.526  31.664  29.816  1.00  0.00     0.009 A 
ATOM     65  C   UNL A   1      47.575  30.540  27.499  1.00  0.00     0.001 A 
ATOM     66  C   UNL A   1      47.327  32.431  28.956  1.00  0.00     0.001 A 
ATOM     67  C   UNL A   1      47.839  31.873  27.791  1.00  0.00     0.000 A 
ENDBRANCH  43  62
BRANCH  55  68
ATOM     68  C   UNL A   1      41.486  28.576  33.780  1.00  0.00    -0.014 A 
ATOM     69  C   UNL A   1      41.405  29.124  35.066  1.00  0.00     0.009 A 
ATOM     70  C   UNL A   1      41.918  27.248  33.636  1.00  0.00     0.009 A 
ATOM     71  C   UNL A   1      41.711  28.347  36.186  1.00  0.00     0.001 A 
ATOM     72  C   UNL A   1      42.207  26.466  34.756  1.00  0.00     0.001 A 
ATOM     73  C   UNL A   1      42.096  27.016  36.031  1.00  0.00     0.000 A 
ENDBRANCH  55  68
ENDBRANCH  29  30
ENDBRANCH  21  24
ENDBRANCH   1  20
TORSDOF 10
ENDMDL
MODEL 2
REMARK VINA RESULT:     -11.3      9.127     13.059
REMARK SMILES Cc1onc2c(=O)n(C)nc(C(=O)NCCCNC(=O)c3ccc(-c4c5nc(c(-c6ccccc6)c6ccc([nH]6)c(-c6ccccc6)c6nc(c(-c7ccccc7)c7ccc4[nH]7)C=C6)C=C5)cc3)c12
REMARK SMILES IDX 17 1 16 2 15 3 14 4 12 5 13 6 11 8 1 9 2 10 3 11 69 12 4 13
REMARK SMILES IDX 5 14 6 15 10 16 7 17 8 18 9 19 18 20 19 21 20 23 21 24 22 25
REMARK SMILES IDX 68 26 23 27 67 28 24 29 25 30 26 31 61 32 27 33 66 34 60 35
REMARK SMILES IDX 62 36 28 37 65 38 59 39 58 40 29 42 51 43 36 44 50 45 37 46
REMARK SMILES IDX 40 47 49 48 63 49 38 50 39 51 48 53 64 54 41 55 30 56 31 57
REMARK SMILES IDX 35 58 32 59 34 60 33 61 52 62 53 63 57 64 54 65 56 66 55 67
REMARK SMILES IDX 42 68 43 69 47 70 44 71 46 72 45 73
REMARK H PARENT 14 7 18 22 62 41 40 52
REMARK Flexibility Score: inf
ROOT
ATOM      1  C   UNL A   1      39.842  34.157  31.438  1.00  0.00     0.118 C 
ENDROOT
BRANCH   1   2
ATOM      2  C   UNL A   1      38.814  34.545  30.358  1.00  0.00     0.042 C 
BRANCH   2   3
ATOM      3  C   UNL A   1      37.994  33.394  29.755  1.00  0.00     0.118 C 
BRANCH   3   4
ATOM      4  N   UNL A   1      37.356  32.553  30.757  1.00  0.00    -0.351 N 
ATOM      5  C   UNL A   1      36.119  32.592  31.370  1.00  0.00     0.272 C 
ATOM      6  O   UNL A   1      35.826  31.644  32.093  1.00  0.00    -0.267 OA
ATOM      7  H   UNL A   1      37.921  31.806  31.061  1.00  0.00     0.163 HD
BRANCH   5   8
ATOM      8  C   UNL A   1      35.103  33.737  31.196  1.00  0.00     0.161 A 
ATOM      9  C   UNL A   1      34.727  32.075  28.138  1.00  0.00     0.091 C 
ATOM     10  C   UNL A   1      34.160  33.269  28.794  1.00  0.00     0.144 A 
ATOM     11  O   UNL A   1      33.240  33.938  28.037  1.00  0.00    -0.360 OA
ATOM     12  C   UNL A   1      34.305  33.925  29.998  1.00  0.00     0.083 A 
ATOM     13  N   UNL A   1      32.764  35.034  28.730  1.00  0.00    -0.074 NA
ATOM     14  C   UNL A   1      33.411  35.011  29.899  1.00  0.00     0.183 A 
ATOM     15  C   UNL A   1      33.244  35.965  30.970  1.00  0.00     0.296 A 
ATOM     16  N   UNL A   1      34.953  34.601  32.166  1.00  0.00    -0.164 NA
ATOM     17  O   UNL A   1      32.472  36.927  30.924  1.00  0.00    -0.265 OA
ATOM     18  N   UNL A   1      34.058  35.675  32.077  1.00  0.00    -0.230 N 
ATOM     19  C   UNL A   1      33.986  36.557  33.225  1.00  0.00     0.178 C 
ENDBRANCH   5   8
ENDBRANCH   3   4
ENDBRANCH   2   3
ENDBRANCH   1   2
BRANCH   1  20
ATOM     20  N   UNL A   1      40.965  33.423  30.875  1.00  0.00    -0.352 N 
ATOM     21  C   UNL A   1      41.932  33.738  29.960  1.00  0.00     0.251 C 
ATOM     22  H   UNL A   1      41.044  32.506  31.226  1.00  0.00     0.163 HD
ATOM     23  O   UNL A   1      42.579  32.803  29.485  1.00  0.00    -0.269 OA
BRANCH  21  24
ATOM     24  C   UNL A   1      42.268  35.116  29.523  1.00  0.00     0.039 A 
ATOM     25  C   UNL A   1      41.652  35.581  28.349  1.00  0.00     0.014 A 
ATOM     26  C   UNL A   1      43.286  35.878  30.098  1.00  0.00     0.014 A 
ATOM     27  C   UNL A   1      42.024  36.799  27.771  1.00  0.00     0.010 A 
ATOM     28  C   UNL A   1      43.658  37.104  29.516  1.00  0.00     0.010 A 
ATOM     29  C   UNL A   1      43.025  37.583  28.355  1.00  0.00    -0.014 A 
BRANCH  29  30
ATOM     30  C   UNL A   1      43.233  38.955  27.828  1.00  0.00     0.031 A 
ATOM     31  C   UNL A   1      42.895  40.050  28.786  1.00  0.00     0.074 A 
ATOM     32  C   UNL A   1      44.066  39.280  26.813  1.00  0.00     0.049 A 
ATOM     33  N   UNL A   1      43.729  40.456  29.699  1.00  0.00    -0.248 NA
ATOM     34  C   UNL A   1      41.539  40.568  28.946  1.00  0.00     0.031 C 
ATOM     35  C   UNL A   1      45.320  38.575  26.531  1.00  0.00     0.029 A 
ATOM     36  N   UNL A   1      44.127  40.407  26.019  1.00  0.00    -0.354 N 
ATOM     37  C   UNL A   1      43.012  41.232  30.589  1.00  0.00     0.074 A 
ATOM     38  C   UNL A   1      41.662  41.289  30.072  1.00  0.00     0.031 C 
ATOM     39  C   UNL A   1      46.103  39.376  25.775  1.00  0.00     0.029 A 
ATOM     40  C   UNL A   1      45.353  40.564  25.372  1.00  0.00     0.049 A 
ATOM     41  H   UNL A   1      43.379  41.040  25.920  1.00  0.00     0.167 HD
ATOM     42  C   UNL A   1      43.566  41.771  31.706  1.00  0.00     0.031 A 
ATOM     43  C   UNL A   1      45.921  41.758  25.040  1.00  0.00     0.031 A 
ATOM     44  C   UNL A   1      44.963  41.514  31.897  1.00  0.00     0.049 A 
ATOM     45  C   UNL A   1      46.279  42.307  26.395  1.00  0.00     0.074 A 
ATOM     46  C   UNL A   1      45.751  40.607  32.574  1.00  0.00     0.029 A 
ATOM     47  N   UNL A   1      45.859  42.305  31.220  1.00  0.00    -0.354 N 
ATOM     48  N   UNL A   1      47.308  41.978  27.126  1.00  0.00    -0.248 NA
ATOM     49  C   UNL A   1      45.226  43.033  27.109  1.00  0.00     0.031 C 
ATOM     50  C   UNL A   1      47.010  40.615  31.895  1.00  0.00     0.029 A 
ATOM     51  C   UNL A   1      46.883  41.490  30.817  1.00  0.00     0.049 A 
ATOM     52  H   UNL A   1      45.780  43.273  31.056  1.00  0.00     0.167 HD
ATOM     53  C   UNL A   1      46.902  42.180  28.445  1.00  0.00     0.074 A 
ATOM     54  C   UNL A   1      45.620  42.853  28.361  1.00  0.00     0.031 C 
ATOM     55  C   UNL A   1      47.522  41.622  29.525  1.00  0.00     0.031 A 
BRANCH  42  56
ATOM     56  C   UNL A   1      42.868  42.695  32.622  1.00  0.00    -0.014 A 
ATOM     57  C   UNL A   1      42.819  44.054  32.273  1.00  0.00     0.009 A 
ATOM     58  C   UNL A   1      42.449  42.299  33.896  1.00  0.00     0.009 A 
ATOM     59  C   UNL A   1      42.406  45.011  33.198  1.00  0.00     0.001 A 
ATOM     60  C   UNL A   1      42.023  43.260  34.818  1.00  0.00     0.001 A 
ATOM     61  C   UNL A   1      42.018  44.614  34.474  1.00  0.00     0.000 A 
ENDBRANCH  42  56
BRANCH  43  62
ATOM     62  C   UNL A   1      45.221  42.597  24.009  1.00  0.00    -0.014 A 
ATOM     63  C   UNL A   1      45.920  42.941  22.836  1.00  0.00     0.009 A 
ATOM     64  C   UNL A   1      43.920  43.110  24.147  1.00  0.00     0.009 A 
ATOM     65  C   UNL A   1      45.312  43.667  21.805  1.00  0.00     0.001 A 
ATOM     66  C   UNL A   1      43.296  43.807  23.101  1.00  0.00     0.001 A 
ATOM     67  C   UNL A   1      43.988  44.073  21.925  1.00  0.00     0.000 A 
ENDBRANCH  43  62
BRANCH  55  68
ATOM     68  C   UNL A   1      48.804  40.898  29.266  1.00  0.00    -0.014 A 
ATOM     69  C   UNL A   1      50.032  41.527  29.508  1.00  0.00     0.009 A 
ATOM     70  C   UNL A   1      48.801  39.559  28.844  1.00  0.00     0.009 A 
ATOM     71  C   UNL A   1      51.228  40.819  29.370  1.00  0.00     0.001 A 
ATOM     72  C   UNL A   1      49.994  38.846  28.723  1.00  0.00     0.001 A 
ATOM     73  C   UNL A   1      51.207  39.476  28.993  1.00  0.00     0.000 A 
ENDBRANCH  55  68
ENDBRANCH  29  30
ENDBRANCH  21  24
ENDBRANCH   1  20
TORSDOF 10
ENDMDL
MODEL 3
REMARK VINA RESULT:     -11.3      2.176      7.197
REMARK SMILES Cc1onc2c(=O)n(C)nc(C(=O)NCCCNC(=O)c3ccc(-c4c5nc(c(-c6ccccc6)c6ccc([nH]6)c(-c6ccccc6)c6nc(c(-c7ccccc7)c7ccc4[nH]7)C=C6)C=C5)cc3)c12
REMARK SMILES IDX 17 1 16 2 15 3 14 4 12 5 13 6 11 8 1 9 2 10 3 11 69 12 4 13
REMARK SMILES IDX 5 14 6 15 10 16 7 17 8 18 9 19 18 20 19 21 20 23 21 24 22 25
REMARK SMILES IDX 68 26 23 27 67 28 24 29 25 30 26 31 61 32 27 33 66 34 60 35
REMARK SMILES IDX 62 36 28 37 65 38 59 39 58 40 29 42 51 43 36 44 50 45 37 46
REMARK SMILES IDX 40 47 49 48 63 49 38 50 39 51 48 53 64 54 41 55 30 56 31 57
REMARK SMILES IDX 35 58 32 59 34 60 33 61 52 62 53 63 57 64 54 65 56 66 55 67
REMARK SMILES IDX 42 68 43 69 47 70 44 71 46 72 45 73
REMARK H PARENT 14 7 18 22 62 41 40 52
REMARK Flexibility Score: inf
ROOT
ATOM      1  C   UNL A   1      32.802  30.154  27.241  1.00  0.00     0.118 C 
ENDROOT
BRANCH   1   2
ATOM      2  C   UNL A   1      33.317  29.523  25.932  1.00  0.00     0.042 C 
BRANCH   2   3
ATOM      3  C   UNL A   1      33.556  28.005  25.956  1.00  0.00     0.118 C 
BRANCH   3   4
ATOM      4  N   UNL A   1      33.666  27.416  24.630  1.00  0.00    -0.351 N 
ATOM      5  C   UNL A   1      33.705  26.112  24.179  1.00  0.00     0.272 C 
ATOM      6  O   UNL A   1      33.670  25.942  22.964  1.00  0.00    -0.267 OA
ATOM      7  H   UNL A   1      33.724  28.083  23.908  1.00  0.00     0.163 HD
BRANCH   5   8
ATOM      8  C   UNL A   1      33.786  24.880  25.102  1.00  0.00     0.161 A 
ATOM      9  C   UNL A   1      30.551  26.008  25.818  1.00  0.00     0.091 C 
ATOM     10  C   UNL A   1      31.435  24.912  26.261  1.00  0.00     0.144 A 
ATOM     11  O   UNL A   1      30.882  24.097  27.208  1.00  0.00    -0.360 OA
ATOM     12  C   UNL A   1      32.708  24.466  25.980  1.00  0.00     0.083 A 
ATOM     13  N   UNL A   1      31.776  23.105  27.559  1.00  0.00    -0.074 NA
ATOM     14  C   UNL A   1      32.861  23.339  26.815  1.00  0.00     0.183 A 
ATOM     15  C   UNL A   1      34.074  22.556  26.829  1.00  0.00     0.296 A 
ATOM     16  N   UNL A   1      34.886  24.172  25.113  1.00  0.00    -0.164 NA
ATOM     17  O   UNL A   1      34.248  21.564  27.542  1.00  0.00    -0.265 OA
ATOM     18  N   UNL A   1      35.038  23.046  25.932  1.00  0.00    -0.230 N 
ATOM     19  C   UNL A   1      36.305  22.347  25.847  1.00  0.00     0.178 C 
ENDBRANCH   5   8
ENDBRANCH   3   4
ENDBRANCH   2   3
ENDBRANCH   1   2
BRANCH   1  20
ATOM     20  N   UNL A   1      33.102  31.576  27.308  1.00  0.00    -0.352 N 
ATOM     21  C   UNL A   1      34.026  32.312  28.000  1.00  0.00     0.251 C 
ATOM     22  H   UNL A   1      32.516  32.124  26.737  1.00  0.00     0.163 HD
ATOM     23  O   UNL A   1      33.843  33.529  28.055  1.00  0.00    -0.269 OA
BRANCH  21  24
ATOM     24  C   UNL A   1      35.232  31.753  28.660  1.00  0.00     0.039 A 
ATOM     25  C   UNL A   1      35.404  32.043  30.023  1.00  0.00     0.014 A 
ATOM     26  C   UNL A   1      36.272  31.134  27.964  1.00  0.00     0.014 A 
ATOM     27  C   UNL A   1      36.584  31.698  30.691  1.00  0.00     0.010 A 
ATOM     28  C   UNL A   1      37.457  30.787  28.638  1.00  0.00     0.010 A 
ATOM     29  C   UNL A   1      37.621  31.054  30.009  1.00  0.00    -0.014 A 
BRANCH  29  30
ATOM     30  C   UNL A   1      38.756  30.523  30.807  1.00  0.00     0.031 A 
ATOM     31  C   UNL A   1      39.130  29.112  30.496  1.00  0.00     0.074 A 
ATOM     32  C   UNL A   1      39.703  31.278  31.409  1.00  0.00     0.049 A 
ATOM     33  N   UNL A   1      39.906  28.802  29.498  1.00  0.00    -0.248 NA
ATOM     34  C   UNL A   1      38.465  27.965  31.111  1.00  0.00     0.031 C 
ATOM     35  C   UNL A   1      40.182  32.559  30.881  1.00  0.00     0.029 A 
ATOM     36  N   UNL A   1      40.597  30.973  32.415  1.00  0.00    -0.354 N 
ATOM     37  C   UNL A   1      39.797  27.438  29.305  1.00  0.00     0.074 A 
ATOM     38  C   UNL A   1      38.906  26.958  30.340  1.00  0.00     0.031 C 
ATOM     39  C   UNL A   1      41.381  32.834  31.439  1.00  0.00     0.029 A 
ATOM     40  C   UNL A   1      41.676  31.855  32.485  1.00  0.00     0.049 A 
ATOM     41  H   UNL A   1      40.485  30.207  33.024  1.00  0.00     0.167 HD
ATOM     42  C   UNL A   1      40.433  26.785  28.298  1.00  0.00     0.031 A 
ATOM     43  C   UNL A   1      42.932  31.531  32.904  1.00  0.00     0.031 A 
ATOM     44  C   UNL A   1      41.261  27.593  27.454  1.00  0.00     0.049 A 
ATOM     45  C   UNL A   1      43.403  30.642  31.784  1.00  0.00     0.074 A 
ATOM     46  C   UNL A   1      41.150  28.261  26.252  1.00  0.00     0.029 A 
ATOM     47  N   UNL A   1      42.527  27.893  27.895  1.00  0.00    -0.354 N 
ATOM     48  N   UNL A   1      43.851  31.023  30.619  1.00  0.00    -0.248 NA
ATOM     49  C   UNL A   1      43.035  29.227  31.868  1.00  0.00     0.031 C 
ATOM     50  C   UNL A   1      42.158  29.277  26.286  1.00  0.00     0.029 A 
ATOM     51  C   UNL A   1      42.778  29.190  27.531  1.00  0.00     0.049 A 
ATOM     52  H   UNL A   1      43.138  27.290  28.378  1.00  0.00     0.167 HD
ATOM     53  C   UNL A   1      43.533  29.982  29.746  1.00  0.00     0.074 A 
ATOM     54  C   UNL A   1      43.055  28.899  30.585  1.00  0.00     0.031 C 
ATOM     55  C   UNL A   1      43.486  30.116  28.388  1.00  0.00     0.031 A 
BRANCH  42  56
ATOM     56  C   UNL A   1      40.433  25.319  28.124  1.00  0.00    -0.014 A 
ATOM     57  C   UNL A   1      41.581  24.611  28.514  1.00  0.00     0.009 A 
ATOM     58  C   UNL A   1      39.433  24.659  27.403  1.00  0.00     0.009 A 
ATOM     59  C   UNL A   1      41.751  23.277  28.149  1.00  0.00     0.001 A 
ATOM     60  C   UNL A   1      39.601  23.316  27.049  1.00  0.00     0.001 A 
ATOM     61  C   UNL A   1      40.766  22.633  27.408  1.00  0.00     0.000 A 
ENDBRANCH  42  56
BRANCH  43  62
ATOM     62  C   UNL A   1      43.103  31.141  34.345  1.00  0.00    -0.014 A 
ATOM     63  C   UNL A   1      44.401  30.872  34.818  1.00  0.00     0.009 A 
ATOM     64  C   UNL A   1      42.048  30.976  35.258  1.00  0.00     0.009 A 
ATOM     65  C   UNL A   1      44.644  30.563  36.162  1.00  0.00     0.001 A 
ATOM     66  C   UNL A   1      42.291  30.702  36.612  1.00  0.00     0.001 A 
ATOM     67  C   UNL A   1      43.590  30.509  37.066  1.00  0.00     0.000 A 
ENDBRANCH  43  62
BRANCH  55  68
ATOM     68  C   UNL A   1      43.970  31.412  27.823  1.00  0.00    -0.014 A 
ATOM     69  C   UNL A   1      44.933  31.424  26.806  1.00  0.00     0.009 A 
ATOM     70  C   UNL A   1      43.421  32.632  28.250  1.00  0.00     0.009 A 
ATOM     71  C   UNL A   1      45.308  32.626  26.202  1.00  0.00     0.001 A 
ATOM     72  C   UNL A   1      43.783  33.831  27.634  1.00  0.00     0.001 A 
ATOM     73  C   UNL A   1      44.722  33.825  26.605  1.00  0.00     0.000 A 
ENDBRANCH  55  68
ENDBRANCH  29  30
ENDBRANCH  21  24
ENDBRANCH   1  20
TORSDOF 10
ENDMDL
