MODEL 1
REMARK VINA RESULT:     -11.6      0.000      0.000
REMARK SMILES Cc1cc(S(=O)(=O)Nc2ccc(F)cc2C(=O)NCCCNC(=O)c2ccc(-c3c4nc(c(-c5ccccc5)c5ccc([nH]5)c(-c5ccccc5)c5nc(c(-c6ccccc6)c6ccc3[nH]6)C=C5)C=C4)cc2)c(C)s1
REMARK SMILES IDX 19 1 18 2 16 3 17 4 15 6 9 7 10 8 11 9 14 10 12 11 13 12
REMARK SMILES IDX 8 13 5 15 6 16 7 17 4 18 1 19 2 20 3 21 75 22 73 23 74 24
REMARK SMILES IDX 20 25 21 26 22 27 23 28 24 30 25 31 26 32 72 33 27 34 71 35
REMARK SMILES IDX 28 36 29 37 30 38 65 39 31 40 70 41 64 42 66 43 32 44 69 45
REMARK SMILES IDX 63 46 62 47 33 49 55 50 40 51 54 52 41 53 44 54 53 55 67 56
REMARK SMILES IDX 42 57 43 58 52 60 68 61 45 62 34 63 35 64 39 65 36 66 38 67
REMARK SMILES IDX 37 68 56 69 57 70 61 71 58 72 60 73 59 74 46 75 47 76 51 77
REMARK SMILES IDX 48 78 50 79 49 80
REMARK H PARENT 18 5 8 14 22 29 66 48 44 59
REMARK Flexibility Score: inf
ROOT
ATOM      1  C   UNL A   1      36.928  20.956  24.653  1.00  0.00     0.118 C 
ENDROOT
BRANCH   1   2
ATOM      2  N   UNL A   1      35.848  20.917  25.622  1.00  0.00    -0.352 N 
ATOM      3  C   UNL A   1      34.483  20.877  25.589  1.00  0.00     0.253 C 
ATOM      4  O   UNL A   1      33.950  21.158  26.671  1.00  0.00    -0.269 OA
ATOM      5  H   UNL A   1      36.188  20.922  26.545  1.00  0.00     0.163 HD
BRANCH   3   6
ATOM      6  C   UNL A   1      33.590  20.403  24.483  1.00  0.00     0.066 A 
ATOM      7  C   UNL A   1      32.860  21.111  23.509  1.00  0.00     0.062 A 
ATOM      8  C   UNL A   1      32.167  20.410  22.495  1.00  0.00     0.030 A 
ATOM      9  C   UNL A   1      32.129  19.017  22.470  1.00  0.00     0.041 A 
ATOM     10  C   UNL A   1      33.515  18.987  24.434  1.00  0.00     0.055 A 
ATOM     11  C   UNL A   1      32.791  18.317  23.457  1.00  0.00     0.124 A 
ATOM     12  F   UNL A   1      32.735  16.980  23.471  1.00  0.00    -0.207 F 
BRANCH   7  13
ATOM     13  N   UNL A   1      32.632  22.519  23.502  1.00  0.00    -0.279 N 
ATOM     14  H   UNL A   1      31.854  22.897  23.971  1.00  0.00     0.180 HD
BRANCH  13  15
ATOM     15  S   UNL A   1      33.707  23.535  22.679  1.00  0.00     0.263 S 
ATOM     16  O   UNL A   1      33.142  23.663  21.355  1.00  0.00    -0.201 OA
ATOM     17  O   UNL A   1      35.063  23.094  22.904  1.00  0.00    -0.201 OA
BRANCH  15  18
ATOM     18  C   UNL A   1      33.692  25.138  23.355  1.00  0.00     0.101 A 
ATOM     19  C   UNL A   1      33.238  28.840  22.692  1.00  0.00     0.056 C 
ATOM     20  C   UNL A   1      33.459  27.464  23.218  1.00  0.00     0.003 A 
ATOM     21  C   UNL A   1      33.459  26.279  22.521  1.00  0.00     0.037 A 
ATOM     22  S   UNL A   1      33.710  27.204  24.883  1.00  0.00    -0.145 S 
ATOM     23  C   UNL A   1      33.755  25.492  24.695  1.00  0.00     0.022 A 
ATOM     24  C   UNL A   1      33.832  24.670  25.941  1.00  0.00     0.058 C 
ENDBRANCH  15  18
ENDBRANCH  13  15
ENDBRANCH   7  13
ENDBRANCH   3   6
ENDBRANCH   1   2
BRANCH   1  25
ATOM     25  C   UNL A   1      37.938  19.848  24.965  1.00  0.00     0.042 C 
BRANCH  25  26
ATOM     26  C   UNL A   1      39.024  20.286  25.947  1.00  0.00     0.118 C 
BRANCH  26  27
ATOM     27  N   UNL A   1      40.174  19.400  25.906  1.00  0.00    -0.352 N 
ATOM     28  C   UNL A   1      41.517  19.666  25.991  1.00  0.00     0.251 C 
ATOM     29  H   UNL A   1      39.952  18.447  25.797  1.00  0.00     0.163 HD
ATOM     30  O   UNL A   1      42.307  18.791  25.639  1.00  0.00    -0.269 OA
BRANCH  28  31
ATOM     31  C   UNL A   1      42.053  20.955  26.502  1.00  0.00     0.039 A 
ATOM     32  C   UNL A   1      42.067  21.158  27.889  1.00  0.00     0.014 A 
ATOM     33  C   UNL A   1      42.389  22.019  25.661  1.00  0.00     0.014 A 
ATOM     34  C   UNL A   1      42.400  22.409  28.424  1.00  0.00     0.010 A 
ATOM     35  C   UNL A   1      42.799  23.243  26.195  1.00  0.00     0.010 A 
ATOM     36  C   UNL A   1      42.762  23.468  27.581  1.00  0.00    -0.014 A 
BRANCH  36  37
ATOM     37  C   UNL A   1      42.978  24.844  28.108  1.00  0.00     0.031 A 
ATOM     38  C   UNL A   1      44.372  25.287  28.482  1.00  0.00     0.074 A 
ATOM     39  C   UNL A   1      41.948  25.692  28.286  1.00  0.00     0.049 A 
ATOM     40  N   UNL A   1      44.763  26.384  29.082  1.00  0.00    -0.248 NA
ATOM     41  C   UNL A   1      45.468  24.353  28.170  1.00  0.00     0.031 C 
ATOM     42  C   UNL A   1      40.546  25.408  27.983  1.00  0.00     0.029 A 
ATOM     43  N   UNL A   1      41.931  26.976  28.773  1.00  0.00    -0.354 N 
ATOM     44  C   UNL A   1      46.130  26.236  29.286  1.00  0.00     0.074 A 
ATOM     45  C   UNL A   1      46.502  24.946  28.748  1.00  0.00     0.031 C 
ATOM     46  C   UNL A   1      39.809  26.497  28.262  1.00  0.00     0.029 A 
ATOM     47  C   UNL A   1      40.680  27.540  28.796  1.00  0.00     0.049 A 
ATOM     48  H   UNL A   1      42.740  27.448  29.078  1.00  0.00     0.167 HD
ATOM     49  C   UNL A   1      47.003  27.094  29.866  1.00  0.00     0.031 A 
ATOM     50  C   UNL A   1      40.279  28.760  29.200  1.00  0.00     0.031 A 
ATOM     51  C   UNL A   1      46.666  28.413  30.323  1.00  0.00     0.049 A 
ATOM     52  C   UNL A   1      41.282  29.738  29.741  1.00  0.00     0.074 A 
ATOM     53  C   UNL A   1      47.498  29.378  30.869  1.00  0.00     0.029 A 
ATOM     54  N   UNL A   1      45.399  28.966  30.259  1.00  0.00    -0.354 N 
ATOM     55  N   UNL A   1      42.569  29.580  29.930  1.00  0.00    -0.248 NA
ATOM     56  C   UNL A   1      40.776  31.068  30.115  1.00  0.00     0.031 C 
ATOM     57  C   UNL A   1      46.728  30.516  31.137  1.00  0.00     0.029 A 
ATOM     58  C   UNL A   1      45.425  30.263  30.740  1.00  0.00     0.049 A 
ATOM     59  H   UNL A   1      44.597  28.504  29.921  1.00  0.00     0.167 HD
ATOM     60  C   UNL A   1      43.029  30.793  30.425  1.00  0.00     0.074 A 
ATOM     61  C   UNL A   1      41.887  31.680  30.500  1.00  0.00     0.031 C 
ATOM     62  C   UNL A   1      44.287  31.139  30.789  1.00  0.00     0.031 A 
BRANCH  49  63
ATOM     63  C   UNL A   1      48.414  26.616  30.050  1.00  0.00    -0.014 A 
ATOM     64  C   UNL A   1      49.406  26.882  29.095  1.00  0.00     0.009 A 
ATOM     65  C   UNL A   1      48.752  25.894  31.205  1.00  0.00     0.009 A 
ATOM     66  C   UNL A   1      50.705  26.402  29.278  1.00  0.00     0.001 A 
ATOM     67  C   UNL A   1      50.055  25.433  31.394  1.00  0.00     0.001 A 
ATOM     68  C   UNL A   1      51.028  25.680  30.427  1.00  0.00     0.000 A 
ENDBRANCH  49  63
BRANCH  50  69
ATOM     69  C   UNL A   1      38.851  29.145  29.076  1.00  0.00    -0.014 A 
ATOM     70  C   UNL A   1      37.987  28.993  30.170  1.00  0.00     0.009 A 
ATOM     71  C   UNL A   1      38.350  29.660  27.872  1.00  0.00     0.009 A 
ATOM     72  C   UNL A   1      36.637  29.334  30.056  1.00  0.00     0.001 A 
ATOM     73  C   UNL A   1      37.003  30.016  27.767  1.00  0.00     0.001 A 
ATOM     74  C   UNL A   1      36.148  29.847  28.855  1.00  0.00     0.000 A 
ENDBRANCH  50  69
BRANCH  62  75
ATOM     75  C   UNL A   1      44.502  32.546  31.254  1.00  0.00    -0.014 A 
ATOM     76  C   UNL A   1      44.816  33.568  30.345  1.00  0.00     0.009 A 
ATOM     77  C   UNL A   1      44.351  32.859  32.614  1.00  0.00     0.009 A 
ATOM     78  C   UNL A   1      44.999  34.876  30.796  1.00  0.00     0.001 A 
ATOM     79  C   UNL A   1      44.522  34.170  33.058  1.00  0.00     0.001 A 
ATOM     80  C   UNL A   1      44.851  35.177  32.150  1.00  0.00     0.000 A 
ENDBRANCH  62  75
ENDBRANCH  36  37
ENDBRANCH  28  31
ENDBRANCH  26  27
ENDBRANCH  25  26
ENDBRANCH   1  25
TORSDOF 13
ENDMDL
MODEL 2
REMARK VINA RESULT:     -11.5      4.327      9.228
REMARK SMILES Cc1cc(S(=O)(=O)Nc2ccc(F)cc2C(=O)NCCCNC(=O)c2ccc(-c3c4nc(c(-c5ccccc5)c5ccc([nH]5)c(-c5ccccc5)c5nc(c(-c6ccccc6)c6ccc3[nH]6)C=C5)C=C4)cc2)c(C)s1
REMARK SMILES IDX 19 1 18 2 16 3 17 4 15 6 9 7 10 8 11 9 14 10 12 11 13 12
REMARK SMILES IDX 8 13 5 15 6 16 7 17 4 18 1 19 2 20 3 21 75 22 73 23 74 24
REMARK SMILES IDX 20 25 21 26 22 27 23 28 24 30 25 31 26 32 72 33 27 34 71 35
REMARK SMILES IDX 28 36 29 37 30 38 65 39 31 40 70 41 64 42 66 43 32 44 69 45
REMARK SMILES IDX 63 46 62 47 33 49 55 50 40 51 54 52 41 53 44 54 53 55 67 56
REMARK SMILES IDX 42 57 43 58 52 60 68 61 45 62 34 63 35 64 39 65 36 66 38 67
REMARK SMILES IDX 37 68 56 69 57 70 61 71 58 72 60 73 59 74 46 75 47 76 51 77
REMARK SMILES IDX 48 78 50 79 49 80
REMARK H PARENT 18 5 8 14 22 29 66 48 44 59
REMARK Flexibility Score: inf
ROOT
ATOM      1  C   UNL A   1      31.454  30.439  26.388  1.00  0.00     0.118 C 
ENDROOT
BRANCH   1   2
ATOM      2  N   UNL A   1      31.959  30.078  25.076  1.00  0.00    -0.352 N 
ATOM      3  C   UNL A   1      31.597  29.228  24.070  1.00  0.00     0.253 C 
ATOM      4  O   UNL A   1      32.495  29.025  23.242  1.00  0.00    -0.269 OA
ATOM      5  H   UNL A   1      32.777  30.577  24.853  1.00  0.00     0.163 HD
BRANCH   3   6
ATOM      6  C   UNL A   1      30.244  28.654  23.776  1.00  0.00     0.066 A 
ATOM      7  C   UNL A   1      29.718  27.364  23.978  1.00  0.00     0.062 A 
ATOM      8  C   UNL A   1      28.354  27.106  23.705  1.00  0.00     0.030 A 
ATOM      9  C   UNL A   1      27.521  28.086  23.171  1.00  0.00     0.041 A 
ATOM     10  C   UNL A   1      29.370  29.622  23.217  1.00  0.00     0.055 A 
ATOM     11  C   UNL A   1      28.045  29.335  22.913  1.00  0.00     0.124 A 
ATOM     12  F   UNL A   1      27.271  30.278  22.365  1.00  0.00    -0.207 F 
BRANCH   7  13
ATOM     13  N   UNL A   1      30.470  26.205  24.329  1.00  0.00    -0.279 N 
ATOM     14  H   UNL A   1      30.771  25.580  23.631  1.00  0.00     0.180 HD
BRANCH  13  15
ATOM     15  S   UNL A   1      30.842  25.911  25.954  1.00  0.00     0.263 S 
ATOM     16  O   UNL A   1      29.739  25.112  26.438  1.00  0.00    -0.201 OA
ATOM     17  O   UNL A   1      31.247  27.141  26.592  1.00  0.00    -0.201 OA
BRANCH  15  18
ATOM     18  C   UNL A   1      32.252  24.903  26.098  1.00  0.00     0.101 A 
ATOM     19  C   UNL A   1      33.703  21.678  27.457  1.00  0.00     0.056 C 
ATOM     20  C   UNL A   1      33.391  22.989  26.824  1.00  0.00     0.003 A 
ATOM     21  C   UNL A   1      32.197  23.670  26.826  1.00  0.00     0.037 A 
ATOM     22  S   UNL A   1      34.575  23.817  25.921  1.00  0.00    -0.145 S 
ATOM     23  C   UNL A   1      33.477  25.067  25.468  1.00  0.00     0.022 A 
ATOM     24  C   UNL A   1      33.970  26.088  24.494  1.00  0.00     0.058 C 
ENDBRANCH  15  18
ENDBRANCH  13  15
ENDBRANCH   7  13
ENDBRANCH   3   6
ENDBRANCH   1   2
BRANCH   1  25
ATOM     25  C   UNL A   1      31.450  31.964  26.536  1.00  0.00     0.042 C 
BRANCH  25  26
ATOM     26  C   UNL A   1      32.753  32.512  27.117  1.00  0.00     0.118 C 
BRANCH  26  27
ATOM     27  N   UNL A   1      32.591  33.870  27.607  1.00  0.00    -0.352 N 
ATOM     28  C   UNL A   1      33.227  34.542  28.621  1.00  0.00     0.251 C 
ATOM     29  H   UNL A   1      31.909  34.398  27.133  1.00  0.00     0.163 HD
ATOM     30  O   UNL A   1      32.719  35.582  29.038  1.00  0.00    -0.269 OA
BRANCH  28  31
ATOM     31  C   UNL A   1      34.505  34.074  29.219  1.00  0.00     0.039 A 
ATOM     32  C   UNL A   1      35.692  34.326  28.516  1.00  0.00     0.014 A 
ATOM     33  C   UNL A   1      34.554  33.267  30.358  1.00  0.00     0.014 A 
ATOM     34  C   UNL A   1      36.904  33.767  28.940  1.00  0.00     0.010 A 
ATOM     35  C   UNL A   1      35.775  32.776  30.827  1.00  0.00     0.010 A 
ATOM     36  C   UNL A   1      36.957  32.978  30.097  1.00  0.00    -0.014 A 
BRANCH  36  37
ATOM     37  C   UNL A   1      38.197  32.255  30.490  1.00  0.00     0.031 A 
ATOM     38  C   UNL A   1      39.094  32.838  31.556  1.00  0.00     0.074 A 
ATOM     39  C   UNL A   1      38.550  31.102  29.892  1.00  0.00     0.049 A 
ATOM     40  N   UNL A   1      40.280  32.446  31.951  1.00  0.00    -0.248 NA
ATOM     41  C   UNL A   1      38.603  34.045  32.244  1.00  0.00     0.031 C 
ATOM     42  C   UNL A   1      37.797  30.419  28.841  1.00  0.00     0.029 A 
ATOM     43  N   UNL A   1      39.649  30.301  30.089  1.00  0.00    -0.354 N 
ATOM     44  C   UNL A   1      40.705  33.397  32.870  1.00  0.00     0.074 A 
ATOM     45  C   UNL A   1      39.654  34.384  32.976  1.00  0.00     0.031 C 
ATOM     46  C   UNL A   1      38.439  29.287  28.506  1.00  0.00     0.029 A 
ATOM     47  C   UNL A   1      39.665  29.182  29.293  1.00  0.00     0.049 A 
ATOM     48  H   UNL A   1      40.359  30.510  30.739  1.00  0.00     0.167 HD
ATOM     49  C   UNL A   1      41.864  33.449  33.569  1.00  0.00     0.031 A 
ATOM     50  C   UNL A   1      40.564  28.184  29.207  1.00  0.00     0.031 A 
ATOM     51  C   UNL A   1      42.877  32.431  33.542  1.00  0.00     0.049 A 
ATOM     52  C   UNL A   1      41.792  28.205  30.071  1.00  0.00     0.074 A 
ATOM     53  C   UNL A   1      44.058  32.367  34.264  1.00  0.00     0.029 A 
ATOM     54  N   UNL A   1      42.814  31.281  32.774  1.00  0.00    -0.354 N 
ATOM     55  N   UNL A   1      42.180  29.115  30.932  1.00  0.00    -0.248 NA
ATOM     56  C   UNL A   1      42.703  27.055  29.957  1.00  0.00     0.031 C 
ATOM     57  C   UNL A   1      44.711  31.176  33.928  1.00  0.00     0.029 A 
ATOM     58  C   UNL A   1      43.926  30.493  33.013  1.00  0.00     0.049 A 
ATOM     59  H   UNL A   1      42.085  31.057  32.150  1.00  0.00     0.167 HD
ATOM     60  C   UNL A   1      43.366  28.638  31.475  1.00  0.00     0.074 A 
ATOM     61  C   UNL A   1      43.631  27.357  30.855  1.00  0.00     0.031 C 
ATOM     62  C   UNL A   1      44.165  29.214  32.404  1.00  0.00     0.031 A 
BRANCH  49  63
ATOM     63  C   UNL A   1      42.100  34.665  34.417  1.00  0.00    -0.014 A 
ATOM     64  C   UNL A   1      42.700  35.818  33.891  1.00  0.00     0.009 A 
ATOM     65  C   UNL A   1      41.704  34.653  35.764  1.00  0.00     0.009 A 
ATOM     66  C   UNL A   1      42.933  36.926  34.708  1.00  0.00     0.001 A 
ATOM     67  C   UNL A   1      41.920  35.770  36.573  1.00  0.00     0.001 A 
ATOM     68  C   UNL A   1      42.542  36.901  36.047  1.00  0.00     0.000 A 
ENDBRANCH  49  63
BRANCH  50  69
ATOM     69  C   UNL A   1      40.320  27.049  28.284  1.00  0.00    -0.014 A 
ATOM     70  C   UNL A   1      40.844  27.078  26.983  1.00  0.00     0.009 A 
ATOM     71  C   UNL A   1      39.564  25.942  28.694  1.00  0.00     0.009 A 
ATOM     72  C   UNL A   1      40.601  26.023  26.101  1.00  0.00     0.001 A 
ATOM     73  C   UNL A   1      39.338  24.881  27.814  1.00  0.00     0.001 A 
ATOM     74  C   UNL A   1      39.851  24.925  26.518  1.00  0.00     0.000 A 
ENDBRANCH  50  69
BRANCH  62  75
ATOM     75  C   UNL A   1      45.374  28.443  32.839  1.00  0.00    -0.014 A 
ATOM     76  C   UNL A   1      46.628  28.678  32.257  1.00  0.00     0.009 A 
ATOM     77  C   UNL A   1      45.261  27.497  33.869  1.00  0.00     0.009 A 
ATOM     78  C   UNL A   1      47.746  27.960  32.684  1.00  0.00     0.001 A 
ATOM     79  C   UNL A   1      46.384  26.791  34.303  1.00  0.00     0.001 A 
ATOM     80  C   UNL A   1      47.624  27.019  33.706  1.00  0.00     0.000 A 
ENDBRANCH  62  75
ENDBRANCH  36  37
ENDBRANCH  28  31
ENDBRANCH  26  27
ENDBRANCH  25  26
ENDBRANCH   1  25
TORSDOF 13
ENDMDL
MODEL 3
REMARK VINA RESULT:     -11.5      2.503      7.321
REMARK SMILES Cc1cc(S(=O)(=O)Nc2ccc(F)cc2C(=O)NCCCNC(=O)c2ccc(-c3c4nc(c(-c5ccccc5)c5ccc([nH]5)c(-c5ccccc5)c5nc(c(-c6ccccc6)c6ccc3[nH]6)C=C5)C=C4)cc2)c(C)s1
REMARK SMILES IDX 19 1 18 2 16 3 17 4 15 6 9 7 10 8 11 9 14 10 12 11 13 12
REMARK SMILES IDX 8 13 5 15 6 16 7 17 4 18 1 19 2 20 3 21 75 22 73 23 74 24
REMARK SMILES IDX 20 25 21 26 22 27 23 28 24 30 25 31 26 32 72 33 27 34 71 35
REMARK SMILES IDX 28 36 29 37 30 38 65 39 31 40 70 41 64 42 66 43 32 44 69 45
REMARK SMILES IDX 63 46 62 47 33 49 55 50 40 51 54 52 41 53 44 54 53 55 67 56
REMARK SMILES IDX 42 57 43 58 52 60 68 61 45 62 34 63 35 64 39 65 36 66 38 67
REMARK SMILES IDX 37 68 56 69 57 70 61 71 58 72 60 73 59 74 46 75 47 76 51 77
REMARK SMILES IDX 48 78 50 79 49 80
REMARK H PARENT 18 5 8 14 22 29 66 48 44 59
REMARK Flexibility Score: inf
ROOT
ATOM      1  C   UNL A   1      33.153  27.547  26.530  1.00  0.00     0.118 C 
ENDROOT
BRANCH   1   2
ATOM      2  N   UNL A   1      32.149  26.530  26.786  1.00  0.00    -0.352 N 
ATOM      3  C   UNL A   1      31.958  25.217  26.462  1.00  0.00     0.253 C 
ATOM      4  O   UNL A   1      30.800  24.821  26.650  1.00  0.00    -0.269 OA
ATOM      5  H   UNL A   1      31.412  26.879  27.337  1.00  0.00     0.163 HD
BRANCH   3   6
ATOM      6  C   UNL A   1      32.981  24.196  26.067  1.00  0.00     0.066 A 
ATOM      7  C   UNL A   1      34.007  24.233  25.104  1.00  0.00     0.062 A 
ATOM      8  C   UNL A   1      34.918  23.156  25.000  1.00  0.00     0.030 A 
ATOM      9  C   UNL A   1      34.788  22.013  25.786  1.00  0.00     0.041 A 
ATOM     10  C   UNL A   1      32.870  23.010  26.839  1.00  0.00     0.055 A 
ATOM     11  C   UNL A   1      33.748  21.944  26.689  1.00  0.00     0.124 A 
ATOM     12  F   UNL A   1      33.583  20.840  27.427  1.00  0.00    -0.207 F 
BRANCH   7  13
ATOM     13  N   UNL A   1      34.165  25.227  24.095  1.00  0.00    -0.279 N 
ATOM     14  H   UNL A   1      34.893  25.887  24.159  1.00  0.00     0.180 HD
BRANCH  13  15
ATOM     15  S   UNL A   1      33.093  25.267  22.786  1.00  0.00     0.263 S 
ATOM     16  O   UNL A   1      32.268  24.093  22.959  1.00  0.00    -0.201 OA
ATOM     17  O   UNL A   1      33.822  25.530  21.568  1.00  0.00    -0.201 OA
BRANCH  15  18
ATOM     18  C   UNL A   1      32.012  26.625  22.906  1.00  0.00     0.101 A 
ATOM     19  C   UNL A   1      28.432  27.781  23.346  1.00  0.00     0.056 C 
ATOM     20  C   UNL A   1      29.899  27.601  23.162  1.00  0.00     0.003 A 
ATOM     21  C   UNL A   1      30.602  26.424  23.062  1.00  0.00     0.037 A 
ATOM     22  S   UNL A   1      30.936  28.950  23.096  1.00  0.00    -0.145 S 
ATOM     23  C   UNL A   1      32.348  27.968  23.001  1.00  0.00     0.022 A 
ATOM     24  C   UNL A   1      33.670  28.665  23.050  1.00  0.00     0.058 C 
ENDBRANCH  15  18
ENDBRANCH  13  15
ENDBRANCH   7  13
ENDBRANCH   3   6
ENDBRANCH   1   2
BRANCH   1  25
ATOM     25  C   UNL A   1      32.749  28.854  27.220  1.00  0.00     0.042 C 
BRANCH  25  26
ATOM     26  C   UNL A   1      33.499  30.071  26.683  1.00  0.00     0.118 C 
BRANCH  26  27
ATOM     27  N   UNL A   1      33.681  31.084  27.708  1.00  0.00    -0.352 N 
ATOM     28  C   UNL A   1      34.628  31.204  28.695  1.00  0.00     0.251 C 
ATOM     29  H   UNL A   1      33.012  31.806  27.694  1.00  0.00     0.163 HD
ATOM     30  O   UNL A   1      34.407  31.985  29.620  1.00  0.00    -0.269 OA
BRANCH  28  31
ATOM     31  C   UNL A   1      35.906  30.447  28.681  1.00  0.00     0.039 A 
ATOM     32  C   UNL A   1      36.273  29.754  29.844  1.00  0.00     0.014 A 
ATOM     33  C   UNL A   1      36.820  30.528  27.628  1.00  0.00     0.014 A 
ATOM     34  C   UNL A   1      37.538  29.163  29.953  1.00  0.00     0.010 A 
ATOM     35  C   UNL A   1      38.050  29.870  27.704  1.00  0.00     0.010 A 
ATOM     36  C   UNL A   1      38.444  29.223  28.885  1.00  0.00    -0.014 A 
BRANCH  36  37
ATOM     37  C   UNL A   1      39.844  28.733  29.024  1.00  0.00     0.031 A 
ATOM     38  C   UNL A   1      40.899  29.648  29.597  1.00  0.00     0.074 A 
ATOM     39  C   UNL A   1      40.192  27.497  28.621  1.00  0.00     0.049 A 
ATOM     40  N   UNL A   1      42.195  29.474  29.679  1.00  0.00    -0.248 NA
ATOM     41  C   UNL A   1      40.437  30.948  30.113  1.00  0.00     0.031 C 
ATOM     42  C   UNL A   1      39.292  26.502  28.039  1.00  0.00     0.029 A 
ATOM     43  N   UNL A   1      41.415  26.870  28.640  1.00  0.00    -0.354 N 
ATOM     44  C   UNL A   1      42.706  30.664  30.181  1.00  0.00     0.074 A 
ATOM     45  C   UNL A   1      41.584  31.554  30.386  1.00  0.00     0.031 C 
ATOM     46  C   UNL A   1      39.986  25.379  27.784  1.00  0.00     0.029 A 
ATOM     47  C   UNL A   1      41.384  25.588  28.152  1.00  0.00     0.049 A 
ATOM     48  H   UNL A   1      42.236  27.301  28.971  1.00  0.00     0.167 HD
ATOM     49  C   UNL A   1      43.990  30.994  30.454  1.00  0.00     0.031 A 
ATOM     50  C   UNL A   1      42.369  24.680  28.016  1.00  0.00     0.031 A 
ATOM     51  C   UNL A   1      45.103  30.093  30.341  1.00  0.00     0.049 A 
ATOM     52  C   UNL A   1      43.771  25.030  28.426  1.00  0.00     0.074 A 
ATOM     53  C   UNL A   1      46.434  30.319  30.653  1.00  0.00     0.029 A 
ATOM     54  N   UNL A   1      45.010  28.781  29.911  1.00  0.00    -0.354 N 
ATOM     55  N   UNL A   1      44.236  26.162  28.895  1.00  0.00    -0.248 NA
ATOM     56  C   UNL A   1      44.783  23.969  28.294  1.00  0.00     0.031 C 
ATOM     57  C   UNL A   1      47.147  29.140  30.407  1.00  0.00     0.029 A 
ATOM     58  C   UNL A   1      46.254  28.178  29.961  1.00  0.00     0.049 A 
ATOM     59  H   UNL A   1      44.180  28.341  29.612  1.00  0.00     0.167 HD
ATOM     60  C   UNL A   1      45.586  25.944  29.133  1.00  0.00     0.074 A 
ATOM     61  C   UNL A   1      45.866  24.572  28.766  1.00  0.00     0.031 C 
ATOM     62  C   UNL A   1      46.513  26.808  29.612  1.00  0.00     0.031 A 
BRANCH  49  63
ATOM     63  C   UNL A   1      44.259  32.405  30.889  1.00  0.00    -0.014 A 
ATOM     64  C   UNL A   1      44.263  32.764  32.245  1.00  0.00     0.009 A 
ATOM     65  C   UNL A   1      44.521  33.387  29.920  1.00  0.00     0.009 A 
ATOM     66  C   UNL A   1      44.488  34.090  32.621  1.00  0.00     0.001 A 
ATOM     67  C   UNL A   1      44.766  34.707  30.301  1.00  0.00     0.001 A 
ATOM     68  C   UNL A   1      44.741  35.059  31.650  1.00  0.00     0.000 A 
ENDBRANCH  49  63
BRANCH  50  69
ATOM     69  C   UNL A   1      42.058  23.327  27.495  1.00  0.00    -0.014 A 
ATOM     70  C   UNL A   1      41.509  22.357  28.347  1.00  0.00     0.009 A 
ATOM     71  C   UNL A   1      42.309  23.000  26.155  1.00  0.00     0.009 A 
ATOM     72  C   UNL A   1      41.232  21.074  27.869  1.00  0.00     0.001 A 
ATOM     73  C   UNL A   1      42.015  21.720  25.677  1.00  0.00     0.001 A 
ATOM     74  C   UNL A   1      41.483  20.759  26.534  1.00  0.00     0.000 A 
ENDBRANCH  50  69
BRANCH  62  75
ATOM     75  C   UNL A   1      47.901  26.282  29.809  1.00  0.00    -0.014 A 
ATOM     76  C   UNL A   1      48.332  25.833  31.066  1.00  0.00     0.009 A 
ATOM     77  C   UNL A   1      48.775  26.201  28.714  1.00  0.00     0.009 A 
ATOM     78  C   UNL A   1      49.626  25.334  31.228  1.00  0.00     0.001 A 
ATOM     79  C   UNL A   1      50.062  25.688  28.877  1.00  0.00     0.001 A 
ATOM     80  C   UNL A   1      50.488  25.260  30.134  1.00  0.00     0.000 A 
ENDBRANCH  62  75
ENDBRANCH  36  37
ENDBRANCH  28  31
ENDBRANCH  26  27
ENDBRANCH  25  26
ENDBRANCH   1  25
TORSDOF 13
ENDMDL
