MODEL 1
REMARK VINA RESULT:     -12.9      0.000      0.000
REMARK SMILES O=C(NCCCNC(=O)[C@@H]1CC=CC[C@H]1C(=O)Nc1ccc(S(=O)(=O)N2CCc3ccccc32)cc1)c1ccc(-c2c3nc(c(-c4ccccc4)c4ccc([nH]4)c(-c4ccccc4)c4nc(c(-c5ccccc5)c5ccc2[nH]5)C=C4)C=C3)cc1
REMARK SMILES IDX 6 1 5 2 4 3 3 4 1 5 2 6 37 8 38 9 84 10 39 11 83 12 40 13
REMARK SMILES IDX 41 14 42 15 77 16 43 17 82 18 76 19 78 20 44 21 81 22 75 23
REMARK SMILES IDX 74 24 45 26 67 27 52 28 66 29 53 30 56 31 65 32 79 33 54 34
REMARK SMILES IDX 55 35 64 37 80 38 57 39 46 40 47 41 51 42 48 43 50 44 49 45
REMARK SMILES IDX 68 46 69 47 73 48 70 49 72 50 71 51 58 52 59 53 63 54 60 55
REMARK SMILES IDX 62 56 61 57 7 58 8 59 9 61 10 62 11 63 15 64 12 65 14 66
REMARK SMILES IDX 13 67 16 68 17 69 18 70 19 72 20 73 36 74 21 75 35 76 22 77
REMARK SMILES IDX 23 78 24 79 25 80 26 81 27 82 34 83 28 84 29 85 33 86 30 87
REMARK SMILES IDX 32 88 31 89
REMARK H PARENT 3 7 78 25 56 36 7 60 18 71
REMARK Flexibility Score: inf
ROOT
ATOM      1  C   UNL A   1      31.879  30.186  25.772  1.00  0.00     0.117 C 
ENDROOT
BRANCH   1   2
ATOM      2  C   UNL A   1      31.739  31.176  26.911  1.00  0.00     0.042 C 
BRANCH   2   3
ATOM      3  C   UNL A   1      32.926  32.117  26.996  1.00  0.00     0.118 C 
BRANCH   3   4
ATOM      4  N   UNL A   1      32.547  33.452  27.436  1.00  0.00    -0.352 N 
ATOM      5  O   UNL A   1      32.642  35.275  28.774  1.00  0.00    -0.269 OA
ATOM      6  C   UNL A   1      33.166  34.240  28.381  1.00  0.00     0.251 C 
ATOM      7  H   UNL A   1      31.753  33.839  27.004  1.00  0.00     0.163 HD
BRANCH   6   8
ATOM      8  C   UNL A   1      34.457  33.789  28.946  1.00  0.00     0.039 A 
ATOM      9  C   UNL A   1      35.654  34.171  28.340  1.00  0.00     0.014 A 
ATOM     10  C   UNL A   1      34.463  32.920  30.039  1.00  0.00     0.014 A 
ATOM     11  C   UNL A   1      36.837  33.544  28.706  1.00  0.00     0.010 A 
ATOM     12  C   UNL A   1      35.673  32.377  30.480  1.00  0.00     0.010 A 
ATOM     13  C   UNL A   1      36.864  32.652  29.791  1.00  0.00    -0.014 A 
BRANCH  13  14
ATOM     14  C   UNL A   1      38.166  32.074  30.213  1.00  0.00     0.031 A 
ATOM     15  C   UNL A   1      39.009  32.722  31.275  1.00  0.00     0.074 A 
ATOM     16  C   UNL A   1      38.560  30.915  29.651  1.00  0.00     0.049 A 
ATOM     17  N   UNL A   1      40.153  32.322  31.772  1.00  0.00    -0.248 NA
ATOM     18  C   UNL A   1      38.517  33.984  31.849  1.00  0.00     0.031 C 
ATOM     19  C   UNL A   1      37.825  30.189  28.612  1.00  0.00     0.029 A 
ATOM     20  N   UNL A   1      39.654  30.127  29.893  1.00  0.00    -0.354 N 
ATOM     21  C   UNL A   1      40.531  33.292  32.693  1.00  0.00     0.074 A 
ATOM     22  C   UNL A   1      39.503  34.311  32.674  1.00  0.00     0.031 C 
ATOM     23  C   UNL A   1      38.449  29.030  28.359  1.00  0.00     0.029 A 
ATOM     24  C   UNL A   1      39.665  28.967  29.159  1.00  0.00     0.049 A 
ATOM     25  H   UNL A   1      40.364  30.370  30.532  1.00  0.00     0.167 HD
ATOM     26  C   UNL A   1      41.634  33.328  33.480  1.00  0.00     0.031 A 
ATOM     27  C   UNL A   1      40.559  27.964  29.120  1.00  0.00     0.031 A 
ATOM     28  C   UNL A   1      42.650  32.307  33.504  1.00  0.00     0.049 A 
ATOM     29  C   UNL A   1      41.779  28.043  29.984  1.00  0.00     0.074 A 
ATOM     30  C   UNL A   1      43.788  32.241  34.290  1.00  0.00     0.029 A 
ATOM     31  N   UNL A   1      42.649  31.172  32.707  1.00  0.00    -0.354 N 
ATOM     32  N   UNL A   1      42.112  28.962  30.858  1.00  0.00    -0.248 NA
ATOM     33  C   UNL A   1      42.750  26.951  29.852  1.00  0.00     0.031 C 
ATOM     34  C   UNL A   1      44.501  31.089  33.934  1.00  0.00     0.029 A 
ATOM     35  C   UNL A   1      43.779  30.413  32.964  1.00  0.00     0.049 A 
ATOM     36  H   UNL A   1      41.949  30.942  32.055  1.00  0.00     0.167 HD
ATOM     37  C   UNL A   1      43.326  28.553  31.389  1.00  0.00     0.074 A 
ATOM     38  C   UNL A   1      43.657  27.292  30.756  1.00  0.00     0.031 C 
ATOM     39  C   UNL A   1      44.099  29.168  32.316  1.00  0.00     0.031 A 
BRANCH  26  40
ATOM     40  C   UNL A   1      41.819  34.532  34.363  1.00  0.00    -0.014 A 
ATOM     41  C   UNL A   1      42.456  35.693  33.895  1.00  0.00     0.009 A 
ATOM     42  C   UNL A   1      41.308  34.520  35.670  1.00  0.00     0.009 A 
ATOM     43  C   UNL A   1      42.604  36.803  34.732  1.00  0.00     0.001 A 
ATOM     44  C   UNL A   1      41.435  35.639  36.494  1.00  0.00     0.001 A 
ATOM     45  C   UNL A   1      42.091  36.776  36.027  1.00  0.00     0.000 A 
ENDBRANCH  26  40
BRANCH  27  46
ATOM     46  C   UNL A   1      40.328  26.807  28.219  1.00  0.00    -0.014 A 
ATOM     47  C   UNL A   1      39.584  25.702  28.656  1.00  0.00     0.009 A 
ATOM     48  C   UNL A   1      40.829  26.816  26.907  1.00  0.00     0.009 A 
ATOM     49  C   UNL A   1      39.360  24.620  27.803  1.00  0.00     0.001 A 
ATOM     50  C   UNL A   1      40.578  25.747  26.046  1.00  0.00     0.001 A 
ATOM     51  C   UNL A   1      39.850  24.647  26.497  1.00  0.00     0.000 A 
ENDBRANCH  27  46
BRANCH  39  52
ATOM     52  C   UNL A   1      45.365  28.466  32.711  1.00  0.00    -0.014 A 
ATOM     53  C   UNL A   1      46.575  28.724  32.048  1.00  0.00     0.009 A 
ATOM     54  C   UNL A   1      45.348  27.541  33.766  1.00  0.00     0.009 A 
ATOM     55  C   UNL A   1      47.736  28.041  32.412  1.00  0.00     0.001 A 
ATOM     56  C   UNL A   1      46.516  26.878  34.144  1.00  0.00     0.001 A 
ATOM     57  C   UNL A   1      47.707  27.122  33.460  1.00  0.00     0.000 A 
ENDBRANCH  39  52
ENDBRANCH  13  14
ENDBRANCH   6   8
ENDBRANCH   3   4
ENDBRANCH   2   3
ENDBRANCH   1   2
BRANCH   1  58
ATOM     58  N   UNL A   1      30.800  30.344  24.806  1.00  0.00    -0.356 N 
ATOM     59  C   UNL A   1      30.610  29.684  23.627  1.00  0.00     0.224 C 
ATOM     60  H   UNL A   1      30.117  31.016  25.035  1.00  0.00     0.163 HD
ATOM     61  O   UNL A   1      29.737  30.070  22.855  1.00  0.00    -0.275 OA
BRANCH  59  62
ATOM     62  C   UNL A   1      31.501  28.496  23.333  1.00  0.00     0.095 C 
ATOM     63  C   UNL A   1      32.631  28.900  22.388  1.00  0.00     0.041 C 
ATOM     64  C   UNL A   1      30.682  27.311  22.804  1.00  0.00     0.095 C 
ATOM     65  C   UNL A   1      33.454  27.710  21.992  1.00  0.00    -0.030 C 
ATOM     66  C   UNL A   1      31.517  26.132  22.268  1.00  0.00     0.041 C 
ATOM     67  C   UNL A   1      32.950  26.468  21.949  1.00  0.00    -0.030 C 
BRANCH  64  68
ATOM     68  C   UNL A   1      29.599  26.890  23.799  1.00  0.00     0.228 C 
ATOM     69  O   UNL A   1      28.438  27.280  23.602  1.00  0.00    -0.274 OA
ATOM     70  N   UNL A   1      29.756  26.121  24.911  1.00  0.00    -0.326 N 
ATOM     71  H   UNL A   1      28.913  26.033  25.410  1.00  0.00     0.169 HD
BRANCH  70  72
ATOM     72  C   UNL A   1      30.800  25.415  25.538  1.00  0.00     0.041 A 
ATOM     73  C   UNL A   1      30.501  24.130  26.022  1.00  0.00     0.027 A 
ATOM     74  C   UNL A   1      32.108  25.858  25.658  1.00  0.00     0.027 A 
ATOM     75  C   UNL A   1      31.516  23.274  26.489  1.00  0.00     0.024 A 
ATOM     76  C   UNL A   1      33.120  25.033  26.137  1.00  0.00     0.024 A 
ATOM     77  C   UNL A   1      32.835  23.727  26.517  1.00  0.00     0.088 A 
BRANCH  77  78
ATOM     78  S   UNL A   1      34.215  22.611  26.726  1.00  0.00     0.264 S 
ATOM     79  O   UNL A   1      35.418  23.383  26.482  1.00  0.00    -0.201 OA
ATOM     80  O   UNL A   1      34.019  21.960  28.007  1.00  0.00    -0.201 OA
BRANCH  78  81
ATOM     81  N   UNL A   1      34.005  21.437  25.529  1.00  0.00    -0.266 N 
ATOM     82  C   UNL A   1      33.360  20.147  25.917  1.00  0.00     0.140 C 
ATOM     83  C   UNL A   1      33.514  21.809  24.249  1.00  0.00     0.055 A 
ATOM     84  C   UNL A   1      32.511  19.697  24.713  1.00  0.00     0.060 C 
ATOM     85  C   UNL A   1      32.638  20.844  23.765  1.00  0.00    -0.022 A 
ATOM     86  C   UNL A   1      33.915  22.872  23.462  1.00  0.00     0.027 A 
ATOM     87  C   UNL A   1      32.046  20.983  22.520  1.00  0.00     0.006 A 
ATOM     88  C   UNL A   1      33.340  23.017  22.200  1.00  0.00     0.002 A 
ATOM     89  C   UNL A   1      32.394  22.089  21.741  1.00  0.00     0.000 A 
ENDBRANCH  78  81
ENDBRANCH  77  78
ENDBRANCH  70  72
ENDBRANCH  64  68
ENDBRANCH  59  62
ENDBRANCH   1  58
TORSDOF 14
ENDMDL
MODEL 2
REMARK VINA RESULT:     -12.7      0.310      5.558
REMARK SMILES O=C(NCCCNC(=O)[C@@H]1CC=CC[C@H]1C(=O)Nc1ccc(S(=O)(=O)N2CCc3ccccc32)cc1)c1ccc(-c2c3nc(c(-c4ccccc4)c4ccc([nH]4)c(-c4ccccc4)c4nc(c(-c5ccccc5)c5ccc2[nH]5)C=C4)C=C3)cc1
REMARK SMILES IDX 6 1 5 2 4 3 3 4 1 5 2 6 37 8 38 9 84 10 39 11 83 12 40 13
REMARK SMILES IDX 41 14 42 15 77 16 43 17 82 18 76 19 78 20 44 21 81 22 75 23
REMARK SMILES IDX 74 24 45 26 67 27 52 28 66 29 53 30 56 31 65 32 79 33 54 34
REMARK SMILES IDX 55 35 64 37 80 38 57 39 46 40 47 41 51 42 48 43 50 44 49 45
REMARK SMILES IDX 68 46 69 47 73 48 70 49 72 50 71 51 58 52 59 53 63 54 60 55
REMARK SMILES IDX 62 56 61 57 7 58 8 59 9 61 10 62 11 63 15 64 12 65 14 66
REMARK SMILES IDX 13 67 16 68 17 69 18 70 19 72 20 73 36 74 21 75 35 76 22 77
REMARK SMILES IDX 23 78 24 79 25 80 26 81 27 82 34 83 28 84 29 85 33 86 30 87
REMARK SMILES IDX 32 88 31 89
REMARK H PARENT 3 7 78 25 56 36 7 60 18 71
REMARK Flexibility Score: inf
ROOT
ATOM      1  C   UNL A   1      31.819  30.368  25.684  1.00  0.00     0.117 C 
ENDROOT
BRANCH   1   2
ATOM      2  C   UNL A   1      31.597  31.296  26.861  1.00  0.00     0.042 C 
BRANCH   2   3
ATOM      3  C   UNL A   1      32.840  32.100  27.194  1.00  0.00     0.118 C 
BRANCH   3   4
ATOM      4  N   UNL A   1      32.535  33.483  27.531  1.00  0.00    -0.352 N 
ATOM      5  O   UNL A   1      32.755  35.405  28.706  1.00  0.00    -0.269 OA
ATOM      6  C   UNL A   1      33.219  34.317  28.387  1.00  0.00     0.251 C 
ATOM      7  H   UNL A   1      31.744  33.869  27.092  1.00  0.00     0.163 HD
BRANCH   6   8
ATOM      8  C   UNL A   1      34.508  33.856  28.948  1.00  0.00     0.039 A 
ATOM      9  C   UNL A   1      35.696  34.101  28.259  1.00  0.00     0.014 A 
ATOM     10  C   UNL A   1      34.516  33.110  30.129  1.00  0.00     0.014 A 
ATOM     11  C   UNL A   1      36.859  33.451  28.647  1.00  0.00     0.010 A 
ATOM     12  C   UNL A   1      35.714  32.548  30.580  1.00  0.00     0.010 A 
ATOM     13  C   UNL A   1      36.886  32.680  29.821  1.00  0.00    -0.014 A 
BRANCH  13  14
ATOM     14  C   UNL A   1      38.173  32.076  30.254  1.00  0.00     0.031 A 
ATOM     15  C   UNL A   1      38.673  30.784  29.671  1.00  0.00     0.074 A 
ATOM     16  C   UNL A   1      38.915  32.741  31.160  1.00  0.00     0.049 A 
ATOM     17  N   UNL A   1      39.789  30.147  29.925  1.00  0.00    -0.248 NA
ATOM     18  C   UNL A   1      37.813  30.112  28.684  1.00  0.00     0.031 C 
ATOM     19  C   UNL A   1      38.537  34.006  31.796  1.00  0.00     0.029 A 
ATOM     20  N   UNL A   1      40.153  32.468  31.679  1.00  0.00    -0.354 N 
ATOM     21  C   UNL A   1      39.754  28.991  29.155  1.00  0.00     0.074 A 
ATOM     22  C   UNL A   1      38.497  29.003  28.437  1.00  0.00     0.031 C 
ATOM     23  C   UNL A   1      39.550  34.435  32.561  1.00  0.00     0.029 A 
ATOM     24  C   UNL A   1      40.615  33.441  32.532  1.00  0.00     0.049 A 
ATOM     25  H   UNL A   1      40.663  31.653  31.461  1.00  0.00     0.167 HD
ATOM     26  C   UNL A   1      40.684  28.010  29.058  1.00  0.00     0.031 A 
ATOM     27  C   UNL A   1      41.763  33.523  33.226  1.00  0.00     0.031 A 
ATOM     28  C   UNL A   1      41.939  28.005  29.766  1.00  0.00     0.049 A 
ATOM     29  C   UNL A   1      42.761  32.413  33.116  1.00  0.00     0.074 A 
ATOM     30  C   UNL A   1      42.958  27.069  29.708  1.00  0.00     0.029 A 
ATOM     31  N   UNL A   1      42.345  28.984  30.659  1.00  0.00    -0.354 N 
ATOM     32  N   UNL A   1      42.715  31.334  32.372  1.00  0.00    -0.248 NA
ATOM     33  C   UNL A   1      43.966  32.528  33.946  1.00  0.00     0.031 C 
ATOM     34  C   UNL A   1      43.961  27.459  30.604  1.00  0.00     0.029 A 
ATOM     35  C   UNL A   1      43.589  28.663  31.179  1.00  0.00     0.049 A 
ATOM     36  H   UNL A   1      41.826  29.787  30.891  1.00  0.00     0.167 HD
ATOM     37  C   UNL A   1      43.891  30.647  32.636  1.00  0.00     0.074 A 
ATOM     38  C   UNL A   1      44.638  31.443  33.589  1.00  0.00     0.031 C 
ATOM     39  C   UNL A   1      44.312  29.461  32.135  1.00  0.00     0.031 A 
BRANCH  26  40
ATOM     40  C   UNL A   1      40.366  26.835  28.173  1.00  0.00    -0.014 A 
ATOM     41  C   UNL A   1      40.849  26.756  26.857  1.00  0.00     0.009 A 
ATOM     42  C   UNL A   1      39.606  25.769  28.681  1.00  0.00     0.009 A 
ATOM     43  C   UNL A   1      40.550  25.648  26.060  1.00  0.00     0.001 A 
ATOM     44  C   UNL A   1      39.330  24.652  27.890  1.00  0.00     0.001 A 
ATOM     45  C   UNL A   1      39.795  24.597  26.578  1.00  0.00     0.000 A 
ENDBRANCH  26  40
BRANCH  27  46
ATOM     46  C   UNL A   1      42.015  34.702  34.092  1.00  0.00    -0.014 A 
ATOM     47  C   UNL A   1      41.666  34.676  35.450  1.00  0.00     0.009 A 
ATOM     48  C   UNL A   1      42.633  35.850  33.569  1.00  0.00     0.009 A 
ATOM     49  C   UNL A   1      41.914  35.783  36.264  1.00  0.00     0.001 A 
ATOM     50  C   UNL A   1      42.907  36.943  34.392  1.00  0.00     0.001 A 
ATOM     51  C   UNL A   1      42.541  36.912  35.736  1.00  0.00     0.000 A 
ENDBRANCH  27  46
BRANCH  39  52
ATOM     52  C   UNL A   1      45.653  28.972  32.598  1.00  0.00    -0.014 A 
ATOM     53  C   UNL A   1      46.829  29.325  31.917  1.00  0.00     0.009 A 
ATOM     54  C   UNL A   1      45.741  28.155  33.736  1.00  0.00     0.009 A 
ATOM     55  C   UNL A   1      48.064  28.838  32.348  1.00  0.00     0.001 A 
ATOM     56  C   UNL A   1      46.980  27.691  34.178  1.00  0.00     0.001 A 
ATOM     57  C   UNL A   1      48.139  28.025  33.478  1.00  0.00     0.000 A 
ENDBRANCH  39  52
ENDBRANCH  13  14
ENDBRANCH   6   8
ENDBRANCH   3   4
ENDBRANCH   2   3
ENDBRANCH   1   2
BRANCH   1  58
ATOM     58  N   UNL A   1      30.685  30.403  24.770  1.00  0.00    -0.356 N 
ATOM     59  C   UNL A   1      30.470  29.651  23.652  1.00  0.00     0.224 C 
ATOM     60  H   UNL A   1      29.981  31.057  24.987  1.00  0.00     0.163 HD
ATOM     61  O   UNL A   1      29.539  29.937  22.904  1.00  0.00    -0.275 OA
BRANCH  59  62
ATOM     62  C   UNL A   1      31.404  28.489  23.395  1.00  0.00     0.095 C 
ATOM     63  C   UNL A   1      32.549  28.920  22.479  1.00  0.00     0.041 C 
ATOM     64  C   UNL A   1      30.638  27.275  22.852  1.00  0.00     0.095 C 
ATOM     65  C   UNL A   1      33.418  27.753  22.116  1.00  0.00    -0.030 C 
ATOM     66  C   UNL A   1      31.524  26.119  22.351  1.00  0.00     0.041 C 
ATOM     67  C   UNL A   1      32.955  26.496  22.070  1.00  0.00    -0.030 C 
BRANCH  64  68
ATOM     68  C   UNL A   1      29.540  26.829  23.819  1.00  0.00     0.228 C 
ATOM     69  O   UNL A   1      28.381  27.215  23.608  1.00  0.00    -0.274 OA
ATOM     70  N   UNL A   1      29.682  26.040  24.920  1.00  0.00    -0.326 N 
ATOM     71  H   UNL A   1      28.830  25.937  25.402  1.00  0.00     0.169 HD
BRANCH  70  72
ATOM     72  C   UNL A   1      30.719  25.330  25.553  1.00  0.00     0.041 A 
ATOM     73  C   UNL A   1      30.431  24.021  25.976  1.00  0.00     0.027 A 
ATOM     74  C   UNL A   1      32.014  25.792  25.733  1.00  0.00     0.027 A 
ATOM     75  C   UNL A   1      31.447  23.166  26.442  1.00  0.00     0.024 A 
ATOM     76  C   UNL A   1      33.027  24.968  26.212  1.00  0.00     0.024 A 
ATOM     77  C   UNL A   1      32.755  23.642  26.531  1.00  0.00     0.088 A 
BRANCH  77  78
ATOM     78  S   UNL A   1      34.150  22.545  26.741  1.00  0.00     0.264 S 
ATOM     79  O   UNL A   1      35.344  23.336  26.511  1.00  0.00    -0.201 OA
ATOM     80  O   UNL A   1      33.955  21.883  28.017  1.00  0.00    -0.201 OA
BRANCH  78  81
ATOM     81  N   UNL A   1      33.965  21.377  25.535  1.00  0.00    -0.266 N 
ATOM     82  C   UNL A   1      33.332  20.077  25.909  1.00  0.00     0.140 C 
ATOM     83  C   UNL A   1      33.481  21.752  24.253  1.00  0.00     0.055 A 
ATOM     84  C   UNL A   1      32.499  19.625  24.694  1.00  0.00     0.060 C 
ATOM     85  C   UNL A   1      32.621  20.779  23.755  1.00  0.00    -0.022 A 
ATOM     86  C   UNL A   1      33.877  22.824  23.476  1.00  0.00     0.027 A 
ATOM     87  C   UNL A   1      32.039  20.919  22.505  1.00  0.00     0.006 A 
ATOM     88  C   UNL A   1      33.311  22.970  22.210  1.00  0.00     0.002 A 
ATOM     89  C   UNL A   1      32.381  22.035  21.737  1.00  0.00     0.000 A 
ENDBRANCH  78  81
ENDBRANCH  77  78
ENDBRANCH  70  72
ENDBRANCH  64  68
ENDBRANCH  59  62
ENDBRANCH   1  58
TORSDOF 14
ENDMDL
MODEL 3
REMARK VINA RESULT:     -12.4      3.437      9.113
REMARK SMILES O=C(NCCCNC(=O)[C@@H]1CC=CC[C@H]1C(=O)Nc1ccc(S(=O)(=O)N2CCc3ccccc32)cc1)c1ccc(-c2c3nc(c(-c4ccccc4)c4ccc([nH]4)c(-c4ccccc4)c4nc(c(-c5ccccc5)c5ccc2[nH]5)C=C4)C=C3)cc1
REMARK SMILES IDX 6 1 5 2 4 3 3 4 1 5 2 6 37 8 38 9 84 10 39 11 83 12 40 13
REMARK SMILES IDX 41 14 42 15 77 16 43 17 82 18 76 19 78 20 44 21 81 22 75 23
REMARK SMILES IDX 74 24 45 26 67 27 52 28 66 29 53 30 56 31 65 32 79 33 54 34
REMARK SMILES IDX 55 35 64 37 80 38 57 39 46 40 47 41 51 42 48 43 50 44 49 45
REMARK SMILES IDX 68 46 69 47 73 48 70 49 72 50 71 51 58 52 59 53 63 54 60 55
REMARK SMILES IDX 62 56 61 57 7 58 8 59 9 61 10 62 11 63 15 64 12 65 14 66
REMARK SMILES IDX 13 67 16 68 17 69 18 70 19 72 20 73 36 74 21 75 35 76 22 77
REMARK SMILES IDX 23 78 24 79 25 80 26 81 27 82 34 83 28 84 29 85 33 86 30 87
REMARK SMILES IDX 32 88 31 89
REMARK H PARENT 3 7 78 25 56 36 7 60 18 71
REMARK Flexibility Score: inf
ROOT
ATOM      1  C   UNL A   1      36.580  20.994  25.124  1.00  0.00     0.117 C 
ENDROOT
BRANCH   1   2
ATOM      2  C   UNL A   1      37.696  19.990  24.923  1.00  0.00     0.042 C 
BRANCH   2   3
ATOM      3  C   UNL A   1      38.944  20.363  25.701  1.00  0.00     0.118 C 
BRANCH   3   4
ATOM      4  N   UNL A   1      39.904  19.271  25.771  1.00  0.00    -0.352 N 
ATOM      5  O   UNL A   1      41.972  18.362  25.909  1.00  0.00    -0.269 OA
ATOM      6  C   UNL A   1      41.250  19.342  26.049  1.00  0.00     0.251 C 
ATOM      7  H   UNL A   1      39.545  18.370  25.601  1.00  0.00     0.163 HD
BRANCH   6   8
ATOM      8  C   UNL A   1      41.818  20.640  26.477  1.00  0.00     0.039 A 
ATOM      9  C   UNL A   1      41.993  20.910  27.835  1.00  0.00     0.014 A 
ATOM     10  C   UNL A   1      42.105  21.615  25.519  1.00  0.00     0.014 A 
ATOM     11  C   UNL A   1      42.276  22.205  28.244  1.00  0.00     0.010 A 
ATOM     12  C   UNL A   1      42.500  22.890  25.933  1.00  0.00     0.010 A 
ATOM     13  C   UNL A   1      42.549  23.207  27.299  1.00  0.00    -0.014 A 
BRANCH  13  14
ATOM     14  C   UNL A   1      42.939  24.559  27.777  1.00  0.00     0.031 A 
ATOM     15  C   UNL A   1      44.379  24.987  27.838  1.00  0.00     0.074 A 
ATOM     16  C   UNL A   1      41.962  25.421  28.116  1.00  0.00     0.049 A 
ATOM     17  N   UNL A   1      44.875  26.143  28.203  1.00  0.00    -0.248 NA
ATOM     18  C   UNL A   1      45.394  23.996  27.450  1.00  0.00     0.031 C 
ATOM     19  C   UNL A   1      40.527  25.121  28.096  1.00  0.00     0.029 A 
ATOM     20  N   UNL A   1      42.020  26.732  28.512  1.00  0.00    -0.354 N 
ATOM     21  C   UNL A   1      46.256  26.011  28.117  1.00  0.00     0.074 A 
ATOM     22  C   UNL A   1      46.521  24.656  27.681  1.00  0.00     0.031 C 
ATOM     23  C   UNL A   1      39.841  26.233  28.391  1.00  0.00     0.029 A 
ATOM     24  C   UNL A   1      40.784  27.301  28.696  1.00  0.00     0.049 A 
ATOM     25  H   UNL A   1      42.866  27.218  28.651  1.00  0.00     0.167 HD
ATOM     26  C   UNL A   1      47.213  26.935  28.378  1.00  0.00     0.031 A 
ATOM     27  C   UNL A   1      40.441  28.543  29.081  1.00  0.00     0.031 A 
ATOM     28  C   UNL A   1      46.946  28.286  28.801  1.00  0.00     0.049 A 
ATOM     29  C   UNL A   1      41.521  29.534  29.384  1.00  0.00     0.074 A 
ATOM     30  C   UNL A   1      47.849  29.303  29.061  1.00  0.00     0.029 A 
ATOM     31  N   UNL A   1      45.681  28.808  29.025  1.00  0.00    -0.354 N 
ATOM     32  N   UNL A   1      42.821  29.394  29.284  1.00  0.00    -0.248 NA
ATOM     33  C   UNL A   1      41.087  30.853  29.861  1.00  0.00     0.031 C 
ATOM     34  C   UNL A   1      47.132  30.427  29.488  1.00  0.00     0.029 A 
ATOM     35  C   UNL A   1      45.781  30.125  29.444  1.00  0.00     0.049 A 
ATOM     36  H   UNL A   1      44.838  28.315  28.906  1.00  0.00     0.167 HD
ATOM     37  C   UNL A   1      43.360  30.611  29.674  1.00  0.00     0.074 A 
ATOM     38  C   UNL A   1      42.246  31.483  29.988  1.00  0.00     0.031 C 
ATOM     39  C   UNL A   1      44.663  30.973  29.765  1.00  0.00     0.031 A 
BRANCH  26  40
ATOM     40  C   UNL A   1      48.649  26.505  28.244  1.00  0.00    -0.014 A 
ATOM     41  C   UNL A   1      49.357  25.967  29.331  1.00  0.00     0.009 A 
ATOM     42  C   UNL A   1      49.289  26.601  26.999  1.00  0.00     0.009 A 
ATOM     43  C   UNL A   1      50.686  25.563  29.177  1.00  0.00     0.001 A 
ATOM     44  C   UNL A   1      50.609  26.174  26.843  1.00  0.00     0.001 A 
ATOM     45  C   UNL A   1      51.309  25.664  27.934  1.00  0.00     0.000 A 
ENDBRANCH  26  40
BRANCH  27  46
ATOM     46  C   UNL A   1      39.007  28.904  29.207  1.00  0.00    -0.014 A 
ATOM     47  C   UNL A   1      38.344  28.769  30.434  1.00  0.00     0.009 A 
ATOM     48  C   UNL A   1      38.302  29.413  28.103  1.00  0.00     0.009 A 
ATOM     49  C   UNL A   1      36.997  29.120  30.551  1.00  0.00     0.001 A 
ATOM     50  C   UNL A   1      36.965  29.791  28.231  1.00  0.00     0.001 A 
ATOM     51  C   UNL A   1      36.312  29.637  29.452  1.00  0.00     0.000 A 
ENDBRANCH  27  46
BRANCH  39  52
ATOM     52  C   UNL A   1      44.942  32.381  30.203  1.00  0.00    -0.014 A 
ATOM     53  C   UNL A   1      45.129  32.695  31.558  1.00  0.00     0.009 A 
ATOM     54  C   UNL A   1      45.027  33.404  29.246  1.00  0.00     0.009 A 
ATOM     55  C   UNL A   1      45.360  34.016  31.949  1.00  0.00     0.001 A 
ATOM     56  C   UNL A   1      45.283  34.718  29.638  1.00  0.00     0.001 A 
ATOM     57  C   UNL A   1      45.440  35.024  30.989  1.00  0.00     0.000 A 
ENDBRANCH  39  52
ENDBRANCH  13  14
ENDBRANCH   6   8
ENDBRANCH   3   4
ENDBRANCH   2   3
ENDBRANCH   1   2
BRANCH   1  58
ATOM     58  N   UNL A   1      36.480  21.901  23.988  1.00  0.00    -0.356 N 
ATOM     59  C   UNL A   1      35.469  22.760  23.670  1.00  0.00     0.224 C 
ATOM     60  H   UNL A   1      37.244  21.892  23.366  1.00  0.00     0.163 HD
ATOM     61  O   UNL A   1      35.477  23.322  22.579  1.00  0.00    -0.275 OA
BRANCH  59  62
ATOM     62  C   UNL A   1      34.379  22.974  24.698  1.00  0.00     0.095 C 
ATOM     63  C   UNL A   1      34.988  23.346  26.049  1.00  0.00     0.041 C 
ATOM     64  C   UNL A   1      33.452  21.754  24.782  1.00  0.00     0.095 C 
ATOM     65  C   UNL A   1      33.931  23.445  27.108  1.00  0.00    -0.030 C 
ATOM     66  C   UNL A   1      32.447  21.780  25.949  1.00  0.00     0.041 C 
ATOM     67  C   UNL A   1      32.787  22.748  27.053  1.00  0.00    -0.030 C 
BRANCH  64  68
ATOM     68  C   UNL A   1      32.810  21.445  23.429  1.00  0.00     0.228 C 
ATOM     69  O   UNL A   1      32.841  20.275  23.018  1.00  0.00    -0.274 OA
ATOM     70  N   UNL A   1      32.193  22.323  22.591  1.00  0.00    -0.326 N 
ATOM     71  H   UNL A   1      31.903  21.884  21.759  1.00  0.00     0.169 HD
BRANCH  70  72
ATOM     72  C   UNL A   1      31.856  23.689  22.593  1.00  0.00     0.041 A 
ATOM     73  C   UNL A   1      30.792  24.082  23.423  1.00  0.00     0.027 A 
ATOM     74  C   UNL A   1      32.529  24.682  21.898  1.00  0.00     0.027 A 
ATOM     75  C   UNL A   1      30.504  25.443  23.642  1.00  0.00     0.024 A 
ATOM     76  C   UNL A   1      32.244  26.031  22.087  1.00  0.00     0.024 A 
ATOM     77  C   UNL A   1      31.258  26.417  22.987  1.00  0.00     0.088 A 
BRANCH  77  78
ATOM     78  S   UNL A   1      31.224  28.133  23.483  1.00  0.00     0.264 S 
ATOM     79  O   UNL A   1      32.122  28.844  22.594  1.00  0.00    -0.201 OA
ATOM     80  O   UNL A   1      29.824  28.507  23.549  1.00  0.00    -0.201 OA
BRANCH  78  81
ATOM     81  N   UNL A   1      31.821  28.137  25.064  1.00  0.00    -0.266 N 
ATOM     82  C   UNL A   1      32.941  27.206  25.394  1.00  0.00     0.140 C 
ATOM     83  C   UNL A   1      32.062  29.371  25.727  1.00  0.00     0.055 A 
ATOM     84  C   UNL A   1      33.838  27.936  26.411  1.00  0.00     0.060 C 
ATOM     85  C   UNL A   1      33.222  29.293  26.489  1.00  0.00    -0.022 A 
ATOM     86  C   UNL A   1      31.235  30.477  25.789  1.00  0.00     0.027 A 
ATOM     87  C   UNL A   1      33.649  30.375  27.243  1.00  0.00     0.006 A 
ATOM     88  C   UNL A   1      31.644  31.567  26.556  1.00  0.00     0.002 A 
ATOM     89  C   UNL A   1      32.856  31.524  27.261  1.00  0.00     0.000 A 
ENDBRANCH  78  81
ENDBRANCH  77  78
ENDBRANCH  70  72
ENDBRANCH  64  68
ENDBRANCH  59  62
ENDBRANCH   1  58
TORSDOF 14
ENDMDL
