MODEL 1
REMARK VINA RESULT:     -13.1      0.000      0.000
REMARK SMILES CN1C(=O)C[C@@H](C(=O)NCCCNC(=O)c2ccc(-c3c4nc(c(-c5ccccc5)c5ccc([nH]5)c(-c5ccccc5)c5nc(c(-c6ccccc6)c6ccc3[nH]6)C=C5)C=C4)cc2)C12CCN(C(=O)c1ccccc1-n1cccn1)CC2
REMARK SMILES IDX 11 1 10 2 9 3 7 4 8 5 6 7 1 8 2 9 3 10 64 11 4 12 5 13 65 14
REMARK SMILES IDX 82 15 66 16 81 17 67 18 68 19 69 20 70 21 71 22 75 23 72 24
REMARK SMILES IDX 74 25 73 26 76 27 77 28 80 29 78 30 79 31 12 32 13 33 14 34
REMARK SMILES IDX 15 36 16 37 17 38 63 39 18 40 62 41 19 42 20 43 21 44 56 45
REMARK SMILES IDX 22 46 61 47 55 48 57 49 23 50 60 51 54 52 53 53 24 55 46 56
REMARK SMILES IDX 31 57 45 58 32 59 35 60 44 61 58 62 33 63 34 64 43 66 59 67
REMARK SMILES IDX 36 68 25 69 26 70 30 71 27 72 29 73 28 74 47 75 48 76 52 77
REMARK SMILES IDX 49 78 51 79 50 80 37 81 38 82 42 83 39 84 41 85 40 86
REMARK H PARENT 9 6 13 35 57 54 35 65
REMARK Flexibility Score: inf
ROOT
ATOM      1  C   UNL A   1      31.216  31.300  26.092  1.00  0.00     0.042 C 
ENDROOT
BRANCH   1   2
ATOM      2  C   UNL A   1      31.402  29.911  25.475  1.00  0.00     0.117 C 
BRANCH   2   3
ATOM      3  N   UNL A   1      32.618  29.757  24.684  1.00  0.00    -0.356 N 
ATOM      4  C   UNL A   1      32.910  29.198  23.483  1.00  0.00     0.226 C 
ATOM      5  O   UNL A   1      34.082  29.320  23.105  1.00  0.00    -0.275 OA
ATOM      6  H   UNL A   1      33.408  30.149  25.122  1.00  0.00     0.163 HD
BRANCH   4   7
ATOM      7  C   UNL A   1      31.945  28.392  22.609  1.00  0.00     0.113 C 
ATOM      8  C   UNL A   1      29.382  26.466  24.534  1.00  0.00     0.147 C 
ATOM      9  N   UNL A   1      30.160  27.336  23.673  1.00  0.00    -0.339 N 
ATOM     10  C   UNL A   1      29.608  28.479  23.103  1.00  0.00     0.223 C 
ATOM     11  C   UNL A   1      31.498  27.013  23.145  1.00  0.00     0.058 C 
ATOM     12  O   UNL A   1      28.478  28.899  23.263  1.00  0.00    -0.275 OA
ATOM     13  C   UNL A   1      30.665  29.157  22.277  1.00  0.00     0.116 C 
ATOM     14  C   UNL A   1      32.477  26.436  24.187  1.00  0.00     0.051 C 
ATOM     15  C   UNL A   1      31.317  25.963  22.001  1.00  0.00     0.051 C 
ATOM     16  C   UNL A   1      33.771  25.913  23.573  1.00  0.00     0.122 C 
ATOM     17  C   UNL A   1      32.619  25.323  21.506  1.00  0.00     0.122 C 
ATOM     18  N   UNL A   1      33.439  24.865  22.624  1.00  0.00    -0.338 N 
ATOM     19  C   UNL A   1      33.836  23.529  22.702  1.00  0.00     0.256 C 
ATOM     20  O   UNL A   1      33.519  22.682  21.871  1.00  0.00    -0.269 OA
BRANCH  19  21
ATOM     21  C   UNL A   1      34.728  23.083  23.804  1.00  0.00     0.065 A 
ATOM     22  C   UNL A   1      36.077  22.900  23.452  1.00  0.00     0.016 A 
ATOM     23  C   UNL A   1      34.336  22.895  25.138  1.00  0.00     0.077 A 
ATOM     24  C   UNL A   1      37.027  22.570  24.422  1.00  0.00     0.001 A 
ATOM     25  C   UNL A   1      35.312  22.625  26.118  1.00  0.00     0.029 A 
ATOM     26  C   UNL A   1      36.647  22.448  25.755  1.00  0.00     0.002 A 
BRANCH  23  27
ATOM     27  N   UNL A   1      32.987  22.939  25.561  1.00  0.00    -0.240 N 
ATOM     28  C   UNL A   1      31.935  22.143  25.164  1.00  0.00     0.115 A 
ATOM     29  N   UNL A   1      32.592  23.846  26.495  1.00  0.00    -0.177 NA
ATOM     30  C   UNL A   1      30.824  22.575  25.849  1.00  0.00     0.042 A 
ATOM     31  C   UNL A   1      31.283  23.642  26.635  1.00  0.00     0.135 A 
ENDBRANCH  23  27
ENDBRANCH  19  21
ENDBRANCH   4   7
ENDBRANCH   2   3
ENDBRANCH   1   2
BRANCH   1  32
ATOM     32  C   UNL A   1      32.422  31.791  26.884  1.00  0.00     0.118 C 
BRANCH  32  33
ATOM     33  N   UNL A   1      32.282  33.193  27.251  1.00  0.00    -0.352 N 
ATOM     34  C   UNL A   1      32.990  33.943  28.157  1.00  0.00     0.251 C 
ATOM     35  H   UNL A   1      31.569  33.678  26.776  1.00  0.00     0.163 HD
ATOM     36  O   UNL A   1      32.527  35.011  28.549  1.00  0.00    -0.269 OA
BRANCH  34  37
ATOM     37  C   UNL A   1      34.299  33.480  28.668  1.00  0.00     0.039 A 
ATOM     38  C   UNL A   1      34.344  32.765  29.869  1.00  0.00     0.014 A 
ATOM     39  C   UNL A   1      35.486  33.794  28.002  1.00  0.00     0.014 A 
ATOM     40  C   UNL A   1      35.570  32.316  30.367  1.00  0.00     0.010 A 
ATOM     41  C   UNL A   1      36.697  33.275  28.454  1.00  0.00     0.010 A 
ATOM     42  C   UNL A   1      36.753  32.535  29.645  1.00  0.00    -0.014 A 
BRANCH  42  43
ATOM     43  C   UNL A   1      38.057  31.997  30.108  1.00  0.00     0.031 A 
ATOM     44  C   UNL A   1      38.574  30.689  29.573  1.00  0.00     0.074 A 
ATOM     45  C   UNL A   1      38.741  32.648  31.069  1.00  0.00     0.049 A 
ATOM     46  N   UNL A   1      39.643  30.018  29.922  1.00  0.00    -0.248 NA
ATOM     47  C   UNL A   1      37.770  30.037  28.527  1.00  0.00     0.031 C 
ATOM     48  C   UNL A   1      38.334  33.908  31.695  1.00  0.00     0.029 A 
ATOM     49  N   UNL A   1      39.920  32.332  31.699  1.00  0.00    -0.354 N 
ATOM     50  C   UNL A   1      39.627  28.858  29.156  1.00  0.00     0.074 A 
ATOM     51  C   UNL A   1      38.420  28.894  28.359  1.00  0.00     0.031 C 
ATOM     52  C   UNL A   1      39.255  34.267  32.602  1.00  0.00     0.029 A 
ATOM     53  C   UNL A   1      40.291  33.241  32.660  1.00  0.00     0.049 A 
ATOM     54  H   UNL A   1      40.449  31.530  31.481  1.00  0.00     0.167 HD
ATOM     55  C   UNL A   1      40.542  27.861  29.109  1.00  0.00     0.031 A 
ATOM     56  C   UNL A   1      41.335  33.240  33.509  1.00  0.00     0.031 A 
ATOM     57  C   UNL A   1      41.744  27.829  29.900  1.00  0.00     0.049 A 
ATOM     58  C   UNL A   1      42.318  32.103  33.464  1.00  0.00     0.074 A 
ATOM     59  C   UNL A   1      42.767  26.896  29.876  1.00  0.00     0.029 A 
ATOM     60  N   UNL A   1      42.079  28.765  30.866  1.00  0.00    -0.354 N 
ATOM     61  N   UNL A   1      42.331  31.055  32.678  1.00  0.00    -0.248 NA
ATOM     62  C   UNL A   1      43.431  32.153  34.422  1.00  0.00     0.031 C 
ATOM     63  C   UNL A   1      43.685  27.231  30.876  1.00  0.00     0.029 A 
ATOM     64  C   UNL A   1      43.269  28.409  31.476  1.00  0.00     0.049 A 
ATOM     65  H   UNL A   1      41.548  29.566  31.084  1.00  0.00     0.167 HD
ATOM     66  C   UNL A   1      43.459  30.327  33.035  1.00  0.00     0.074 A 
ATOM     67  C   UNL A   1      44.118  31.069  34.090  1.00  0.00     0.031 C 
ATOM     68  C   UNL A   1      43.906  29.149  32.536  1.00  0.00     0.031 A 
BRANCH  55  69
ATOM     69  C   UNL A   1      40.264  26.705  28.186  1.00  0.00    -0.014 A 
ATOM     70  C   UNL A   1      40.806  26.655  26.891  1.00  0.00     0.009 A 
ATOM     71  C   UNL A   1      39.474  25.632  28.630  1.00  0.00     0.009 A 
ATOM     72  C   UNL A   1      40.527  25.578  26.046  1.00  0.00     0.001 A 
ATOM     73  C   UNL A   1      39.225  24.540  27.796  1.00  0.00     0.001 A 
ATOM     74  C   UNL A   1      39.742  24.520  26.502  1.00  0.00     0.000 A 
ENDBRANCH  55  69
BRANCH  56  75
ATOM     75  C   UNL A   1      41.498  34.351  34.485  1.00  0.00    -0.014 A 
ATOM     76  C   UNL A   1      42.155  35.535  34.116  1.00  0.00     0.009 A 
ATOM     77  C   UNL A   1      40.992  34.235  35.789  1.00  0.00     0.009 A 
ATOM     78  C   UNL A   1      42.322  36.568  35.041  1.00  0.00     0.001 A 
ATOM     79  C   UNL A   1      41.131  35.283  36.702  1.00  0.00     0.001 A 
ATOM     80  C   UNL A   1      41.804  36.445  36.329  1.00  0.00     0.000 A 
ENDBRANCH  56  75
BRANCH  68  81
ATOM     81  C   UNL A   1      45.175  28.592  33.119  1.00  0.00    -0.014 A 
ATOM     82  C   UNL A   1      45.145  27.692  34.197  1.00  0.00     0.009 A 
ATOM     83  C   UNL A   1      46.413  28.932  32.552  1.00  0.00     0.009 A 
ATOM     84  C   UNL A   1      46.332  27.168  34.711  1.00  0.00     0.001 A 
ATOM     85  C   UNL A   1      47.595  28.381  33.048  1.00  0.00     0.001 A 
ATOM     86  C   UNL A   1      47.555  27.506  34.133  1.00  0.00     0.000 A 
ENDBRANCH  68  81
ENDBRANCH  42  43
ENDBRANCH  34  37
ENDBRANCH  32  33
ENDBRANCH   1  32
TORSDOF 12
ENDMDL
MODEL 2
REMARK VINA RESULT:     -12.9      0.535      5.664
REMARK SMILES CN1C(=O)C[C@@H](C(=O)NCCCNC(=O)c2ccc(-c3c4nc(c(-c5ccccc5)c5ccc([nH]5)c(-c5ccccc5)c5nc(c(-c6ccccc6)c6ccc3[nH]6)C=C5)C=C4)cc2)C12CCN(C(=O)c1ccccc1-n1cccn1)CC2
REMARK SMILES IDX 11 1 10 2 9 3 7 4 8 5 6 7 1 8 2 9 3 10 64 11 4 12 5 13 65 14
REMARK SMILES IDX 82 15 66 16 81 17 67 18 68 19 69 20 70 21 71 22 75 23 72 24
REMARK SMILES IDX 74 25 73 26 76 27 77 28 80 29 78 30 79 31 12 32 13 33 14 34
REMARK SMILES IDX 15 36 16 37 17 38 63 39 18 40 62 41 19 42 20 43 21 44 56 45
REMARK SMILES IDX 22 46 61 47 55 48 57 49 23 50 60 51 54 52 53 53 24 55 46 56
REMARK SMILES IDX 31 57 45 58 32 59 35 60 44 61 58 62 33 63 34 64 43 66 59 67
REMARK SMILES IDX 36 68 25 69 26 70 30 71 27 72 29 73 28 74 47 75 48 76 52 77
REMARK SMILES IDX 49 78 51 79 50 80 37 81 38 82 42 83 39 84 41 85 40 86
REMARK H PARENT 9 6 13 35 57 54 35 65
REMARK Flexibility Score: inf
ROOT
ATOM      1  C   UNL A   1      31.168  31.576  26.106  1.00  0.00     0.042 C 
ENDROOT
BRANCH   1   2
ATOM      2  C   UNL A   1      31.280  30.182  25.485  1.00  0.00     0.117 C 
BRANCH   2   3
ATOM      3  N   UNL A   1      32.548  29.918  24.813  1.00  0.00    -0.356 N 
ATOM      4  C   UNL A   1      32.905  29.292  23.663  1.00  0.00     0.226 C 
ATOM      5  O   UNL A   1      34.111  29.324  23.388  1.00  0.00    -0.275 OA
ATOM      6  H   UNL A   1      33.321  30.275  25.307  1.00  0.00     0.163 HD
BRANCH   4   7
ATOM      7  C   UNL A   1      31.968  28.516  22.734  1.00  0.00     0.113 C 
ATOM      8  C   UNL A   1      29.406  26.457  24.517  1.00  0.00     0.147 C 
ATOM      9  N   UNL A   1      30.184  27.381  23.714  1.00  0.00    -0.339 N 
ATOM     10  C   UNL A   1      29.623  28.541  23.191  1.00  0.00     0.223 C 
ATOM     11  C   UNL A   1      31.535  27.106  23.194  1.00  0.00     0.058 C 
ATOM     12  O   UNL A   1      28.483  28.935  23.352  1.00  0.00    -0.275 OA
ATOM     13  C   UNL A   1      30.681  29.276  22.418  1.00  0.00     0.116 C 
ATOM     14  C   UNL A   1      32.506  26.492  24.223  1.00  0.00     0.051 C 
ATOM     15  C   UNL A   1      31.391  26.110  21.996  1.00  0.00     0.051 C 
ATOM     16  C   UNL A   1      33.819  26.021  23.606  1.00  0.00     0.122 C 
ATOM     17  C   UNL A   1      32.711  25.517  21.494  1.00  0.00     0.122 C 
ATOM     18  N   UNL A   1      33.520  25.017  22.601  1.00  0.00    -0.338 N 
ATOM     19  C   UNL A   1      33.938  23.684  22.621  1.00  0.00     0.256 C 
ATOM     20  O   UNL A   1      33.648  22.874  21.743  1.00  0.00    -0.269 OA
BRANCH  19  21
ATOM     21  C   UNL A   1      34.818  23.198  23.714  1.00  0.00     0.065 A 
ATOM     22  C   UNL A   1      36.169  23.021  23.368  1.00  0.00     0.016 A 
ATOM     23  C   UNL A   1      34.414  22.969  25.039  1.00  0.00     0.077 A 
ATOM     24  C   UNL A   1      37.110  22.655  24.334  1.00  0.00     0.001 A 
ATOM     25  C   UNL A   1      35.381  22.662  26.017  1.00  0.00     0.029 A 
ATOM     26  C   UNL A   1      36.719  22.491  25.659  1.00  0.00     0.002 A 
BRANCH  23  27
ATOM     27  N   UNL A   1      33.063  23.005  25.452  1.00  0.00    -0.240 N 
ATOM     28  C   UNL A   1      31.993  22.292  24.957  1.00  0.00     0.115 A 
ATOM     29  N   UNL A   1      32.683  23.812  26.480  1.00  0.00    -0.177 NA
ATOM     30  C   UNL A   1      30.886  22.677  25.677  1.00  0.00     0.042 A 
ATOM     31  C   UNL A   1      31.367  23.633  26.583  1.00  0.00     0.135 A 
ENDBRANCH  23  27
ENDBRANCH  19  21
ENDBRANCH   4   7
ENDBRANCH   2   3
ENDBRANCH   1   2
BRANCH   1  32
ATOM     32  C   UNL A   1      32.370  31.975  26.953  1.00  0.00     0.118 C 
BRANCH  32  33
ATOM     33  N   UNL A   1      32.305  33.375  27.344  1.00  0.00    -0.352 N 
ATOM     34  C   UNL A   1      33.067  34.078  28.244  1.00  0.00     0.251 C 
ATOM     35  H   UNL A   1      31.605  33.901  26.894  1.00  0.00     0.163 HD
ATOM     36  O   UNL A   1      32.665  35.160  28.663  1.00  0.00    -0.269 OA
BRANCH  34  37
ATOM     37  C   UNL A   1      34.365  33.546  28.718  1.00  0.00     0.039 A 
ATOM     38  C   UNL A   1      34.416  32.876  29.944  1.00  0.00     0.014 A 
ATOM     39  C   UNL A   1      35.539  33.751  27.989  1.00  0.00     0.014 A 
ATOM     40  C   UNL A   1      35.630  32.363  30.407  1.00  0.00     0.010 A 
ATOM     41  C   UNL A   1      36.731  33.168  28.410  1.00  0.00     0.010 A 
ATOM     42  C   UNL A   1      36.792  32.473  29.627  1.00  0.00    -0.014 A 
BRANCH  42  43
ATOM     43  C   UNL A   1      38.077  31.864  30.056  1.00  0.00     0.031 A 
ATOM     44  C   UNL A   1      39.010  32.618  30.964  1.00  0.00     0.074 A 
ATOM     45  C   UNL A   1      38.440  30.663  29.565  1.00  0.00     0.049 A 
ATOM     46  N   UNL A   1      40.209  32.289  31.374  1.00  0.00    -0.248 NA
ATOM     47  C   UNL A   1      38.544  33.924  31.457  1.00  0.00     0.031 C 
ATOM     48  C   UNL A   1      37.641  29.844  28.651  1.00  0.00     0.029 A 
ATOM     49  N   UNL A   1      39.582  29.926  29.758  1.00  0.00    -0.354 N 
ATOM     50  C   UNL A   1      40.648  33.355  32.151  1.00  0.00     0.074 A 
ATOM     51  C   UNL A   1      39.607  34.359  32.118  1.00  0.00     0.031 C 
ATOM     52  C   UNL A   1      38.308  28.712  28.379  1.00  0.00     0.029 A 
ATOM     53  C   UNL A   1      39.600  28.746  29.056  1.00  0.00     0.049 A 
ATOM     54  H   UNL A   1      40.319  30.217  30.344  1.00  0.00     0.167 HD
ATOM     55  C   UNL A   1      41.806  33.480  32.842  1.00  0.00     0.031 A 
ATOM     56  C   UNL A   1      40.557  27.804  28.950  1.00  0.00     0.031 A 
ATOM     57  C   UNL A   1      42.839  32.478  32.876  1.00  0.00     0.049 A 
ATOM     58  C   UNL A   1      41.849  27.983  29.697  1.00  0.00     0.074 A 
ATOM     59  C   UNL A   1      44.019  32.482  33.600  1.00  0.00     0.029 A 
ATOM     60  N   UNL A   1      42.821  31.300  32.146  1.00  0.00    -0.354 N 
ATOM     61  N   UNL A   1      42.215  28.959  30.491  1.00  0.00    -0.248 NA
ATOM     62  C   UNL A   1      42.858  26.927  29.533  1.00  0.00     0.031 C 
ATOM     63  C   UNL A   1      44.746  31.338  33.253  1.00  0.00     0.029 A 
ATOM     64  C   UNL A   1      43.989  30.590  32.367  1.00  0.00     0.049 A 
ATOM     65  H   UNL A   1      42.085  31.010  31.558  1.00  0.00     0.167 HD
ATOM     66  C   UNL A   1      43.489  28.629  30.935  1.00  0.00     0.074 A 
ATOM     67  C   UNL A   1      43.821  27.350  30.341  1.00  0.00     0.031 C 
ATOM     68  C   UNL A   1      44.311  29.325  31.757  1.00  0.00     0.031 A 
BRANCH  55  69
ATOM     69  C   UNL A   1      42.029  34.761  33.600  1.00  0.00    -0.014 A 
ATOM     70  C   UNL A   1      42.780  35.815  33.055  1.00  0.00     0.009 A 
ATOM     71  C   UNL A   1      41.448  34.930  34.868  1.00  0.00     0.009 A 
ATOM     72  C   UNL A   1      42.982  36.992  33.781  1.00  0.00     0.001 A 
ATOM     73  C   UNL A   1      41.623  36.120  35.577  1.00  0.00     0.001 A 
ATOM     74  C   UNL A   1      42.399  37.145  35.038  1.00  0.00     0.000 A 
ENDBRANCH  55  69
BRANCH  56  75
ATOM     75  C   UNL A   1      40.330  26.611  28.091  1.00  0.00    -0.014 A 
ATOM     76  C   UNL A   1      40.843  26.565  26.785  1.00  0.00     0.009 A 
ATOM     77  C   UNL A   1      39.606  25.511  28.574  1.00  0.00     0.009 A 
ATOM     78  C   UNL A   1      40.612  25.450  25.975  1.00  0.00     0.001 A 
ATOM     79  C   UNL A   1      39.405  24.384  27.773  1.00  0.00     0.001 A 
ATOM     80  C   UNL A   1      39.901  24.359  26.471  1.00  0.00     0.000 A 
ENDBRANCH  56  75
BRANCH  68  81
ATOM     81  C   UNL A   1      45.649  28.714  32.071  1.00  0.00    -0.014 A 
ATOM     82  C   UNL A   1      46.784  29.013  31.299  1.00  0.00     0.009 A 
ATOM     83  C   UNL A   1      45.787  27.868  33.183  1.00  0.00     0.009 A 
ATOM     84  C   UNL A   1      48.021  28.452  31.619  1.00  0.00     0.001 A 
ATOM     85  C   UNL A   1      47.032  27.336  33.519  1.00  0.00     0.001 A 
ATOM     86  C   UNL A   1      48.146  27.621  32.732  1.00  0.00     0.000 A 
ENDBRANCH  68  81
ENDBRANCH  42  43
ENDBRANCH  34  37
ENDBRANCH  32  33
ENDBRANCH   1  32
TORSDOF 12
ENDMDL
MODEL 3
REMARK VINA RESULT:     -12.5      2.509      6.508
REMARK SMILES CN1C(=O)C[C@@H](C(=O)NCCCNC(=O)c2ccc(-c3c4nc(c(-c5ccccc5)c5ccc([nH]5)c(-c5ccccc5)c5nc(c(-c6ccccc6)c6ccc3[nH]6)C=C5)C=C4)cc2)C12CCN(C(=O)c1ccccc1-n1cccn1)CC2
REMARK SMILES IDX 11 1 10 2 9 3 7 4 8 5 6 7 1 8 2 9 3 10 64 11 4 12 5 13 65 14
REMARK SMILES IDX 82 15 66 16 81 17 67 18 68 19 69 20 70 21 71 22 75 23 72 24
REMARK SMILES IDX 74 25 73 26 76 27 77 28 80 29 78 30 79 31 12 32 13 33 14 34
REMARK SMILES IDX 15 36 16 37 17 38 63 39 18 40 62 41 19 42 20 43 21 44 56 45
REMARK SMILES IDX 22 46 61 47 55 48 57 49 23 50 60 51 54 52 53 53 24 55 46 56
REMARK SMILES IDX 31 57 45 58 32 59 35 60 44 61 58 62 33 63 34 64 43 66 59 67
REMARK SMILES IDX 36 68 25 69 26 70 30 71 27 72 29 73 28 74 47 75 48 76 52 77
REMARK SMILES IDX 49 78 51 79 50 80 37 81 38 82 42 83 39 84 41 85 40 86
REMARK H PARENT 9 6 13 35 57 54 35 65
REMARK Flexibility Score: inf
ROOT
ATOM      1  C   UNL A   1      32.217  29.029  27.029  1.00  0.00     0.042 C 
ENDROOT
BRANCH   1   2
ATOM      2  C   UNL A   1      31.854  29.510  25.622  1.00  0.00     0.117 C 
BRANCH   2   3
ATOM      3  N   UNL A   1      32.970  29.531  24.682  1.00  0.00    -0.356 N 
ATOM      4  C   UNL A   1      33.146  29.114  23.403  1.00  0.00     0.226 C 
ATOM      5  O   UNL A   1      34.250  29.366  22.905  1.00  0.00    -0.275 OA
ATOM      6  H   UNL A   1      33.780  29.941  25.063  1.00  0.00     0.163 HD
BRANCH   4   7
ATOM      7  C   UNL A   1      32.136  28.321  22.569  1.00  0.00     0.113 C 
ATOM      8  C   UNL A   1      29.565  26.512  24.593  1.00  0.00     0.147 C 
ATOM      9  N   UNL A   1      30.348  27.341  23.696  1.00  0.00    -0.339 N 
ATOM     10  C   UNL A   1      29.816  28.488  23.117  1.00  0.00     0.223 C 
ATOM     11  C   UNL A   1      31.661  26.968  23.143  1.00  0.00     0.058 C 
ATOM     12  O   UNL A   1      28.703  28.946  23.297  1.00  0.00    -0.275 OA
ATOM     13  C   UNL A   1      30.871  29.118  22.253  1.00  0.00     0.116 C 
ATOM     14  C   UNL A   1      32.648  26.380  24.172  1.00  0.00     0.051 C 
ATOM     15  C   UNL A   1      31.421  25.901  22.024  1.00  0.00     0.051 C 
ATOM     16  C   UNL A   1      33.910  25.807  23.538  1.00  0.00     0.122 C 
ATOM     17  C   UNL A   1      32.691  25.213  21.512  1.00  0.00     0.122 C 
ATOM     18  N   UNL A   1      33.524  24.752  22.618  1.00  0.00    -0.338 N 
ATOM     19  C   UNL A   1      33.883  23.406  22.713  1.00  0.00     0.256 C 
ATOM     20  O   UNL A   1      33.520  22.553  21.907  1.00  0.00    -0.269 OA
BRANCH  19  21
ATOM     21  C   UNL A   1      34.787  22.954  23.801  1.00  0.00     0.065 A 
ATOM     22  C   UNL A   1      36.132  22.771  23.432  1.00  0.00     0.016 A 
ATOM     23  C   UNL A   1      34.412  22.761  25.140  1.00  0.00     0.077 A 
ATOM     24  C   UNL A   1      37.094  22.436  24.388  1.00  0.00     0.001 A 
ATOM     25  C   UNL A   1      35.400  22.486  26.106  1.00  0.00     0.029 A 
ATOM     26  C   UNL A   1      36.731  22.309  25.726  1.00  0.00     0.002 A 
BRANCH  23  27
ATOM     27  N   UNL A   1      33.069  22.805  25.580  1.00  0.00    -0.240 N 
ATOM     28  C   UNL A   1      32.482  23.679  26.467  1.00  0.00     0.115 A 
ATOM     29  N   UNL A   1      32.163  21.910  25.100  1.00  0.00    -0.177 NA
ATOM     30  C   UNL A   1      31.161  23.314  26.579  1.00  0.00     0.042 A 
ATOM     31  C   UNL A   1      31.028  22.203  25.733  1.00  0.00     0.135 A 
ENDBRANCH  23  27
ENDBRANCH  19  21
ENDBRANCH   4   7
ENDBRANCH   2   3
ENDBRANCH   1   2
BRANCH   1  32
ATOM     32  C   UNL A   1      33.639  29.375  27.453  1.00  0.00     0.118 C 
BRANCH  32  33
ATOM     33  N   UNL A   1      33.714  30.713  28.023  1.00  0.00    -0.352 N 
ATOM     34  C   UNL A   1      34.678  31.282  28.818  1.00  0.00     0.251 C 
ATOM     35  H   UNL A   1      32.955  31.300  27.806  1.00  0.00     0.163 HD
ATOM     36  O   UNL A   1      34.418  32.303  29.448  1.00  0.00    -0.269 OA
BRANCH  34  37
ATOM     37  C   UNL A   1      36.026  30.678  28.927  1.00  0.00     0.039 A 
ATOM     38  C   UNL A   1      36.839  30.624  27.791  1.00  0.00     0.014 A 
ATOM     39  C   UNL A   1      36.470  30.116  30.126  1.00  0.00     0.014 A 
ATOM     40  C   UNL A   1      38.115  30.062  27.873  1.00  0.00     0.010 A 
ATOM     41  C   UNL A   1      37.772  29.632  30.228  1.00  0.00     0.010 A 
ATOM     42  C   UNL A   1      38.607  29.594  29.102  1.00  0.00    -0.014 A 
BRANCH  42  43
ATOM     43  C   UNL A   1      39.989  29.069  29.235  1.00  0.00     0.031 A 
ATOM     44  C   UNL A   1      41.108  29.974  29.676  1.00  0.00     0.074 A 
ATOM     45  C   UNL A   1      40.253  27.795  28.885  1.00  0.00     0.049 A 
ATOM     46  N   UNL A   1      42.390  29.720  29.766  1.00  0.00    -0.248 NA
ATOM     47  C   UNL A   1      40.741  31.352  30.039  1.00  0.00     0.031 C 
ATOM     48  C   UNL A   1      39.264  26.823  28.412  1.00  0.00     0.029 A 
ATOM     49  N   UNL A   1      41.437  27.100  28.863  1.00  0.00    -0.354 N 
ATOM     50  C   UNL A   1      42.982  30.910  30.173  1.00  0.00     0.074 A 
ATOM     51  C   UNL A   1      41.928  31.896  30.267  1.00  0.00     0.031 C 
ATOM     52  C   UNL A   1      39.879  25.656  28.164  1.00  0.00     0.029 A 
ATOM     53  C   UNL A   1      41.308  25.808  28.413  1.00  0.00     0.049 A 
ATOM     54  H   UNL A   1      42.297  27.491  29.142  1.00  0.00     0.167 HD
ATOM     55  C   UNL A   1      44.283  31.155  30.456  1.00  0.00     0.031 A 
ATOM     56  C   UNL A   1      42.238  24.858  28.201  1.00  0.00     0.031 A 
ATOM     57  C   UNL A   1      45.329  30.170  30.365  1.00  0.00     0.049 A 
ATOM     58  C   UNL A   1      43.681  25.165  28.488  1.00  0.00     0.074 A 
ATOM     59  C   UNL A   1      46.667  30.302  30.696  1.00  0.00     0.029 A 
ATOM     60  N   UNL A   1      45.158  28.876  29.899  1.00  0.00    -0.354 N 
ATOM     61  N   UNL A   1      44.213  26.271  28.949  1.00  0.00    -0.248 NA
ATOM     62  C   UNL A   1      44.650  24.091  28.228  1.00  0.00     0.031 C 
ATOM     63  C   UNL A   1      47.318  29.110  30.363  1.00  0.00     0.029 A 
ATOM     64  C   UNL A   1      46.373  28.213  29.890  1.00  0.00     0.049 A 
ATOM     65  H   UNL A   1      44.298  28.487  29.617  1.00  0.00     0.167 HD
ATOM     66  C   UNL A   1      45.576  26.022  29.049  1.00  0.00     0.074 A 
ATOM     67  C   UNL A   1      45.784  24.652  28.626  1.00  0.00     0.031 C 
ATOM     68  C   UNL A   1      46.567  26.854  29.452  1.00  0.00     0.031 A 
BRANCH  55  69
ATOM     69  C   UNL A   1      44.653  32.554  30.870  1.00  0.00    -0.014 A 
ATOM     70  C   UNL A   1      44.645  32.946  32.219  1.00  0.00     0.009 A 
ATOM     71  C   UNL A   1      45.049  33.487  29.898  1.00  0.00     0.009 A 
ATOM     72  C   UNL A   1      44.982  34.253  32.580  1.00  0.00     0.001 A 
ATOM     73  C   UNL A   1      45.418  34.783  30.264  1.00  0.00     0.001 A 
ATOM     74  C   UNL A   1      45.374  35.167  31.604  1.00  0.00     0.000 A 
ENDBRANCH  55  69
BRANCH  56  75
ATOM     75  C   UNL A   1      41.830  23.527  27.678  1.00  0.00    -0.014 A 
ATOM     76  C   UNL A   1      41.530  22.475  28.558  1.00  0.00     0.009 A 
ATOM     77  C   UNL A   1      41.734  23.301  26.295  1.00  0.00     0.009 A 
ATOM     78  C   UNL A   1      41.165  21.221  28.062  1.00  0.00     0.001 A 
ATOM     79  C   UNL A   1      41.338  22.056  25.803  1.00  0.00     0.001 A 
ATOM     80  C   UNL A   1      41.063  21.014  26.687  1.00  0.00     0.000 A 
ENDBRANCH  56  75
BRANCH  68  81
ATOM     81  C   UNL A   1      47.966  26.305  29.463  1.00  0.00    -0.014 A 
ATOM     82  C   UNL A   1      48.525  25.761  30.631  1.00  0.00     0.009 A 
ATOM     83  C   UNL A   1      48.718  26.285  28.278  1.00  0.00     0.009 A 
ATOM     84  C   UNL A   1      49.818  25.236  30.616  1.00  0.00     0.001 A 
ATOM     85  C   UNL A   1      49.998  25.730  28.259  1.00  0.00     0.001 A 
ATOM     86  C   UNL A   1      50.550  25.214  29.430  1.00  0.00     0.000 A 
ENDBRANCH  68  81
ENDBRANCH  42  43
ENDBRANCH  34  37
ENDBRANCH  32  33
ENDBRANCH   1  32
TORSDOF 12
ENDMDL
