MODEL 1
REMARK VINA RESULT:     -11.1      0.000      0.000
REMARK SMILES O=C(NCCCNC(=O)[C@H](CO)NC(=O)[C@H](Cc1ccc(O)cc1)NC(=O)c1ccc(F)cc1)c1ccc(-c2c3nc(c(-c4ccccc4)c4ccc([nH]4)c(-c4ccccc4)c4nc(c(-c5ccccc5)c5ccc2[nH]5)C=C4)C=C3)cc1
REMARK SMILES IDX 7 1 8 2 9 3 6 5 5 6 4 7 3 8 1 9 2 10 35 12 36 13 82 14 37 15
REMARK SMILES IDX 81 16 38 17 39 18 40 19 75 20 41 21 80 22 74 23 76 24 42 25
REMARK SMILES IDX 79 26 73 27 72 28 43 30 65 31 50 32 64 33 51 34 54 35 63 36
REMARK SMILES IDX 77 37 52 38 53 39 62 41 78 42 55 43 44 44 45 45 49 46 46 47
REMARK SMILES IDX 48 48 47 49 66 50 67 51 71 52 68 53 70 54 69 55 56 56 57 57
REMARK SMILES IDX 61 58 58 59 60 60 59 61 10 62 13 63 14 64 15 66 16 67 25 68
REMARK SMILES IDX 26 69 27 71 28 72 29 73 34 74 30 75 33 76 31 77 32 78 17 79
REMARK SMILES IDX 18 80 19 81 24 82 20 83 23 84 21 85 22 86 11 88 12 89
REMARK H PARENT 7 4 3 11 76 29 54 40 13 65 25 70 22 87 12 90
REMARK Flexibility Score: inf
ROOT
ATOM      1  N   UNL A   1      37.035  21.579  24.141  1.00  0.00    -0.354 N 
ATOM      2  C   UNL A   1      36.890  22.909  24.301  1.00  0.00     0.244 C 
ATOM      3  O   UNL A   1      36.644  23.523  23.254  1.00  0.00    -0.273 OA
ATOM      4  H   UNL A   1      37.263  21.312  23.221  1.00  0.00     0.163 HD
ENDROOT
BRANCH   1   5
ATOM      5  C   UNL A   1      36.919  20.466  25.059  1.00  0.00     0.117 C 
BRANCH   5   6
ATOM      6  C   UNL A   1      38.153  19.579  24.991  1.00  0.00     0.042 C 
BRANCH   6   7
ATOM      7  C   UNL A   1      39.303  20.094  25.851  1.00  0.00     0.118 C 
BRANCH   7   8
ATOM      8  N   UNL A   1      40.404  19.141  25.922  1.00  0.00    -0.352 N 
ATOM      9  O   UNL A   1      42.554  18.475  25.815  1.00  0.00    -0.269 OA
ATOM     10  C   UNL A   1      41.750  19.367  26.056  1.00  0.00     0.251 C 
ATOM     11  H   UNL A   1      40.142  18.193  25.864  1.00  0.00     0.163 HD
BRANCH  10  12
ATOM     12  C   UNL A   1      42.221  20.693  26.500  1.00  0.00     0.039 A 
ATOM     13  C   UNL A   1      42.663  21.624  25.559  1.00  0.00     0.014 A 
ATOM     14  C   UNL A   1      42.177  21.022  27.857  1.00  0.00     0.014 A 
ATOM     15  C   UNL A   1      43.192  22.833  25.981  1.00  0.00     0.010 A 
ATOM     16  C   UNL A   1      42.611  22.283  28.271  1.00  0.00     0.010 A 
ATOM     17  C   UNL A   1      43.130  23.192  27.335  1.00  0.00    -0.014 A 
BRANCH  17  18
ATOM     18  C   UNL A   1      43.498  24.572  27.725  1.00  0.00     0.031 A 
ATOM     19  C   UNL A   1      42.453  25.592  28.067  1.00  0.00     0.074 A 
ATOM     20  C   UNL A   1      44.808  24.889  27.764  1.00  0.00     0.049 A 
ATOM     21  N   UNL A   1      42.614  26.846  28.402  1.00  0.00    -0.248 NA
ATOM     22  C   UNL A   1      41.048  25.157  28.021  1.00  0.00     0.031 C 
ATOM     23  C   UNL A   1      45.908  23.969  27.445  1.00  0.00     0.029 A 
ATOM     24  N   UNL A   1      45.441  26.057  28.094  1.00  0.00    -0.354 N 
ATOM     25  C   UNL A   1      41.337  27.358  28.582  1.00  0.00     0.074 A 
ATOM     26  C   UNL A   1      40.408  26.283  28.305  1.00  0.00     0.031 C 
ATOM     27  C   UNL A   1      47.076  24.597  27.635  1.00  0.00     0.029 A 
ATOM     28  C   UNL A   1      46.810  25.980  28.004  1.00  0.00     0.049 A 
ATOM     29  H   UNL A   1      44.963  26.872  28.369  1.00  0.00     0.167 HD
ATOM     30  C   UNL A   1      40.979  28.614  28.942  1.00  0.00     0.031 A 
ATOM     31  C   UNL A   1      47.751  26.926  28.163  1.00  0.00     0.031 A 
ATOM     32  C   UNL A   1      41.917  29.672  29.213  1.00  0.00     0.049 A 
ATOM     33  C   UNL A   1      47.316  28.319  28.509  1.00  0.00     0.074 A 
ATOM     34  C   UNL A   1      41.656  30.965  29.634  1.00  0.00     0.029 A 
ATOM     35  N   UNL A   1      43.293  29.566  29.076  1.00  0.00    -0.354 N 
ATOM     36  N   UNL A   1      46.107  28.773  28.732  1.00  0.00    -0.248 NA
ATOM     37  C   UNL A   1      48.373  29.331  28.621  1.00  0.00     0.031 C 
ATOM     38  C   UNL A   1      42.868  31.659  29.684  1.00  0.00     0.029 A 
ATOM     39  C   UNL A   1      43.891  30.782  29.360  1.00  0.00     0.049 A 
ATOM     40  H   UNL A   1      43.774  28.747  28.816  1.00  0.00     0.167 HD
ATOM     41  C   UNL A   1      46.258  30.120  29.024  1.00  0.00     0.074 A 
ATOM     42  C   UNL A   1      47.679  30.402  28.978  1.00  0.00     0.031 C 
ATOM     43  C   UNL A   1      45.306  31.042  29.302  1.00  0.00     0.031 A 
BRANCH  30  44
ATOM     44  C   UNL A   1      39.511  28.933  29.023  1.00  0.00    -0.014 A 
ATOM     45  C   UNL A   1      38.796  29.398  27.909  1.00  0.00     0.009 A 
ATOM     46  C   UNL A   1      38.819  28.696  30.223  1.00  0.00     0.009 A 
ATOM     47  C   UNL A   1      37.424  29.643  28.003  1.00  0.00     0.001 A 
ATOM     48  C   UNL A   1      37.444  28.916  30.306  1.00  0.00     0.001 A 
ATOM     49  C   UNL A   1      36.747  29.395  29.198  1.00  0.00     0.000 A 
ENDBRANCH  30  44
BRANCH  31  50
ATOM     50  C   UNL A   1      49.182  26.597  27.941  1.00  0.00    -0.014 A 
ATOM     51  C   UNL A   1      50.000  26.189  29.003  1.00  0.00     0.009 A 
ATOM     52  C   UNL A   1      49.738  26.689  26.653  1.00  0.00     0.009 A 
ATOM     53  C   UNL A   1      51.352  25.908  28.786  1.00  0.00     0.001 A 
ATOM     54  C   UNL A   1      51.079  26.373  26.433  1.00  0.00     0.001 A 
ATOM     55  C   UNL A   1      51.888  25.996  27.502  1.00  0.00     0.000 A 
ENDBRANCH  31  50
BRANCH  43  56
ATOM     56  C   UNL A   1      45.775  32.438  29.598  1.00  0.00    -0.014 A 
ATOM     57  C   UNL A   1      46.126  32.824  30.902  1.00  0.00     0.009 A 
ATOM     58  C   UNL A   1      45.908  33.364  28.553  1.00  0.00     0.009 A 
ATOM     59  C   UNL A   1      46.574  34.122  31.155  1.00  0.00     0.001 A 
ATOM     60  C   UNL A   1      46.386  34.650  28.804  1.00  0.00     0.001 A 
ATOM     61  C   UNL A   1      46.710  35.030  30.106  1.00  0.00     0.000 A 
ENDBRANCH  43  56
ENDBRANCH  17  18
ENDBRANCH  10  12
ENDBRANCH   7   8
ENDBRANCH   6   7
ENDBRANCH   5   6
ENDBRANCH   1   5
BRANCH   2  62
ATOM     62  C   UNL A   1      36.888  23.661  25.650  1.00  0.00     0.197 C 
BRANCH  62  63
ATOM     63  N   UNL A   1      35.755  23.231  26.480  1.00  0.00    -0.340 N 
ATOM     64  C   UNL A   1      34.429  23.544  26.430  1.00  0.00     0.243 C 
ATOM     65  H   UNL A   1      35.997  22.604  27.200  1.00  0.00     0.164 HD
ATOM     66  O   UNL A   1      33.704  22.969  27.245  1.00  0.00    -0.273 OA
BRANCH  64  67
ATOM     67  C   UNL A   1      33.870  24.582  25.426  1.00  0.00     0.176 C 
BRANCH  67  68
ATOM     68  N   UNL A   1      33.577  23.920  24.149  1.00  0.00    -0.340 N 
ATOM     69  C   UNL A   1      32.937  24.334  23.013  1.00  0.00     0.251 C 
ATOM     70  H   UNL A   1      33.906  22.992  24.102  1.00  0.00     0.164 HD
ATOM     71  O   UNL A   1      32.706  23.528  22.115  1.00  0.00    -0.269 OA
BRANCH  69  72
ATOM     72  C   UNL A   1      32.498  25.731  22.841  1.00  0.00     0.040 A 
ATOM     73  C   UNL A   1      31.156  26.084  22.986  1.00  0.00     0.017 A 
ATOM     74  C   UNL A   1      33.459  26.730  22.646  1.00  0.00     0.017 A 
ATOM     75  C   UNL A   1      30.758  27.414  22.831  1.00  0.00     0.040 A 
ATOM     76  C   UNL A   1      33.064  28.065  22.517  1.00  0.00     0.040 A 
ATOM     77  C   UNL A   1      31.714  28.391  22.591  1.00  0.00     0.123 A 
ATOM     78  F   UNL A   1      31.331  29.666  22.450  1.00  0.00    -0.207 F 
ENDBRANCH  69  72
ENDBRANCH  67  68
BRANCH  67  79
ATOM     79  C   UNL A   1      32.647  25.327  26.033  1.00  0.00     0.070 C 
BRANCH  79  80
ATOM     80  C   UNL A   1      32.746  26.810  26.352  1.00  0.00    -0.045 A 
ATOM     81  C   UNL A   1      31.604  27.489  26.818  1.00  0.00     0.007 A 
ATOM     82  C   UNL A   1      33.921  27.553  26.172  1.00  0.00     0.007 A 
ATOM     83  C   UNL A   1      31.659  28.840  27.174  1.00  0.00     0.046 A 
ATOM     84  C   UNL A   1      33.985  28.897  26.549  1.00  0.00     0.046 A 
ATOM     85  C   UNL A   1      32.860  29.528  27.059  1.00  0.00     0.115 A 
BRANCH  85  86
ATOM     86  O   UNL A   1      32.977  30.831  27.438  1.00  0.00    -0.508 OA
ATOM     87  H   UNL A   1      33.744  31.120  27.895  1.00  0.00     0.293 HD
ENDBRANCH  85  86
ENDBRANCH  79  80
ENDBRANCH  67  79
ENDBRANCH  64  67
ENDBRANCH  62  63
BRANCH  62  88
ATOM     88  C   UNL A   1      38.193  23.729  26.440  1.00  0.00     0.191 C 
BRANCH  88  89
ATOM     89  O   UNL A   1      39.298  23.216  25.693  1.00  0.00    -0.394 OA
ATOM     90  H   UNL A   1      39.935  23.928  25.528  1.00  0.00     0.210 HD
ENDBRANCH  88  89
ENDBRANCH  62  88
ENDBRANCH   2  62
TORSDOF 19
ENDMDL
MODEL 2
REMARK VINA RESULT:     -11.1      1.445      1.959
REMARK SMILES O=C(NCCCNC(=O)[C@H](CO)NC(=O)[C@H](Cc1ccc(O)cc1)NC(=O)c1ccc(F)cc1)c1ccc(-c2c3nc(c(-c4ccccc4)c4ccc([nH]4)c(-c4ccccc4)c4nc(c(-c5ccccc5)c5ccc2[nH]5)C=C4)C=C3)cc1
REMARK SMILES IDX 7 1 8 2 9 3 6 5 5 6 4 7 3 8 1 9 2 10 35 12 36 13 82 14 37 15
REMARK SMILES IDX 81 16 38 17 39 18 40 19 75 20 41 21 80 22 74 23 76 24 42 25
REMARK SMILES IDX 79 26 73 27 72 28 43 30 65 31 50 32 64 33 51 34 54 35 63 36
REMARK SMILES IDX 77 37 52 38 53 39 62 41 78 42 55 43 44 44 45 45 49 46 46 47
REMARK SMILES IDX 48 48 47 49 66 50 67 51 71 52 68 53 70 54 69 55 56 56 57 57
REMARK SMILES IDX 61 58 58 59 60 60 59 61 10 62 13 63 14 64 15 66 16 67 25 68
REMARK SMILES IDX 26 69 27 71 28 72 29 73 34 74 30 75 33 76 31 77 32 78 17 79
REMARK SMILES IDX 18 80 19 81 24 82 20 83 23 84 21 85 22 86 11 88 12 89
REMARK H PARENT 7 4 3 11 76 29 54 40 13 65 25 70 22 87 12 90
REMARK Flexibility Score: inf
ROOT
ATOM      1  N   UNL A   1      35.538  21.158  25.951  1.00  0.00    -0.354 N 
ATOM      2  C   UNL A   1      34.294  21.631  26.164  1.00  0.00     0.244 C 
ATOM      3  O   UNL A   1      34.117  22.102  27.295  1.00  0.00    -0.273 OA
ATOM      4  H   UNL A   1      36.025  20.934  26.776  1.00  0.00     0.163 HD
ENDROOT
BRANCH   1   5
ATOM      5  C   UNL A   1      36.298  20.917  24.742  1.00  0.00     0.117 C 
BRANCH   5   6
ATOM      6  C   UNL A   1      37.383  19.878  24.986  1.00  0.00     0.042 C 
BRANCH   6   7
ATOM      7  C   UNL A   1      38.644  20.471  25.608  1.00  0.00     0.118 C 
BRANCH   7   8
ATOM      8  N   UNL A   1      39.688  19.470  25.789  1.00  0.00    -0.352 N 
ATOM      9  O   UNL A   1      41.807  18.713  25.922  1.00  0.00    -0.269 OA
ATOM     10  C   UNL A   1      41.018  19.635  26.085  1.00  0.00     0.251 C 
ATOM     11  H   UNL A   1      39.397  18.535  25.682  1.00  0.00     0.163 HD
BRANCH  10  12
ATOM     12  C   UNL A   1      41.486  20.932  26.608  1.00  0.00     0.039 A 
ATOM     13  C   UNL A   1      41.943  21.913  25.726  1.00  0.00     0.014 A 
ATOM     14  C   UNL A   1      41.427  21.186  27.981  1.00  0.00     0.014 A 
ATOM     15  C   UNL A   1      42.470  23.095  26.221  1.00  0.00     0.010 A 
ATOM     16  C   UNL A   1      41.860  22.420  28.470  1.00  0.00     0.010 A 
ATOM     17  C   UNL A   1      42.393  23.378  27.593  1.00  0.00    -0.014 A 
BRANCH  17  18
ATOM     18  C   UNL A   1      42.760  24.733  28.064  1.00  0.00     0.031 A 
ATOM     19  C   UNL A   1      41.718  25.780  28.317  1.00  0.00     0.074 A 
ATOM     20  C   UNL A   1      44.067  25.000  28.259  1.00  0.00     0.049 A 
ATOM     21  N   UNL A   1      41.882  27.018  28.707  1.00  0.00    -0.248 NA
ATOM     22  C   UNL A   1      40.313  25.398  28.100  1.00  0.00     0.031 C 
ATOM     23  C   UNL A   1      45.164  24.050  28.038  1.00  0.00     0.029 A 
ATOM     24  N   UNL A   1      44.697  26.135  28.694  1.00  0.00    -0.354 N 
ATOM     25  C   UNL A   1      40.610  27.572  28.757  1.00  0.00     0.074 A 
ATOM     26  C   UNL A   1      39.683  26.539  28.345  1.00  0.00     0.031 C 
ATOM     27  C   UNL A   1      46.324  24.629  28.377  1.00  0.00     0.029 A 
ATOM     28  C   UNL A   1      46.064  26.010  28.757  1.00  0.00     0.049 A 
ATOM     29  H   UNL A   1      44.218  26.959  28.939  1.00  0.00     0.167 HD
ATOM     30  C   UNL A   1      40.255  28.830  29.113  1.00  0.00     0.031 A 
ATOM     31  C   UNL A   1      47.012  26.917  29.049  1.00  0.00     0.031 A 
ATOM     32  C   UNL A   1      41.191  29.845  29.520  1.00  0.00     0.049 A 
ATOM     33  C   UNL A   1      46.587  28.315  29.387  1.00  0.00     0.074 A 
ATOM     34  C   UNL A   1      40.928  31.135  29.949  1.00  0.00     0.029 A 
ATOM     35  N   UNL A   1      42.569  29.693  29.536  1.00  0.00    -0.354 N 
ATOM     36  N   UNL A   1      45.376  28.807  29.486  1.00  0.00    -0.248 NA
ATOM     37  C   UNL A   1      47.658  29.284  29.648  1.00  0.00     0.031 C 
ATOM     38  C   UNL A   1      42.149  31.783  30.156  1.00  0.00     0.029 A 
ATOM     39  C   UNL A   1      43.172  30.878  29.922  1.00  0.00     0.049 A 
ATOM     40  H   UNL A   1      43.049  28.864  29.306  1.00  0.00     0.167 HD
ATOM     41  C   UNL A   1      45.539  30.139  29.835  1.00  0.00     0.074 A 
ATOM     42  C   UNL A   1      46.964  30.370  29.957  1.00  0.00     0.031 C 
ATOM     43  C   UNL A   1      44.592  31.088  30.031  1.00  0.00     0.031 A 
BRANCH  30  44
ATOM     44  C   UNL A   1      38.800  29.200  29.039  1.00  0.00    -0.014 A 
ATOM     45  C   UNL A   1      38.205  29.612  27.837  1.00  0.00     0.009 A 
ATOM     46  C   UNL A   1      37.994  29.067  30.183  1.00  0.00     0.009 A 
ATOM     47  C   UNL A   1      36.840  29.906  27.788  1.00  0.00     0.001 A 
ATOM     48  C   UNL A   1      36.626  29.335  30.125  1.00  0.00     0.001 A 
ATOM     49  C   UNL A   1      36.050  29.761  28.929  1.00  0.00     0.000 A 
ENDBRANCH  30  44
BRANCH  31  50
ATOM     50  C   UNL A   1      48.448  26.542  28.979  1.00  0.00    -0.014 A 
ATOM     51  C   UNL A   1      49.115  26.035  30.103  1.00  0.00     0.009 A 
ATOM     52  C   UNL A   1      49.160  26.689  27.776  1.00  0.00     0.009 A 
ATOM     53  C   UNL A   1      50.472  25.711  30.032  1.00  0.00     0.001 A 
ATOM     54  C   UNL A   1      50.506  26.330  27.699  1.00  0.00     0.001 A 
ATOM     55  C   UNL A   1      51.164  25.854  28.829  1.00  0.00     0.000 A 
ENDBRANCH  31  50
BRANCH  43  56
ATOM     56  C   UNL A   1      45.071  32.457  30.422  1.00  0.00    -0.014 A 
ATOM     57  C   UNL A   1      45.286  32.795  31.768  1.00  0.00     0.009 A 
ATOM     58  C   UNL A   1      45.352  33.405  29.426  1.00  0.00     0.009 A 
ATOM     59  C   UNL A   1      45.744  34.068  32.109  1.00  0.00     0.001 A 
ATOM     60  C   UNL A   1      45.841  34.666  29.769  1.00  0.00     0.001 A 
ATOM     61  C   UNL A   1      46.028  34.998  31.110  1.00  0.00     0.000 A 
ENDBRANCH  43  56
ENDBRANCH  17  18
ENDBRANCH  10  12
ENDBRANCH   7   8
ENDBRANCH   6   7
ENDBRANCH   5   6
ENDBRANCH   1   5
BRANCH   2  62
ATOM     62  C   UNL A   1      33.174  21.733  25.106  1.00  0.00     0.197 C 
BRANCH  62  63
ATOM     63  N   UNL A   1      31.854  21.741  25.750  1.00  0.00    -0.340 N 
ATOM     64  C   UNL A   1      30.955  22.746  25.952  1.00  0.00     0.243 C 
ATOM     65  H   UNL A   1      31.568  20.866  26.097  1.00  0.00     0.164 HD
ATOM     66  O   UNL A   1      29.891  22.425  26.486  1.00  0.00    -0.273 OA
BRANCH  64  67
ATOM     67  C   UNL A   1      31.264  24.212  25.560  1.00  0.00     0.176 C 
BRANCH  67  68
ATOM     68  N   UNL A   1      30.074  24.814  24.943  1.00  0.00    -0.340 N 
ATOM     69  C   UNL A   1      29.907  25.847  24.062  1.00  0.00     0.251 C 
ATOM     70  H   UNL A   1      29.230  24.389  25.219  1.00  0.00     0.164 HD
ATOM     71  O   UNL A   1      28.776  26.245  23.796  1.00  0.00    -0.269 OA
BRANCH  69  72
ATOM     72  C   UNL A   1      31.060  26.515  23.429  1.00  0.00     0.040 A 
ATOM     73  C   UNL A   1      32.040  25.778  22.766  1.00  0.00     0.017 A 
ATOM     74  C   UNL A   1      31.104  27.914  23.397  1.00  0.00     0.017 A 
ATOM     75  C   UNL A   1      33.120  26.427  22.162  1.00  0.00     0.040 A 
ATOM     76  C   UNL A   1      32.171  28.565  22.770  1.00  0.00     0.040 A 
ATOM     77  C   UNL A   1      33.180  27.814  22.176  1.00  0.00     0.123 A 
ATOM     78  F   UNL A   1      34.212  28.434  21.591  1.00  0.00    -0.207 F 
ENDBRANCH  69  72
ENDBRANCH  67  68
BRANCH  67  79
ATOM     79  C   UNL A   1      31.795  25.007  26.786  1.00  0.00     0.070 C 
BRANCH  79  80
ATOM     80  C   UNL A   1      32.309  26.426  26.603  1.00  0.00    -0.045 A 
ATOM     81  C   UNL A   1      31.498  27.506  27.002  1.00  0.00     0.007 A 
ATOM     82  C   UNL A   1      33.549  26.720  26.021  1.00  0.00     0.007 A 
ATOM     83  C   UNL A   1      31.949  28.826  26.903  1.00  0.00     0.046 A 
ATOM     84  C   UNL A   1      34.012  28.036  25.942  1.00  0.00     0.046 A 
ATOM     85  C   UNL A   1      33.217  29.078  26.395  1.00  0.00     0.115 A 
BRANCH  85  86
ATOM     86  O   UNL A   1      33.720  30.342  26.323  1.00  0.00    -0.508 OA
ATOM     87  H   UNL A   1      33.532  30.961  27.001  1.00  0.00     0.293 HD
ENDBRANCH  85  86
ENDBRANCH  79  80
ENDBRANCH  67  79
ENDBRANCH  64  67
ENDBRANCH  62  63
BRANCH  62  88
ATOM     88  C   UNL A   1      33.298  22.803  24.023  1.00  0.00     0.191 C 
BRANCH  88  89
ATOM     89  O   UNL A   1      34.416  23.663  24.247  1.00  0.00    -0.394 OA
ATOM     90  H   UNL A   1      34.301  24.481  23.740  1.00  0.00     0.210 HD
ENDBRANCH  88  89
ENDBRANCH  62  88
ENDBRANCH   2  62
TORSDOF 19
ENDMDL
MODEL 3
REMARK VINA RESULT:     -11.0      1.525      5.948
REMARK SMILES O=C(NCCCNC(=O)[C@H](CO)NC(=O)[C@H](Cc1ccc(O)cc1)NC(=O)c1ccc(F)cc1)c1ccc(-c2c3nc(c(-c4ccccc4)c4ccc([nH]4)c(-c4ccccc4)c4nc(c(-c5ccccc5)c5ccc2[nH]5)C=C4)C=C3)cc1
REMARK SMILES IDX 7 1 8 2 9 3 6 5 5 6 4 7 3 8 1 9 2 10 35 12 36 13 82 14 37 15
REMARK SMILES IDX 81 16 38 17 39 18 40 19 75 20 41 21 80 22 74 23 76 24 42 25
REMARK SMILES IDX 79 26 73 27 72 28 43 30 65 31 50 32 64 33 51 34 54 35 63 36
REMARK SMILES IDX 77 37 52 38 53 39 62 41 78 42 55 43 44 44 45 45 49 46 46 47
REMARK SMILES IDX 48 48 47 49 66 50 67 51 71 52 68 53 70 54 69 55 56 56 57 57
REMARK SMILES IDX 61 58 58 59 60 60 59 61 10 62 13 63 14 64 15 66 16 67 25 68
REMARK SMILES IDX 26 69 27 71 28 72 29 73 34 74 30 75 33 76 31 77 32 78 17 79
REMARK SMILES IDX 18 80 19 81 24 82 20 83 23 84 21 85 22 86 11 88 12 89
REMARK H PARENT 7 4 3 11 76 29 54 40 13 65 25 70 22 87 12 90
REMARK Flexibility Score: inf
ROOT
ATOM      1  N   UNL A   1      35.677  21.187  25.850  1.00  0.00    -0.354 N 
ATOM      2  C   UNL A   1      34.460  21.740  26.023  1.00  0.00     0.244 C 
ATOM      3  O   UNL A   1      34.290  22.256  27.135  1.00  0.00    -0.273 OA
ATOM      4  H   UNL A   1      36.133  20.961  26.693  1.00  0.00     0.163 HD
ENDROOT
BRANCH   1   5
ATOM      5  C   UNL A   1      36.443  20.861  24.666  1.00  0.00     0.117 C 
BRANCH   5   6
ATOM      6  C   UNL A   1      37.512  19.825  24.982  1.00  0.00     0.042 C 
BRANCH   6   7
ATOM      7  C   UNL A   1      38.761  20.433  25.614  1.00  0.00     0.118 C 
BRANCH   7   8
ATOM      8  N   UNL A   1      39.816  19.445  25.802  1.00  0.00    -0.352 N 
ATOM      9  O   UNL A   1      41.943  18.713  25.945  1.00  0.00    -0.269 OA
ATOM     10  C   UNL A   1      41.143  19.627  26.101  1.00  0.00     0.251 C 
ATOM     11  H   UNL A   1      39.535  18.507  25.699  1.00  0.00     0.163 HD
BRANCH  10  12
ATOM     12  C   UNL A   1      41.595  20.932  26.619  1.00  0.00     0.039 A 
ATOM     13  C   UNL A   1      42.059  21.907  25.735  1.00  0.00     0.014 A 
ATOM     14  C   UNL A   1      41.513  21.198  27.988  1.00  0.00     0.014 A 
ATOM     15  C   UNL A   1      42.571  23.097  26.227  1.00  0.00     0.010 A 
ATOM     16  C   UNL A   1      41.930  22.439  28.473  1.00  0.00     0.010 A 
ATOM     17  C   UNL A   1      42.471  23.392  27.595  1.00  0.00    -0.014 A 
BRANCH  17  18
ATOM     18  C   UNL A   1      42.822  24.754  28.059  1.00  0.00     0.031 A 
ATOM     19  C   UNL A   1      44.239  25.131  28.373  1.00  0.00     0.074 A 
ATOM     20  C   UNL A   1      41.825  25.652  28.191  1.00  0.00     0.049 A 
ATOM     21  N   UNL A   1      44.702  26.272  28.811  1.00  0.00    -0.248 NA
ATOM     22  C   UNL A   1      45.268  24.097  28.180  1.00  0.00     0.031 C 
ATOM     23  C   UNL A   1      40.408  25.386  27.914  1.00  0.00     0.029 A 
ATOM     24  N   UNL A   1      41.843  26.964  28.578  1.00  0.00    -0.354 N 
ATOM     25  C   UNL A   1      46.068  26.091  28.972  1.00  0.00     0.074 A 
ATOM     26  C   UNL A   1      46.360  24.724  28.597  1.00  0.00     0.031 C 
ATOM     27  C   UNL A   1      39.703  26.509  28.102  1.00  0.00     0.029 A 
ATOM     28  C   UNL A   1      40.599  27.547  28.591  1.00  0.00     0.049 A 
ATOM     29  H   UNL A   1      42.667  27.445  28.824  1.00  0.00     0.167 HD
ATOM     30  C   UNL A   1      46.991  26.987  29.398  1.00  0.00     0.031 A 
ATOM     31  C   UNL A   1      40.211  28.771  28.989  1.00  0.00     0.031 A 
ATOM     32  C   UNL A   1      46.683  28.344  29.767  1.00  0.00     0.049 A 
ATOM     33  C   UNL A   1      41.250  29.721  29.505  1.00  0.00     0.074 A 
ATOM     34  C   UNL A   1      47.553  29.346  30.162  1.00  0.00     0.029 A 
ATOM     35  N   UNL A   1      45.407  28.887  29.802  1.00  0.00    -0.354 N 
ATOM     36  N   UNL A   1      42.547  29.553  29.597  1.00  0.00    -0.248 NA
ATOM     37  C   UNL A   1      40.774  31.026  29.978  1.00  0.00     0.031 C 
ATOM     38  C   UNL A   1      46.797  30.471  30.503  1.00  0.00     0.029 A 
ATOM     39  C   UNL A   1      45.461  30.194  30.255  1.00  0.00     0.049 A 
ATOM     40  H   UNL A   1      44.584  28.413  29.542  1.00  0.00     0.167 HD
ATOM     41  C   UNL A   1      43.044  30.735  30.123  1.00  0.00     0.074 A 
ATOM     42  C   UNL A   1      41.912  31.621  30.304  1.00  0.00     0.031 C 
ATOM     43  C   UNL A   1      44.322  31.057  30.434  1.00  0.00     0.031 A 
BRANCH  30  44
ATOM     44  C   UNL A   1      48.415  26.525  29.531  1.00  0.00    -0.014 A 
ATOM     45  C   UNL A   1      49.347  26.702  28.497  1.00  0.00     0.009 A 
ATOM     46  C   UNL A   1      48.848  25.963  30.744  1.00  0.00     0.009 A 
ATOM     47  C   UNL A   1      50.676  26.303  28.667  1.00  0.00     0.001 A 
ATOM     48  C   UNL A   1      50.181  25.592  30.922  1.00  0.00     0.001 A 
ATOM     49  C   UNL A   1      51.093  25.756  29.881  1.00  0.00     0.000 A 
ENDBRANCH  30  44
BRANCH  31  50
ATOM     50  C   UNL A   1      38.772  29.139  28.966  1.00  0.00    -0.014 A 
ATOM     51  C   UNL A   1      37.971  28.984  30.106  1.00  0.00     0.009 A 
ATOM     52  C   UNL A   1      38.191  29.653  27.793  1.00  0.00     0.009 A 
ATOM     53  C   UNL A   1      36.613  29.309  30.064  1.00  0.00     0.001 A 
ATOM     54  C   UNL A   1      36.843  30.010  27.766  1.00  0.00     0.001 A 
ATOM     55  C   UNL A   1      36.051  29.825  28.896  1.00  0.00     0.000 A 
ENDBRANCH  31  50
BRANCH  43  56
ATOM     56  C   UNL A   1      44.564  32.434  30.981  1.00  0.00    -0.014 A 
ATOM     57  C   UNL A   1      44.569  32.677  32.364  1.00  0.00     0.009 A 
ATOM     58  C   UNL A   1      44.832  33.494  30.101  1.00  0.00     0.009 A 
ATOM     59  C   UNL A   1      44.809  33.961  32.853  1.00  0.00     0.001 A 
ATOM     60  C   UNL A   1      45.104  34.770  30.594  1.00  0.00     0.001 A 
ATOM     61  C   UNL A   1      45.084  35.004  31.969  1.00  0.00     0.000 A 
ENDBRANCH  43  56
ENDBRANCH  17  18
ENDBRANCH  10  12
ENDBRANCH   7   8
ENDBRANCH   6   7
ENDBRANCH   5   6
ENDBRANCH   1   5
BRANCH   2  62
ATOM     62  C   UNL A   1      33.368  21.874  24.940  1.00  0.00     0.197 C 
BRANCH  62  63
ATOM     63  N   UNL A   1      32.031  21.812  25.543  1.00  0.00    -0.340 N 
ATOM     64  C   UNL A   1      31.090  22.776  25.754  1.00  0.00     0.243 C 
ATOM     65  H   UNL A   1      31.767  20.914  25.850  1.00  0.00     0.164 HD
ATOM     66  O   UNL A   1      30.023  22.396  26.244  1.00  0.00    -0.273 OA
BRANCH  64  67
ATOM     67  C   UNL A   1      31.356  24.265  25.425  1.00  0.00     0.176 C 
BRANCH  67  68
ATOM     68  N   UNL A   1      30.141  24.864  24.857  1.00  0.00    -0.340 N 
ATOM     69  C   UNL A   1      29.934  25.915  24.006  1.00  0.00     0.251 C 
ATOM     70  H   UNL A   1      29.310  24.422  25.148  1.00  0.00     0.164 HD
ATOM     71  O   UNL A   1      28.791  26.304  23.783  1.00  0.00    -0.269 OA
BRANCH  69  72
ATOM     72  C   UNL A   1      31.059  26.614  23.356  1.00  0.00     0.040 A 
ATOM     73  C   UNL A   1      31.162  28.004  23.402  1.00  0.00     0.017 A 
ATOM     74  C   UNL A   1      32.094  25.862  22.789  1.00  0.00     0.017 A 
ATOM     75  C   UNL A   1      32.239  28.650  22.791  1.00  0.00     0.040 A 
ATOM     76  C   UNL A   1      33.186  26.507  22.200  1.00  0.00     0.040 A 
ATOM     77  C   UNL A   1      33.238  27.896  22.189  1.00  0.00     0.123 A 
ATOM     78  F   UNL A   1      34.273  28.517  21.611  1.00  0.00    -0.207 F 
ENDBRANCH  69  72
ENDBRANCH  67  68
BRANCH  67  79
ATOM     79  C   UNL A   1      31.890  25.016  26.678  1.00  0.00     0.070 C 
BRANCH  79  80
ATOM     80  C   UNL A   1      32.368  26.453  26.552  1.00  0.00    -0.045 A 
ATOM     81  C   UNL A   1      31.518  27.497  26.967  1.00  0.00     0.007 A 
ATOM     82  C   UNL A   1      33.611  26.800  26.006  1.00  0.00     0.007 A 
ATOM     83  C   UNL A   1      31.934  28.832  26.920  1.00  0.00     0.046 A 
ATOM     84  C   UNL A   1      34.038  28.130  25.980  1.00  0.00     0.046 A 
ATOM     85  C   UNL A   1      33.204  29.135  26.449  1.00  0.00     0.115 A 
BRANCH  85  86
ATOM     86  O   UNL A   1      33.673  30.414  26.428  1.00  0.00    -0.508 OA
ATOM     87  H   UNL A   1      33.558  30.967  27.176  1.00  0.00     0.293 HD
ENDBRANCH  85  86
ENDBRANCH  79  80
ENDBRANCH  67  79
ENDBRANCH  64  67
ENDBRANCH  62  63
BRANCH  62  88
ATOM     88  C   UNL A   1      33.494  23.008  23.924  1.00  0.00     0.191 C 
BRANCH  88  89
ATOM     89  O   UNL A   1      34.619  23.846  24.195  1.00  0.00    -0.394 OA
ATOM     90  H   UNL A   1      35.365  23.300  24.487  1.00  0.00     0.210 HD
ENDBRANCH  88  89
ENDBRANCH  62  88
ENDBRANCH   2  62
TORSDOF 19
ENDMDL
