MODEL 1
REMARK VINA RESULT:     -10.6      0.000      0.000
REMARK SMILES O=C(C[C@H]1CN(c2nc(C3CC3)ns2)CCO1)NCCCNC(=O)c1ccc(-c2c3nc(c(-c4ccccc4)c4ccc([nH]4)c(-c4ccccc4)c4nc(c(-c5ccccc5)c5ccc2[nH]5)C=C4)C=C3)cc1
REMARK SMILES IDX 19 1 18 2 1 3 2 4 3 6 4 7 5 8 17 9 6 10 16 11 15 12 7 13
REMARK SMILES IDX 8 14 14 15 9 16 13 17 10 18 11 19 12 20 20 21 21 22 22 23
REMARK SMILES IDX 23 24 24 26 25 27 26 28 72 29 27 30 71 31 28 32 29 33 30 34
REMARK SMILES IDX 65 35 31 36 70 37 64 38 66 39 32 40 69 41 63 42 62 43 33 45
REMARK SMILES IDX 55 46 40 47 54 48 41 49 44 50 53 51 67 52 42 53 43 54 52 56
REMARK SMILES IDX 68 57 45 58 34 59 35 60 39 61 36 62 38 63 37 64 56 65 57 66
REMARK SMILES IDX 61 67 58 68 60 69 59 70 46 71 47 72 51 73 48 74 50 75 49 76
REMARK H PARENT 18 5 22 25 66 44 44 55
REMARK Flexibility Score: inf
ROOT
ATOM      1  C   UNL A   1      36.955  21.066  24.387  1.00  0.00     0.117 C 
ENDROOT
BRANCH   1   2
ATOM      2  N   UNL A   1      35.820  21.441  25.210  1.00  0.00    -0.356 N 
ATOM      3  O   UNL A   1      36.610  23.522  25.773  1.00  0.00    -0.275 OA
ATOM      4  C   UNL A   1      35.733  22.668  25.836  1.00  0.00     0.222 C 
ATOM      5  H   UNL A   1      35.084  20.798  25.325  1.00  0.00     0.163 HD
BRANCH   4   6
ATOM      6  C   UNL A   1      34.485  22.853  26.675  1.00  0.00     0.133 C 
BRANCH   6   7
ATOM      7  C   UNL A   1      33.573  23.949  26.103  1.00  0.00     0.147 C 
ATOM      8  C   UNL A   1      33.113  23.642  24.661  1.00  0.00     0.151 C 
ATOM      9  O   UNL A   1      32.451  24.239  26.964  1.00  0.00    -0.374 OA
ATOM     10  N   UNL A   1      32.031  22.664  24.637  1.00  0.00    -0.342 N 
ATOM     11  C   UNL A   1      31.436  23.221  26.942  1.00  0.00     0.182 C 
ATOM     12  C   UNL A   1      30.908  22.957  25.523  1.00  0.00     0.147 C 
BRANCH  10  13
ATOM     13  C   UNL A   1      32.221  21.431  24.107  1.00  0.00     0.205 A 
ATOM     14  N   UNL A   1      32.714  20.396  24.752  1.00  0.00    -0.203 NA
ATOM     15  S   UNL A   1      31.923  21.042  22.443  1.00  0.00     0.004 S 
ATOM     16  C   UNL A   1      32.823  19.324  23.872  1.00  0.00     0.147 A 
ATOM     17  N   UNL A   1      32.514  19.491  22.585  1.00  0.00    -0.174 NA
BRANCH  16  18
ATOM     18  C   UNL A   1      33.283  17.948  24.354  1.00  0.00     0.059 C 
ATOM     19  C   UNL A   1      33.903  16.979  23.367  1.00  0.00     0.012 C 
ATOM     20  C   UNL A   1      34.771  17.659  24.372  1.00  0.00     0.012 C 
ENDBRANCH  16  18
ENDBRANCH  10  13
ENDBRANCH   6   7
ENDBRANCH   4   6
ENDBRANCH   1   2
BRANCH   1  21
ATOM     21  C   UNL A   1      37.769  19.943  25.019  1.00  0.00     0.042 C 
BRANCH  21  22
ATOM     22  C   UNL A   1      39.009  20.412  25.772  1.00  0.00     0.118 C 
BRANCH  22  23
ATOM     23  N   UNL A   1      40.074  19.417  25.810  1.00  0.00    -0.352 N 
ATOM     24  C   UNL A   1      41.404  19.570  26.121  1.00  0.00     0.251 C 
ATOM     25  H   UNL A   1      39.799  18.501  25.578  1.00  0.00     0.163 HD
ATOM     26  O   UNL A   1      42.182  18.632  25.975  1.00  0.00    -0.269 OA
BRANCH  24  27
ATOM     27  C   UNL A   1      41.907  20.874  26.598  1.00  0.00     0.039 A 
ATOM     28  C   UNL A   1      42.401  21.792  25.666  1.00  0.00     0.014 A 
ATOM     29  C   UNL A   1      41.876  21.201  27.957  1.00  0.00     0.014 A 
ATOM     30  C   UNL A   1      42.782  23.069  26.084  1.00  0.00     0.010 A 
ATOM     31  C   UNL A   1      42.191  22.494  28.361  1.00  0.00     0.010 A 
ATOM     32  C   UNL A   1      42.634  23.446  27.428  1.00  0.00    -0.014 A 
BRANCH  32  33
ATOM     33  C   UNL A   1      42.907  24.831  27.887  1.00  0.00     0.031 A 
ATOM     34  C   UNL A   1      44.294  25.228  28.309  1.00  0.00     0.074 A 
ATOM     35  C   UNL A   1      41.888  25.703  28.023  1.00  0.00     0.049 A 
ATOM     36  N   UNL A   1      44.701  26.335  28.876  1.00  0.00    -0.248 NA
ATOM     37  C   UNL A   1      45.359  24.237  28.088  1.00  0.00     0.031 C 
ATOM     38  C   UNL A   1      40.491  25.440  27.674  1.00  0.00     0.029 A 
ATOM     39  N   UNL A   1      41.870  26.986  28.515  1.00  0.00    -0.354 N 
ATOM     40  C   UNL A   1      46.060  26.165  29.102  1.00  0.00     0.074 A 
ATOM     41  C   UNL A   1      46.403  24.835  28.646  1.00  0.00     0.031 C 
ATOM     42  C   UNL A   1      39.755  26.529  27.950  1.00  0.00     0.029 A 
ATOM     43  C   UNL A   1      40.616  27.548  28.541  1.00  0.00     0.049 A 
ATOM     44  H   UNL A   1      42.678  27.458  28.819  1.00  0.00     0.167 HD
ATOM     45  C   UNL A   1      46.947  27.041  29.633  1.00  0.00     0.031 A 
ATOM     46  C   UNL A   1      40.200  28.740  29.008  1.00  0.00     0.031 A 
ATOM     47  C   UNL A   1      46.611  28.367  30.076  1.00  0.00     0.049 A 
ATOM     48  C   UNL A   1      41.199  29.684  29.616  1.00  0.00     0.074 A 
ATOM     49  C   UNL A   1      47.451  29.345  30.580  1.00  0.00     0.029 A 
ATOM     50  N   UNL A   1      45.333  28.901  30.068  1.00  0.00    -0.354 N 
ATOM     51  N   UNL A   1      42.490  29.527  29.778  1.00  0.00    -0.248 NA
ATOM     52  C   UNL A   1      40.684  30.974  30.098  1.00  0.00     0.031 C 
ATOM     53  C   UNL A   1      46.673  30.455  30.921  1.00  0.00     0.029 A 
ATOM     54  C   UNL A   1      45.358  30.188  30.578  1.00  0.00     0.049 A 
ATOM     55  H   UNL A   1      44.526  28.436  29.748  1.00  0.00     0.167 HD
ATOM     56  C   UNL A   1      42.947  30.708  30.349  1.00  0.00     0.074 A 
ATOM     57  C   UNL A   1      41.797  31.575  30.500  1.00  0.00     0.031 C 
ATOM     58  C   UNL A   1      44.208  31.045  30.709  1.00  0.00     0.031 A 
BRANCH  45  59
ATOM     59  C   UNL A   1      48.372  26.582  29.775  1.00  0.00    -0.014 A 
ATOM     60  C   UNL A   1      49.315  26.814  28.762  1.00  0.00     0.009 A 
ATOM     61  C   UNL A   1      48.784  25.944  30.955  1.00  0.00     0.009 A 
ATOM     62  C   UNL A   1      50.635  26.383  28.913  1.00  0.00     0.001 A 
ATOM     63  C   UNL A   1      50.111  25.540  31.116  1.00  0.00     0.001 A 
ATOM     64  C   UNL A   1      51.032  25.751  30.091  1.00  0.00     0.000 A 
ENDBRANCH  45  59
BRANCH  46  65
ATOM     65  C   UNL A   1      38.765  29.114  28.917  1.00  0.00    -0.014 A 
ATOM     66  C   UNL A   1      38.241  29.634  27.723  1.00  0.00     0.009 A 
ATOM     67  C   UNL A   1      37.912  28.960  30.021  1.00  0.00     0.009 A 
ATOM     68  C   UNL A   1      36.900  30.015  27.644  1.00  0.00     0.001 A 
ATOM     69  C   UNL A   1      36.565  29.316  29.930  1.00  0.00     0.001 A 
ATOM     70  C   UNL A   1      36.062  29.851  28.747  1.00  0.00     0.000 A 
ENDBRANCH  46  65
BRANCH  58  71
ATOM     71  C   UNL A   1      44.428  32.428  31.254  1.00  0.00    -0.014 A 
ATOM     72  C   UNL A   1      44.674  33.517  30.405  1.00  0.00     0.009 A 
ATOM     73  C   UNL A   1      44.323  32.649  32.636  1.00  0.00     0.009 A 
ATOM     74  C   UNL A   1      44.832  34.800  30.935  1.00  0.00     0.001 A 
ATOM     75  C   UNL A   1      44.456  33.935  33.160  1.00  0.00     0.001 A 
ATOM     76  C   UNL A   1      44.717  35.009  32.310  1.00  0.00     0.000 A 
ENDBRANCH  58  71
ENDBRANCH  32  33
ENDBRANCH  24  27
ENDBRANCH  22  23
ENDBRANCH  21  22
ENDBRANCH   1  21
TORSDOF 13
ENDMDL
MODEL 2
REMARK VINA RESULT:     -10.3      5.104     10.015
REMARK SMILES O=C(C[C@H]1CN(c2nc(C3CC3)ns2)CCO1)NCCCNC(=O)c1ccc(-c2c3nc(c(-c4ccccc4)c4ccc([nH]4)c(-c4ccccc4)c4nc(c(-c5ccccc5)c5ccc2[nH]5)C=C4)C=C3)cc1
REMARK SMILES IDX 19 1 18 2 1 3 2 4 3 6 4 7 5 8 17 9 6 10 16 11 15 12 7 13
REMARK SMILES IDX 8 14 14 15 9 16 13 17 10 18 11 19 12 20 20 21 21 22 22 23
REMARK SMILES IDX 23 24 24 26 25 27 26 28 72 29 27 30 71 31 28 32 29 33 30 34
REMARK SMILES IDX 65 35 31 36 70 37 64 38 66 39 32 40 69 41 63 42 62 43 33 45
REMARK SMILES IDX 55 46 40 47 54 48 41 49 44 50 53 51 67 52 42 53 43 54 52 56
REMARK SMILES IDX 68 57 45 58 34 59 35 60 39 61 36 62 38 63 37 64 56 65 57 66
REMARK SMILES IDX 61 67 58 68 60 69 59 70 46 71 47 72 51 73 48 74 50 75 49 76
REMARK H PARENT 18 5 22 25 66 44 44 55
REMARK Flexibility Score: inf
ROOT
ATOM      1  C   UNL A   1      31.401  30.718  26.554  1.00  0.00     0.117 C 
ENDROOT
BRANCH   1   2
ATOM      2  N   UNL A   1      31.848  30.085  25.327  1.00  0.00    -0.356 N 
ATOM      3  O   UNL A   1      33.779  29.204  26.203  1.00  0.00    -0.275 OA
ATOM      4  C   UNL A   1      33.017  29.354  25.255  1.00  0.00     0.222 C 
ATOM      5  H   UNL A   1      31.298  30.179  24.517  1.00  0.00     0.163 HD
BRANCH   4   6
ATOM      6  C   UNL A   1      33.323  28.802  23.877  1.00  0.00     0.133 C 
BRANCH   6   7
ATOM      7  C   UNL A   1      33.438  27.270  23.891  1.00  0.00     0.147 C 
ATOM      8  C   UNL A   1      32.094  26.578  24.201  1.00  0.00     0.151 C 
ATOM      9  O   UNL A   1      34.033  26.751  22.683  1.00  0.00    -0.374 OA
ATOM     10  N   UNL A   1      31.221  26.548  23.034  1.00  0.00    -0.342 N 
ATOM     11  C   UNL A   1      33.149  26.788  21.550  1.00  0.00     0.182 C 
ATOM     12  C   UNL A   1      31.835  26.036  21.812  1.00  0.00     0.147 C 
BRANCH  10  13
ATOM     13  C   UNL A   1      30.067  27.257  23.011  1.00  0.00     0.205 A 
ATOM     14  N   UNL A   1      29.917  28.446  22.468  1.00  0.00    -0.203 NA
ATOM     15  S   UNL A   1      28.602  26.740  23.784  1.00  0.00     0.004 S 
ATOM     16  C   UNL A   1      28.618  28.888  22.694  1.00  0.00     0.147 A 
ATOM     17  N   UNL A   1      27.787  28.149  23.432  1.00  0.00    -0.174 NA
BRANCH  16  18
ATOM     18  C   UNL A   1      28.115  30.205  22.103  1.00  0.00     0.059 C 
ATOM     19  C   UNL A   1      27.624  31.300  23.027  1.00  0.00     0.012 C 
ATOM     20  C   UNL A   1      28.939  31.454  22.340  1.00  0.00     0.012 C 
ENDBRANCH  16  18
ENDBRANCH  10  13
ENDBRANCH   6   7
ENDBRANCH   4   6
ENDBRANCH   1   2
BRANCH   1  21
ATOM     21  C   UNL A   1      31.470  32.238  26.468  1.00  0.00     0.042 C 
BRANCH  21  22
ATOM     22  C   UNL A   1      32.628  32.860  27.241  1.00  0.00     0.118 C 
BRANCH  22  23
ATOM     23  N   UNL A   1      32.379  34.239  27.643  1.00  0.00    -0.352 N 
ATOM     24  C   UNL A   1      33.004  34.996  28.607  1.00  0.00     0.251 C 
ATOM     25  H   UNL A   1      31.658  34.695  27.153  1.00  0.00     0.163 HD
ATOM     26  O   UNL A   1      32.570  36.108  28.892  1.00  0.00    -0.269 OA
BRANCH  24  27
ATOM     27  C   UNL A   1      34.177  34.458  29.324  1.00  0.00     0.039 A 
ATOM     28  C   UNL A   1      33.990  33.855  30.572  1.00  0.00     0.014 A 
ATOM     29  C   UNL A   1      35.455  34.529  28.763  1.00  0.00     0.014 A 
ATOM     30  C   UNL A   1      35.069  33.246  31.217  1.00  0.00     0.010 A 
ATOM     31  C   UNL A   1      36.514  33.865  29.375  1.00  0.00     0.010 A 
ATOM     32  C   UNL A   1      36.329  33.205  30.602  1.00  0.00    -0.014 A 
BRANCH  32  33
ATOM     33  C   UNL A   1      37.467  32.459  31.196  1.00  0.00     0.031 A 
ATOM     34  C   UNL A   1      38.132  32.965  32.445  1.00  0.00     0.074 A 
ATOM     35  C   UNL A   1      37.968  31.383  30.555  1.00  0.00     0.049 A 
ATOM     36  N   UNL A   1      39.224  32.542  33.029  1.00  0.00    -0.248 NA
ATOM     37  C   UNL A   1      37.499  34.115  33.110  1.00  0.00     0.031 C 
ATOM     38  C   UNL A   1      37.434  30.802  29.322  1.00  0.00     0.029 A 
ATOM     39  N   UNL A   1      39.059  30.600  30.845  1.00  0.00    -0.354 N 
ATOM     40  C   UNL A   1      39.423  33.388  34.112  1.00  0.00     0.074 A 
ATOM     41  C   UNL A   1      38.361  34.370  34.084  1.00  0.00     0.031 C 
ATOM     42  C   UNL A   1      38.189  29.749  28.969  1.00  0.00     0.029 A 
ATOM     43  C   UNL A   1      39.288  29.611  29.919  1.00  0.00     0.049 A 
ATOM     44  H   UNL A   1      39.623  30.734  31.641  1.00  0.00     0.167 HD
ATOM     45  C   UNL A   1      40.397  33.345  35.053  1.00  0.00     0.031 A 
ATOM     46  C   UNL A   1      40.281  28.706  29.830  1.00  0.00     0.031 A 
ATOM     47  C   UNL A   1      41.447  32.363  35.090  1.00  0.00     0.049 A 
ATOM     48  C   UNL A   1      41.364  28.696  30.872  1.00  0.00     0.074 A 
ATOM     49  C   UNL A   1      42.448  32.208  36.032  1.00  0.00     0.029 A 
ATOM     50  N   UNL A   1      41.630  31.368  34.142  1.00  0.00    -0.354 N 
ATOM     51  N   UNL A   1      41.511  29.472  31.918  1.00  0.00    -0.248 NA
ATOM     52  C   UNL A   1      42.416  27.678  30.725  1.00  0.00     0.031 C 
ATOM     53  C   UNL A   1      43.266  31.148  35.630  1.00  0.00     0.029 A 
ATOM     54  C   UNL A   1      42.741  30.609  34.467  1.00  0.00     0.049 A 
ATOM     55  H   UNL A   1      41.056  31.223  33.355  1.00  0.00     0.167 HD
ATOM     56  C   UNL A   1      42.649  29.016  32.571  1.00  0.00     0.074 A 
ATOM     57  C   UNL A   1      43.151  27.893  31.808  1.00  0.00     0.031 C 
ATOM     58  C   UNL A   1      43.222  29.484  33.706  1.00  0.00     0.031 A 
BRANCH  45  59
ATOM     59  C   UNL A   1      40.377  34.406  36.118  1.00  0.00    -0.014 A 
ATOM     60  C   UNL A   1      41.061  35.620  35.949  1.00  0.00     0.009 A 
ATOM     61  C   UNL A   1      39.632  34.202  37.290  1.00  0.00     0.009 A 
ATOM     62  C   UNL A   1      41.029  36.594  36.949  1.00  0.00     0.001 A 
ATOM     63  C   UNL A   1      39.577  35.190  38.275  1.00  0.00     0.001 A 
ATOM     64  C   UNL A   1      40.283  36.380  38.108  1.00  0.00     0.000 A 
ENDBRANCH  45  59
BRANCH  46  65
ATOM     65  C   UNL A   1      40.299  27.729  28.712  1.00  0.00    -0.014 A 
ATOM     66  C   UNL A   1      40.932  28.047  27.500  1.00  0.00     0.009 A 
ATOM     67  C   UNL A   1      39.680  26.476  28.845  1.00  0.00     0.009 A 
ATOM     68  C   UNL A   1      40.923  27.141  26.437  1.00  0.00     0.001 A 
ATOM     69  C   UNL A   1      39.697  25.561  27.790  1.00  0.00     0.001 A 
ATOM     70  C   UNL A   1      40.310  25.897  26.584  1.00  0.00     0.000 A 
ENDBRANCH  46  65
BRANCH  58  71
ATOM     71  C   UNL A   1      44.427  28.754  34.227  1.00  0.00    -0.014 A 
ATOM     72  C   UNL A   1      44.299  27.656  35.089  1.00  0.00     0.009 A 
ATOM     73  C   UNL A   1      45.706  29.138  33.794  1.00  0.00     0.009 A 
ATOM     74  C   UNL A   1      45.434  26.968  35.525  1.00  0.00     0.001 A 
ATOM     75  C   UNL A   1      46.836  28.434  34.211  1.00  0.00     0.001 A 
ATOM     76  C   UNL A   1      46.700  27.353  35.081  1.00  0.00     0.000 A 
ENDBRANCH  58  71
ENDBRANCH  32  33
ENDBRANCH  24  27
ENDBRANCH  22  23
ENDBRANCH  21  22
ENDBRANCH   1  21
TORSDOF 13
ENDMDL
MODEL 3
REMARK VINA RESULT:     -10.2      1.668      6.858
REMARK SMILES O=C(C[C@H]1CN(c2nc(C3CC3)ns2)CCO1)NCCCNC(=O)c1ccc(-c2c3nc(c(-c4ccccc4)c4ccc([nH]4)c(-c4ccccc4)c4nc(c(-c5ccccc5)c5ccc2[nH]5)C=C4)C=C3)cc1
REMARK SMILES IDX 19 1 18 2 1 3 2 4 3 6 4 7 5 8 17 9 6 10 16 11 15 12 7 13
REMARK SMILES IDX 8 14 14 15 9 16 13 17 10 18 11 19 12 20 20 21 21 22 22 23
REMARK SMILES IDX 23 24 24 26 25 27 26 28 72 29 27 30 71 31 28 32 29 33 30 34
REMARK SMILES IDX 65 35 31 36 70 37 64 38 66 39 32 40 69 41 63 42 62 43 33 45
REMARK SMILES IDX 55 46 40 47 54 48 41 49 44 50 53 51 67 52 42 53 43 54 52 56
REMARK SMILES IDX 68 57 45 58 34 59 35 60 39 61 36 62 38 63 37 64 56 65 57 66
REMARK SMILES IDX 61 67 58 68 60 69 59 70 46 71 47 72 51 73 48 74 50 75 49 76
REMARK H PARENT 18 5 22 25 66 44 44 55
REMARK Flexibility Score: inf
ROOT
ATOM      1  C   UNL A   1      36.249  19.887  24.996  1.00  0.00     0.117 C 
ENDROOT
BRANCH   1   2
ATOM      2  N   UNL A   1      34.960  20.532  24.830  1.00  0.00    -0.356 N 
ATOM      3  O   UNL A   1      35.175  21.957  26.617  1.00  0.00    -0.275 OA
ATOM      4  C   UNL A   1      34.526  21.543  25.663  1.00  0.00     0.222 C 
ATOM      5  H   UNL A   1      34.372  20.238  24.097  1.00  0.00     0.163 HD
BRANCH   4   6
ATOM      6  C   UNL A   1      33.138  22.062  25.344  1.00  0.00     0.133 C 
BRANCH   6   7
ATOM      7  C   UNL A   1      32.981  22.383  23.851  1.00  0.00     0.147 C 
ATOM      8  C   UNL A   1      31.915  23.468  23.588  1.00  0.00     0.151 C 
ATOM      9  O   UNL A   1      34.238  22.713  23.221  1.00  0.00    -0.374 OA
ATOM     10  N   UNL A   1      32.426  24.805  23.868  1.00  0.00    -0.342 N 
ATOM     11  C   UNL A   1      34.723  24.021  23.569  1.00  0.00     0.182 C 
ATOM     12  C   UNL A   1      33.705  25.126  23.241  1.00  0.00     0.147 C 
BRANCH  10  13
ATOM     13  C   UNL A   1      31.930  25.537  24.895  1.00  0.00     0.205 A 
ATOM     14  N   UNL A   1      32.577  26.489  25.531  1.00  0.00    -0.203 NA
ATOM     15  S   UNL A   1      30.368  25.270  25.601  1.00  0.00     0.004 S 
ATOM     16  C   UNL A   1      31.778  26.970  26.563  1.00  0.00     0.147 A 
ATOM     17  N   UNL A   1      30.594  26.403  26.801  1.00  0.00    -0.174 NA
BRANCH  16  18
ATOM     18  C   UNL A   1      32.226  28.147  27.429  1.00  0.00     0.059 C 
ATOM     19  C   UNL A   1      33.290  29.094  26.913  1.00  0.00     0.012 C 
ATOM     20  C   UNL A   1      31.870  29.547  26.970  1.00  0.00     0.012 C 
ENDBRANCH  16  18
ENDBRANCH  10  13
ENDBRANCH   6   7
ENDBRANCH   4   6
ENDBRANCH   1   2
BRANCH   1  21
ATOM     21  C   UNL A   1      37.400  20.813  24.626  1.00  0.00     0.042 C 
BRANCH  21  22
ATOM     22  C   UNL A   1      38.482  20.930  25.694  1.00  0.00     0.118 C 
BRANCH  22  23
ATOM     23  N   UNL A   1      39.436  19.828  25.674  1.00  0.00    -0.352 N 
ATOM     24  C   UNL A   1      40.768  19.816  26.016  1.00  0.00     0.251 C 
ATOM     25  H   UNL A   1      39.073  18.964  25.371  1.00  0.00     0.163 HD
ATOM     26  O   UNL A   1      41.446  18.813  25.812  1.00  0.00    -0.269 OA
BRANCH  24  27
ATOM     27  C   UNL A   1      41.393  21.022  26.596  1.00  0.00     0.039 A 
ATOM     28  C   UNL A   1      41.961  21.969  25.738  1.00  0.00     0.014 A 
ATOM     29  C   UNL A   1      41.405  21.229  27.978  1.00  0.00     0.014 A 
ATOM     30  C   UNL A   1      42.461  23.165  26.259  1.00  0.00     0.010 A 
ATOM     31  C   UNL A   1      41.842  22.447  28.488  1.00  0.00     0.010 A 
ATOM     32  C   UNL A   1      42.362  23.434  27.633  1.00  0.00    -0.014 A 
BRANCH  32  33
ATOM     33  C   UNL A   1      42.765  24.743  28.206  1.00  0.00     0.031 A 
ATOM     34  C   UNL A   1      41.734  25.808  28.455  1.00  0.00     0.074 A 
ATOM     35  C   UNL A   1      44.071  25.010  28.408  1.00  0.00     0.049 A 
ATOM     36  N   UNL A   1      41.906  27.057  28.806  1.00  0.00    -0.248 NA
ATOM     37  C   UNL A   1      40.328  25.425  28.255  1.00  0.00     0.031 C 
ATOM     38  C   UNL A   1      45.175  24.075  28.185  1.00  0.00     0.029 A 
ATOM     39  N   UNL A   1      44.692  26.162  28.826  1.00  0.00    -0.354 N 
ATOM     40  C   UNL A   1      40.634  27.614  28.844  1.00  0.00     0.074 A 
ATOM     41  C   UNL A   1      39.705  26.579  28.445  1.00  0.00     0.031 C 
ATOM     42  C   UNL A   1      46.335  24.685  28.480  1.00  0.00     0.029 A 
ATOM     43  C   UNL A   1      46.062  26.066  28.864  1.00  0.00     0.049 A 
ATOM     44  H   UNL A   1      44.202  26.978  29.076  1.00  0.00     0.167 HD
ATOM     45  C   UNL A   1      40.270  28.873  29.191  1.00  0.00     0.031 A 
ATOM     46  C   UNL A   1      46.998  26.990  29.153  1.00  0.00     0.031 A 
ATOM     47  C   UNL A   1      41.191  29.899  29.600  1.00  0.00     0.049 A 
ATOM     48  C   UNL A   1      46.570  28.386  29.510  1.00  0.00     0.074 A 
ATOM     49  C   UNL A   1      40.912  31.188  30.019  1.00  0.00     0.029 A 
ATOM     50  N   UNL A   1      42.568  29.753  29.641  1.00  0.00    -0.354 N 
ATOM     51  N   UNL A   1      45.360  28.884  29.589  1.00  0.00    -0.248 NA
ATOM     52  C   UNL A   1      47.639  29.346  29.825  1.00  0.00     0.031 C 
ATOM     53  C   UNL A   1      42.124  31.838  30.269  1.00  0.00     0.029 A 
ATOM     54  C   UNL A   1      43.154  30.936  30.059  1.00  0.00     0.049 A 
ATOM     55  H   UNL A   1      43.058  28.931  29.408  1.00  0.00     0.167 HD
ATOM     56  C   UNL A   1      45.519  30.202  29.995  1.00  0.00     0.074 A 
ATOM     57  C   UNL A   1      46.941  30.426  30.152  1.00  0.00     0.031 C 
ATOM     58  C   UNL A   1      44.570  31.141  30.224  1.00  0.00     0.031 A 
BRANCH  45  59
ATOM     59  C   UNL A   1      38.807  29.211  29.131  1.00  0.00    -0.014 A 
ATOM     60  C   UNL A   1      37.977  29.055  30.251  1.00  0.00     0.009 A 
ATOM     61  C   UNL A   1      38.261  29.732  27.947  1.00  0.00     0.009 A 
ATOM     62  C   UNL A   1      36.620  29.377  30.176  1.00  0.00     0.001 A 
ATOM     63  C   UNL A   1      36.911  30.082  27.883  1.00  0.00     0.001 A 
ATOM     64  C   UNL A   1      36.090  29.895  28.994  1.00  0.00     0.000 A 
ENDBRANCH  45  59
BRANCH  46  65
ATOM     65  C   UNL A   1      48.438  26.625  29.122  1.00  0.00    -0.014 A 
ATOM     66  C   UNL A   1      49.057  26.079  30.257  1.00  0.00     0.009 A 
ATOM     67  C   UNL A   1      49.203  26.824  27.962  1.00  0.00     0.009 A 
ATOM     68  C   UNL A   1      50.418  25.764  30.239  1.00  0.00     0.001 A 
ATOM     69  C   UNL A   1      50.557  26.482  27.939  1.00  0.00     0.001 A 
ATOM     70  C   UNL A   1      51.165  25.961  29.079  1.00  0.00     0.000 A 
ENDBRANCH  46  65
BRANCH  58  71
ATOM     71  C   UNL A   1      45.027  32.483  30.720  1.00  0.00    -0.014 A 
ATOM     72  C   UNL A   1      45.342  33.522  29.832  1.00  0.00     0.009 A 
ATOM     73  C   UNL A   1      45.079  32.726  32.102  1.00  0.00     0.009 A 
ATOM     74  C   UNL A   1      45.722  34.775  30.321  1.00  0.00     0.001 A 
ATOM     75  C   UNL A   1      45.435  33.985  32.586  1.00  0.00     0.001 A 
ATOM     76  C   UNL A   1      45.762  35.006  31.696  1.00  0.00     0.000 A 
ENDBRANCH  58  71
ENDBRANCH  32  33
ENDBRANCH  24  27
ENDBRANCH  22  23
ENDBRANCH  21  22
ENDBRANCH   1  21
TORSDOF 13
ENDMDL
