MODEL 1
REMARK VINA RESULT:     -12.2      0.000      0.000
REMARK SMILES Cc1cccc(CC(=O)N2CCCC[C@@H]2C(=O)NCCCNC(=O)c2ccc(-c3c4nc(c(-c5ccccc5)c5ccc([nH]5)c(-c5ccccc5)c5nc(c(-c6ccccc6)c6ccc3[nH]6)C=C5)C=C4)cc2)c1
REMARK SMILES IDX 19 1 18 2 16 3 17 4 15 6 10 7 11 8 12 9 14 10 13 11 8 12
REMARK SMILES IDX 9 13 7 14 6 15 1 16 2 17 3 18 73 19 4 20 5 21 20 22 21 23
REMARK SMILES IDX 22 24 23 25 24 27 25 28 26 29 72 30 27 31 71 32 28 33 29 34
REMARK SMILES IDX 30 35 65 36 31 37 70 38 64 39 66 40 32 41 69 42 63 43 62 44
REMARK SMILES IDX 33 46 55 47 40 48 54 49 41 50 44 51 53 52 67 53 42 54 43 55
REMARK SMILES IDX 52 57 68 58 45 59 34 60 35 61 39 62 36 63 38 64 37 65 56 66
REMARK SMILES IDX 57 67 61 68 58 69 60 70 59 71 46 72 47 73 51 74 48 75 50 76
REMARK SMILES IDX 49 77
REMARK H PARENT 18 5 22 26 66 45 44 56
REMARK Flexibility Score: inf
ROOT
ATOM      1  C   UNL A   1      31.857  29.189  27.095  1.00  0.00     0.117 C 
ENDROOT
BRANCH   1   2
ATOM      2  N   UNL A   1      31.330  27.836  27.211  1.00  0.00    -0.354 N 
ATOM      3  C   UNL A   1      31.537  26.732  26.431  1.00  0.00     0.242 C 
ATOM      4  O   UNL A   1      30.821  25.746  26.646  1.00  0.00    -0.273 OA
ATOM      5  H   UNL A   1      30.727  27.693  27.975  1.00  0.00     0.163 HD
BRANCH   3   6
ATOM      6  C   UNL A   1      32.414  26.782  25.154  1.00  0.00     0.174 C 
ATOM      7  N   UNL A   1      31.708  26.627  23.857  1.00  0.00    -0.330 N 
ATOM      8  C   UNL A   1      32.430  25.986  22.762  1.00  0.00     0.120 C 
ATOM      9  C   UNL A   1      33.144  24.713  23.171  1.00  0.00     0.022 C 
ATOM     10  C   UNL A   1      33.431  25.640  25.457  1.00  0.00     0.035 C 
ATOM     11  C   UNL A   1      34.143  25.031  24.265  1.00  0.00     0.004 C 
BRANCH   7  12
ATOM     12  C   UNL A   1      30.573  27.338  23.459  1.00  0.00     0.227 C 
ATOM     13  O   UNL A   1      29.458  26.994  23.868  1.00  0.00    -0.275 OA
BRANCH  12  14
ATOM     14  C   UNL A   1      30.666  28.416  22.392  1.00  0.00     0.135 C 
BRANCH  14  15
ATOM     15  C   UNL A   1      29.861  29.666  22.598  1.00  0.00    -0.038 A 
ATOM     16  C   UNL A   1      27.926  32.127  20.427  1.00  0.00     0.044 C 
ATOM     17  C   UNL A   1      28.522  31.462  21.629  1.00  0.00    -0.051 A 
ATOM     18  C   UNL A   1      28.483  32.087  22.877  1.00  0.00     0.003 A 
ATOM     19  C   UNL A   1      29.215  30.254  21.499  1.00  0.00     0.007 A 
ATOM     20  C   UNL A   1      29.078  31.481  23.982  1.00  0.00     0.001 A 
ATOM     21  C   UNL A   1      29.735  30.259  23.857  1.00  0.00     0.004 A 
ENDBRANCH  14  15
ENDBRANCH  12  14
ENDBRANCH   7  12
ENDBRANCH   3   6
ENDBRANCH   1   2
BRANCH   1  22
ATOM     22  C   UNL A   1      33.238  29.317  27.716  1.00  0.00     0.042 C 
BRANCH  22  23
ATOM     23  C   UNL A   1      33.982  30.549  27.234  1.00  0.00     0.118 C 
BRANCH  23  24
ATOM     24  N   UNL A   1      34.511  31.387  28.302  1.00  0.00    -0.352 N 
ATOM     25  C   UNL A   1      35.606  31.181  29.133  1.00  0.00     0.251 C 
ATOM     26  H   UNL A   1      34.021  32.225  28.458  1.00  0.00     0.163 HD
ATOM     27  O   UNL A   1      35.868  31.981  30.002  1.00  0.00    -0.269 OA
BRANCH  25  28
ATOM     28  C   UNL A   1      36.534  30.050  28.855  1.00  0.00     0.039 A 
ATOM     29  C   UNL A   1      36.807  29.166  29.907  1.00  0.00     0.014 A 
ATOM     30  C   UNL A   1      37.270  29.973  27.676  1.00  0.00     0.014 A 
ATOM     31  C   UNL A   1      37.970  28.400  29.874  1.00  0.00     0.010 A 
ATOM     32  C   UNL A   1      38.479  29.310  27.686  1.00  0.00     0.010 A 
ATOM     33  C   UNL A   1      38.858  28.583  28.816  1.00  0.00    -0.014 A 
BRANCH  33  34
ATOM     34  C   UNL A   1      40.259  28.192  28.883  1.00  0.00     0.031 A 
ATOM     35  C   UNL A   1      40.719  26.919  28.312  1.00  0.00     0.074 A 
ATOM     36  C   UNL A   1      41.152  29.044  29.431  1.00  0.00     0.049 A 
ATOM     37  N   UNL A   1      41.733  26.253  28.753  1.00  0.00    -0.248 NA
ATOM     38  C   UNL A   1      40.016  26.262  27.220  1.00  0.00     0.031 C 
ATOM     39  C   UNL A   1      42.608  28.980  29.365  1.00  0.00     0.029 A 
ATOM     40  N   UNL A   1      40.896  30.053  30.357  1.00  0.00    -0.354 N 
ATOM     41  C   UNL A   1      41.993  25.261  27.836  1.00  0.00     0.074 A 
ATOM     42  C   UNL A   1      40.841  25.244  26.962  1.00  0.00     0.031 C 
ATOM     43  C   UNL A   1      43.113  29.683  30.392  1.00  0.00     0.029 A 
ATOM     44  C   UNL A   1      41.996  30.104  31.222  1.00  0.00     0.049 A 
ATOM     45  H   UNL A   1      40.095  30.622  30.395  1.00  0.00     0.167 HD
ATOM     46  C   UNL A   1      43.221  24.668  27.807  1.00  0.00     0.031 A 
ATOM     47  C   UNL A   1      41.893  29.949  32.572  1.00  0.00     0.031 A 
ATOM     48  C   UNL A   1      44.096  25.170  28.868  1.00  0.00     0.049 A 
ATOM     49  C   UNL A   1      42.704  28.774  33.066  1.00  0.00     0.074 A 
ATOM     50  C   UNL A   1      45.113  26.112  28.870  1.00  0.00     0.029 A 
ATOM     51  N   UNL A   1      43.778  24.932  30.202  1.00  0.00    -0.354 N 
ATOM     52  N   UNL A   1      43.178  27.844  32.282  1.00  0.00    -0.248 NA
ATOM     53  C   UNL A   1      42.975  28.506  34.476  1.00  0.00     0.031 C 
ATOM     54  C   UNL A   1      45.346  26.503  30.214  1.00  0.00     0.029 A 
ATOM     55  C   UNL A   1      44.497  25.776  31.030  1.00  0.00     0.049 A 
ATOM     56  H   UNL A   1      43.133  24.257  30.513  1.00  0.00     0.167 HD
ATOM     57  C   UNL A   1      43.770  26.871  33.035  1.00  0.00     0.074 A 
ATOM     58  C   UNL A   1      43.631  27.335  34.404  1.00  0.00     0.031 C 
ATOM     59  C   UNL A   1      44.299  25.748  32.473  1.00  0.00     0.031 A 
BRANCH  46  60
ATOM     60  C   UNL A   1      43.718  23.898  26.604  1.00  0.00    -0.014 A 
ATOM     61  C   UNL A   1      43.496  22.510  26.524  1.00  0.00     0.009 A 
ATOM     62  C   UNL A   1      44.466  24.458  25.555  1.00  0.00     0.009 A 
ATOM     63  C   UNL A   1      44.089  21.718  25.531  1.00  0.00     0.001 A 
ATOM     64  C   UNL A   1      45.102  23.669  24.586  1.00  0.00     0.001 A 
ATOM     65  C   UNL A   1      44.925  22.294  24.584  1.00  0.00     0.000 A 
ENDBRANCH  46  60
BRANCH  47  66
ATOM     66  C   UNL A   1      40.575  30.352  33.134  1.00  0.00    -0.014 A 
ATOM     67  C   UNL A   1      40.256  31.724  33.164  1.00  0.00     0.009 A 
ATOM     68  C   UNL A   1      39.537  29.417  33.260  1.00  0.00     0.009 A 
ATOM     69  C   UNL A   1      38.924  32.147  33.206  1.00  0.00     0.001 A 
ATOM     70  C   UNL A   1      38.205  29.847  33.309  1.00  0.00     0.001 A 
ATOM     71  C   UNL A   1      37.899  31.207  33.250  1.00  0.00     0.000 A 
ENDBRANCH  47  66
BRANCH  59  72
ATOM     72  C   UNL A   1      44.746  24.542  33.246  1.00  0.00    -0.014 A 
ATOM     73  C   UNL A   1      46.062  24.353  33.691  1.00  0.00     0.009 A 
ATOM     74  C   UNL A   1      43.779  23.613  33.681  1.00  0.00     0.009 A 
ATOM     75  C   UNL A   1      46.405  23.256  34.489  1.00  0.00     0.001 A 
ATOM     76  C   UNL A   1      44.110  22.541  34.512  1.00  0.00     0.001 A 
ATOM     77  C   UNL A   1      45.429  22.356  34.906  1.00  0.00     0.000 A 
ENDBRANCH  59  72
ENDBRANCH  33  34
ENDBRANCH  25  28
ENDBRANCH  23  24
ENDBRANCH  22  23
ENDBRANCH   1  22
TORSDOF 13
ENDMDL
MODEL 2
REMARK VINA RESULT:     -12.1      3.628      8.360
REMARK SMILES Cc1cccc(CC(=O)N2CCCC[C@@H]2C(=O)NCCCNC(=O)c2ccc(-c3c4nc(c(-c5ccccc5)c5ccc([nH]5)c(-c5ccccc5)c5nc(c(-c6ccccc6)c6ccc3[nH]6)C=C5)C=C4)cc2)c1
REMARK SMILES IDX 19 1 18 2 16 3 17 4 15 6 10 7 11 8 12 9 14 10 13 11 8 12
REMARK SMILES IDX 9 13 7 14 6 15 1 16 2 17 3 18 73 19 4 20 5 21 20 22 21 23
REMARK SMILES IDX 22 24 23 25 24 27 25 28 26 29 72 30 27 31 71 32 28 33 29 34
REMARK SMILES IDX 30 35 65 36 31 37 70 38 64 39 66 40 32 41 69 42 63 43 62 44
REMARK SMILES IDX 33 46 55 47 40 48 54 49 41 50 44 51 53 52 67 53 42 54 43 55
REMARK SMILES IDX 52 57 68 58 45 59 34 60 35 61 39 62 36 63 38 64 37 65 56 66
REMARK SMILES IDX 57 67 61 68 58 69 60 70 59 71 46 72 47 73 51 74 48 75 50 76
REMARK SMILES IDX 49 77
REMARK H PARENT 18 5 22 26 66 45 44 56
REMARK Flexibility Score: inf
ROOT
ATOM      1  C   UNL A   1      37.674  22.592  25.594  1.00  0.00     0.117 C 
ENDROOT
BRANCH   1   2
ATOM      2  N   UNL A   1      36.553  22.367  26.495  1.00  0.00    -0.354 N 
ATOM      3  C   UNL A   1      35.292  21.901  26.248  1.00  0.00     0.242 C 
ATOM      4  O   UNL A   1      34.469  21.978  27.168  1.00  0.00    -0.273 OA
ATOM      5  H   UNL A   1      36.732  22.587  27.438  1.00  0.00     0.163 HD
BRANCH   3   6
ATOM      6  C   UNL A   1      34.811  21.554  24.815  1.00  0.00     0.174 C 
ATOM      7  N   UNL A   1      34.028  22.597  24.107  1.00  0.00    -0.330 N 
ATOM      8  C   UNL A   1      33.009  22.154  23.158  1.00  0.00     0.120 C 
ATOM      9  C   UNL A   1      32.122  21.049  23.695  1.00  0.00     0.022 C 
ATOM     10  C   UNL A   1      34.013  20.243  25.087  1.00  0.00     0.035 C 
ATOM     11  C   UNL A   1      32.978  19.852  24.052  1.00  0.00     0.004 C 
BRANCH   7  12
ATOM     12  C   UNL A   1      34.393  23.938  23.975  1.00  0.00     0.227 C 
ATOM     13  O   UNL A   1      34.714  24.382  22.865  1.00  0.00    -0.275 OA
BRANCH  12  14
ATOM     14  C   UNL A   1      34.575  24.819  25.200  1.00  0.00     0.135 C 
BRANCH  14  15
ATOM     15  C   UNL A   1      33.407  25.658  25.631  1.00  0.00    -0.038 A 
ATOM     16  C   UNL A   1      32.862  29.096  27.179  1.00  0.00     0.044 C 
ATOM     17  C   UNL A   1      32.586  27.748  26.587  1.00  0.00    -0.051 A 
ATOM     18  C   UNL A   1      31.296  27.217  26.605  1.00  0.00     0.003 A 
ATOM     19  C   UNL A   1      33.635  26.961  26.101  1.00  0.00     0.007 A 
ATOM     20  C   UNL A   1      31.056  25.943  26.092  1.00  0.00     0.001 A 
ATOM     21  C   UNL A   1      32.097  25.177  25.573  1.00  0.00     0.004 A 
ENDBRANCH  14  15
ENDBRANCH  12  14
ENDBRANCH   7  12
ENDBRANCH   3   6
ENDBRANCH   1   2
BRANCH   1  22
ATOM     22  C   UNL A   1      38.549  21.357  25.457  1.00  0.00     0.042 C 
BRANCH  22  23
ATOM     23  C   UNL A   1      39.886  21.508  26.161  1.00  0.00     0.118 C 
BRANCH  23  24
ATOM     24  N   UNL A   1      40.897  20.545  25.743  1.00  0.00    -0.352 N 
ATOM     25  C   UNL A   1      42.278  20.590  25.887  1.00  0.00     0.251 C 
ATOM     26  H   UNL A   1      40.549  19.743  25.292  1.00  0.00     0.163 HD
ATOM     27  O   UNL A   1      42.965  19.703  25.432  1.00  0.00    -0.269 OA
BRANCH  25  28
ATOM     28  C   UNL A   1      42.893  21.655  26.727  1.00  0.00     0.039 A 
ATOM     29  C   UNL A   1      42.660  21.603  28.107  1.00  0.00     0.014 A 
ATOM     30  C   UNL A   1      43.499  22.775  26.168  1.00  0.00     0.014 A 
ATOM     31  C   UNL A   1      42.791  22.761  28.869  1.00  0.00     0.010 A 
ATOM     32  C   UNL A   1      43.519  23.952  26.887  1.00  0.00     0.010 A 
ATOM     33  C   UNL A   1      43.096  23.955  28.217  1.00  0.00    -0.014 A 
BRANCH  33  34
ATOM     34  C   UNL A   1      42.834  25.264  28.801  1.00  0.00     0.031 A 
ATOM     35  C   UNL A   1      41.666  26.055  28.393  1.00  0.00     0.074 A 
ATOM     36  C   UNL A   1      43.652  25.724  29.772  1.00  0.00     0.049 A 
ATOM     37  N   UNL A   1      41.623  27.346  28.414  1.00  0.00    -0.248 NA
ATOM     38  C   UNL A   1      40.459  25.438  27.862  1.00  0.00     0.031 C 
ATOM     39  C   UNL A   1      43.432  26.857  30.664  1.00  0.00     0.029 A 
ATOM     40  N   UNL A   1      44.976  25.358  30.003  1.00  0.00    -0.354 N 
ATOM     41  C   UNL A   1      40.315  27.709  28.195  1.00  0.00     0.074 A 
ATOM     42  C   UNL A   1      39.655  26.499  27.756  1.00  0.00     0.031 C 
ATOM     43  C   UNL A   1      44.624  27.274  31.125  1.00  0.00     0.029 A 
ATOM     44  C   UNL A   1      45.649  26.507  30.436  1.00  0.00     0.049 A 
ATOM     45  H   UNL A   1      45.364  24.463  29.885  1.00  0.00     0.167 HD
ATOM     46  C   UNL A   1      39.885  28.950  28.561  1.00  0.00     0.031 A 
ATOM     47  C   UNL A   1      46.745  27.014  29.804  1.00  0.00     0.031 A 
ATOM     48  C   UNL A   1      40.972  29.768  29.101  1.00  0.00     0.049 A 
ATOM     49  C   UNL A   1      46.513  28.427  29.323  1.00  0.00     0.074 A 
ATOM     50  C   UNL A   1      41.353  30.074  30.399  1.00  0.00     0.029 A 
ATOM     51  N   UNL A   1      42.032  30.146  28.282  1.00  0.00    -0.354 N 
ATOM     52  N   UNL A   1      45.331  28.974  29.236  1.00  0.00    -0.248 NA
ATOM     53  C   UNL A   1      47.571  29.304  28.827  1.00  0.00     0.031 C 
ATOM     54  C   UNL A   1      42.685  30.559  30.363  1.00  0.00     0.029 A 
ATOM     55  C   UNL A   1      43.103  30.581  29.043  1.00  0.00     0.049 A 
ATOM     56  H   UNL A   1      42.020  30.109  27.298  1.00  0.00     0.167 HD
ATOM     57  C   UNL A   1      45.442  30.213  28.672  1.00  0.00     0.074 A 
ATOM     58  C   UNL A   1      46.866  30.382  28.444  1.00  0.00     0.031 C 
ATOM     59  C   UNL A   1      44.350  30.985  28.409  1.00  0.00     0.031 A 
BRANCH  46  60
ATOM     60  C   UNL A   1      38.419  29.276  28.743  1.00  0.00    -0.014 A 
ATOM     61  C   UNL A   1      37.689  29.827  27.673  1.00  0.00     0.009 A 
ATOM     62  C   UNL A   1      37.717  29.133  29.951  1.00  0.00     0.009 A 
ATOM     63  C   UNL A   1      36.386  30.317  27.836  1.00  0.00     0.001 A 
ATOM     64  C   UNL A   1      36.432  29.664  30.137  1.00  0.00     0.001 A 
ATOM     65  C   UNL A   1      35.772  30.271  29.080  1.00  0.00     0.000 A 
ENDBRANCH  46  60
BRANCH  47  66
ATOM     66  C   UNL A   1      47.547  26.001  29.067  1.00  0.00    -0.014 A 
ATOM     67  C   UNL A   1      47.214  25.735  27.723  1.00  0.00     0.009 A 
ATOM     68  C   UNL A   1      48.813  25.615  29.533  1.00  0.00     0.009 A 
ATOM     69  C   UNL A   1      48.159  25.201  26.844  1.00  0.00     0.001 A 
ATOM     70  C   UNL A   1      49.754  25.073  28.649  1.00  0.00     0.001 A 
ATOM     71  C   UNL A   1      49.438  24.897  27.301  1.00  0.00     0.000 A 
ENDBRANCH  47  66
BRANCH  59  72
ATOM     72  C   UNL A   1      44.375  32.237  27.583  1.00  0.00    -0.014 A 
ATOM     73  C   UNL A   1      44.167  32.252  26.196  1.00  0.00     0.009 A 
ATOM     74  C   UNL A   1      44.469  33.483  28.234  1.00  0.00     0.009 A 
ATOM     75  C   UNL A   1      44.107  33.458  25.487  1.00  0.00     0.001 A 
ATOM     76  C   UNL A   1      44.367  34.688  27.536  1.00  0.00     0.001 A 
ATOM     77  C   UNL A   1      44.199  34.674  26.157  1.00  0.00     0.000 A 
ENDBRANCH  59  72
ENDBRANCH  33  34
ENDBRANCH  25  28
ENDBRANCH  23  24
ENDBRANCH  22  23
ENDBRANCH   1  22
TORSDOF 13
ENDMDL
MODEL 3
REMARK VINA RESULT:     -12.0      1.726      3.732
REMARK SMILES Cc1cccc(CC(=O)N2CCCC[C@@H]2C(=O)NCCCNC(=O)c2ccc(-c3c4nc(c(-c5ccccc5)c5ccc([nH]5)c(-c5ccccc5)c5nc(c(-c6ccccc6)c6ccc3[nH]6)C=C5)C=C4)cc2)c1
REMARK SMILES IDX 19 1 18 2 16 3 17 4 15 6 10 7 11 8 12 9 14 10 13 11 8 12
REMARK SMILES IDX 9 13 7 14 6 15 1 16 2 17 3 18 73 19 4 20 5 21 20 22 21 23
REMARK SMILES IDX 22 24 23 25 24 27 25 28 26 29 72 30 27 31 71 32 28 33 29 34
REMARK SMILES IDX 30 35 65 36 31 37 70 38 64 39 66 40 32 41 69 42 63 43 62 44
REMARK SMILES IDX 33 46 55 47 40 48 54 49 41 50 44 51 53 52 67 53 42 54 43 55
REMARK SMILES IDX 52 57 68 58 45 59 34 60 35 61 39 62 36 63 38 64 37 65 56 66
REMARK SMILES IDX 57 67 61 68 58 69 60 70 59 71 46 72 47 73 51 74 48 75 50 76
REMARK SMILES IDX 49 77
REMARK H PARENT 18 5 22 26 66 45 44 56
REMARK Flexibility Score: inf
ROOT
ATOM      1  C   UNL A   1      32.742  30.370  26.771  1.00  0.00     0.117 C 
ENDROOT
BRANCH   1   2
ATOM      2  N   UNL A   1      33.192  30.047  25.425  1.00  0.00    -0.354 N 
ATOM      3  C   UNL A   1      32.586  29.328  24.432  1.00  0.00     0.242 C 
ATOM      4  O   UNL A   1      33.268  29.048  23.439  1.00  0.00    -0.273 OA
ATOM      5  H   UNL A   1      34.079  30.404  25.190  1.00  0.00     0.163 HD
BRANCH   3   6
ATOM      6  C   UNL A   1      31.210  28.644  24.638  1.00  0.00     0.174 C 
ATOM      7  N   UNL A   1      31.231  27.251  25.152  1.00  0.00    -0.330 N 
ATOM      8  C   UNL A   1      30.160  26.354  24.729  1.00  0.00     0.120 C 
ATOM      9  C   UNL A   1      29.885  26.401  23.239  1.00  0.00     0.022 C 
ATOM     10  C   UNL A   1      30.604  28.777  23.208  1.00  0.00     0.035 C 
ATOM     11  C   UNL A   1      29.493  27.811  22.849  1.00  0.00     0.004 C 
BRANCH   7  12
ATOM     12  C   UNL A   1      31.947  26.808  26.267  1.00  0.00     0.227 C 
ATOM     13  O   UNL A   1      31.467  26.944  27.399  1.00  0.00    -0.275 OA
BRANCH  12  14
ATOM     14  C   UNL A   1      33.380  26.323  26.128  1.00  0.00     0.135 C 
BRANCH  14  15
ATOM     15  C   UNL A   1      33.593  24.901  25.698  1.00  0.00    -0.038 A 
ATOM     16  C   UNL A   1      36.072  22.982  23.533  1.00  0.00     0.044 C 
ATOM     17  C   UNL A   1      34.917  23.283  24.438  1.00  0.00    -0.051 A 
ATOM     18  C   UNL A   1      33.966  22.303  24.723  1.00  0.00     0.003 A 
ATOM     19  C   UNL A   1      34.722  24.579  24.927  1.00  0.00     0.007 A 
ATOM     20  C   UNL A   1      32.870  22.605  25.531  1.00  0.00     0.001 A 
ATOM     21  C   UNL A   1      32.698  23.887  26.048  1.00  0.00     0.004 A 
ENDBRANCH  14  15
ENDBRANCH  12  14
ENDBRANCH   7  12
ENDBRANCH   3   6
ENDBRANCH   1   2
BRANCH   1  22
ATOM     22  C   UNL A   1      33.881  30.331  27.777  1.00  0.00     0.042 C 
BRANCH  22  23
ATOM     23  C   UNL A   1      35.068  31.173  27.346  1.00  0.00     0.118 C 
BRANCH  23  24
ATOM     24  N   UNL A   1      35.797  31.790  28.446  1.00  0.00    -0.352 N 
ATOM     25  C   UNL A   1      36.836  31.283  29.218  1.00  0.00     0.251 C 
ATOM     26  H   UNL A   1      35.513  32.703  28.677  1.00  0.00     0.163 HD
ATOM     27  O   UNL A   1      37.292  31.937  30.128  1.00  0.00    -0.269 OA
BRANCH  25  28
ATOM     28  C   UNL A   1      37.477  29.996  28.828  1.00  0.00     0.039 A 
ATOM     29  C   UNL A   1      37.543  28.989  29.799  1.00  0.00     0.014 A 
ATOM     30  C   UNL A   1      38.171  29.852  27.631  1.00  0.00     0.014 A 
ATOM     31  C   UNL A   1      38.497  27.982  29.678  1.00  0.00     0.010 A 
ATOM     32  C   UNL A   1      39.195  28.931  27.560  1.00  0.00     0.010 A 
ATOM     33  C   UNL A   1      39.400  28.044  28.617  1.00  0.00    -0.014 A 
BRANCH  33  34
ATOM     34  C   UNL A   1      40.674  27.338  28.621  1.00  0.00     0.031 A 
ATOM     35  C   UNL A   1      40.738  25.891  28.373  1.00  0.00     0.074 A 
ATOM     36  C   UNL A   1      41.812  28.041  28.801  1.00  0.00     0.049 A 
ATOM     37  N   UNL A   1      41.650  25.114  28.856  1.00  0.00    -0.248 NA
ATOM     38  C   UNL A   1      39.723  25.192  27.599  1.00  0.00     0.031 C 
ATOM     39  C   UNL A   1      43.184  27.594  28.580  1.00  0.00     0.029 A 
ATOM     40  N   UNL A   1      41.952  29.272  29.435  1.00  0.00    -0.354 N 
ATOM     41  C   UNL A   1      41.519  23.900  28.225  1.00  0.00     0.074 A 
ATOM     42  C   UNL A   1      40.251  23.967  27.534  1.00  0.00     0.031 C 
ATOM     43  C   UNL A   1      44.007  28.371  29.305  1.00  0.00     0.029 A 
ATOM     44  C   UNL A   1      43.177  29.248  30.113  1.00  0.00     0.049 A 
ATOM     45  H   UNL A   1      41.312  30.018  29.411  1.00  0.00     0.167 HD
ATOM     46  C   UNL A   1      42.566  23.025  28.214  1.00  0.00     0.031 A 
ATOM     47  C   UNL A   1      43.292  29.452  31.456  1.00  0.00     0.031 A 
ATOM     48  C   UNL A   1      43.707  23.527  28.981  1.00  0.00     0.049 A 
ATOM     49  C   UNL A   1      43.910  28.264  32.154  1.00  0.00     0.074 A 
ATOM     50  C   UNL A   1      44.885  24.151  28.601  1.00  0.00     0.029 A 
ATOM     51  N   UNL A   1      43.595  23.705  30.357  1.00  0.00    -0.354 N 
ATOM     52  N   UNL A   1      44.022  27.084  31.607  1.00  0.00    -0.248 NA
ATOM     53  C   UNL A   1      44.371  28.282  33.540  1.00  0.00     0.031 C 
ATOM     54  C   UNL A   1      45.438  24.781  29.745  1.00  0.00     0.029 A 
ATOM     55  C   UNL A   1      44.617  24.512  30.826  1.00  0.00     0.049 A 
ATOM     56  H   UNL A   1      42.889  23.310  30.918  1.00  0.00     0.167 HD
ATOM     57  C   UNL A   1      44.521  26.203  32.523  1.00  0.00     0.074 A 
ATOM     58  C   UNL A   1      44.737  27.001  33.716  1.00  0.00     0.031 C 
ATOM     59  C   UNL A   1      44.686  24.881  32.234  1.00  0.00     0.031 A 
BRANCH  46  60
ATOM     60  C   UNL A   1      42.658  21.888  27.220  1.00  0.00    -0.014 A 
ATOM     61  C   UNL A   1      41.866  20.739  27.399  1.00  0.00     0.009 A 
ATOM     62  C   UNL A   1      43.548  21.853  26.132  1.00  0.00     0.009 A 
ATOM     63  C   UNL A   1      42.040  19.586  26.621  1.00  0.00     0.001 A 
ATOM     64  C   UNL A   1      43.764  20.689  25.381  1.00  0.00     0.001 A 
ATOM     65  C   UNL A   1      43.019  19.548  25.636  1.00  0.00     0.000 A 
ENDBRANCH  46  60
BRANCH  47  66
ATOM     66  C   UNL A   1      42.216  30.299  32.038  1.00  0.00    -0.014 A 
ATOM     67  C   UNL A   1      42.299  31.695  31.862  1.00  0.00     0.009 A 
ATOM     68  C   UNL A   1      40.981  29.740  32.396  1.00  0.00     0.009 A 
ATOM     69  C   UNL A   1      41.154  32.494  31.932  1.00  0.00     0.001 A 
ATOM     70  C   UNL A   1      39.838  30.546  32.472  1.00  0.00     0.001 A 
ATOM     71  C   UNL A   1      39.919  31.914  32.208  1.00  0.00     0.000 A 
ENDBRANCH  47  66
BRANCH  59  72
ATOM     72  C   UNL A   1      44.998  23.823  33.251  1.00  0.00    -0.014 A 
ATOM     73  C   UNL A   1      46.281  23.610  33.775  1.00  0.00     0.009 A 
ATOM     74  C   UNL A   1      43.937  23.094  33.826  1.00  0.00     0.009 A 
ATOM     75  C   UNL A   1      46.501  22.672  34.791  1.00  0.00     0.001 A 
ATOM     76  C   UNL A   1      44.147  22.189  34.868  1.00  0.00     0.001 A 
ATOM     77  C   UNL A   1      45.434  21.969  35.342  1.00  0.00     0.000 A 
ENDBRANCH  59  72
ENDBRANCH  33  34
ENDBRANCH  25  28
ENDBRANCH  23  24
ENDBRANCH  22  23
ENDBRANCH   1  22
TORSDOF 13
ENDMDL
