MODEL 1
REMARK VINA RESULT:     -13.0      0.000      0.000
REMARK SMILES Cc1ccc(S(=O)(=O)n2cc(C(=O)C(=O)NCC(=O)NCC(=O)NCCCNC(=O)c3ccc(-c4c5nc(c(-c6ccccc6)c6ccc([nH]6)c(-c6ccccc6)c6nc(c(-c7ccccc7)c7ccc4[nH]7)C=C6)C=C5)cc3)c3ccccc32)cc1
REMARK SMILES IDX 22 1 23 2 24 3 21 5 20 6 18 7 19 8 17 10 16 11 14 12 15 13
REMARK SMILES IDX 12 15 13 16 11 17 9 18 10 19 84 20 79 21 83 22 80 23 82 24
REMARK SMILES IDX 81 25 6 26 7 27 8 28 5 29 1 30 2 31 3 32 86 33 4 34 85 35
REMARK SMILES IDX 25 36 26 37 27 38 28 39 29 40 30 42 31 43 32 44 78 45 33 46
REMARK SMILES IDX 77 47 34 48 35 49 36 50 71 51 37 52 76 53 70 54 72 55 38 56
REMARK SMILES IDX 75 57 69 58 68 59 39 61 61 62 46 63 60 64 47 65 50 66 59 67
REMARK SMILES IDX 73 68 48 69 49 70 58 72 74 73 51 74 40 75 41 76 45 77 42 78
REMARK SMILES IDX 44 79 43 80 62 81 63 82 67 83 64 84 66 85 65 86 52 87 53 88
REMARK SMILES IDX 57 89 54 90 56 91 55 92
REMARK H PARENT 24 4 20 9 16 14 28 41 72 60 50 71
REMARK Flexibility Score: inf
ROOT
ATOM      1  C   UNL A   1      36.543  23.290  24.125  1.00  0.00     0.239 C 
ATOM      2  O   UNL A   1      36.389  23.072  22.921  1.00  0.00    -0.273 OA
ATOM      3  N   UNL A   1      37.763  23.004  24.681  1.00  0.00    -0.355 N 
ATOM      4  H   UNL A   1      38.372  22.449  24.142  1.00  0.00     0.163 HD
ENDROOT
BRANCH   1   5
ATOM      5  C   UNL A   1      35.445  23.983  24.960  1.00  0.00     0.216 C 
BRANCH   5   6
ATOM      6  N   UNL A   1      35.120  23.257  26.178  1.00  0.00    -0.346 N 
ATOM      7  C   UNL A   1      34.849  21.948  26.424  1.00  0.00     0.239 C 
ATOM      8  O   UNL A   1      34.519  21.653  27.577  1.00  0.00    -0.273 OA
ATOM      9  H   UNL A   1      35.092  23.825  26.982  1.00  0.00     0.164 HD
BRANCH   7  10
ATOM     10  C   UNL A   1      34.955  20.854  25.349  1.00  0.00     0.216 C 
BRANCH  10  11
ATOM     11  N   UNL A   1      33.966  19.780  25.425  1.00  0.00    -0.340 N 
ATOM     12  C   UNL A   1      32.745  19.612  24.796  1.00  0.00     0.292 C 
ATOM     13  O   UNL A   1      32.037  18.664  25.119  1.00  0.00    -0.265 OA
ATOM     14  H   UNL A   1      34.212  19.045  26.032  1.00  0.00     0.164 HD
BRANCH  12  15
ATOM     15  C   UNL A   1      32.268  20.617  23.731  1.00  0.00     0.252 C 
ATOM     16  O   UNL A   1      32.000  20.168  22.620  1.00  0.00    -0.283 OA
BRANCH  15  17
ATOM     17  C   UNL A   1      32.125  22.056  23.979  1.00  0.00     0.054 A 
ATOM     18  N   UNL A   1      31.671  24.065  24.845  1.00  0.00    -0.240 N 
ATOM     19  C   UNL A   1      31.614  22.711  25.087  1.00  0.00     0.117 A 
ATOM     20  C   UNL A   1      32.213  24.330  23.605  1.00  0.00     0.065 A 
ATOM     21  C   UNL A   1      32.508  23.083  23.044  1.00  0.00     0.012 A 
ATOM     22  C   UNL A   1      32.445  25.528  22.901  1.00  0.00     0.028 A 
ATOM     23  C   UNL A   1      33.063  23.042  21.745  1.00  0.00     0.011 A 
ATOM     24  C   UNL A   1      32.967  25.446  21.606  1.00  0.00     0.002 A 
ATOM     25  C   UNL A   1      33.277  24.222  21.035  1.00  0.00     0.001 A 
BRANCH  18  26
ATOM     26  S   UNL A   1      31.042  25.252  25.897  1.00  0.00     0.268 S 
ATOM     27  O   UNL A   1      32.190  25.802  26.580  1.00  0.00    -0.201 OA
ATOM     28  O   UNL A   1      29.955  24.601  26.615  1.00  0.00    -0.201 OA
BRANCH  26  29
ATOM     29  C   UNL A   1      30.326  26.540  24.907  1.00  0.00     0.088 A 
ATOM     30  C   UNL A   1      28.919  29.706  22.353  1.00  0.00     0.044 C 
ATOM     31  C   UNL A   1      29.396  28.605  23.256  1.00  0.00    -0.051 A 
ATOM     32  C   UNL A   1      30.567  28.773  24.003  1.00  0.00     0.005 A 
ATOM     33  C   UNL A   1      28.682  27.406  23.365  1.00  0.00     0.005 A 
ATOM     34  C   UNL A   1      31.037  27.743  24.822  1.00  0.00     0.022 A 
ATOM     35  C   UNL A   1      29.136  26.378  24.196  1.00  0.00     0.022 A 
ENDBRANCH  26  29
ENDBRANCH  18  26
ENDBRANCH  15  17
ENDBRANCH  12  15
ENDBRANCH  10  11
ENDBRANCH   7  10
ENDBRANCH   5   6
ENDBRANCH   1   5
BRANCH   3  36
ATOM     36  C   UNL A   1      38.253  23.429  25.971  1.00  0.00     0.117 C 
BRANCH  36  37
ATOM     37  C   UNL A   1      39.241  22.458  26.596  1.00  0.00     0.042 C 
BRANCH  37  38
ATOM     38  C   UNL A   1      40.650  22.712  26.119  1.00  0.00     0.118 C 
BRANCH  38  39
ATOM     39  N   UNL A   1      41.388  21.504  25.769  1.00  0.00    -0.352 N 
ATOM     40  C   UNL A   1      42.717  21.180  25.981  1.00  0.00     0.251 C 
ATOM     41  H   UNL A   1      40.859  20.812  25.312  1.00  0.00     0.163 HD
ATOM     42  O   UNL A   1      43.163  20.149  25.484  1.00  0.00    -0.269 OA
BRANCH  40  43
ATOM     43  C   UNL A   1      43.538  21.938  26.967  1.00  0.00     0.039 A 
ATOM     44  C   UNL A   1      43.033  21.960  28.276  1.00  0.00     0.014 A 
ATOM     45  C   UNL A   1      44.361  22.962  26.534  1.00  0.00     0.014 A 
ATOM     46  C   UNL A   1      43.017  23.161  28.965  1.00  0.00     0.010 A 
ATOM     47  C   UNL A   1      44.147  24.193  27.083  1.00  0.00     0.010 A 
ATOM     48  C   UNL A   1      43.431  24.287  28.273  1.00  0.00    -0.014 A 
BRANCH  48  49
ATOM     49  C   UNL A   1      43.295  25.645  28.732  1.00  0.00     0.031 A 
ATOM     50  C   UNL A   1      42.077  26.337  28.294  1.00  0.00     0.074 A 
ATOM     51  C   UNL A   1      44.136  26.064  29.703  1.00  0.00     0.049 A 
ATOM     52  N   UNL A   1      41.910  27.603  28.358  1.00  0.00    -0.248 NA
ATOM     53  C   UNL A   1      40.928  25.642  27.700  1.00  0.00     0.031 C 
ATOM     54  C   UNL A   1      44.015  27.203  30.604  1.00  0.00     0.029 A 
ATOM     55  N   UNL A   1      45.433  25.601  29.922  1.00  0.00    -0.354 N 
ATOM     56  C   UNL A   1      40.570  27.840  28.162  1.00  0.00     0.074 A 
ATOM     57  C   UNL A   1      40.017  26.615  27.651  1.00  0.00     0.031 C 
ATOM     58  C   UNL A   1      45.242  27.539  31.046  1.00  0.00     0.029 A 
ATOM     59  C   UNL A   1      46.198  26.711  30.328  1.00  0.00     0.049 A 
ATOM     60  H   UNL A   1      45.752  24.676  29.814  1.00  0.00     0.167 HD
ATOM     61  C   UNL A   1      40.060  29.008  28.628  1.00  0.00     0.031 A 
ATOM     62  C   UNL A   1      47.167  27.191  29.487  1.00  0.00     0.031 A 
ATOM     63  C   UNL A   1      41.127  29.827  29.188  1.00  0.00     0.049 A 
ATOM     64  C   UNL A   1      46.796  28.553  28.933  1.00  0.00     0.074 A 
ATOM     65  C   UNL A   1      41.604  29.987  30.479  1.00  0.00     0.029 A 
ATOM     66  N   UNL A   1      42.137  30.250  28.336  1.00  0.00    -0.354 N 
ATOM     67  N   UNL A   1      45.569  28.993  28.826  1.00  0.00    -0.248 NA
ATOM     68  C   UNL A   1      47.779  29.554  28.528  1.00  0.00     0.031 C 
ATOM     69  C   UNL A   1      42.949  30.443  30.388  1.00  0.00     0.029 A 
ATOM     70  C   UNL A   1      43.273  30.575  29.048  1.00  0.00     0.049 A 
ATOM     71  H   UNL A   1      42.055  30.310  27.357  1.00  0.00     0.167 HD
ATOM     72  C   UNL A   1      45.582  30.308  28.438  1.00  0.00     0.074 A 
ATOM     73  C   UNL A   1      46.989  30.604  28.239  1.00  0.00     0.031 C 
ATOM     74  C   UNL A   1      44.447  31.065  28.339  1.00  0.00     0.031 A 
BRANCH  61  75
ATOM     75  C   UNL A   1      38.600  29.285  28.822  1.00  0.00    -0.014 A 
ATOM     76  C   UNL A   1      37.846  29.704  27.711  1.00  0.00     0.009 A 
ATOM     77  C   UNL A   1      37.912  29.163  30.040  1.00  0.00     0.009 A 
ATOM     78  C   UNL A   1      36.486  30.014  27.810  1.00  0.00     0.001 A 
ATOM     79  C   UNL A   1      36.553  29.493  30.150  1.00  0.00     0.001 A 
ATOM     80  C   UNL A   1      35.840  29.916  29.034  1.00  0.00     0.000 A 
ENDBRANCH  61  75
BRANCH  62  81
ATOM     81  C   UNL A   1      47.865  26.075  28.765  1.00  0.00    -0.014 A 
ATOM     82  C   UNL A   1      47.649  25.994  27.369  1.00  0.00     0.009 A 
ATOM     83  C   UNL A   1      49.035  25.502  29.285  1.00  0.00     0.009 A 
ATOM     84  C   UNL A   1      48.665  25.565  26.507  1.00  0.00     0.001 A 
ATOM     85  C   UNL A   1      50.033  25.035  28.413  1.00  0.00     0.001 A 
ATOM     86  C   UNL A   1      49.876  25.131  27.030  1.00  0.00     0.000 A 
ENDBRANCH  62  81
BRANCH  74  87
ATOM     87  C   UNL A   1      44.301  32.383  27.605  1.00  0.00    -0.014 A 
ATOM     88  C   UNL A   1      44.428  32.538  26.223  1.00  0.00     0.009 A 
ATOM     89  C   UNL A   1      43.852  33.521  28.322  1.00  0.00     0.009 A 
ATOM     90  C   UNL A   1      44.158  33.764  25.598  1.00  0.00     0.001 A 
ATOM     91  C   UNL A   1      43.510  34.720  27.697  1.00  0.00     0.001 A 
ATOM     92  C   UNL A   1      43.680  34.846  26.330  1.00  0.00     0.000 A 
ENDBRANCH  74  87
ENDBRANCH  48  49
ENDBRANCH  40  43
ENDBRANCH  38  39
ENDBRANCH  37  38
ENDBRANCH  36  37
ENDBRANCH   3  36
TORSDOF 17
ENDMDL
MODEL 2
REMARK VINA RESULT:     -12.7      1.255      2.010
REMARK SMILES Cc1ccc(S(=O)(=O)n2cc(C(=O)C(=O)NCC(=O)NCC(=O)NCCCNC(=O)c3ccc(-c4c5nc(c(-c6ccccc6)c6ccc([nH]6)c(-c6ccccc6)c6nc(c(-c7ccccc7)c7ccc4[nH]7)C=C6)C=C5)cc3)c3ccccc32)cc1
REMARK SMILES IDX 22 1 23 2 24 3 21 5 20 6 18 7 19 8 17 10 16 11 14 12 15 13
REMARK SMILES IDX 12 15 13 16 11 17 9 18 10 19 84 20 79 21 83 22 80 23 82 24
REMARK SMILES IDX 81 25 6 26 7 27 8 28 5 29 1 30 2 31 3 32 86 33 4 34 85 35
REMARK SMILES IDX 25 36 26 37 27 38 28 39 29 40 30 42 31 43 32 44 78 45 33 46
REMARK SMILES IDX 77 47 34 48 35 49 36 50 71 51 37 52 76 53 70 54 72 55 38 56
REMARK SMILES IDX 75 57 69 58 68 59 39 61 61 62 46 63 60 64 47 65 50 66 59 67
REMARK SMILES IDX 73 68 48 69 49 70 58 72 74 73 51 74 40 75 41 76 45 77 42 78
REMARK SMILES IDX 44 79 43 80 62 81 63 82 67 83 64 84 66 85 65 86 52 87 53 88
REMARK SMILES IDX 57 89 54 90 56 91 55 92
REMARK H PARENT 24 4 20 9 16 14 28 41 72 60 50 71
REMARK Flexibility Score: inf
ROOT
ATOM      1  C   UNL A   1      35.944  21.722  24.586  1.00  0.00     0.239 C 
ATOM      2  O   UNL A   1      35.370  22.131  23.574  1.00  0.00    -0.273 OA
ATOM      3  N   UNL A   1      37.311  21.647  24.566  1.00  0.00    -0.355 N 
ATOM      4  H   UNL A   1      37.742  21.721  23.684  1.00  0.00     0.163 HD
ENDROOT
BRANCH   1   5
ATOM      5  C   UNL A   1      35.161  21.423  25.884  1.00  0.00     0.216 C 
BRANCH   5   6
ATOM      6  N   UNL A   1      34.268  20.283  25.754  1.00  0.00    -0.346 N 
ATOM      7  C   UNL A   1      32.972  20.170  25.358  1.00  0.00     0.239 C 
ATOM      8  O   UNL A   1      32.459  19.049  25.440  1.00  0.00    -0.273 OA
ATOM      9  H   UNL A   1      34.682  19.424  26.000  1.00  0.00     0.164 HD
BRANCH   7  10
ATOM     10  C   UNL A   1      32.158  21.353  24.810  1.00  0.00     0.216 C 
BRANCH  10  11
ATOM     11  N   UNL A   1      31.143  21.905  25.707  1.00  0.00    -0.340 N 
ATOM     12  C   UNL A   1      31.176  22.982  26.574  1.00  0.00     0.292 C 
ATOM     13  O   UNL A   1      30.217  23.175  27.315  1.00  0.00    -0.265 OA
ATOM     14  H   UNL A   1      30.284  21.424  25.691  1.00  0.00     0.164 HD
BRANCH  12  15
ATOM     15  C   UNL A   1      32.407  23.904  26.633  1.00  0.00     0.252 C 
ATOM     16  O   UNL A   1      33.370  23.508  27.285  1.00  0.00    -0.283 OA
BRANCH  15  17
ATOM     17  C   UNL A   1      32.479  25.207  25.963  1.00  0.00     0.054 A 
ATOM     18  N   UNL A   1      32.411  27.381  25.451  1.00  0.00    -0.240 N 
ATOM     19  C   UNL A   1      32.233  26.472  26.470  1.00  0.00     0.117 A 
ATOM     20  C   UNL A   1      32.774  26.754  24.278  1.00  0.00     0.065 A 
ATOM     21  C   UNL A   1      32.825  25.389  24.576  1.00  0.00     0.012 A 
ATOM     22  C   UNL A   1      33.030  27.235  22.979  1.00  0.00     0.028 A 
ATOM     23  C   UNL A   1      33.153  24.484  23.541  1.00  0.00     0.011 A 
ATOM     24  C   UNL A   1      33.322  26.308  21.974  1.00  0.00     0.002 A 
ATOM     25  C   UNL A   1      33.389  24.951  22.249  1.00  0.00     0.001 A 
BRANCH  18  26
ATOM     26  S   UNL A   1      32.105  29.053  25.598  1.00  0.00     0.268 S 
ATOM     27  O   UNL A   1      33.289  29.703  25.087  1.00  0.00    -0.201 OA
ATOM     28  O   UNL A   1      31.647  29.248  26.967  1.00  0.00    -0.201 OA
BRANCH  26  29
ATOM     29  C   UNL A   1      30.752  29.460  24.524  1.00  0.00     0.088 A 
ATOM     30  C   UNL A   1      27.664  30.734  21.809  1.00  0.00     0.044 C 
ATOM     31  C   UNL A   1      28.728  30.281  22.766  1.00  0.00    -0.051 A 
ATOM     32  C   UNL A   1      29.306  31.196  23.654  1.00  0.00     0.005 A 
ATOM     33  C   UNL A   1      29.153  28.947  22.788  1.00  0.00     0.005 A 
ATOM     34  C   UNL A   1      30.319  30.791  24.526  1.00  0.00     0.022 A 
ATOM     35  C   UNL A   1      30.153  28.531  23.671  1.00  0.00     0.022 A 
ENDBRANCH  26  29
ENDBRANCH  18  26
ENDBRANCH  15  17
ENDBRANCH  12  15
ENDBRANCH  10  11
ENDBRANCH   7  10
ENDBRANCH   5   6
ENDBRANCH   1   5
BRANCH   3  36
ATOM     36  C   UNL A   1      38.192  21.473  25.698  1.00  0.00     0.117 C 
BRANCH  36  37
ATOM     37  C   UNL A   1      38.755  22.776  26.237  1.00  0.00     0.042 C 
BRANCH  37  38
ATOM     38  C   UNL A   1      40.139  22.592  26.808  1.00  0.00     0.118 C 
BRANCH  38  39
ATOM     39  N   UNL A   1      40.868  21.458  26.252  1.00  0.00    -0.352 N 
ATOM     40  C   UNL A   1      42.230  21.231  26.165  1.00  0.00     0.251 C 
ATOM     41  H   UNL A   1      40.303  20.743  25.881  1.00  0.00     0.163 HD
ATOM     42  O   UNL A   1      42.631  20.256  25.535  1.00  0.00    -0.269 OA
BRANCH  40  43
ATOM     43  C   UNL A   1      43.188  22.016  26.995  1.00  0.00     0.039 A 
ATOM     44  C   UNL A   1      42.900  22.052  28.368  1.00  0.00     0.014 A 
ATOM     45  C   UNL A   1      43.913  23.045  26.421  1.00  0.00     0.014 A 
ATOM     46  C   UNL A   1      42.976  23.263  29.035  1.00  0.00     0.010 A 
ATOM     47  C   UNL A   1      43.771  24.281  26.981  1.00  0.00     0.010 A 
ATOM     48  C   UNL A   1      43.255  24.384  28.270  1.00  0.00    -0.014 A 
BRANCH  48  49
ATOM     49  C   UNL A   1      43.172  25.746  28.727  1.00  0.00     0.031 A 
ATOM     50  C   UNL A   1      41.949  26.464  28.347  1.00  0.00     0.074 A 
ATOM     51  C   UNL A   1      44.071  26.152  29.651  1.00  0.00     0.049 A 
ATOM     52  N   UNL A   1      41.815  27.734  28.411  1.00  0.00    -0.248 NA
ATOM     53  C   UNL A   1      40.757  25.792  27.815  1.00  0.00     0.031 C 
ATOM     54  C   UNL A   1      44.021  27.297  30.550  1.00  0.00     0.029 A 
ATOM     55  N   UNL A   1      45.367  25.661  29.807  1.00  0.00    -0.354 N 
ATOM     56  C   UNL A   1      40.471  28.000  28.282  1.00  0.00     0.074 A 
ATOM     57  C   UNL A   1      39.866  26.785  27.807  1.00  0.00     0.031 C 
ATOM     58  C   UNL A   1      45.276  27.608  30.927  1.00  0.00     0.029 A 
ATOM     59  C   UNL A   1      46.176  26.755  30.167  1.00  0.00     0.049 A 
ATOM     60  H   UNL A   1      45.659  24.729  29.689  1.00  0.00     0.167 HD
ATOM     61  C   UNL A   1      40.012  29.182  28.766  1.00  0.00     0.031 A 
ATOM     62  C   UNL A   1      47.111  27.209  29.275  1.00  0.00     0.031 A 
ATOM     63  C   UNL A   1      41.124  29.979  29.266  1.00  0.00     0.049 A 
ATOM     64  C   UNL A   1      46.743  28.577  28.732  1.00  0.00     0.074 A 
ATOM     65  C   UNL A   1      41.669  30.135  30.530  1.00  0.00     0.029 A 
ATOM     66  N   UNL A   1      42.099  30.374  28.361  1.00  0.00    -0.354 N 
ATOM     67  N   UNL A   1      45.522  29.043  28.685  1.00  0.00    -0.248 NA
ATOM     68  C   UNL A   1      47.726  29.553  28.273  1.00  0.00     0.031 C 
ATOM     69  C   UNL A   1      43.017  30.560  30.368  1.00  0.00     0.029 A 
ATOM     70  C   UNL A   1      43.276  30.678  29.013  1.00  0.00     0.049 A 
ATOM     71  H   UNL A   1      41.968  30.431  27.387  1.00  0.00     0.167 HD
ATOM     72  C   UNL A   1      45.544  30.356  28.288  1.00  0.00     0.074 A 
ATOM     73  C   UNL A   1      46.946  30.619  28.017  1.00  0.00     0.031 C 
ATOM     74  C   UNL A   1      44.423  31.138  28.243  1.00  0.00     0.031 A 
BRANCH  61  75
ATOM     75  C   UNL A   1      38.570  29.492  29.031  1.00  0.00    -0.014 A 
ATOM     76  C   UNL A   1      37.890  30.331  28.130  1.00  0.00     0.009 A 
ATOM     77  C   UNL A   1      37.831  29.011  30.124  1.00  0.00     0.009 A 
ATOM     78  C   UNL A   1      36.554  30.697  28.319  1.00  0.00     0.001 A 
ATOM     79  C   UNL A   1      36.497  29.392  30.330  1.00  0.00     0.001 A 
ATOM     80  C   UNL A   1      35.858  30.233  29.426  1.00  0.00     0.000 A 
ENDBRANCH  61  75
BRANCH  62  81
ATOM     81  C   UNL A   1      47.747  26.074  28.526  1.00  0.00    -0.014 A 
ATOM     82  C   UNL A   1      47.461  25.993  27.143  1.00  0.00     0.009 A 
ATOM     83  C   UNL A   1      48.927  25.475  28.992  1.00  0.00     0.009 A 
ATOM     84  C   UNL A   1      48.424  25.537  26.235  1.00  0.00     0.001 A 
ATOM     85  C   UNL A   1      49.870  24.981  28.075  1.00  0.00     0.001 A 
ATOM     86  C   UNL A   1      49.648  25.076  26.700  1.00  0.00     0.000 A 
ENDBRANCH  62  81
BRANCH  74  87
ATOM     87  C   UNL A   1      44.270  32.454  27.509  1.00  0.00    -0.014 A 
ATOM     88  C   UNL A   1      44.338  32.601  26.121  1.00  0.00     0.009 A 
ATOM     89  C   UNL A   1      43.875  33.604  28.239  1.00  0.00     0.009 A 
ATOM     90  C   UNL A   1      44.063  33.829  25.502  1.00  0.00     0.001 A 
ATOM     91  C   UNL A   1      43.528  34.807  27.623  1.00  0.00     0.001 A 
ATOM     92  C   UNL A   1      43.639  34.924  26.249  1.00  0.00     0.000 A 
ENDBRANCH  74  87
ENDBRANCH  48  49
ENDBRANCH  40  43
ENDBRANCH  38  39
ENDBRANCH  37  38
ENDBRANCH  36  37
ENDBRANCH   3  36
TORSDOF 17
ENDMDL
MODEL 3
REMARK VINA RESULT:     -12.4      1.883      2.793
REMARK SMILES Cc1ccc(S(=O)(=O)n2cc(C(=O)C(=O)NCC(=O)NCC(=O)NCCCNC(=O)c3ccc(-c4c5nc(c(-c6ccccc6)c6ccc([nH]6)c(-c6ccccc6)c6nc(c(-c7ccccc7)c7ccc4[nH]7)C=C6)C=C5)cc3)c3ccccc32)cc1
REMARK SMILES IDX 22 1 23 2 24 3 21 5 20 6 18 7 19 8 17 10 16 11 14 12 15 13
REMARK SMILES IDX 12 15 13 16 11 17 9 18 10 19 84 20 79 21 83 22 80 23 82 24
REMARK SMILES IDX 81 25 6 26 7 27 8 28 5 29 1 30 2 31 3 32 86 33 4 34 85 35
REMARK SMILES IDX 25 36 26 37 27 38 28 39 29 40 30 42 31 43 32 44 78 45 33 46
REMARK SMILES IDX 77 47 34 48 35 49 36 50 71 51 37 52 76 53 70 54 72 55 38 56
REMARK SMILES IDX 75 57 69 58 68 59 39 61 61 62 46 63 60 64 47 65 50 66 59 67
REMARK SMILES IDX 73 68 48 69 49 70 58 72 74 73 51 74 40 75 41 76 45 77 42 78
REMARK SMILES IDX 44 79 43 80 62 81 63 82 67 83 64 84 66 85 65 86 52 87 53 88
REMARK SMILES IDX 57 89 54 90 56 91 55 92
REMARK H PARENT 24 4 20 9 16 14 28 41 72 60 50 71
REMARK Flexibility Score: inf
ROOT
ATOM      1  C   UNL A   1      38.465  21.569  25.714  1.00  0.00     0.239 C 
ATOM      2  O   UNL A   1      38.082  20.609  25.041  1.00  0.00    -0.273 OA
ATOM      3  N   UNL A   1      39.521  21.378  26.566  1.00  0.00    -0.355 N 
ATOM      4  H   UNL A   1      39.775  20.445  26.748  1.00  0.00     0.163 HD
ENDROOT
BRANCH   1   5
ATOM      5  C   UNL A   1      37.863  22.977  25.515  1.00  0.00     0.216 C 
BRANCH   5   6
ATOM      6  N   UNL A   1      37.221  23.137  24.219  1.00  0.00    -0.346 N 
ATOM      7  C   UNL A   1      35.932  23.004  23.808  1.00  0.00     0.239 C 
ATOM      8  O   UNL A   1      35.716  23.124  22.598  1.00  0.00    -0.273 OA
ATOM      9  H   UNL A   1      37.841  23.391  23.498  1.00  0.00     0.164 HD
BRANCH   7  10
ATOM     10  C   UNL A   1      34.768  22.735  24.776  1.00  0.00     0.216 C 
BRANCH  10  11
ATOM     11  N   UNL A   1      34.192  21.391  24.731  1.00  0.00    -0.340 N 
ATOM     12  C   UNL A   1      33.116  20.879  24.027  1.00  0.00     0.292 C 
ATOM     13  O   UNL A   1      32.755  19.728  24.252  1.00  0.00    -0.265 OA
ATOM     14  H   UNL A   1      34.651  20.734  25.302  1.00  0.00     0.164 HD
BRANCH  12  15
ATOM     15  C   UNL A   1      32.362  21.749  23.005  1.00  0.00     0.252 C 
ATOM     16  O   UNL A   1      32.025  21.211  21.955  1.00  0.00    -0.283 OA
BRANCH  15  17
ATOM     17  C   UNL A   1      32.038  23.164  23.225  1.00  0.00     0.054 A 
ATOM     18  N   UNL A   1      31.853  25.386  23.083  1.00  0.00    -0.240 N 
ATOM     19  C   UNL A   1      32.361  24.270  22.457  1.00  0.00     0.117 A 
ATOM     20  C   UNL A   1      31.195  25.051  24.247  1.00  0.00     0.065 A 
ATOM     21  C   UNL A   1      31.296  23.660  24.356  1.00  0.00     0.012 A 
ATOM     22  C   UNL A   1      30.551  25.822  25.234  1.00  0.00     0.028 A 
ATOM     23  C   UNL A   1      30.724  23.028  25.483  1.00  0.00     0.011 A 
ATOM     24  C   UNL A   1      30.023  25.165  26.350  1.00  0.00     0.002 A 
ATOM     25  C   UNL A   1      30.102  23.786  26.473  1.00  0.00     0.001 A 
BRANCH  18  26
ATOM     26  S   UNL A   1      32.110  26.984  22.544  1.00  0.00     0.268 S 
ATOM     27  O   UNL A   1      30.832  27.424  22.034  1.00  0.00    -0.201 OA
ATOM     28  O   UNL A   1      33.299  26.927  21.704  1.00  0.00    -0.201 OA
BRANCH  26  29
ATOM     29  C   UNL A   1      32.508  27.982  23.957  1.00  0.00     0.088 A 
ATOM     30  C   UNL A   1      33.810  30.430  27.249  1.00  0.00     0.044 C 
ATOM     31  C   UNL A   1      33.343  29.569  26.112  1.00  0.00    -0.051 A 
ATOM     32  C   UNL A   1      34.103  28.463  25.714  1.00  0.00     0.005 A 
ATOM     33  C   UNL A   1      32.148  29.855  25.439  1.00  0.00     0.005 A 
ATOM     34  C   UNL A   1      33.693  27.674  24.637  1.00  0.00     0.022 A 
ATOM     35  C   UNL A   1      31.722  29.059  24.372  1.00  0.00     0.022 A 
ENDBRANCH  26  29
ENDBRANCH  18  26
ENDBRANCH  15  17
ENDBRANCH  12  15
ENDBRANCH  10  11
ENDBRANCH   7  10
ENDBRANCH   5   6
ENDBRANCH   1   5
BRANCH   3  36
ATOM     36  C   UNL A   1      40.303  22.398  27.226  1.00  0.00     0.117 C 
BRANCH  36  37
ATOM     37  C   UNL A   1      41.571  22.771  26.479  1.00  0.00     0.042 C 
BRANCH  37  38
ATOM     38  C   UNL A   1      42.654  21.737  26.666  1.00  0.00     0.118 C 
BRANCH  38  39
ATOM     39  N   UNL A   1      43.285  21.302  25.425  1.00  0.00    -0.352 N 
ATOM     40  C   UNL A   1      44.359  21.838  24.736  1.00  0.00     0.251 C 
ATOM     41  H   UNL A   1      42.884  20.503  25.014  1.00  0.00     0.163 HD
ATOM     42  O   UNL A   1      44.643  21.381  23.632  1.00  0.00    -0.269 OA
BRANCH  40  43
ATOM     43  C   UNL A   1      45.289  22.794  25.401  1.00  0.00     0.039 A 
ATOM     44  C   UNL A   1      45.371  22.677  26.797  1.00  0.00     0.014 A 
ATOM     45  C   UNL A   1      45.579  24.004  24.797  1.00  0.00     0.014 A 
ATOM     46  C   UNL A   1      45.334  23.828  27.566  1.00  0.00     0.010 A 
ATOM     47  C   UNL A   1      45.304  25.129  25.519  1.00  0.00     0.010 A 
ATOM     48  C   UNL A   1      45.134  25.024  26.897  1.00  0.00    -0.014 A 
BRANCH  48  49
ATOM     49  C   UNL A   1      44.858  26.292  27.520  1.00  0.00     0.031 A 
ATOM     50  C   UNL A   1      43.473  26.763  27.400  1.00  0.00     0.074 A 
ATOM     51  C   UNL A   1      45.795  26.796  28.353  1.00  0.00     0.049 A 
ATOM     52  N   UNL A   1      43.103  27.965  27.634  1.00  0.00    -0.248 NA
ATOM     53  C   UNL A   1      42.368  25.903  26.962  1.00  0.00     0.031 C 
ATOM     54  C   UNL A   1      45.665  27.821  29.380  1.00  0.00     0.029 A 
ATOM     55  N   UNL A   1      47.170  26.580  28.270  1.00  0.00    -0.354 N 
ATOM     56  C   UNL A   1      41.730  27.950  27.723  1.00  0.00     0.074 A 
ATOM     57  C   UNL A   1      41.309  26.680  27.195  1.00  0.00     0.031 C 
ATOM     58  C   UNL A   1      46.877  28.357  29.616  1.00  0.00     0.029 A 
ATOM     59  C   UNL A   1      47.795  27.785  28.642  1.00  0.00     0.049 A 
ATOM     60  H   UNL A   1      47.618  25.745  28.002  1.00  0.00     0.167 HD
ATOM     61  C   UNL A   1      41.131  28.959  28.404  1.00  0.00     0.031 A 
ATOM     62  C   UNL A   1      48.467  28.505  27.691  1.00  0.00     0.031 A 
ATOM     63  C   UNL A   1      42.129  29.928  28.837  1.00  0.00     0.049 A 
ATOM     64  C   UNL A   1      47.756  29.805  27.371  1.00  0.00     0.074 A 
ATOM     65  C   UNL A   1      42.827  30.083  30.024  1.00  0.00     0.029 A 
ATOM     66  N   UNL A   1      42.850  30.599  27.861  1.00  0.00    -0.354 N 
ATOM     67  N   UNL A   1      46.475  30.004  27.548  1.00  0.00    -0.248 NA
ATOM     68  C   UNL A   1      48.442  31.005  26.899  1.00  0.00     0.031 C 
ATOM     69  C   UNL A   1      44.022  30.798  29.729  1.00  0.00     0.029 A 
ATOM     70  C   UNL A   1      44.033  31.087  28.376  1.00  0.00     0.049 A 
ATOM     71  H   UNL A   1      42.557  30.713  26.927  1.00  0.00     0.167 HD
ATOM     72  C   UNL A   1      46.175  31.321  27.311  1.00  0.00     0.074 A 
ATOM     73  C   UNL A   1      47.436  31.899  26.883  1.00  0.00     0.031 C 
ATOM     74  C   UNL A   1      44.929  31.847  27.515  1.00  0.00     0.031 A 
BRANCH  61  75
ATOM     75  C   UNL A   1      39.717  28.931  28.900  1.00  0.00    -0.014 A 
ATOM     76  C   UNL A   1      38.693  29.337  28.026  1.00  0.00     0.009 A 
ATOM     77  C   UNL A   1      39.324  28.531  30.188  1.00  0.00     0.009 A 
ATOM     78  C   UNL A   1      37.352  29.372  28.418  1.00  0.00     0.001 A 
ATOM     79  C   UNL A   1      37.982  28.584  30.593  1.00  0.00     0.001 A 
ATOM     80  C   UNL A   1      36.996  29.002  29.707  1.00  0.00     0.000 A 
ENDBRANCH  61  75
BRANCH  62  81
ATOM     81  C   UNL A   1      49.187  27.601  26.731  1.00  0.00    -0.014 A 
ATOM     82  C   UNL A   1      48.628  27.483  25.437  1.00  0.00     0.009 A 
ATOM     83  C   UNL A   1      50.554  27.329  26.885  1.00  0.00     0.009 A 
ATOM     84  C   UNL A   1      49.445  27.325  24.311  1.00  0.00     0.001 A 
ATOM     85  C   UNL A   1      51.360  27.130  25.753  1.00  0.00     0.001 A 
ATOM     86  C   UNL A   1      50.819  27.197  24.468  1.00  0.00     0.000 A 
ENDBRANCH  62  81
BRANCH  74  87
ATOM     87  C   UNL A   1      44.404  33.160  26.971  1.00  0.00    -0.014 A 
ATOM     88  C   UNL A   1      44.198  33.432  25.616  1.00  0.00     0.009 A 
ATOM     89  C   UNL A   1      43.935  34.141  27.882  1.00  0.00     0.009 A 
ATOM     90  C   UNL A   1      43.593  34.624  25.194  1.00  0.00     0.001 A 
ATOM     91  C   UNL A   1      43.265  35.294  27.472  1.00  0.00     0.001 A 
ATOM     92  C   UNL A   1      43.109  35.544  26.120  1.00  0.00     0.000 A 
ENDBRANCH  74  87
ENDBRANCH  48  49
ENDBRANCH  40  43
ENDBRANCH  38  39
ENDBRANCH  37  38
ENDBRANCH  36  37
ENDBRANCH   3  36
TORSDOF 17
ENDMDL
