MODEL 1
REMARK VINA RESULT:     -12.6      0.000      0.000
REMARK SMILES Cc1ccc(N2C(=O)C[C@H](Sc3ccccc3C(=O)NCCCNC(=O)c3ccc(-c4c5nc(c(-c6ccccc6)c6ccc([nH]6)c(-c6ccccc6)c6nc(c(-c7ccccc7)c7ccc4[nH]7)C=C6)C=C5)cc3)C2=O)cc1
REMARK SMILES IDX 21 1 20 2 18 3 19 4 17 6 12 7 13 8 14 9 16 10 15 11 11 12
REMARK SMILES IDX 10 13 6 14 7 15 75 16 8 17 9 18 76 19 5 20 1 21 2 22 3 23
REMARK SMILES IDX 78 24 4 25 77 26 22 27 23 28 24 29 25 30 26 32 27 33 28 34
REMARK SMILES IDX 74 35 29 36 73 37 30 38 31 39 32 40 67 41 33 42 72 43 66 44
REMARK SMILES IDX 68 45 34 46 71 47 65 48 64 49 35 51 57 52 42 53 56 54 43 55
REMARK SMILES IDX 46 56 55 57 69 58 44 59 45 60 54 62 70 63 47 64 36 65 37 66
REMARK SMILES IDX 41 67 38 68 40 69 39 70 58 71 59 72 63 73 60 74 62 75 61 76
REMARK SMILES IDX 48 77 49 78 53 79 50 80 52 81 51 82
REMARK H PARENT 20 5 24 31 68 50 46 61
REMARK Flexibility Score: inf
ROOT
ATOM      1  C   UNL A   1      32.326  30.472  26.803  1.00  0.00     0.118 C 
ENDROOT
BRANCH   1   2
ATOM      2  N   UNL A   1      32.893  29.205  26.362  1.00  0.00    -0.352 N 
ATOM      3  C   UNL A   1      32.664  28.316  25.339  1.00  0.00     0.252 C 
ATOM      4  O   UNL A   1      33.548  27.471  25.197  1.00  0.00    -0.269 OA
ATOM      5  H   UNL A   1      33.628  28.910  26.946  1.00  0.00     0.163 HD
BRANCH   3   6
ATOM      6  C   UNL A   1      31.450  28.292  24.453  1.00  0.00     0.053 A 
ATOM      7  C   UNL A   1      30.456  27.278  24.573  1.00  0.00     0.021 A 
ATOM      8  C   UNL A   1      29.392  27.238  23.646  1.00  0.00     0.016 A 
ATOM      9  C   UNL A   1      29.282  28.178  22.625  1.00  0.00     0.001 A 
ATOM     10  C   UNL A   1      31.310  29.221  23.408  1.00  0.00     0.015 A 
ATOM     11  C   UNL A   1      30.239  29.172  22.511  1.00  0.00     0.001 A 
BRANCH   7  12
ATOM     12  S   UNL A   1      30.484  25.852  25.674  1.00  0.00    -0.111 SA
BRANCH  12  13
ATOM     13  C   UNL A   1      31.184  24.494  24.671  1.00  0.00     0.151 C 
ATOM     14  N   UNL A   1      33.467  24.024  24.458  1.00  0.00    -0.250 N 
ATOM     15  C   UNL A   1      33.136  24.803  23.371  1.00  0.00     0.235 C 
ATOM     16  C   UNL A   1      32.386  23.832  25.295  1.00  0.00     0.247 C 
ATOM     17  O   UNL A   1      33.864  25.296  22.519  1.00  0.00    -0.274 OA
ATOM     18  C   UNL A   1      31.643  24.870  23.283  1.00  0.00     0.126 C 
ATOM     19  O   UNL A   1      32.365  23.266  26.381  1.00  0.00    -0.273 OA
BRANCH  14  20
ATOM     20  C   UNL A   1      34.751  23.450  24.664  1.00  0.00     0.052 A 
ATOM     21  C   UNL A   1      38.556  21.610  25.615  1.00  0.00     0.044 C 
ATOM     22  C   UNL A   1      37.253  22.257  25.251  1.00  0.00    -0.051 A 
ATOM     23  C   UNL A   1      36.952  23.541  25.714  1.00  0.00     0.005 A 
ATOM     24  C   UNL A   1      36.298  21.575  24.496  1.00  0.00     0.005 A 
ATOM     25  C   UNL A   1      35.725  24.138  25.404  1.00  0.00     0.027 A 
ATOM     26  C   UNL A   1      35.058  22.160  24.216  1.00  0.00     0.027 A 
ENDBRANCH  14  20
ENDBRANCH  12  13
ENDBRANCH   7  12
ENDBRANCH   3   6
ENDBRANCH   1   2
BRANCH   1  27
ATOM     27  C   UNL A   1      33.351  31.484  27.298  1.00  0.00     0.042 C 
BRANCH  27  28
ATOM     28  C   UNL A   1      34.352  30.869  28.274  1.00  0.00     0.118 C 
BRANCH  28  29
ATOM     29  N   UNL A   1      35.385  31.795  28.746  1.00  0.00    -0.352 N 
ATOM     30  C   UNL A   1      36.729  31.533  28.985  1.00  0.00     0.251 C 
ATOM     31  H   UNL A   1      35.091  32.719  28.914  1.00  0.00     0.163 HD
ATOM     32  O   UNL A   1      37.496  32.417  29.328  1.00  0.00    -0.269 OA
BRANCH  30  33
ATOM     33  C   UNL A   1      37.229  30.170  28.703  1.00  0.00     0.039 A 
ATOM     34  C   UNL A   1      37.329  29.277  29.774  1.00  0.00     0.014 A 
ATOM     35  C   UNL A   1      37.857  29.910  27.488  1.00  0.00     0.014 A 
ATOM     36  C   UNL A   1      38.282  28.267  29.716  1.00  0.00     0.010 A 
ATOM     37  C   UNL A   1      38.864  28.965  27.463  1.00  0.00     0.010 A 
ATOM     38  C   UNL A   1      39.132  28.208  28.610  1.00  0.00    -0.014 A 
BRANCH  38  39
ATOM     39  C   UNL A   1      40.429  27.539  28.660  1.00  0.00     0.031 A 
ATOM     40  C   UNL A   1      40.557  26.093  28.416  1.00  0.00     0.074 A 
ATOM     41  C   UNL A   1      41.543  28.269  28.887  1.00  0.00     0.049 A 
ATOM     42  N   UNL A   1      41.536  25.376  28.853  1.00  0.00    -0.248 NA
ATOM     43  C   UNL A   1      39.548  25.324  27.699  1.00  0.00     0.031 C 
ATOM     44  C   UNL A   1      42.933  27.857  28.708  1.00  0.00     0.029 A 
ATOM     45  N   UNL A   1      41.628  29.489  29.560  1.00  0.00    -0.354 N 
ATOM     46  C   UNL A   1      41.454  24.151  28.238  1.00  0.00     0.074 A 
ATOM     47  C   UNL A   1      40.152  24.136  27.609  1.00  0.00     0.031 C 
ATOM     48  C   UNL A   1      43.717  28.646  29.460  1.00  0.00     0.029 A 
ATOM     49  C   UNL A   1      42.849  29.490  30.261  1.00  0.00     0.049 A 
ATOM     50  H   UNL A   1      40.960  30.212  29.547  1.00  0.00     0.167 HD
ATOM     51  C   UNL A   1      42.548  23.338  28.210  1.00  0.00     0.031 A 
ATOM     52  C   UNL A   1      42.869  29.565  31.624  1.00  0.00     0.031 A 
ATOM     53  C   UNL A   1      43.674  23.882  28.973  1.00  0.00     0.049 A 
ATOM     54  C   UNL A   1      43.473  28.359  32.318  1.00  0.00     0.074 A 
ATOM     55  C   UNL A   1      44.887  24.463  28.636  1.00  0.00     0.029 A 
ATOM     56  N   UNL A   1      43.512  24.108  30.332  1.00  0.00    -0.354 N 
ATOM     57  N   UNL A   1      43.910  27.289  31.712  1.00  0.00    -0.248 NA
ATOM     58  C   UNL A   1      43.520  28.224  33.775  1.00  0.00     0.031 C 
ATOM     59  C   UNL A   1      45.459  25.021  29.814  1.00  0.00     0.029 A 
ATOM     60  C   UNL A   1      44.599  24.772  30.865  1.00  0.00     0.049 A 
ATOM     61  H   UNL A   1      42.722  23.830  30.849  1.00  0.00     0.167 HD
ATOM     62  C   UNL A   1      44.219  26.329  32.642  1.00  0.00     0.074 A 
ATOM     63  C   UNL A   1      43.965  26.965  33.921  1.00  0.00     0.031 C 
ATOM     64  C   UNL A   1      44.603  25.067  32.289  1.00  0.00     0.031 A 
BRANCH  51  65
ATOM     65  C   UNL A   1      42.670  22.159  27.274  1.00  0.00    -0.014 A 
ATOM     66  C   UNL A   1      41.929  20.990  27.523  1.00  0.00     0.009 A 
ATOM     67  C   UNL A   1      43.529  22.112  26.162  1.00  0.00     0.009 A 
ATOM     68  C   UNL A   1      42.120  19.814  26.782  1.00  0.00     0.001 A 
ATOM     69  C   UNL A   1      43.760  20.931  25.445  1.00  0.00     0.001 A 
ATOM     70  C   UNL A   1      43.064  19.775  25.765  1.00  0.00     0.000 A 
ENDBRANCH  51  65
BRANCH  52  71
ATOM     71  C   UNL A   1      41.770  30.398  32.187  1.00  0.00    -0.014 A 
ATOM     72  C   UNL A   1      41.813  31.792  31.989  1.00  0.00     0.009 A 
ATOM     73  C   UNL A   1      40.563  29.818  32.599  1.00  0.00     0.009 A 
ATOM     74  C   UNL A   1      40.656  32.568  32.097  1.00  0.00     0.001 A 
ATOM     75  C   UNL A   1      39.408  30.600  32.719  1.00  0.00     0.001 A 
ATOM     76  C   UNL A   1      39.447  31.965  32.436  1.00  0.00     0.000 A 
ENDBRANCH  52  71
BRANCH  64  77
ATOM     77  C   UNL A   1      44.962  23.964  33.257  1.00  0.00    -0.014 A 
ATOM     78  C   UNL A   1      44.068  22.971  33.674  1.00  0.00     0.009 A 
ATOM     79  C   UNL A   1      46.232  23.969  33.878  1.00  0.00     0.009 A 
ATOM     80  C   UNL A   1      44.450  21.985  34.595  1.00  0.00     0.001 A 
ATOM     81  C   UNL A   1      46.611  23.004  34.814  1.00  0.00     0.001 A 
ATOM     82  C   UNL A   1      45.722  21.998  35.161  1.00  0.00     0.000 A 
ENDBRANCH  64  77
ENDBRANCH  38  39
ENDBRANCH  30  33
ENDBRANCH  28  29
ENDBRANCH  27  28
ENDBRANCH   1  27
TORSDOF 13
ENDMDL
MODEL 2
REMARK VINA RESULT:     -12.5      1.532      1.914
REMARK SMILES Cc1ccc(N2C(=O)C[C@H](Sc3ccccc3C(=O)NCCCNC(=O)c3ccc(-c4c5nc(c(-c6ccccc6)c6ccc([nH]6)c(-c6ccccc6)c6nc(c(-c7ccccc7)c7ccc4[nH]7)C=C6)C=C5)cc3)C2=O)cc1
REMARK SMILES IDX 21 1 20 2 18 3 19 4 17 6 12 7 13 8 14 9 16 10 15 11 11 12
REMARK SMILES IDX 10 13 6 14 7 15 75 16 8 17 9 18 76 19 5 20 1 21 2 22 3 23
REMARK SMILES IDX 78 24 4 25 77 26 22 27 23 28 24 29 25 30 26 32 27 33 28 34
REMARK SMILES IDX 74 35 29 36 73 37 30 38 31 39 32 40 67 41 33 42 72 43 66 44
REMARK SMILES IDX 68 45 34 46 71 47 65 48 64 49 35 51 57 52 42 53 56 54 43 55
REMARK SMILES IDX 46 56 55 57 69 58 44 59 45 60 54 62 70 63 47 64 36 65 37 66
REMARK SMILES IDX 41 67 38 68 40 69 39 70 58 71 59 72 63 73 60 74 62 75 61 76
REMARK SMILES IDX 48 77 49 78 53 79 50 80 52 81 51 82
REMARK H PARENT 20 5 24 31 68 50 46 61
REMARK Flexibility Score: inf
ROOT
ATOM      1  C   UNL A   1      31.822  30.814  26.470  1.00  0.00     0.118 C 
ENDROOT
BRANCH   1   2
ATOM      2  N   UNL A   1      32.549  30.070  25.450  1.00  0.00    -0.352 N 
ATOM      3  C   UNL A   1      32.223  29.332  24.337  1.00  0.00     0.252 C 
ATOM      4  O   UNL A   1      33.180  29.065  23.610  1.00  0.00    -0.269 OA
ATOM      5  H   UNL A   1      33.522  30.104  25.595  1.00  0.00     0.163 HD
BRANCH   3   6
ATOM      6  C   UNL A   1      30.851  28.825  23.991  1.00  0.00     0.053 A 
ATOM      7  C   UNL A   1      30.483  27.463  24.187  1.00  0.00     0.021 A 
ATOM      8  C   UNL A   1      29.220  27.015  23.745  1.00  0.00     0.016 A 
ATOM      9  C   UNL A   1      28.316  27.880  23.135  1.00  0.00     0.001 A 
ATOM     10  C   UNL A   1      29.916  29.669  23.369  1.00  0.00     0.015 A 
ATOM     11  C   UNL A   1      28.663  29.208  22.952  1.00  0.00     0.001 A 
BRANCH   7  12
ATOM     12  S   UNL A   1      31.542  26.123  24.764  1.00  0.00    -0.111 SA
BRANCH  12  13
ATOM     13  C   UNL A   1      31.273  24.762  23.575  1.00  0.00     0.151 C 
ATOM     14  N   UNL A   1      32.504  22.772  23.515  1.00  0.00    -0.250 N 
ATOM     15  C   UNL A   1      33.089  23.610  22.591  1.00  0.00     0.235 C 
ATOM     16  C   UNL A   1      31.456  23.389  24.170  1.00  0.00     0.247 C 
ATOM     17  O   UNL A   1      34.120  23.457  21.948  1.00  0.00    -0.274 OA
ATOM     18  C   UNL A   1      32.165  24.765  22.358  1.00  0.00     0.126 C 
ATOM     19  O   UNL A   1      30.789  22.955  25.101  1.00  0.00    -0.273 OA
BRANCH  14  20
ATOM     20  C   UNL A   1      32.902  21.425  23.732  1.00  0.00     0.052 A 
ATOM     21  C   UNL A   1      33.926  17.326  24.689  1.00  0.00     0.044 C 
ATOM     22  C   UNL A   1      33.593  18.742  24.326  1.00  0.00    -0.051 A 
ATOM     23  C   UNL A   1      34.268  19.802  24.937  1.00  0.00     0.005 A 
ATOM     24  C   UNL A   1      32.572  19.031  23.418  1.00  0.00     0.005 A 
ATOM     25  C   UNL A   1      33.940  21.127  24.626  1.00  0.00     0.027 A 
ATOM     26  C   UNL A   1      32.224  20.356  23.134  1.00  0.00     0.027 A 
ENDBRANCH  14  20
ENDBRANCH  12  13
ENDBRANCH   7  12
ENDBRANCH   3   6
ENDBRANCH   1   2
BRANCH   1  27
ATOM     27  C   UNL A   1      32.686  31.760  27.296  1.00  0.00     0.042 C 
BRANCH  27  28
ATOM     28  C   UNL A   1      33.868  31.048  27.949  1.00  0.00     0.118 C 
BRANCH  28  29
ATOM     29  N   UNL A   1      34.551  31.830  28.982  1.00  0.00    -0.352 N 
ATOM     30  C   UNL A   1      35.762  31.558  29.606  1.00  0.00     0.251 C 
ATOM     31  H   UNL A   1      34.094  32.653  29.271  1.00  0.00     0.163 HD
ATOM     32  O   UNL A   1      36.245  32.329  30.418  1.00  0.00    -0.269 OA
BRANCH  30  33
ATOM     33  C   UNL A   1      36.508  30.355  29.173  1.00  0.00     0.039 A 
ATOM     34  C   UNL A   1      36.720  29.345  30.115  1.00  0.00     0.014 A 
ATOM     35  C   UNL A   1      37.224  30.389  27.978  1.00  0.00     0.014 A 
ATOM     36  C   UNL A   1      37.839  28.532  29.982  1.00  0.00     0.010 A 
ATOM     37  C   UNL A   1      38.382  29.642  27.892  1.00  0.00     0.010 A 
ATOM     38  C   UNL A   1      38.732  28.781  28.939  1.00  0.00    -0.014 A 
BRANCH  38  39
ATOM     39  C   UNL A   1      40.124  28.342  28.983  1.00  0.00     0.031 A 
ATOM     40  C   UNL A   1      40.538  27.045  28.425  1.00  0.00     0.074 A 
ATOM     41  C   UNL A   1      41.062  29.164  29.504  1.00  0.00     0.049 A 
ATOM     42  N   UNL A   1      41.599  26.411  28.795  1.00  0.00    -0.248 NA
ATOM     43  C   UNL A   1      39.747  26.326  27.435  1.00  0.00     0.031 C 
ATOM     44  C   UNL A   1      42.514  29.043  29.398  1.00  0.00     0.029 A 
ATOM     45  N   UNL A   1      40.867  30.173  30.448  1.00  0.00    -0.354 N 
ATOM     46  C   UNL A   1      41.793  25.382  27.906  1.00  0.00     0.074 A 
ATOM     47  C   UNL A   1      40.567  25.313  27.142  1.00  0.00     0.031 C 
ATOM     48  C   UNL A   1      43.079  29.735  30.400  1.00  0.00     0.029 A 
ATOM     49  C   UNL A   1      42.011  30.198  31.267  1.00  0.00     0.049 A 
ATOM     50  H   UNL A   1      40.078  30.758  30.525  1.00  0.00     0.167 HD
ATOM     51  C   UNL A   1      43.019  24.792  27.817  1.00  0.00     0.031 A 
ATOM     52  C   UNL A   1      41.916  29.932  32.603  1.00  0.00     0.031 A 
ATOM     53  C   UNL A   1      43.964  25.304  28.813  1.00  0.00     0.049 A 
ATOM     54  C   UNL A   1      42.682  28.706  33.063  1.00  0.00     0.074 A 
ATOM     55  C   UNL A   1      45.068  26.142  28.765  1.00  0.00     0.029 A 
ATOM     56  N   UNL A   1      43.663  25.153  30.158  1.00  0.00    -0.354 N 
ATOM     57  N   UNL A   1      43.355  27.908  32.280  1.00  0.00    -0.248 NA
ATOM     58  C   UNL A   1      42.646  28.220  34.444  1.00  0.00     0.031 C 
ATOM     59  C   UNL A   1      45.437  26.472  30.100  1.00  0.00     0.029 A 
ATOM     60  C   UNL A   1      44.563  25.831  30.956  1.00  0.00     0.049 A 
ATOM     61  H   UNL A   1      42.903  24.630  30.500  1.00  0.00     0.167 HD
ATOM     62  C   UNL A   1      43.768  26.809  32.990  1.00  0.00     0.074 A 
ATOM     63  C   UNL A   1      43.306  27.055  34.343  1.00  0.00     0.031 C 
ATOM     64  C   UNL A   1      44.407  25.756  32.400  1.00  0.00     0.031 A 
BRANCH  51  65
ATOM     65  C   UNL A   1      43.428  23.922  26.653  1.00  0.00    -0.014 A 
ATOM     66  C   UNL A   1      43.166  22.541  26.687  1.00  0.00     0.009 A 
ATOM     67  C   UNL A   1      44.117  24.385  25.518  1.00  0.00     0.009 A 
ATOM     68  C   UNL A   1      43.662  21.664  25.711  1.00  0.00     0.001 A 
ATOM     69  C   UNL A   1      44.654  23.512  24.562  1.00  0.00     0.001 A 
ATOM     70  C   UNL A   1      44.438  22.147  24.667  1.00  0.00     0.000 A 
ENDBRANCH  51  65
BRANCH  52  71
ATOM     71  C   UNL A   1      40.642  30.406  33.212  1.00  0.00    -0.014 A 
ATOM     72  C   UNL A   1      40.483  31.785  33.453  1.00  0.00     0.009 A 
ATOM     73  C   UNL A   1      39.505  29.587  33.236  1.00  0.00     0.009 A 
ATOM     74  C   UNL A   1      39.212  32.344  33.607  1.00  0.00     0.001 A 
ATOM     75  C   UNL A   1      38.234  30.149  33.405  1.00  0.00     0.001 A 
ATOM     76  C   UNL A   1      38.085  31.528  33.556  1.00  0.00     0.000 A 
ENDBRANCH  52  71
BRANCH  64  77
ATOM     77  C   UNL A   1      44.894  24.521  33.119  1.00  0.00    -0.014 A 
ATOM     78  C   UNL A   1      44.120  23.367  33.297  1.00  0.00     0.009 A 
ATOM     79  C   UNL A   1      46.158  24.535  33.752  1.00  0.00     0.009 A 
ATOM     80  C   UNL A   1      44.617  22.257  33.996  1.00  0.00     0.001 A 
ATOM     81  C   UNL A   1      46.648  23.442  34.469  1.00  0.00     0.001 A 
ATOM     82  C   UNL A   1      45.881  22.292  34.578  1.00  0.00     0.000 A 
ENDBRANCH  64  77
ENDBRANCH  38  39
ENDBRANCH  30  33
ENDBRANCH  28  29
ENDBRANCH  27  28
ENDBRANCH   1  27
TORSDOF 13
ENDMDL
MODEL 3
REMARK VINA RESULT:     -12.5      2.408      3.998
REMARK SMILES Cc1ccc(N2C(=O)C[C@H](Sc3ccccc3C(=O)NCCCNC(=O)c3ccc(-c4c5nc(c(-c6ccccc6)c6ccc([nH]6)c(-c6ccccc6)c6nc(c(-c7ccccc7)c7ccc4[nH]7)C=C6)C=C5)cc3)C2=O)cc1
REMARK SMILES IDX 21 1 20 2 18 3 19 4 17 6 12 7 13 8 14 9 16 10 15 11 11 12
REMARK SMILES IDX 10 13 6 14 7 15 75 16 8 17 9 18 76 19 5 20 1 21 2 22 3 23
REMARK SMILES IDX 78 24 4 25 77 26 22 27 23 28 24 29 25 30 26 32 27 33 28 34
REMARK SMILES IDX 74 35 29 36 73 37 30 38 31 39 32 40 67 41 33 42 72 43 66 44
REMARK SMILES IDX 68 45 34 46 71 47 65 48 64 49 35 51 57 52 42 53 56 54 43 55
REMARK SMILES IDX 46 56 55 57 69 58 44 59 45 60 54 62 70 63 47 64 36 65 37 66
REMARK SMILES IDX 41 67 38 68 40 69 39 70 58 71 59 72 63 73 60 74 62 75 61 76
REMARK SMILES IDX 48 77 49 78 53 79 50 80 52 81 51 82
REMARK H PARENT 20 5 24 31 68 50 46 61
REMARK Flexibility Score: inf
ROOT
ATOM      1  C   UNL A   1      33.240  29.677  25.863  1.00  0.00     0.118 C 
ENDROOT
BRANCH   1   2
ATOM      2  N   UNL A   1      33.526  29.200  24.517  1.00  0.00    -0.352 N 
ATOM      3  C   UNL A   1      32.792  28.862  23.406  1.00  0.00     0.252 C 
ATOM      4  O   UNL A   1      33.460  28.730  22.380  1.00  0.00    -0.269 OA
ATOM      5  H   UNL A   1      34.493  29.093  24.364  1.00  0.00     0.163 HD
BRANCH   3   6
ATOM      6  C   UNL A   1      31.309  28.621  23.374  1.00  0.00     0.053 A 
ATOM      7  C   UNL A   1      30.725  27.463  23.965  1.00  0.00     0.021 A 
ATOM      8  C   UNL A   1      29.341  27.230  23.813  1.00  0.00     0.016 A 
ATOM      9  C   UNL A   1      28.529  28.115  23.111  1.00  0.00     0.001 A 
ATOM     10  C   UNL A   1      30.459  29.490  22.669  1.00  0.00     0.015 A 
ATOM     11  C   UNL A   1      29.088  29.248  22.544  1.00  0.00     0.001 A 
BRANCH   7  12
ATOM     12  S   UNL A   1      31.589  26.086  24.743  1.00  0.00    -0.111 SA
BRANCH  12  13
ATOM     13  C   UNL A   1      31.299  24.660  23.638  1.00  0.00     0.151 C 
ATOM     14  N   UNL A   1      32.544  22.678  23.651  1.00  0.00    -0.250 N 
ATOM     15  C   UNL A   1      33.096  23.469  22.666  1.00  0.00     0.235 C 
ATOM     16  C   UNL A   1      31.509  23.323  24.301  1.00  0.00     0.247 C 
ATOM     17  O   UNL A   1      34.110  23.288  22.004  1.00  0.00    -0.274 OA
ATOM     18  C   UNL A   1      32.156  24.603  22.398  1.00  0.00     0.126 C 
ATOM     19  O   UNL A   1      30.872  22.936  25.272  1.00  0.00    -0.273 OA
BRANCH  14  20
ATOM     20  C   UNL A   1      32.958  21.348  23.929  1.00  0.00     0.052 A 
ATOM     21  C   UNL A   1      34.378  17.290  24.464  1.00  0.00     0.044 C 
ATOM     22  C   UNL A   1      33.869  18.693  24.313  1.00  0.00    -0.051 A 
ATOM     23  C   UNL A   1      32.733  18.949  23.541  1.00  0.00     0.005 A 
ATOM     24  C   UNL A   1      34.546  19.769  24.890  1.00  0.00     0.005 A 
ATOM     25  C   UNL A   1      32.271  20.259  23.371  1.00  0.00     0.027 A 
ATOM     26  C   UNL A   1      34.102  21.081  24.691  1.00  0.00     0.027 A 
ENDBRANCH  14  20
ENDBRANCH  12  13
ENDBRANCH   7  12
ENDBRANCH   3   6
ENDBRANCH   1   2
BRANCH   1  27
ATOM     27  C   UNL A   1      34.289  29.300  26.902  1.00  0.00     0.042 C 
BRANCH  27  28
ATOM     28  C   UNL A   1      34.850  30.518  27.631  1.00  0.00     0.118 C 
BRANCH  28  29
ATOM     29  N   UNL A   1      33.942  31.667  27.680  1.00  0.00    -0.352 N 
ATOM     30  C   UNL A   1      34.083  32.844  28.405  1.00  0.00     0.251 C 
ATOM     31  H   UNL A   1      33.129  31.597  27.129  1.00  0.00     0.163 HD
ATOM     32  O   UNL A   1      33.270  33.749  28.311  1.00  0.00    -0.269 OA
BRANCH  30  33
ATOM     33  C   UNL A   1      35.310  33.016  29.213  1.00  0.00     0.039 A 
ATOM     34  C   UNL A   1      36.382  33.701  28.633  1.00  0.00     0.014 A 
ATOM     35  C   UNL A   1      35.481  32.256  30.368  1.00  0.00     0.014 A 
ATOM     36  C   UNL A   1      37.672  33.399  29.052  1.00  0.00     0.010 A 
ATOM     37  C   UNL A   1      36.764  31.889  30.723  1.00  0.00     0.010 A 
ATOM     38  C   UNL A   1      37.854  32.394  30.003  1.00  0.00    -0.014 A 
BRANCH  38  39
ATOM     39  C   UNL A   1      39.118  31.678  30.149  1.00  0.00     0.031 A 
ATOM     40  C   UNL A   1      39.350  30.388  29.481  1.00  0.00     0.074 A 
ATOM     41  C   UNL A   1      40.115  32.233  30.873  1.00  0.00     0.049 A 
ATOM     42  N   UNL A   1      40.211  29.515  29.886  1.00  0.00    -0.248 NA
ATOM     43  C   UNL A   1      38.580  29.950  28.325  1.00  0.00     0.031 C 
ATOM     44  C   UNL A   1      41.518  31.830  30.918  1.00  0.00     0.029 A 
ATOM     45  N   UNL A   1      39.988  33.160  31.909  1.00  0.00    -0.354 N 
ATOM     46  C   UNL A   1      40.326  28.565  28.901  1.00  0.00     0.074 A 
ATOM     47  C   UNL A   1      39.225  28.826  28.001  1.00  0.00     0.031 C 
ATOM     48  C   UNL A   1      42.062  32.286  32.057  1.00  0.00     0.029 A 
ATOM     49  C   UNL A   1      40.993  32.867  32.850  1.00  0.00     0.049 A 
ATOM     50  H   UNL A   1      39.321  33.882  31.970  1.00  0.00     0.167 HD
ATOM     51  C   UNL A   1      41.418  27.750  28.878  1.00  0.00     0.031 A 
ATOM     52  C   UNL A   1      40.668  32.491  34.122  1.00  0.00     0.031 A 
ATOM     53  C   UNL A   1      42.298  27.954  30.031  1.00  0.00     0.049 A 
ATOM     54  C   UNL A   1      41.117  31.094  34.506  1.00  0.00     0.074 A 
ATOM     55  C   UNL A   1      43.537  28.548  30.216  1.00  0.00     0.029 A 
ATOM     56  N   UNL A   1      41.793  27.731  31.304  1.00  0.00    -0.354 N 
ATOM     57  N   UNL A   1      41.727  30.260  33.709  1.00  0.00    -0.248 NA
ATOM     58  C   UNL A   1      40.802  30.488  35.801  1.00  0.00     0.031 C 
ATOM     59  C   UNL A   1      43.777  28.659  31.616  1.00  0.00     0.029 A 
ATOM     60  C   UNL A   1      42.689  28.125  32.278  1.00  0.00     0.049 A 
ATOM     61  H   UNL A   1      40.908  27.341  31.488  1.00  0.00     0.167 HD
ATOM     62  C   UNL A   1      41.824  29.033  34.316  1.00  0.00     0.074 A 
ATOM     63  C   UNL A   1      41.236  29.228  35.628  1.00  0.00     0.031 C 
ATOM     64  C   UNL A   1      42.325  27.937  33.673  1.00  0.00     0.031 A 
BRANCH  51  65
ATOM     65  C   UNL A   1      41.810  26.937  27.666  1.00  0.00    -0.014 A 
ATOM     66  C   UNL A   1      42.380  27.576  26.551  1.00  0.00     0.009 A 
ATOM     67  C   UNL A   1      41.600  25.553  27.537  1.00  0.00     0.009 A 
ATOM     68  C   UNL A   1      42.616  26.900  25.345  1.00  0.00     0.001 A 
ATOM     69  C   UNL A   1      41.790  24.879  26.323  1.00  0.00     0.001 A 
ATOM     70  C   UNL A   1      42.286  25.558  25.220  1.00  0.00     0.000 A 
ENDBRANCH  51  65
BRANCH  52  71
ATOM     71  C   UNL A   1      39.436  33.151  34.637  1.00  0.00    -0.014 A 
ATOM     72  C   UNL A   1      38.185  32.695  34.176  1.00  0.00     0.009 A 
ATOM     73  C   UNL A   1      39.473  33.954  35.785  1.00  0.00     0.009 A 
ATOM     74  C   UNL A   1      37.018  32.948  34.901  1.00  0.00     0.001 A 
ATOM     75  C   UNL A   1      38.300  34.217  36.502  1.00  0.00     0.001 A 
ATOM     76  C   UNL A   1      37.081  33.686  36.079  1.00  0.00     0.000 A 
ENDBRANCH  52  71
BRANCH  64  77
ATOM     77  C   UNL A   1      42.467  26.562  34.281  1.00  0.00    -0.014 A 
ATOM     78  C   UNL A   1      41.493  25.964  35.090  1.00  0.00     0.009 A 
ATOM     79  C   UNL A   1      43.681  25.855  34.130  1.00  0.00     0.009 A 
ATOM     80  C   UNL A   1      41.689  24.692  35.648  1.00  0.00     0.001 A 
ATOM     81  C   UNL A   1      43.892  24.598  34.703  1.00  0.00     0.001 A 
ATOM     82  C   UNL A   1      42.885  24.008  35.451  1.00  0.00     0.000 A 
ENDBRANCH  64  77
ENDBRANCH  38  39
ENDBRANCH  30  33
ENDBRANCH  28  29
ENDBRANCH  27  28
ENDBRANCH   1  27
TORSDOF 13
ENDMDL
