MODEL 1
REMARK VINA RESULT:     -10.4      0.000      0.000
REMARK SMILES CS(=O)(=O)CC[C@H](NC(=O)Cc1ccn[nH]1)C(=O)NCCCNC(=O)c1ccc(-c2c3nc(c(-c4ccccc4)c4ccc([nH]4)c(-c4ccccc4)c4nc(c(-c5ccccc5)c5ccc2[nH]5)C=C4)C=C3)cc1
REMARK SMILES IDX 20 1 19 2 17 3 18 4 7 6 6 7 5 8 2 9 1 10 3 11 4 12 8 13 9 14
REMARK SMILES IDX 10 16 11 17 12 18 13 19 16 20 14 21 15 22 21 24 22 25 23 26
REMARK SMILES IDX 24 27 25 29 26 30 27 31 73 32 28 33 72 34 29 35 30 36 31 37
REMARK SMILES IDX 66 38 32 39 71 40 65 41 67 42 33 43 70 44 64 45 63 46 34 48
REMARK SMILES IDX 56 49 41 50 55 51 42 52 45 53 54 54 68 55 43 56 44 57 53 59
REMARK SMILES IDX 69 60 46 61 35 62 36 63 40 64 37 65 39 66 38 67 57 68 58 69
REMARK SMILES IDX 62 70 59 71 61 72 60 73 47 74 48 75 52 76 49 77 51 78 50 79
REMARK H PARENT 19 5 8 15 16 23 23 28 67 47 45 58
REMARK Flexibility Score: inf
ROOT
ATOM      1  C   UNL A   1      31.860  27.015  26.484  1.00  0.00     0.117 C 
ENDROOT
BRANCH   1   2
ATOM      2  N   UNL A   1      33.118  26.306  26.289  1.00  0.00    -0.354 N 
ATOM      3  C   UNL A   1      33.593  25.689  25.163  1.00  0.00     0.242 C 
ATOM      4  O   UNL A   1      34.778  25.346  25.136  1.00  0.00    -0.273 OA
ATOM      5  H   UNL A   1      33.707  26.264  27.077  1.00  0.00     0.163 HD
BRANCH   3   6
ATOM      6  C   UNL A   1      32.721  25.577  23.883  1.00  0.00     0.172 C 
BRANCH   6   7
ATOM      7  C   UNL A   1      32.474  24.093  23.601  1.00  0.00     0.051 C 
BRANCH   7   8
ATOM      8  C   UNL A   1      31.940  23.308  24.801  1.00  0.00     0.139 C 
BRANCH   8   9
ATOM      9  S   UNL A   1      32.788  21.756  25.100  1.00  0.00     0.147 S 
ATOM     10  C   UNL A   1      33.483  21.912  26.729  1.00  0.00     0.158 C 
ATOM     11  O   UNL A   1      33.896  21.694  24.169  1.00  0.00    -0.229 OA
ATOM     12  O   UNL A   1      31.801  20.691  25.142  1.00  0.00    -0.229 OA
ENDBRANCH   8   9
ENDBRANCH   7   8
ENDBRANCH   6   7
BRANCH   6  13
ATOM     13  N   UNL A   1      33.328  26.437  22.858  1.00  0.00    -0.344 N 
ATOM     14  C   UNL A   1      33.534  27.759  22.656  1.00  0.00     0.226 C 
ATOM     15  H   UNL A   1      33.684  25.904  22.111  1.00  0.00     0.164 HD
ATOM     16  O   UNL A   1      34.165  28.064  21.636  1.00  0.00    -0.275 OA
BRANCH  14  17
ATOM     17  C   UNL A   1      32.940  28.850  23.525  1.00  0.00     0.155 C 
BRANCH  17  18
ATOM     18  C   UNL A   1      31.548  29.144  23.072  1.00  0.00     0.044 A 
ATOM     19  C   UNL A   1      30.317  28.986  23.675  1.00  0.00     0.045 A 
ATOM     20  N   UNL A   1      31.280  29.670  21.833  1.00  0.00    -0.282 N 
ATOM     21  C   UNL A   1      29.383  29.297  22.670  1.00  0.00     0.135 A 
ATOM     22  N   UNL A   1      29.971  29.663  21.531  1.00  0.00    -0.184 NA
ATOM     23  H   UNL A   1      31.975  30.016  21.228  1.00  0.00     0.190 HD
ENDBRANCH  17  18
ENDBRANCH  14  17
ENDBRANCH   6  13
ENDBRANCH   3   6
ENDBRANCH   1   2
BRANCH   1  24
ATOM     24  C   UNL A   1      32.022  28.295  27.297  1.00  0.00     0.042 C 
BRANCH  24  25
ATOM     25  C   UNL A   1      33.437  28.851  27.264  1.00  0.00     0.118 C 
BRANCH  25  26
ATOM     26  N   UNL A   1      33.521  30.235  27.711  1.00  0.00    -0.352 N 
ATOM     27  C   UNL A   1      34.584  30.925  28.247  1.00  0.00     0.251 C 
ATOM     28  H   UNL A   1      32.691  30.757  27.614  1.00  0.00     0.163 HD
ATOM     29  O   UNL A   1      34.452  32.090  28.598  1.00  0.00    -0.269 OA
BRANCH  27  30
ATOM     30  C   UNL A   1      35.877  30.241  28.454  1.00  0.00     0.039 A 
ATOM     31  C   UNL A   1      36.799  30.226  27.402  1.00  0.00     0.014 A 
ATOM     32  C   UNL A   1      36.197  29.648  29.676  1.00  0.00     0.014 A 
ATOM     33  C   UNL A   1      38.072  29.687  27.601  1.00  0.00     0.010 A 
ATOM     34  C   UNL A   1      37.490  29.189  29.900  1.00  0.00     0.010 A 
ATOM     35  C   UNL A   1      38.441  29.206  28.867  1.00  0.00    -0.014 A 
BRANCH  35  36
ATOM     36  C   UNL A   1      39.805  28.690  29.143  1.00  0.00     0.031 A 
ATOM     37  C   UNL A   1      40.825  29.599  29.771  1.00  0.00     0.074 A 
ATOM     38  C   UNL A   1      40.151  27.448  28.752  1.00  0.00     0.049 A 
ATOM     39  N   UNL A   1      42.110  29.414  29.934  1.00  0.00    -0.248 NA
ATOM     40  C   UNL A   1      40.339  30.903  30.252  1.00  0.00     0.031 C 
ATOM     41  C   UNL A   1      39.263  26.475  28.113  1.00  0.00     0.029 A 
ATOM     42  N   UNL A   1      41.358  26.798  28.823  1.00  0.00    -0.354 N 
ATOM     43  C   UNL A   1      42.588  30.588  30.502  1.00  0.00     0.074 A 
ATOM     44  C   UNL A   1      41.466  31.494  30.615  1.00  0.00     0.031 C 
ATOM     45  C   UNL A   1      39.948  25.344  27.872  1.00  0.00     0.029 A 
ATOM     46  C   UNL A   1      41.333  25.531  28.291  1.00  0.00     0.049 A 
ATOM     47  H   UNL A   1      42.165  27.200  29.219  1.00  0.00     0.167 HD
ATOM     48  C   UNL A   1      43.844  30.880  30.912  1.00  0.00     0.031 A 
ATOM     49  C   UNL A   1      42.321  24.629  28.145  1.00  0.00     0.031 A 
ATOM     50  C   UNL A   1      44.952  29.969  30.828  1.00  0.00     0.049 A 
ATOM     51  C   UNL A   1      43.709  24.979  28.604  1.00  0.00     0.074 A 
ATOM     52  C   UNL A   1      46.260  30.159  31.238  1.00  0.00     0.029 A 
ATOM     53  N   UNL A   1      44.874  28.684  30.313  1.00  0.00    -0.354 N 
ATOM     54  N   UNL A   1      44.142  26.088  29.152  1.00  0.00    -0.248 NA
ATOM     55  C   UNL A   1      44.744  23.949  28.430  1.00  0.00     0.031 C 
ATOM     56  C   UNL A   1      46.979  28.995  30.950  1.00  0.00     0.029 A 
ATOM     57  C   UNL A   1      46.110  28.069  30.399  1.00  0.00     0.049 A 
ATOM     58  H   UNL A   1      44.061  28.272  29.942  1.00  0.00     0.167 HD
ATOM     59  C   UNL A   1      45.488  25.877  29.421  1.00  0.00     0.074 A 
ATOM     60  C   UNL A   1      45.798  24.532  28.983  1.00  0.00     0.031 C 
ATOM     61  C   UNL A   1      46.388  26.720  29.980  1.00  0.00     0.031 A 
BRANCH  48  62
ATOM     62  C   UNL A   1      44.077  32.243  31.497  1.00  0.00    -0.014 A 
ATOM     63  C   UNL A   1      44.433  33.328  30.680  1.00  0.00     0.009 A 
ATOM     64  C   UNL A   1      43.917  32.453  32.874  1.00  0.00     0.009 A 
ATOM     65  C   UNL A   1      44.660  34.588  31.236  1.00  0.00     0.001 A 
ATOM     66  C   UNL A   1      44.117  33.721  33.425  1.00  0.00     0.001 A 
ATOM     67  C   UNL A   1      44.497  34.784  32.608  1.00  0.00     0.000 A 
ENDBRANCH  48  62
BRANCH  49  68
ATOM     68  C   UNL A   1      42.043  23.298  27.543  1.00  0.00    -0.014 A 
ATOM     69  C   UNL A   1      41.510  22.264  28.329  1.00  0.00     0.009 A 
ATOM     70  C   UNL A   1      42.334  23.043  26.195  1.00  0.00     0.009 A 
ATOM     71  C   UNL A   1      41.308  20.993  27.786  1.00  0.00     0.001 A 
ATOM     72  C   UNL A   1      42.105  21.779  25.647  1.00  0.00     0.001 A 
ATOM     73  C   UNL A   1      41.603  20.752  26.446  1.00  0.00     0.000 A 
ENDBRANCH  49  68
BRANCH  61  74
ATOM     74  C   UNL A   1      47.774  26.194  30.208  1.00  0.00    -0.014 A 
ATOM     75  C   UNL A   1      48.723  26.169  29.175  1.00  0.00     0.009 A 
ATOM     76  C   UNL A   1      48.148  25.767  31.491  1.00  0.00     0.009 A 
ATOM     77  C   UNL A   1      50.015  25.701  29.419  1.00  0.00     0.001 A 
ATOM     78  C   UNL A   1      49.445  25.322  31.738  1.00  0.00     0.001 A 
ATOM     79  C   UNL A   1      50.376  25.282  30.701  1.00  0.00     0.000 A 
ENDBRANCH  61  74
ENDBRANCH  35  36
ENDBRANCH  27  30
ENDBRANCH  25  26
ENDBRANCH  24  25
ENDBRANCH   1  24
TORSDOF 16
ENDMDL
MODEL 2
REMARK VINA RESULT:     -10.1      2.898      7.187
REMARK SMILES CS(=O)(=O)CC[C@H](NC(=O)Cc1ccn[nH]1)C(=O)NCCCNC(=O)c1ccc(-c2c3nc(c(-c4ccccc4)c4ccc([nH]4)c(-c4ccccc4)c4nc(c(-c5ccccc5)c5ccc2[nH]5)C=C4)C=C3)cc1
REMARK SMILES IDX 20 1 19 2 17 3 18 4 7 6 6 7 5 8 2 9 1 10 3 11 4 12 8 13 9 14
REMARK SMILES IDX 10 16 11 17 12 18 13 19 16 20 14 21 15 22 21 24 22 25 23 26
REMARK SMILES IDX 24 27 25 29 26 30 27 31 73 32 28 33 72 34 29 35 30 36 31 37
REMARK SMILES IDX 66 38 32 39 71 40 65 41 67 42 33 43 70 44 64 45 63 46 34 48
REMARK SMILES IDX 56 49 41 50 55 51 42 52 45 53 54 54 68 55 43 56 44 57 53 59
REMARK SMILES IDX 69 60 46 61 35 62 36 63 40 64 37 65 39 66 38 67 57 68 58 69
REMARK SMILES IDX 62 70 59 71 61 72 60 73 47 74 48 75 52 76 49 77 51 78 50 79
REMARK H PARENT 19 5 8 15 16 23 23 28 67 47 45 58
REMARK Flexibility Score: inf
ROOT
ATOM      1  C   UNL A   1      32.243  29.721  26.801  1.00  0.00     0.117 C 
ENDROOT
BRANCH   1   2
ATOM      2  N   UNL A   1      33.346  29.478  25.881  1.00  0.00    -0.354 N 
ATOM      3  C   UNL A   1      33.560  28.403  25.059  1.00  0.00     0.242 C 
ATOM      4  O   UNL A   1      34.430  28.493  24.189  1.00  0.00    -0.273 OA
ATOM      5  H   UNL A   1      34.032  30.183  25.845  1.00  0.00     0.163 HD
BRANCH   3   6
ATOM      6  C   UNL A   1      32.621  27.167  25.097  1.00  0.00     0.172 C 
BRANCH   6   7
ATOM      7  C   UNL A   1      33.448  25.951  25.520  1.00  0.00     0.051 C 
BRANCH   7   8
ATOM      8  C   UNL A   1      32.864  24.610  25.071  1.00  0.00     0.139 C 
BRANCH   8   9
ATOM      9  S   UNL A   1      32.114  23.657  26.392  1.00  0.00     0.147 S 
ATOM     10  C   UNL A   1      30.882  22.651  25.598  1.00  0.00     0.158 C 
ATOM     11  O   UNL A   1      31.413  24.594  27.244  1.00  0.00    -0.229 OA
ATOM     12  O   UNL A   1      33.119  22.766  26.947  1.00  0.00    -0.229 OA
ENDBRANCH   8   9
ENDBRANCH   7   8
ENDBRANCH   6   7
BRANCH   6  13
ATOM     13  N   UNL A   1      31.864  27.149  23.837  1.00  0.00    -0.344 N 
ATOM     14  C   UNL A   1      30.986  27.947  23.186  1.00  0.00     0.226 C 
ATOM     15  H   UNL A   1      32.046  26.330  23.323  1.00  0.00     0.164 HD
ATOM     16  O   UNL A   1      30.619  27.559  22.070  1.00  0.00    -0.275 OA
BRANCH  14  17
ATOM     17  C   UNL A   1      30.357  29.185  23.795  1.00  0.00     0.155 C 
BRANCH  17  18
ATOM     18  C   UNL A   1      29.438  29.816  22.803  1.00  0.00     0.044 A 
ATOM     19  C   UNL A   1      28.064  29.915  22.735  1.00  0.00     0.045 A 
ATOM     20  N   UNL A   1      29.903  30.454  21.680  1.00  0.00    -0.282 N 
ATOM     21  C   UNL A   1      27.806  30.486  21.475  1.00  0.00     0.135 A 
ATOM     22  N   UNL A   1      28.928  30.766  20.811  1.00  0.00    -0.184 NA
ATOM     23  H   UNL A   1      30.853  30.663  21.528  1.00  0.00     0.190 HD
ENDBRANCH  17  18
ENDBRANCH  14  17
ENDBRANCH   6  13
ENDBRANCH   3   6
ENDBRANCH   1   2
BRANCH   1  24
ATOM     24  C   UNL A   1      31.806  31.182  26.828  1.00  0.00     0.042 C 
BRANCH  24  25
ATOM     25  C   UNL A   1      32.956  32.146  27.076  1.00  0.00     0.118 C 
BRANCH  25  26
ATOM     26  N   UNL A   1      32.520  33.442  27.581  1.00  0.00    -0.352 N 
ATOM     27  C   UNL A   1      33.130  34.288  28.479  1.00  0.00     0.251 C 
ATOM     28  H   UNL A   1      31.659  33.761  27.226  1.00  0.00     0.163 HD
ATOM     29  O   UNL A   1      32.587  35.333  28.811  1.00  0.00    -0.269 OA
BRANCH  27  30
ATOM     30  C   UNL A   1      34.420  33.907  29.091  1.00  0.00     0.039 A 
ATOM     31  C   UNL A   1      34.404  33.094  30.230  1.00  0.00     0.014 A 
ATOM     32  C   UNL A   1      35.634  34.315  28.538  1.00  0.00     0.014 A 
ATOM     33  C   UNL A   1      35.605  32.624  30.765  1.00  0.00     0.010 A 
ATOM     34  C   UNL A   1      36.823  33.780  29.018  1.00  0.00     0.010 A 
ATOM     35  C   UNL A   1      36.821  32.928  30.134  1.00  0.00    -0.014 A 
BRANCH  35  36
ATOM     36  C   UNL A   1      38.115  32.393  30.626  1.00  0.00     0.031 A 
ATOM     37  C   UNL A   1      38.669  31.130  30.026  1.00  0.00     0.074 A 
ATOM     38  C   UNL A   1      38.742  32.983  31.663  1.00  0.00     0.049 A 
ATOM     39  N   UNL A   1      39.678  30.399  30.422  1.00  0.00    -0.248 NA
ATOM     40  C   UNL A   1      37.972  30.604  28.840  1.00  0.00     0.031 C 
ATOM     41  C   UNL A   1      38.300  34.200  32.348  1.00  0.00     0.029 A 
ATOM     42  N   UNL A   1      39.885  32.624  32.332  1.00  0.00    -0.354 N 
ATOM     43  C   UNL A   1      39.715  29.312  29.557  1.00  0.00     0.074 A 
ATOM     44  C   UNL A   1      38.603  29.457  28.644  1.00  0.00     0.031 C 
ATOM     45  C   UNL A   1      39.173  34.497  33.325  1.00  0.00     0.029 A 
ATOM     46  C   UNL A   1      40.206  33.468  33.367  1.00  0.00     0.049 A 
ATOM     47  H   UNL A   1      40.425  31.836  32.092  1.00  0.00     0.167 HD
ATOM     48  C   UNL A   1      40.607  28.295  29.512  1.00  0.00     0.031 A 
ATOM     49  C   UNL A   1      41.212  33.408  34.260  1.00  0.00     0.031 A 
ATOM     50  C   UNL A   1      41.730  28.168  30.399  1.00  0.00     0.049 A 
ATOM     51  C   UNL A   1      42.186  32.266  34.193  1.00  0.00     0.074 A 
ATOM     52  C   UNL A   1      42.707  27.188  30.421  1.00  0.00     0.029 A 
ATOM     53  N   UNL A   1      42.035  29.064  31.411  1.00  0.00    -0.354 N 
ATOM     54  N   UNL A   1      42.216  31.254  33.359  1.00  0.00    -0.248 NA
ATOM     55  C   UNL A   1      43.271  32.261  35.185  1.00  0.00     0.031 C 
ATOM     56  C   UNL A   1      43.592  27.480  31.463  1.00  0.00     0.029 A 
ATOM     57  C   UNL A   1      43.188  28.662  32.062  1.00  0.00     0.049 A 
ATOM     58  H   UNL A   1      41.511  29.867  31.634  1.00  0.00     0.167 HD
ATOM     59  C   UNL A   1      43.339  30.514  33.702  1.00  0.00     0.074 A 
ATOM     60  C   UNL A   1      43.968  31.196  34.814  1.00  0.00     0.031 C 
ATOM     61  C   UNL A   1      43.809  29.371  33.149  1.00  0.00     0.031 A 
BRANCH  48  62
ATOM     62  C   UNL A   1      40.402  27.246  28.457  1.00  0.00    -0.014 A 
ATOM     63  C   UNL A   1      41.005  27.365  27.195  1.00  0.00     0.009 A 
ATOM     64  C   UNL A   1      39.618  26.116  28.733  1.00  0.00     0.009 A 
ATOM     65  C   UNL A   1      40.797  26.390  26.217  1.00  0.00     0.001 A 
ATOM     66  C   UNL A   1      39.434  25.129  27.763  1.00  0.00     0.001 A 
ATOM     67  C   UNL A   1      40.015  25.271  26.504  1.00  0.00     0.000 A 
ENDBRANCH  48  62
BRANCH  49  68
ATOM     68  C   UNL A   1      41.363  34.463  35.297  1.00  0.00    -0.014 A 
ATOM     69  C   UNL A   1      42.155  35.595  35.044  1.00  0.00     0.009 A 
ATOM     70  C   UNL A   1      40.744  34.334  36.549  1.00  0.00     0.009 A 
ATOM     71  C   UNL A   1      42.354  36.557  36.037  1.00  0.00     0.001 A 
ATOM     72  C   UNL A   1      40.922  35.312  37.531  1.00  0.00     0.001 A 
ATOM     73  C   UNL A   1      41.736  36.416  37.278  1.00  0.00     0.000 A 
ENDBRANCH  49  68
BRANCH  61  74
ATOM     74  C   UNL A   1      45.095  28.821  33.693  1.00  0.00    -0.014 A 
ATOM     75  C   UNL A   1      46.336  29.230  33.181  1.00  0.00     0.009 A 
ATOM     76  C   UNL A   1      45.060  27.922  34.769  1.00  0.00     0.009 A 
ATOM     77  C   UNL A   1      47.519  28.725  33.723  1.00  0.00     0.001 A 
ATOM     78  C   UNL A   1      46.244  27.438  35.323  1.00  0.00     0.001 A 
ATOM     79  C   UNL A   1      47.473  27.834  34.796  1.00  0.00     0.000 A 
ENDBRANCH  61  74
ENDBRANCH  35  36
ENDBRANCH  27  30
ENDBRANCH  25  26
ENDBRANCH  24  25
ENDBRANCH   1  24
TORSDOF 16
ENDMDL
MODEL 3
REMARK VINA RESULT:     -10.0      2.065      3.797
REMARK SMILES CS(=O)(=O)CC[C@H](NC(=O)Cc1ccn[nH]1)C(=O)NCCCNC(=O)c1ccc(-c2c3nc(c(-c4ccccc4)c4ccc([nH]4)c(-c4ccccc4)c4nc(c(-c5ccccc5)c5ccc2[nH]5)C=C4)C=C3)cc1
REMARK SMILES IDX 20 1 19 2 17 3 18 4 7 6 6 7 5 8 2 9 1 10 3 11 4 12 8 13 9 14
REMARK SMILES IDX 10 16 11 17 12 18 13 19 16 20 14 21 15 22 21 24 22 25 23 26
REMARK SMILES IDX 24 27 25 29 26 30 27 31 73 32 28 33 72 34 29 35 30 36 31 37
REMARK SMILES IDX 66 38 32 39 71 40 65 41 67 42 33 43 70 44 64 45 63 46 34 48
REMARK SMILES IDX 56 49 41 50 55 51 42 52 45 53 54 54 68 55 43 56 44 57 53 59
REMARK SMILES IDX 69 60 46 61 35 62 36 63 40 64 37 65 39 66 38 67 57 68 58 69
REMARK SMILES IDX 62 70 59 71 61 72 60 73 47 74 48 75 52 76 49 77 51 78 50 79
REMARK H PARENT 19 5 8 15 16 23 23 28 67 47 45 58
REMARK Flexibility Score: inf
ROOT
ATOM      1  C   UNL A   1      33.278  26.806  25.642  1.00  0.00     0.117 C 
ENDROOT
BRANCH   1   2
ATOM      2  N   UNL A   1      33.905  26.297  24.429  1.00  0.00    -0.354 N 
ATOM      3  C   UNL A   1      34.007  25.004  23.990  1.00  0.00     0.242 C 
ATOM      4  O   UNL A   1      34.372  24.805  22.829  1.00  0.00    -0.273 OA
ATOM      5  H   UNL A   1      34.313  26.977  23.846  1.00  0.00     0.163 HD
BRANCH   3   6
ATOM      6  C   UNL A   1      33.512  23.821  24.865  1.00  0.00     0.172 C 
BRANCH   6   7
ATOM      7  C   UNL A   1      34.544  23.578  25.969  1.00  0.00     0.051 C 
BRANCH   7   8
ATOM      8  C   UNL A   1      35.996  23.729  25.512  1.00  0.00     0.139 C 
BRANCH   8   9
ATOM      9  S   UNL A   1      36.804  22.180  25.109  1.00  0.00     0.147 S 
ATOM     10  C   UNL A   1      38.421  22.294  25.839  1.00  0.00     0.158 C 
ATOM     11  O   UNL A   1      36.986  22.160  23.672  1.00  0.00    -0.229 OA
ATOM     12  O   UNL A   1      36.095  21.101  25.776  1.00  0.00    -0.229 OA
ENDBRANCH   8   9
ENDBRANCH   7   8
ENDBRANCH   6   7
BRANCH   6  13
ATOM     13  N   UNL A   1      33.125  22.732  23.956  1.00  0.00    -0.344 N 
ATOM     14  C   UNL A   1      32.745  21.437  24.052  1.00  0.00     0.226 C 
ATOM     15  H   UNL A   1      33.148  23.027  23.018  1.00  0.00     0.164 HD
ATOM     16  O   UNL A   1      32.443  20.876  22.991  1.00  0.00    -0.275 OA
BRANCH  14  17
ATOM     17  C   UNL A   1      32.794  20.634  25.338  1.00  0.00     0.155 C 
BRANCH  17  18
ATOM     18  C   UNL A   1      33.166  19.222  25.029  1.00  0.00     0.044 A 
ATOM     19  C   UNL A   1      32.445  18.046  25.024  1.00  0.00     0.045 A 
ATOM     20  N   UNL A   1      34.443  18.865  24.672  1.00  0.00    -0.282 N 
ATOM     21  C   UNL A   1      33.401  17.038  24.805  1.00  0.00     0.135 A 
ATOM     22  N   UNL A   1      34.628  17.535  24.643  1.00  0.00    -0.184 NA
ATOM     23  H   UNL A   1      35.149  19.517  24.458  1.00  0.00     0.190 HD
ENDBRANCH  17  18
ENDBRANCH  14  17
ENDBRANCH   6  13
ENDBRANCH   3   6
ENDBRANCH   1   2
BRANCH   1  24
ATOM     24  C   UNL A   1      33.865  28.137  26.098  1.00  0.00     0.042 C 
BRANCH  24  25
ATOM     25  C   UNL A   1      33.352  28.584  27.457  1.00  0.00     0.118 C 
BRANCH  25  26
ATOM     26  N   UNL A   1      33.460  30.022  27.668  1.00  0.00    -0.352 N 
ATOM     27  C   UNL A   1      34.546  30.778  28.045  1.00  0.00     0.251 C 
ATOM     28  H   UNL A   1      32.630  30.530  27.518  1.00  0.00     0.163 HD
ATOM     29  O   UNL A   1      34.433  31.986  28.205  1.00  0.00    -0.269 OA
BRANCH  27  30
ATOM     30  C   UNL A   1      35.843  30.123  28.314  1.00  0.00     0.039 A 
ATOM     31  C   UNL A   1      36.807  30.111  27.300  1.00  0.00     0.014 A 
ATOM     32  C   UNL A   1      36.124  29.553  29.556  1.00  0.00     0.014 A 
ATOM     33  C   UNL A   1      38.081  29.601  27.559  1.00  0.00     0.010 A 
ATOM     34  C   UNL A   1      37.415  29.123  29.839  1.00  0.00     0.010 A 
ATOM     35  C   UNL A   1      38.407  29.145  28.845  1.00  0.00    -0.014 A 
BRANCH  35  36
ATOM     36  C   UNL A   1      39.768  28.660  29.184  1.00  0.00     0.031 A 
ATOM     37  C   UNL A   1      40.721  29.576  29.900  1.00  0.00     0.074 A 
ATOM     38  C   UNL A   1      40.175  27.442  28.774  1.00  0.00     0.049 A 
ATOM     39  N   UNL A   1      42.000  29.423  30.131  1.00  0.00    -0.248 NA
ATOM     40  C   UNL A   1      40.168  30.849  30.393  1.00  0.00     0.031 C 
ATOM     41  C   UNL A   1      39.355  26.466  28.053  1.00  0.00     0.029 A 
ATOM     42  N   UNL A   1      41.395  26.826  28.894  1.00  0.00    -0.354 N 
ATOM     43  C   UNL A   1      42.408  30.591  30.763  1.00  0.00     0.074 A 
ATOM     44  C   UNL A   1      41.254  31.459  30.840  1.00  0.00     0.031 C 
ATOM     45  C   UNL A   1      40.089  25.365  27.816  1.00  0.00     0.029 A 
ATOM     46  C   UNL A   1      41.440  25.578  28.321  1.00  0.00     0.049 A 
ATOM     47  H   UNL A   1      42.165  27.238  29.349  1.00  0.00     0.167 HD
ATOM     48  C   UNL A   1      43.629  30.905  31.255  1.00  0.00     0.031 A 
ATOM     49  C   UNL A   1      42.463  24.710  28.203  1.00  0.00     0.031 A 
ATOM     50  C   UNL A   1      44.767  30.030  31.207  1.00  0.00     0.049 A 
ATOM     51  C   UNL A   1      43.811  25.085  28.753  1.00  0.00     0.074 A 
ATOM     52  C   UNL A   1      46.044  30.244  31.699  1.00  0.00     0.029 A 
ATOM     53  N   UNL A   1      44.759  28.763  30.647  1.00  0.00    -0.354 N 
ATOM     54  N   UNL A   1      44.177  26.187  29.362  1.00  0.00    -0.248 NA
ATOM     55  C   UNL A   1      44.885  24.093  28.607  1.00  0.00     0.031 C 
ATOM     56  C   UNL A   1      46.814  29.113  31.416  1.00  0.00     0.029 A 
ATOM     57  C   UNL A   1      46.007  28.181  30.785  1.00  0.00     0.049 A 
ATOM     58  H   UNL A   1      43.982  28.339  30.216  1.00  0.00     0.167 HD
ATOM     59  C   UNL A   1      45.511  26.007  29.702  1.00  0.00     0.074 A 
ATOM     60  C   UNL A   1      45.887  24.687  29.240  1.00  0.00     0.031 C 
ATOM     61  C   UNL A   1      46.351  26.856  30.339  1.00  0.00     0.031 A 
BRANCH  48  62
ATOM     62  C   UNL A   1      43.786  32.254  31.897  1.00  0.00    -0.014 A 
ATOM     63  C   UNL A   1      43.586  32.423  33.277  1.00  0.00     0.009 A 
ATOM     64  C   UNL A   1      44.159  33.362  31.123  1.00  0.00     0.009 A 
ATOM     65  C   UNL A   1      43.722  33.684  33.861  1.00  0.00     0.001 A 
ATOM     66  C   UNL A   1      44.321  34.616  31.714  1.00  0.00     0.001 A 
ATOM     67  C   UNL A   1      44.093  34.778  33.080  1.00  0.00     0.000 A 
ENDBRANCH  48  62
BRANCH  49  68
ATOM     68  C   UNL A   1      42.262  23.393  27.544  1.00  0.00    -0.014 A 
ATOM     69  C   UNL A   1      41.757  22.306  28.275  1.00  0.00     0.009 A 
ATOM     70  C   UNL A   1      42.598  23.206  26.195  1.00  0.00     0.009 A 
ATOM     71  C   UNL A   1      41.627  21.049  27.678  1.00  0.00     0.001 A 
ATOM     72  C   UNL A   1      42.441  21.955  25.593  1.00  0.00     0.001 A 
ATOM     73  C   UNL A   1      41.967  20.876  26.338  1.00  0.00     0.000 A 
ENDBRANCH  49  68
BRANCH  61  74
ATOM     74  C   UNL A   1      47.737  26.363  30.631  1.00  0.00    -0.014 A 
ATOM     75  C   UNL A   1      48.772  26.504  29.694  1.00  0.00     0.009 A 
ATOM     76  C   UNL A   1      48.019  25.798  31.884  1.00  0.00     0.009 A 
ATOM     77  C   UNL A   1      50.061  26.063  30.000  1.00  0.00     0.001 A 
ATOM     78  C   UNL A   1      49.312  25.379  32.195  1.00  0.00     0.001 A 
ATOM     79  C   UNL A   1      50.330  25.505  31.251  1.00  0.00     0.000 A 
ENDBRANCH  61  74
ENDBRANCH  35  36
ENDBRANCH  27  30
ENDBRANCH  25  26
ENDBRANCH  24  25
ENDBRANCH   1  24
TORSDOF 16
ENDMDL
