MODEL 1
REMARK VINA RESULT:     -10.7      0.000      0.000
REMARK SMILES CC[C@@H](C)N(C)C(=O)N1[C@@H](C(=O)NCCCNC(=O)c2ccc(-c3c4nc(c(-c5ccccc5)c5ccc([nH]5)c(-c5ccccc5)c5nc(c(-c6ccccc6)c6ccc3[nH]6)C=C5)C=C4)cc2)CC[C@H]2CCCC[C@H]21
REMARK SMILES IDX 14 1 13 2 11 3 12 4 10 6 9 7 75 8 68 9 70 10 74 11 69 12
REMARK SMILES IDX 71 13 73 14 72 15 7 16 8 17 5 18 6 19 3 20 4 21 2 22 1 23
REMARK SMILES IDX 15 24 16 25 17 26 18 27 19 29 20 30 21 31 67 32 22 33 66 34
REMARK SMILES IDX 23 35 24 36 25 37 60 38 26 39 65 40 59 41 61 42 27 43 64 44
REMARK SMILES IDX 58 45 57 46 28 48 50 49 35 50 49 51 36 52 39 53 48 54 62 55
REMARK SMILES IDX 37 56 38 57 47 59 63 60 40 61 29 62 30 63 34 64 31 65 33 66
REMARK SMILES IDX 32 67 51 68 52 69 56 70 53 71 55 72 54 73 41 74 42 75 46 76
REMARK SMILES IDX 43 77 45 78 44 79
REMARK H PARENT 13 5 17 28 61 47 39 58
REMARK Flexibility Score: inf
ROOT
ATOM      1  C   UNL A   1      31.732  30.813  26.080  1.00  0.00     0.117 C 
ENDROOT
BRANCH   1   2
ATOM      2  N   UNL A   1      31.378  29.712  26.955  1.00  0.00    -0.354 N 
ATOM      3  C   UNL A   1      31.711  28.395  26.852  1.00  0.00     0.242 C 
ATOM      4  O   UNL A   1      31.170  27.607  27.634  1.00  0.00    -0.273 OA
ATOM      5  H   UNL A   1      30.818  29.948  27.730  1.00  0.00     0.163 HD
BRANCH   3   6
ATOM      6  C   UNL A   1      32.593  27.871  25.697  1.00  0.00     0.176 C 
ATOM      7  N   UNL A   1      31.885  27.365  24.497  1.00  0.00    -0.309 N 
ATOM      8  C   UNL A   1      32.707  26.632  23.517  1.00  0.00     0.091 C 
ATOM      9  C   UNL A   1      33.510  26.795  26.328  1.00  0.00     0.036 C 
ATOM     10  C   UNL A   1      33.517  25.495  24.147  1.00  0.00     0.012 C 
ATOM     11  C   UNL A   1      32.030  26.109  22.240  1.00  0.00     0.025 C 
ATOM     12  C   UNL A   1      34.349  26.020  25.320  1.00  0.00     0.008 C 
ATOM     13  C   UNL A   1      32.672  24.264  24.514  1.00  0.00     0.006 C 
ATOM     14  C   UNL A   1      31.288  24.778  22.378  1.00  0.00     0.002 C 
ATOM     15  C   UNL A   1      31.367  24.096  23.739  1.00  0.00     0.000 C 
BRANCH   7  16
ATOM     16  C   UNL A   1      30.589  27.681  24.158  1.00  0.00     0.320 C 
ATOM     17  O   UNL A   1      29.690  26.908  24.496  1.00  0.00    -0.248 OA
BRANCH  16  18
ATOM     18  N   UNL A   1      30.298  28.813  23.427  1.00  0.00    -0.325 N 
ATOM     19  C   UNL A   1      31.134  29.398  22.389  1.00  0.00     0.149 C 
BRANCH  18  20
ATOM     20  C   UNL A   1      28.924  29.374  23.539  1.00  0.00     0.083 C 
ATOM     21  C   UNL A   1      27.968  28.867  22.451  1.00  0.00     0.031 C 
BRANCH  20  22
ATOM     22  C   UNL A   1      28.993  30.918  23.634  1.00  0.00     0.021 C 
ATOM     23  C   UNL A   1      27.652  31.625  23.550  1.00  0.00     0.006 C 
ENDBRANCH  20  22
ENDBRANCH  18  20
ENDBRANCH  16  18
ENDBRANCH   7  16
ENDBRANCH   3   6
ENDBRANCH   1   2
BRANCH   1  24
ATOM     24  C   UNL A   1      31.475  32.160  26.725  1.00  0.00     0.042 C 
BRANCH  24  25
ATOM     25  C   UNL A   1      32.747  32.935  27.000  1.00  0.00     0.118 C 
BRANCH  25  26
ATOM     26  N   UNL A   1      32.512  34.129  27.797  1.00  0.00    -0.352 N 
ATOM     27  C   UNL A   1      33.190  34.593  28.895  1.00  0.00     0.251 C 
ATOM     28  H   UNL A   1      31.754  34.686  27.506  1.00  0.00     0.163 HD
ATOM     29  O   UNL A   1      32.740  35.524  29.551  1.00  0.00    -0.269 OA
BRANCH  27  30
ATOM     30  C   UNL A   1      34.461  33.955  29.290  1.00  0.00     0.039 A 
ATOM     31  C   UNL A   1      34.447  33.001  30.310  1.00  0.00     0.014 A 
ATOM     32  C   UNL A   1      35.664  34.305  28.670  1.00  0.00     0.014 A 
ATOM     33  C   UNL A   1      35.638  32.381  30.685  1.00  0.00     0.010 A 
ATOM     34  C   UNL A   1      36.824  33.603  28.963  1.00  0.00     0.010 A 
ATOM     35  C   UNL A   1      36.832  32.665  30.003  1.00  0.00    -0.014 A 
BRANCH  35  36
ATOM     36  C   UNL A   1      38.114  32.047  30.412  1.00  0.00     0.031 A 
ATOM     37  C   UNL A   1      38.950  32.699  31.482  1.00  0.00     0.074 A 
ATOM     38  C   UNL A   1      38.539  30.921  29.809  1.00  0.00     0.049 A 
ATOM     39  N   UNL A   1      40.101  32.321  31.977  1.00  0.00    -0.248 NA
ATOM     40  C   UNL A   1      38.442  33.959  32.050  1.00  0.00     0.031 C 
ATOM     41  C   UNL A   1      37.841  30.219  28.729  1.00  0.00     0.029 A 
ATOM     42  N   UNL A   1      39.662  30.166  30.025  1.00  0.00    -0.354 N 
ATOM     43  C   UNL A   1      40.456  33.302  32.894  1.00  0.00     0.074 A 
ATOM     44  C   UNL A   1      39.439  34.326  32.838  1.00  0.00     0.031 C 
ATOM     45  C   UNL A   1      38.530  29.112  28.408  1.00  0.00     0.029 A 
ATOM     46  C   UNL A   1      39.734  29.048  29.231  1.00  0.00     0.049 A 
ATOM     47  H   UNL A   1      40.352  30.402  30.687  1.00  0.00     0.167 HD
ATOM     48  C   UNL A   1      41.518  33.336  33.734  1.00  0.00     0.031 A 
ATOM     49  C   UNL A   1      40.664  28.077  29.179  1.00  0.00     0.031 A 
ATOM     50  C   UNL A   1      42.521  32.310  33.798  1.00  0.00     0.049 A 
ATOM     51  C   UNL A   1      41.835  28.136  30.121  1.00  0.00     0.074 A 
ATOM     52  C   UNL A   1      43.612  32.221  34.645  1.00  0.00     0.029 A 
ATOM     53  N   UNL A   1      42.553  31.189  32.983  1.00  0.00    -0.354 N 
ATOM     54  N   UNL A   1      42.122  29.036  31.031  1.00  0.00    -0.248 NA
ATOM     55  C   UNL A   1      42.798  27.030  30.042  1.00  0.00     0.031 C 
ATOM     56  C   UNL A   1      44.334  31.072  34.305  1.00  0.00     0.029 A 
ATOM     57  C   UNL A   1      43.655  30.411  33.294  1.00  0.00     0.049 A 
ATOM     58  H   UNL A   1      41.891  30.978  32.285  1.00  0.00     0.167 HD
ATOM     59  C   UNL A   1      43.276  28.585  31.659  1.00  0.00     0.074 A 
ATOM     60  C   UNL A   1      43.623  27.324  31.036  1.00  0.00     0.031 C 
ATOM     61  C   UNL A   1      43.983  29.158  32.664  1.00  0.00     0.031 A 
BRANCH  48  62
ATOM     62  C   UNL A   1      41.642  34.530  34.641  1.00  0.00    -0.014 A 
ATOM     63  C   UNL A   1      42.337  35.684  34.240  1.00  0.00     0.009 A 
ATOM     64  C   UNL A   1      41.043  34.509  35.910  1.00  0.00     0.009 A 
ATOM     65  C   UNL A   1      42.466  36.771  35.107  1.00  0.00     0.001 A 
ATOM     66  C   UNL A   1      41.144  35.612  36.761  1.00  0.00     0.001 A 
ATOM     67  C   UNL A   1      41.865  36.736  36.364  1.00  0.00     0.000 A 
ENDBRANCH  48  62
BRANCH  49  68
ATOM     68  C   UNL A   1      40.511  26.945  28.226  1.00  0.00    -0.014 A 
ATOM     69  C   UNL A   1      41.077  27.012  26.943  1.00  0.00     0.009 A 
ATOM     70  C   UNL A   1      39.787  25.799  28.587  1.00  0.00     0.009 A 
ATOM     71  C   UNL A   1      40.890  25.971  26.031  1.00  0.00     0.001 A 
ATOM     72  C   UNL A   1      39.630  24.745  27.685  1.00  0.00     0.001 A 
ATOM     73  C   UNL A   1      40.170  24.837  26.403  1.00  0.00     0.000 A 
ENDBRANCH  49  68
BRANCH  61  74
ATOM     74  C   UNL A   1      45.169  28.396  33.188  1.00  0.00    -0.014 A 
ATOM     75  C   UNL A   1      46.459  28.592  32.671  1.00  0.00     0.009 A 
ATOM     76  C   UNL A   1      44.988  27.475  34.232  1.00  0.00     0.009 A 
ATOM     77  C   UNL A   1      47.533  27.843  33.155  1.00  0.00     0.001 A 
ATOM     78  C   UNL A   1      46.070  26.755  34.739  1.00  0.00     0.001 A 
ATOM     79  C   UNL A   1      47.338  26.929  34.190  1.00  0.00     0.000 A 
ENDBRANCH  61  74
ENDBRANCH  35  36
ENDBRANCH  27  30
ENDBRANCH  25  26
ENDBRANCH  24  25
ENDBRANCH   1  24
TORSDOF 14
ENDMDL
MODEL 2
REMARK VINA RESULT:     -10.7      2.713      4.743
REMARK SMILES CC[C@@H](C)N(C)C(=O)N1[C@@H](C(=O)NCCCNC(=O)c2ccc(-c3c4nc(c(-c5ccccc5)c5ccc([nH]5)c(-c5ccccc5)c5nc(c(-c6ccccc6)c6ccc3[nH]6)C=C5)C=C4)cc2)CC[C@H]2CCCC[C@H]21
REMARK SMILES IDX 14 1 13 2 11 3 12 4 10 6 9 7 75 8 68 9 70 10 74 11 69 12
REMARK SMILES IDX 71 13 73 14 72 15 7 16 8 17 5 18 6 19 3 20 4 21 2 22 1 23
REMARK SMILES IDX 15 24 16 25 17 26 18 27 19 29 20 30 21 31 67 32 22 33 66 34
REMARK SMILES IDX 23 35 24 36 25 37 60 38 26 39 65 40 59 41 61 42 27 43 64 44
REMARK SMILES IDX 58 45 57 46 28 48 50 49 35 50 49 51 36 52 39 53 48 54 62 55
REMARK SMILES IDX 37 56 38 57 47 59 63 60 40 61 29 62 30 63 34 64 31 65 33 66
REMARK SMILES IDX 32 67 51 68 52 69 56 70 53 71 55 72 54 73 41 74 42 75 46 76
REMARK SMILES IDX 43 77 45 78 44 79
REMARK H PARENT 13 5 17 28 61 47 39 58
REMARK Flexibility Score: inf
ROOT
ATOM      1  C   UNL A   1      31.440  27.713  26.820  1.00  0.00     0.117 C 
ENDROOT
BRANCH   1   2
ATOM      2  N   UNL A   1      31.574  26.341  27.274  1.00  0.00    -0.354 N 
ATOM      3  C   UNL A   1      31.437  25.187  26.565  1.00  0.00     0.242 C 
ATOM      4  O   UNL A   1      31.449  24.125  27.195  1.00  0.00    -0.273 OA
ATOM      5  H   UNL A   1      31.792  26.230  28.228  1.00  0.00     0.163 HD
BRANCH   3   6
ATOM      6  C   UNL A   1      31.106  25.200  25.055  1.00  0.00     0.176 C 
ATOM      7  N   UNL A   1      32.246  25.394  24.127  1.00  0.00    -0.309 N 
ATOM      8  C   UNL A   1      31.900  25.666  22.721  1.00  0.00     0.091 C 
ATOM      9  C   UNL A   1      30.018  26.288  24.876  1.00  0.00     0.036 C 
ATOM     10  C   UNL A   1      30.911  26.826  22.561  1.00  0.00     0.012 C 
ATOM     11  C   UNL A   1      33.042  25.849  21.708  1.00  0.00     0.025 C 
ATOM     12  C   UNL A   1      29.669  26.589  23.424  1.00  0.00     0.008 C 
ATOM     13  C   UNL A   1      31.541  28.210  22.782  1.00  0.00     0.006 C 
ATOM     14  C   UNL A   1      33.672  27.242  21.659  1.00  0.00     0.002 C 
ATOM     15  C   UNL A   1      33.050  28.299  22.564  1.00  0.00     0.000 C 
BRANCH   7  16
ATOM     16  C   UNL A   1      33.565  25.163  24.445  1.00  0.00     0.320 C 
ATOM     17  O   UNL A   1      34.263  26.122  24.783  1.00  0.00    -0.248 OA
BRANCH  16  18
ATOM     18  N   UNL A   1      34.111  23.901  24.353  1.00  0.00    -0.325 N 
ATOM     19  C   UNL A   1      33.387  22.677  24.037  1.00  0.00     0.149 C 
BRANCH  18  20
ATOM     20  C   UNL A   1      35.595  23.787  24.359  1.00  0.00     0.083 C 
ATOM     21  C   UNL A   1      36.145  22.932  23.209  1.00  0.00     0.031 C 
BRANCH  20  22
ATOM     22  C   UNL A   1      36.081  23.335  25.758  1.00  0.00     0.021 C 
ATOM     23  C   UNL A   1      37.497  23.756  26.109  1.00  0.00     0.006 C 
ENDBRANCH  20  22
ENDBRANCH  18  20
ENDBRANCH  16  18
ENDBRANCH   7  16
ENDBRANCH   3   6
ENDBRANCH   1   2
BRANCH   1  24
ATOM     24  C   UNL A   1      32.746  28.267  26.288  1.00  0.00     0.042 C 
BRANCH  24  25
ATOM     25  C   UNL A   1      33.717  28.647  27.386  1.00  0.00     0.118 C 
BRANCH  25  26
ATOM     26  N   UNL A   1      33.623  30.052  27.753  1.00  0.00    -0.352 N 
ATOM     27  C   UNL A   1      34.547  30.856  28.370  1.00  0.00     0.251 C 
ATOM     28  H   UNL A   1      32.771  30.489  27.525  1.00  0.00     0.163 HD
ATOM     29  O   UNL A   1      34.229  31.971  28.766  1.00  0.00    -0.269 OA
BRANCH  27  30
ATOM     30  C   UNL A   1      35.925  30.365  28.566  1.00  0.00     0.039 A 
ATOM     31  C   UNL A   1      36.265  29.782  29.789  1.00  0.00     0.014 A 
ATOM     32  C   UNL A   1      36.884  30.492  27.557  1.00  0.00     0.014 A 
ATOM     33  C   UNL A   1      37.559  29.304  29.985  1.00  0.00     0.010 A 
ATOM     34  C   UNL A   1      38.133  29.910  27.712  1.00  0.00     0.010 A 
ATOM     35  C   UNL A   1      38.498  29.349  28.942  1.00  0.00    -0.014 A 
BRANCH  35  36
ATOM     36  C   UNL A   1      39.889  28.881  29.142  1.00  0.00     0.031 A 
ATOM     37  C   UNL A   1      40.894  29.788  29.803  1.00  0.00     0.074 A 
ATOM     38  C   UNL A   1      40.256  27.660  28.710  1.00  0.00     0.049 A 
ATOM     39  N   UNL A   1      42.158  29.570  30.064  1.00  0.00    -0.248 NA
ATOM     40  C   UNL A   1      40.427  31.130  30.193  1.00  0.00     0.031 C 
ATOM     41  C   UNL A   1      39.386  26.706  28.017  1.00  0.00     0.029 A 
ATOM     42  N   UNL A   1      41.459  27.010  28.797  1.00  0.00    -0.354 N 
ATOM     43  C   UNL A   1      42.633  30.748  30.629  1.00  0.00     0.074 A 
ATOM     44  C   UNL A   1      41.546  31.699  30.608  1.00  0.00     0.031 C 
ATOM     45  C   UNL A   1      40.073  25.577  27.781  1.00  0.00     0.029 A 
ATOM     46  C   UNL A   1      41.438  25.742  28.272  1.00  0.00     0.049 A 
ATOM     47  H   UNL A   1      42.262  27.414  29.198  1.00  0.00     0.167 HD
ATOM     48  C   UNL A   1      43.855  31.007  31.149  1.00  0.00     0.031 A 
ATOM     49  C   UNL A   1      42.410  24.814  28.201  1.00  0.00     0.031 A 
ATOM     50  C   UNL A   1      44.931  30.055  31.182  1.00  0.00     0.049 A 
ATOM     51  C   UNL A   1      43.760  25.125  28.785  1.00  0.00     0.074 A 
ATOM     52  C   UNL A   1      46.194  30.197  31.728  1.00  0.00     0.029 A 
ATOM     53  N   UNL A   1      44.866  28.778  30.647  1.00  0.00    -0.354 N 
ATOM     54  N   UNL A   1      44.175  26.220  29.377  1.00  0.00    -0.248 NA
ATOM     55  C   UNL A   1      44.769  24.061  28.709  1.00  0.00     0.031 C 
ATOM     56  C   UNL A   1      46.912  29.024  31.475  1.00  0.00     0.029 A 
ATOM     57  C   UNL A   1      46.074  28.127  30.834  1.00  0.00     0.049 A 
ATOM     58  H   UNL A   1      44.079  28.391  30.199  1.00  0.00     0.167 HD
ATOM     59  C   UNL A   1      45.479  25.962  29.780  1.00  0.00     0.074 A 
ATOM     60  C   UNL A   1      45.778  24.602  29.378  1.00  0.00     0.031 C 
ATOM     61  C   UNL A   1      46.351  26.772  30.428  1.00  0.00     0.031 A 
BRANCH  48  62
ATOM     62  C   UNL A   1      44.086  32.381  31.717  1.00  0.00    -0.014 A 
ATOM     63  C   UNL A   1      44.573  33.430  30.918  1.00  0.00     0.009 A 
ATOM     64  C   UNL A   1      43.798  32.638  33.066  1.00  0.00     0.009 A 
ATOM     65  C   UNL A   1      44.808  34.691  31.469  1.00  0.00     0.001 A 
ATOM     66  C   UNL A   1      44.001  33.910  33.606  1.00  0.00     0.001 A 
ATOM     67  C   UNL A   1      44.517  34.931  32.810  1.00  0.00     0.000 A 
ENDBRANCH  48  62
BRANCH  49  68
ATOM     68  C   UNL A   1      42.135  23.489  27.584  1.00  0.00    -0.014 A 
ATOM     69  C   UNL A   1      41.505  22.475  28.323  1.00  0.00     0.009 A 
ATOM     70  C   UNL A   1      42.512  23.225  26.259  1.00  0.00     0.009 A 
ATOM     71  C   UNL A   1      41.294  21.214  27.760  1.00  0.00     0.001 A 
ATOM     72  C   UNL A   1      42.270  21.975  25.687  1.00  0.00     0.001 A 
ATOM     73  C   UNL A   1      41.672  20.967  26.442  1.00  0.00     0.000 A 
ENDBRANCH  49  68
BRANCH  61  74
ATOM     74  C   UNL A   1      47.688  26.189  30.792  1.00  0.00    -0.014 A 
ATOM     75  C   UNL A   1      47.950  25.689  32.077  1.00  0.00     0.009 A 
ATOM     76  C   UNL A   1      48.699  26.125  29.819  1.00  0.00     0.009 A 
ATOM     77  C   UNL A   1      49.213  25.186  32.394  1.00  0.00     0.001 A 
ATOM     78  C   UNL A   1      49.948  25.587  30.128  1.00  0.00     0.001 A 
ATOM     79  C   UNL A   1      50.209  25.132  31.419  1.00  0.00     0.000 A 
ENDBRANCH  61  74
ENDBRANCH  35  36
ENDBRANCH  27  30
ENDBRANCH  25  26
ENDBRANCH  24  25
ENDBRANCH   1  24
TORSDOF 14
ENDMDL
MODEL 3
REMARK VINA RESULT:     -10.7      2.558      3.827
REMARK SMILES CC[C@@H](C)N(C)C(=O)N1[C@@H](C(=O)NCCCNC(=O)c2ccc(-c3c4nc(c(-c5ccccc5)c5ccc([nH]5)c(-c5ccccc5)c5nc(c(-c6ccccc6)c6ccc3[nH]6)C=C5)C=C4)cc2)CC[C@H]2CCCC[C@H]21
REMARK SMILES IDX 14 1 13 2 11 3 12 4 10 6 9 7 75 8 68 9 70 10 74 11 69 12
REMARK SMILES IDX 71 13 73 14 72 15 7 16 8 17 5 18 6 19 3 20 4 21 2 22 1 23
REMARK SMILES IDX 15 24 16 25 17 26 18 27 19 29 20 30 21 31 67 32 22 33 66 34
REMARK SMILES IDX 23 35 24 36 25 37 60 38 26 39 65 40 59 41 61 42 27 43 64 44
REMARK SMILES IDX 58 45 57 46 28 48 50 49 35 50 49 51 36 52 39 53 48 54 62 55
REMARK SMILES IDX 37 56 38 57 47 59 63 60 40 61 29 62 30 63 34 64 31 65 33 66
REMARK SMILES IDX 32 67 51 68 52 69 56 70 53 71 55 72 54 73 41 74 42 75 46 76
REMARK SMILES IDX 43 77 45 78 44 79
REMARK H PARENT 13 5 17 28 61 47 39 58
REMARK Flexibility Score: inf
ROOT
ATOM      1  C   UNL A   1      31.549  27.832  26.423  1.00  0.00     0.117 C 
ENDROOT
BRANCH   1   2
ATOM      2  N   UNL A   1      30.666  26.699  26.622  1.00  0.00    -0.354 N 
ATOM      3  C   UNL A   1      30.895  25.380  26.371  1.00  0.00     0.242 C 
ATOM      4  O   UNL A   1      29.941  24.604  26.478  1.00  0.00    -0.273 OA
ATOM      5  H   UNL A   1      29.777  26.912  26.988  1.00  0.00     0.163 HD
BRANCH   3   6
ATOM      6  C   UNL A   1      32.247  24.887  25.806  1.00  0.00     0.176 C 
ATOM      7  N   UNL A   1      32.269  24.507  24.374  1.00  0.00    -0.309 N 
ATOM      8  C   UNL A   1      33.473  23.797  23.908  1.00  0.00     0.091 C 
ATOM      9  C   UNL A   1      32.681  23.718  26.726  1.00  0.00     0.036 C 
ATOM     10  C   UNL A   1      33.816  22.574  24.765  1.00  0.00     0.012 C 
ATOM     11  C   UNL A   1      33.563  23.402  22.425  1.00  0.00     0.025 C 
ATOM     12  C   UNL A   1      33.914  22.968  26.240  1.00  0.00     0.008 C 
ATOM     13  C   UNL A   1      32.889  21.372  24.524  1.00  0.00     0.006 C 
ATOM     14  C   UNL A   1      32.842  22.110  22.036  1.00  0.00     0.002 C 
ATOM     15  C   UNL A   1      32.184  21.333  23.170  1.00  0.00     0.000 C 
BRANCH   7  16
ATOM     16  C   UNL A   1      31.348  24.920  23.437  1.00  0.00     0.320 C 
ATOM     17  O   UNL A   1      30.311  24.266  23.307  1.00  0.00    -0.248 OA
BRANCH  16  18
ATOM     18  N   UNL A   1      31.589  26.014  22.635  1.00  0.00    -0.325 N 
ATOM     19  C   UNL A   1      31.826  25.985  21.198  1.00  0.00     0.149 C 
BRANCH  18  20
ATOM     20  C   UNL A   1      31.378  27.364  23.225  1.00  0.00     0.083 C 
ATOM     21  C   UNL A   1      29.965  27.916  22.992  1.00  0.00     0.031 C 
BRANCH  20  22
ATOM     22  C   UNL A   1      32.503  28.322  22.762  1.00  0.00     0.021 C 
ATOM     23  C   UNL A   1      33.804  28.201  23.535  1.00  0.00     0.006 C 
ENDBRANCH  20  22
ENDBRANCH  18  20
ENDBRANCH  16  18
ENDBRANCH   7  16
ENDBRANCH   3   6
ENDBRANCH   1   2
BRANCH   1  24
ATOM     24  C   UNL A   1      32.457  28.064  27.614  1.00  0.00     0.042 C 
BRANCH  24  25
ATOM     25  C   UNL A   1      33.691  28.869  27.268  1.00  0.00     0.118 C 
BRANCH  25  26
ATOM     26  N   UNL A   1      33.592  30.256  27.696  1.00  0.00    -0.352 N 
ATOM     27  C   UNL A   1      34.500  31.026  28.377  1.00  0.00     0.251 C 
ATOM     28  H   UNL A   1      32.749  30.708  27.463  1.00  0.00     0.163 HD
ATOM     29  O   UNL A   1      34.174  32.123  28.814  1.00  0.00    -0.269 OA
BRANCH  27  30
ATOM     30  C   UNL A   1      35.870  30.520  28.592  1.00  0.00     0.039 A 
ATOM     31  C   UNL A   1      36.179  29.911  29.810  1.00  0.00     0.014 A 
ATOM     32  C   UNL A   1      36.850  30.658  27.605  1.00  0.00     0.014 A 
ATOM     33  C   UNL A   1      37.465  29.417  30.023  1.00  0.00     0.010 A 
ATOM     34  C   UNL A   1      38.091  30.062  27.774  1.00  0.00     0.010 A 
ATOM     35  C   UNL A   1      38.425  29.474  29.001  1.00  0.00    -0.014 A 
BRANCH  35  36
ATOM     36  C   UNL A   1      39.808  28.990  29.221  1.00  0.00     0.031 A 
ATOM     37  C   UNL A   1      40.812  29.883  29.901  1.00  0.00     0.074 A 
ATOM     38  C   UNL A   1      40.168  27.767  28.788  1.00  0.00     0.049 A 
ATOM     39  N   UNL A   1      42.069  29.650  30.182  1.00  0.00    -0.248 NA
ATOM     40  C   UNL A   1      40.353  31.228  30.291  1.00  0.00     0.031 C 
ATOM     41  C   UNL A   1      39.300  26.827  28.077  1.00  0.00     0.029 A 
ATOM     42  N   UNL A   1      41.363  27.104  28.891  1.00  0.00    -0.354 N 
ATOM     43  C   UNL A   1      42.548  30.820  30.759  1.00  0.00     0.074 A 
ATOM     44  C   UNL A   1      41.472  31.783  30.727  1.00  0.00     0.031 C 
ATOM     45  C   UNL A   1      39.979  25.691  27.846  1.00  0.00     0.029 A 
ATOM     46  C   UNL A   1      41.337  25.839  28.359  1.00  0.00     0.049 A 
ATOM     47  H   UNL A   1      42.164  27.498  29.307  1.00  0.00     0.167 HD
ATOM     48  C   UNL A   1      43.764  31.064  31.300  1.00  0.00     0.031 A 
ATOM     49  C   UNL A   1      42.300  24.901  28.299  1.00  0.00     0.031 A 
ATOM     50  C   UNL A   1      44.829  30.100  31.345  1.00  0.00     0.049 A 
ATOM     51  C   UNL A   1      43.644  25.195  28.905  1.00  0.00     0.074 A 
ATOM     52  C   UNL A   1      46.085  30.226  31.912  1.00  0.00     0.029 A 
ATOM     53  N   UNL A   1      44.759  28.826  30.803  1.00  0.00    -0.354 N 
ATOM     54  N   UNL A   1      44.061  26.282  29.510  1.00  0.00    -0.248 NA
ATOM     55  C   UNL A   1      44.643  24.120  28.841  1.00  0.00     0.031 C 
ATOM     56  C   UNL A   1      46.795  29.046  31.665  1.00  0.00     0.029 A 
ATOM     57  C   UNL A   1      45.957  28.161  31.006  1.00  0.00     0.049 A 
ATOM     58  H   UNL A   1      43.975  28.450  30.341  1.00  0.00     0.167 HD
ATOM     59  C   UNL A   1      45.356  26.008  29.932  1.00  0.00     0.074 A 
ATOM     60  C   UNL A   1      45.646  24.647  29.527  1.00  0.00     0.031 C 
ATOM     61  C   UNL A   1      46.226  26.806  30.597  1.00  0.00     0.031 A 
BRANCH  48  62
ATOM     62  C   UNL A   1      44.001  32.433  31.878  1.00  0.00    -0.014 A 
ATOM     63  C   UNL A   1      43.725  32.714  33.227  1.00  0.00     0.009 A 
ATOM     64  C   UNL A   1      44.524  33.452  31.069  1.00  0.00     0.009 A 
ATOM     65  C   UNL A   1      43.925  33.998  33.739  1.00  0.00     0.001 A 
ATOM     66  C   UNL A   1      44.756  34.727  31.593  1.00  0.00     0.001 A 
ATOM     67  C   UNL A   1      44.445  35.001  32.924  1.00  0.00     0.000 A 
ENDBRANCH  48  62
BRANCH  49  68
ATOM     68  C   UNL A   1      42.021  23.582  27.671  1.00  0.00    -0.014 A 
ATOM     69  C   UNL A   1      42.323  23.357  26.319  1.00  0.00     0.009 A 
ATOM     70  C   UNL A   1      41.438  22.545  28.416  1.00  0.00     0.009 A 
ATOM     71  C   UNL A   1      42.014  22.135  25.716  1.00  0.00     0.001 A 
ATOM     72  C   UNL A   1      41.161  21.313  27.820  1.00  0.00     0.001 A 
ATOM     73  C   UNL A   1      41.437  21.113  26.468  1.00  0.00     0.000 A 
ENDBRANCH  49  68
BRANCH  61  74
ATOM     74  C   UNL A   1      47.551  26.206  30.979  1.00  0.00    -0.014 A 
ATOM     75  C   UNL A   1      48.617  26.131  30.069  1.00  0.00     0.009 A 
ATOM     76  C   UNL A   1      47.737  25.723  32.284  1.00  0.00     0.009 A 
ATOM     77  C   UNL A   1      49.823  25.536  30.443  1.00  0.00     0.001 A 
ATOM     78  C   UNL A   1      48.956  25.162  32.667  1.00  0.00     0.001 A 
ATOM     79  C   UNL A   1      49.993  25.056  31.742  1.00  0.00     0.000 A 
ENDBRANCH  61  74
ENDBRANCH  35  36
ENDBRANCH  27  30
ENDBRANCH  25  26
ENDBRANCH  24  25
ENDBRANCH   1  24
TORSDOF 14
ENDMDL
