MODEL 1
REMARK VINA RESULT:     -12.0      0.000      0.000
REMARK SMILES CS(=O)(=O)c1ccc(/C=C(/C(=O)NCCCNC(=O)c2ccc(-c3c4nc(c(-c5ccccc5)c5ccc([nH]5)c(-c5ccccc5)c5nc(c(-c6ccccc6)c6ccc3[nH]6)C=C5)C=C4)cc2)c2ccc(O)cc2)cc1
REMARK SMILES IDX 15 1 14 2 13 3 11 4 12 5 10 7 9 8 8 9 5 10 6 11 76 12 7 13
REMARK SMILES IDX 75 14 2 15 1 16 3 17 4 18 68 19 69 20 74 21 70 22 73 23
REMARK SMILES IDX 71 24 72 25 16 27 17 28 18 29 19 31 20 32 21 33 67 34 22 35
REMARK SMILES IDX 66 36 23 37 24 38 25 39 60 40 26 41 65 42 59 43 61 44 27 45
REMARK SMILES IDX 64 46 58 47 57 48 28 50 50 51 35 52 49 53 36 54 39 55 48 56
REMARK SMILES IDX 62 57 37 58 38 59 47 61 63 62 40 63 29 64 30 65 34 66 31 67
REMARK SMILES IDX 33 68 32 69 51 70 52 71 56 72 53 73 55 74 54 75 41 76 42 77
REMARK SMILES IDX 46 78 43 79 45 80 44 81
REMARK H PARENT 13 6 72 26 17 30 61 49 39 60
REMARK Flexibility Score: inf
ROOT
ATOM      1  C   UNL A   1      33.888  27.989  25.919  1.00  0.00     0.042 C 
ENDROOT
BRANCH   1   2
ATOM      2  C   UNL A   1      33.001  26.959  25.216  1.00  0.00     0.118 C 
BRANCH   2   3
ATOM      3  N   UNL A   1      33.253  26.943  23.785  1.00  0.00    -0.352 N 
ATOM      4  C   UNL A   1      33.599  25.972  22.898  1.00  0.00     0.251 C 
ATOM      5  O   UNL A   1      33.732  26.332  21.726  1.00  0.00    -0.269 OA
ATOM      6  H   UNL A   1      33.151  27.829  23.367  1.00  0.00     0.163 HD
BRANCH   4   7
ATOM      7  C   UNL A   1      33.746  24.517  23.272  1.00  0.00     0.047 C 
ATOM      8  C   UNL A   1      32.684  23.680  23.294  1.00  0.00     0.022 C 
BRANCH   8   9
ATOM      9  C   UNL A   1      32.659  22.226  23.566  1.00  0.00    -0.025 A 
ATOM     10  C   UNL A   1      32.685  19.440  23.895  1.00  0.00     0.067 A 
ATOM     11  C   UNL A   1      33.072  20.266  24.951  1.00  0.00     0.021 A 
ATOM     12  C   UNL A   1      32.228  19.989  22.697  1.00  0.00     0.021 A 
ATOM     13  C   UNL A   1      33.039  21.654  24.788  1.00  0.00     0.009 A 
ATOM     14  C   UNL A   1      32.217  21.378  22.538  1.00  0.00     0.009 A 
BRANCH  10  15
ATOM     15  S   UNL A   1      32.769  17.677  24.088  1.00  0.00     0.175 S 
ATOM     16  C   UNL A   1      34.431  17.376  24.632  1.00  0.00     0.163 C 
ATOM     17  O   UNL A   1      32.629  17.082  22.775  1.00  0.00    -0.224 OA
ATOM     18  O   UNL A   1      31.863  17.327  25.168  1.00  0.00    -0.224 OA
ENDBRANCH  10  15
ENDBRANCH   8   9
BRANCH   7  19
ATOM     19  C   UNL A   1      35.059  24.079  23.808  1.00  0.00    -0.013 A 
ATOM     20  C   UNL A   1      35.403  24.432  25.125  1.00  0.00     0.013 A 
ATOM     21  C   UNL A   1      35.914  23.233  23.088  1.00  0.00     0.013 A 
ATOM     22  C   UNL A   1      36.545  23.906  25.728  1.00  0.00     0.047 A 
ATOM     23  C   UNL A   1      37.056  22.698  23.697  1.00  0.00     0.047 A 
ATOM     24  C   UNL A   1      37.348  23.026  25.018  1.00  0.00     0.115 A 
BRANCH  24  25
ATOM     25  O   UNL A   1      38.416  22.485  25.669  1.00  0.00    -0.508 OA
ATOM     26  H   UNL A   1      39.005  23.038  26.144  1.00  0.00     0.293 HD
ENDBRANCH  24  25
ENDBRANCH   7  19
ENDBRANCH   4   7
ENDBRANCH   2   3
ENDBRANCH   1   2
BRANCH   1  27
ATOM     27  C   UNL A   1      33.400  28.381  27.315  1.00  0.00     0.118 C 
BRANCH  27  28
ATOM     28  N   UNL A   1      33.400  29.822  27.517  1.00  0.00    -0.352 N 
ATOM     29  C   UNL A   1      34.355  30.644  28.060  1.00  0.00     0.251 C 
ATOM     30  H   UNL A   1      32.583  30.281  27.215  1.00  0.00     0.163 HD
ATOM     31  O   UNL A   1      34.066  31.810  28.319  1.00  0.00    -0.269 OA
BRANCH  29  32
ATOM     32  C   UNL A   1      35.721  30.150  28.350  1.00  0.00     0.039 A 
ATOM     33  C   UNL A   1      36.668  30.168  27.322  1.00  0.00     0.014 A 
ATOM     34  C   UNL A   1      36.058  29.611  29.595  1.00  0.00     0.014 A 
ATOM     35  C   UNL A   1      37.962  29.693  27.553  1.00  0.00     0.010 A 
ATOM     36  C   UNL A   1      37.366  29.192  29.843  1.00  0.00     0.010 A 
ATOM     37  C   UNL A   1      38.329  29.225  28.823  1.00  0.00    -0.014 A 
BRANCH  37  38
ATOM     38  C   UNL A   1      39.718  28.778  29.097  1.00  0.00     0.031 A 
ATOM     39  C   UNL A   1      40.701  29.691  29.776  1.00  0.00     0.074 A 
ATOM     40  C   UNL A   1      40.112  27.555  28.692  1.00  0.00     0.049 A 
ATOM     41  N   UNL A   1      41.958  29.474  30.077  1.00  0.00    -0.248 NA
ATOM     42  C   UNL A   1      40.215  31.028  30.148  1.00  0.00     0.031 C 
ATOM     43  C   UNL A   1      39.270  26.584  27.991  1.00  0.00     0.029 A 
ATOM     44  N   UNL A   1      41.323  26.921  28.810  1.00  0.00    -0.354 N 
ATOM     45  C   UNL A   1      42.416  30.650  30.657  1.00  0.00     0.074 A 
ATOM     46  C   UNL A   1      41.316  31.590  30.628  1.00  0.00     0.031 C 
ATOM     47  C   UNL A   1      39.980  25.467  27.769  1.00  0.00     0.029 A 
ATOM     48  C   UNL A   1      41.334  25.654  28.281  1.00  0.00     0.049 A 
ATOM     49  H   UNL A   1      42.109  27.335  29.235  1.00  0.00     0.167 HD
ATOM     50  C   UNL A   1      43.638  30.921  31.180  1.00  0.00     0.031 A 
ATOM     51  C   UNL A   1      42.322  24.743  28.215  1.00  0.00     0.031 A 
ATOM     52  C   UNL A   1      44.732  29.988  31.216  1.00  0.00     0.049 A 
ATOM     53  C   UNL A   1      43.668  25.067  28.795  1.00  0.00     0.074 A 
ATOM     54  C   UNL A   1      45.987  30.151  31.778  1.00  0.00     0.029 A 
ATOM     55  N   UNL A   1      44.703  28.716  30.666  1.00  0.00    -0.354 N 
ATOM     56  N   UNL A   1      44.065  26.161  29.397  1.00  0.00    -0.248 NA
ATOM     57  C   UNL A   1      44.698  24.023  28.695  1.00  0.00     0.031 C 
ATOM     58  C   UNL A   1      46.733  28.993  31.527  1.00  0.00     0.029 A 
ATOM     59  C   UNL A   1      45.926  28.093  30.851  1.00  0.00     0.049 A 
ATOM     60  H   UNL A   1      43.928  28.317  30.209  1.00  0.00     0.167 HD
ATOM     61  C   UNL A   1      45.384  25.932  29.765  1.00  0.00     0.074 A 
ATOM     62  C   UNL A   1      45.714  24.589  29.333  1.00  0.00     0.031 C 
ATOM     63  C   UNL A   1      46.244  26.761  30.405  1.00  0.00     0.031 A 
BRANCH  50  64
ATOM     64  C   UNL A   1      43.851  32.298  31.745  1.00  0.00    -0.014 A 
ATOM     65  C   UNL A   1      44.323  33.349  30.942  1.00  0.00     0.009 A 
ATOM     66  C   UNL A   1      43.559  32.553  33.094  1.00  0.00     0.009 A 
ATOM     67  C   UNL A   1      44.538  34.616  31.488  1.00  0.00     0.001 A 
ATOM     68  C   UNL A   1      43.749  33.828  33.631  1.00  0.00     0.001 A 
ATOM     69  C   UNL A   1      44.249  34.855  32.831  1.00  0.00     0.000 A 
ENDBRANCH  50  64
BRANCH  51  70
ATOM     70  C   UNL A   1      42.061  23.418  27.597  1.00  0.00    -0.014 A 
ATOM     71  C   UNL A   1      42.403  23.184  26.256  1.00  0.00     0.009 A 
ATOM     72  C   UNL A   1      41.486  22.379  28.344  1.00  0.00     0.009 A 
ATOM     73  C   UNL A   1      42.158  21.940  25.671  1.00  0.00     0.001 A 
ATOM     74  C   UNL A   1      41.264  21.129  27.762  1.00  0.00     0.001 A 
ATOM     75  C   UNL A   1      41.595  20.913  26.426  1.00  0.00     0.000 A 
ENDBRANCH  51  70
BRANCH  63  76
ATOM     76  C   UNL A   1      47.619  26.227  30.692  1.00  0.00    -0.014 A 
ATOM     77  C   UNL A   1      48.617  26.227  29.706  1.00  0.00     0.009 A 
ATOM     78  C   UNL A   1      47.923  25.737  31.971  1.00  0.00     0.009 A 
ATOM     79  C   UNL A   1      49.886  25.715  29.989  1.00  0.00     0.001 A 
ATOM     80  C   UNL A   1      49.199  25.249  32.257  1.00  0.00     0.001 A 
ATOM     81  C   UNL A   1      50.175  25.230  31.263  1.00  0.00     0.000 A 
ENDBRANCH  63  76
ENDBRANCH  37  38
ENDBRANCH  29  32
ENDBRANCH  27  28
ENDBRANCH   1  27
TORSDOF 14
ENDMDL
MODEL 2
REMARK VINA RESULT:     -11.9      3.247      8.344
REMARK SMILES CS(=O)(=O)c1ccc(/C=C(/C(=O)NCCCNC(=O)c2ccc(-c3c4nc(c(-c5ccccc5)c5ccc([nH]5)c(-c5ccccc5)c5nc(c(-c6ccccc6)c6ccc3[nH]6)C=C5)C=C4)cc2)c2ccc(O)cc2)cc1
REMARK SMILES IDX 15 1 14 2 13 3 11 4 12 5 10 7 9 8 8 9 5 10 6 11 76 12 7 13
REMARK SMILES IDX 75 14 2 15 1 16 3 17 4 18 68 19 69 20 74 21 70 22 73 23
REMARK SMILES IDX 71 24 72 25 16 27 17 28 18 29 19 31 20 32 21 33 67 34 22 35
REMARK SMILES IDX 66 36 23 37 24 38 25 39 60 40 26 41 65 42 59 43 61 44 27 45
REMARK SMILES IDX 64 46 58 47 57 48 28 50 50 51 35 52 49 53 36 54 39 55 48 56
REMARK SMILES IDX 62 57 37 58 38 59 47 61 63 62 40 63 29 64 30 65 34 66 31 67
REMARK SMILES IDX 33 68 32 69 51 70 52 71 56 72 53 73 55 74 54 75 41 76 42 77
REMARK SMILES IDX 46 78 43 79 45 80 44 81
REMARK H PARENT 13 6 72 26 17 30 61 49 39 60
REMARK Flexibility Score: inf
ROOT
ATOM      1  C   UNL A   1      35.877  23.834  25.903  1.00  0.00     0.042 C 
ENDROOT
BRANCH   1   2
ATOM      2  C   UNL A   1      34.504  24.015  25.250  1.00  0.00     0.118 C 
BRANCH   2   3
ATOM      3  N   UNL A   1      33.438  23.661  26.171  1.00  0.00    -0.352 N 
ATOM      4  C   UNL A   1      32.265  24.249  26.527  1.00  0.00     0.251 C 
ATOM      5  O   UNL A   1      31.590  23.646  27.364  1.00  0.00    -0.269 OA
ATOM      6  H   UNL A   1      33.600  22.810  26.638  1.00  0.00     0.163 HD
BRANCH   4   7
ATOM      7  C   UNL A   1      31.750  25.523  25.903  1.00  0.00     0.047 C 
ATOM      8  C   UNL A   1      30.994  25.509  24.782  1.00  0.00     0.022 C 
BRANCH   8   9
ATOM      9  C   UNL A   1      30.354  26.645  24.083  1.00  0.00    -0.025 A 
ATOM     10  C   UNL A   1      29.005  28.807  22.910  1.00  0.00     0.067 A 
ATOM     11  C   UNL A   1      30.399  28.769  22.893  1.00  0.00     0.021 A 
ATOM     12  C   UNL A   1      28.274  27.749  23.452  1.00  0.00     0.021 A 
ATOM     13  C   UNL A   1      31.067  27.680  23.463  1.00  0.00     0.009 A 
ATOM     14  C   UNL A   1      28.951  26.675  24.036  1.00  0.00     0.009 A 
BRANCH  10  15
ATOM     15  S   UNL A   1      28.160  30.210  22.225  1.00  0.00     0.175 S 
ATOM     16  C   UNL A   1      29.261  31.569  22.521  1.00  0.00     0.163 C 
ATOM     17  O   UNL A   1      26.969  30.437  23.017  1.00  0.00    -0.224 OA
ATOM     18  O   UNL A   1      28.076  29.993  20.791  1.00  0.00    -0.224 OA
ENDBRANCH  10  15
ENDBRANCH   8   9
BRANCH   7  19
ATOM     19  C   UNL A   1      32.263  26.806  26.447  1.00  0.00    -0.013 A 
ATOM     20  C   UNL A   1      33.570  27.206  26.115  1.00  0.00     0.013 A 
ATOM     21  C   UNL A   1      31.453  27.683  27.182  1.00  0.00     0.013 A 
ATOM     22  C   UNL A   1      34.037  28.473  26.459  1.00  0.00     0.047 A 
ATOM     23  C   UNL A   1      31.919  28.959  27.520  1.00  0.00     0.047 A 
ATOM     24  C   UNL A   1      33.200  29.347  27.138  1.00  0.00     0.115 A 
BRANCH  24  25
ATOM     25  O   UNL A   1      33.675  30.598  27.396  1.00  0.00    -0.508 OA
ATOM     26  H   UNL A   1      34.576  30.721  27.620  1.00  0.00     0.293 HD
ENDBRANCH  24  25
ENDBRANCH   7  19
ENDBRANCH   4   7
ENDBRANCH   2   3
ENDBRANCH   1   2
BRANCH   1  27
ATOM     27  C   UNL A   1      37.026  23.676  24.905  1.00  0.00     0.118 C 
BRANCH  27  28
ATOM     28  N   UNL A   1      38.003  22.688  25.338  1.00  0.00    -0.352 N 
ATOM     29  C   UNL A   1      39.160  22.840  26.059  1.00  0.00     0.251 C 
ATOM     30  H   UNL A   1      37.800  21.762  25.071  1.00  0.00     0.163 HD
ATOM     31  O   UNL A   1      39.943  21.896  26.141  1.00  0.00    -0.269 OA
BRANCH  29  32
ATOM     32  C   UNL A   1      39.490  24.119  26.726  1.00  0.00     0.039 A 
ATOM     33  C   UNL A   1      39.019  24.333  28.025  1.00  0.00     0.014 A 
ATOM     34  C   UNL A   1      40.195  25.131  26.069  1.00  0.00     0.014 A 
ATOM     35  C   UNL A   1      39.294  25.536  28.681  1.00  0.00     0.010 A 
ATOM     36  C   UNL A   1      40.521  26.308  26.745  1.00  0.00     0.010 A 
ATOM     37  C   UNL A   1      40.070  26.524  28.056  1.00  0.00    -0.014 A 
BRANCH  37  38
ATOM     38  C   UNL A   1      40.422  27.779  28.767  1.00  0.00     0.031 A 
ATOM     39  C   UNL A   1      41.770  27.946  29.411  1.00  0.00     0.074 A 
ATOM     40  C   UNL A   1      39.505  28.760  28.871  1.00  0.00     0.049 A 
ATOM     41  N   UNL A   1      42.241  28.964  30.088  1.00  0.00    -0.248 NA
ATOM     42  C   UNL A   1      42.704  26.815  29.297  1.00  0.00     0.031 C 
ATOM     43  C   UNL A   1      38.148  28.712  28.323  1.00  0.00     0.029 A 
ATOM     44  N   UNL A   1      39.576  29.989  29.477  1.00  0.00    -0.354 N 
ATOM     45  C   UNL A   1      43.516  28.591  30.494  1.00  0.00     0.074 A 
ATOM     46  C   UNL A   1      43.729  27.239  30.024  1.00  0.00     0.031 C 
ATOM     47  C   UNL A   1      37.526  29.871  28.591  1.00  0.00     0.029 A 
ATOM     48  C   UNL A   1      38.425  30.729  29.356  1.00  0.00     0.049 A 
ATOM     49  H   UNL A   1      40.376  30.311  29.952  1.00  0.00     0.167 HD
ATOM     50  C   UNL A   1      44.434  29.312  31.184  1.00  0.00     0.031 A 
ATOM     51  C   UNL A   1      38.126  31.960  29.809  1.00  0.00     0.031 A 
ATOM     52  C   UNL A   1      44.229  30.658  31.648  1.00  0.00     0.049 A 
ATOM     53  C   UNL A   1      39.156  32.737  30.576  1.00  0.00     0.074 A 
ATOM     54  C   UNL A   1      45.121  31.490  32.304  1.00  0.00     0.029 A 
ATOM     55  N   UNL A   1      43.048  31.369  31.509  1.00  0.00    -0.354 N 
ATOM     56  N   UNL A   1      40.379  32.394  30.896  1.00  0.00    -0.248 NA
ATOM     57  C   UNL A   1      38.764  34.078  31.034  1.00  0.00     0.031 C 
ATOM     58  C   UNL A   1      44.464  32.690  32.601  1.00  0.00     0.029 A 
ATOM     59  C   UNL A   1      43.179  32.621  32.088  1.00  0.00     0.049 A 
ATOM     60  H   UNL A   1      42.236  31.034  31.066  1.00  0.00     0.167 HD
ATOM     61  C   UNL A   1      40.911  33.481  31.576  1.00  0.00     0.074 A 
ATOM     62  C   UNL A   1      39.883  34.501  31.607  1.00  0.00     0.031 C 
ATOM     63  C   UNL A   1      42.143  33.621  32.124  1.00  0.00     0.031 A 
BRANCH  50  64
ATOM     64  C   UNL A   1      45.745  28.641  31.487  1.00  0.00    -0.014 A 
ATOM     65  C   UNL A   1      46.842  28.761  30.618  1.00  0.00     0.009 A 
ATOM     66  C   UNL A   1      45.893  27.896  32.667  1.00  0.00     0.009 A 
ATOM     67  C   UNL A   1      48.045  28.113  30.903  1.00  0.00     0.001 A 
ATOM     68  C   UNL A   1      47.106  27.272  32.963  1.00  0.00     0.001 A 
ATOM     69  C   UNL A   1      48.178  27.370  32.076  1.00  0.00     0.000 A 
ENDBRANCH  50  64
BRANCH  51  70
ATOM     70  C   UNL A   1      36.793  32.547  29.520  1.00  0.00    -0.014 A 
ATOM     71  C   UNL A   1      35.761  32.457  30.466  1.00  0.00     0.009 A 
ATOM     72  C   UNL A   1      36.550  33.210  28.308  1.00  0.00     0.009 A 
ATOM     73  C   UNL A   1      34.506  33.007  30.197  1.00  0.00     0.001 A 
ATOM     74  C   UNL A   1      35.300  33.779  28.051  1.00  0.00     0.001 A 
ATOM     75  C   UNL A   1      34.279  33.671  28.993  1.00  0.00     0.000 A 
ENDBRANCH  51  70
BRANCH  63  76
ATOM     76  C   UNL A   1      42.448  34.935  32.786  1.00  0.00    -0.014 A 
ATOM     77  C   UNL A   1      41.998  35.213  34.086  1.00  0.00     0.009 A 
ATOM     78  C   UNL A   1      43.214  35.896  32.108  1.00  0.00     0.009 A 
ATOM     79  C   UNL A   1      42.282  36.445  34.680  1.00  0.00     0.001 A 
ATOM     80  C   UNL A   1      43.516  37.115  32.716  1.00  0.00     0.001 A 
ATOM     81  C   UNL A   1      43.042  37.392  33.996  1.00  0.00     0.000 A 
ENDBRANCH  63  76
ENDBRANCH  37  38
ENDBRANCH  29  32
ENDBRANCH  27  28
ENDBRANCH   1  27
TORSDOF 14
ENDMDL
MODEL 3
REMARK VINA RESULT:     -11.9      3.146      8.082
REMARK SMILES CS(=O)(=O)c1ccc(/C=C(/C(=O)NCCCNC(=O)c2ccc(-c3c4nc(c(-c5ccccc5)c5ccc([nH]5)c(-c5ccccc5)c5nc(c(-c6ccccc6)c6ccc3[nH]6)C=C5)C=C4)cc2)c2ccc(O)cc2)cc1
REMARK SMILES IDX 15 1 14 2 13 3 11 4 12 5 10 7 9 8 8 9 5 10 6 11 76 12 7 13
REMARK SMILES IDX 75 14 2 15 1 16 3 17 4 18 68 19 69 20 74 21 70 22 73 23
REMARK SMILES IDX 71 24 72 25 16 27 17 28 18 29 19 31 20 32 21 33 67 34 22 35
REMARK SMILES IDX 66 36 23 37 24 38 25 39 60 40 26 41 65 42 59 43 61 44 27 45
REMARK SMILES IDX 64 46 58 47 57 48 28 50 50 51 35 52 49 53 36 54 39 55 48 56
REMARK SMILES IDX 62 57 37 58 38 59 47 61 63 62 40 63 29 64 30 65 34 66 31 67
REMARK SMILES IDX 33 68 32 69 51 70 52 71 56 72 53 73 55 74 54 75 41 76 42 77
REMARK SMILES IDX 46 78 43 79 45 80 44 81
REMARK H PARENT 13 6 72 26 17 30 61 49 39 60
REMARK Flexibility Score: inf
ROOT
ATOM      1  C   UNL A   1      36.224  23.210  23.942  1.00  0.00     0.042 C 
ENDROOT
BRANCH   1   2
ATOM      2  C   UNL A   1      34.824  23.830  23.903  1.00  0.00     0.118 C 
BRANCH   2   3
ATOM      3  N   UNL A   1      34.009  23.344  25.003  1.00  0.00    -0.352 N 
ATOM      4  C   UNL A   1      32.919  23.830  25.656  1.00  0.00     0.251 C 
ATOM      5  O   UNL A   1      32.477  23.127  26.567  1.00  0.00    -0.269 OA
ATOM      6  H   UNL A   1      34.310  22.474  25.350  1.00  0.00     0.163 HD
BRANCH   4   7
ATOM      7  C   UNL A   1      32.220  25.110  25.269  1.00  0.00     0.047 C 
ATOM      8  C   UNL A   1      31.483  25.203  24.139  1.00  0.00     0.022 C 
BRANCH   8   9
ATOM      9  C   UNL A   1      30.682  26.346  23.648  1.00  0.00    -0.025 A 
ATOM     10  C   UNL A   1      29.068  28.513  22.896  1.00  0.00     0.067 A 
ATOM     11  C   UNL A   1      30.419  28.504  22.552  1.00  0.00     0.021 A 
ATOM     12  C   UNL A   1      28.498  27.425  23.559  1.00  0.00     0.021 A 
ATOM     13  C   UNL A   1      31.216  27.413  22.913  1.00  0.00     0.009 A 
ATOM     14  C   UNL A   1      29.307  26.348  23.931  1.00  0.00     0.009 A 
BRANCH  10  15
ATOM     15  S   UNL A   1      28.066  29.918  22.476  1.00  0.00     0.175 S 
ATOM     16  C   UNL A   1      28.957  31.302  23.139  1.00  0.00     0.163 C 
ATOM     17  O   UNL A   1      26.824  29.810  23.211  1.00  0.00    -0.224 OA
ATOM     18  O   UNL A   1      28.073  30.022  21.027  1.00  0.00    -0.224 OA
ENDBRANCH  10  15
ENDBRANCH   8   9
BRANCH   7  19
ATOM     19  C   UNL A   1      32.528  26.324  26.067  1.00  0.00    -0.013 A 
ATOM     20  C   UNL A   1      33.775  26.950  25.892  1.00  0.00     0.013 A 
ATOM     21  C   UNL A   1      31.577  26.931  26.899  1.00  0.00     0.013 A 
ATOM     22  C   UNL A   1      34.046  28.180  26.488  1.00  0.00     0.047 A 
ATOM     23  C   UNL A   1      31.846  28.171  27.492  1.00  0.00     0.047 A 
ATOM     24  C   UNL A   1      33.071  28.791  27.264  1.00  0.00     0.115 A 
BRANCH  24  25
ATOM     25  O   UNL A   1      33.354  30.023  27.773  1.00  0.00    -0.508 OA
ATOM     26  H   UNL A   1      34.232  30.237  28.023  1.00  0.00     0.293 HD
ENDBRANCH  24  25
ENDBRANCH   7  19
ENDBRANCH   4   7
ENDBRANCH   2   3
ENDBRANCH   1   2
BRANCH   1  27
ATOM     27  C   UNL A   1      37.090  23.700  25.105  1.00  0.00     0.118 C 
BRANCH  27  28
ATOM     28  N   UNL A   1      38.113  22.735  25.478  1.00  0.00    -0.352 N 
ATOM     29  C   UNL A   1      39.310  22.915  26.125  1.00  0.00     0.251 C 
ATOM     30  H   UNL A   1      37.915  21.805  25.226  1.00  0.00     0.163 HD
ATOM     31  O   UNL A   1      40.116  21.988  26.160  1.00  0.00    -0.269 OA
BRANCH  29  32
ATOM     32  C   UNL A   1      39.652  24.203  26.769  1.00  0.00     0.039 A 
ATOM     33  C   UNL A   1      39.228  24.424  28.083  1.00  0.00     0.014 A 
ATOM     34  C   UNL A   1      40.322  25.216  26.076  1.00  0.00     0.014 A 
ATOM     35  C   UNL A   1      39.517  25.636  28.717  1.00  0.00     0.010 A 
ATOM     36  C   UNL A   1      40.662  26.402  26.728  1.00  0.00     0.010 A 
ATOM     37  C   UNL A   1      40.259  26.625  28.054  1.00  0.00    -0.014 A 
BRANCH  37  38
ATOM     38  C   UNL A   1      40.625  27.890  28.740  1.00  0.00     0.031 A 
ATOM     39  C   UNL A   1      39.620  28.996  28.904  1.00  0.00     0.074 A 
ATOM     40  C   UNL A   1      41.888  28.062  29.179  1.00  0.00     0.049 A 
ATOM     41  N   UNL A   1      39.772  30.173  29.460  1.00  0.00    -0.248 NA
ATOM     42  C   UNL A   1      38.276  28.756  28.358  1.00  0.00     0.031 C 
ATOM     43  C   UNL A   1      42.969  27.084  29.051  1.00  0.00     0.029 A 
ATOM     44  N   UNL A   1      42.473  29.124  29.822  1.00  0.00    -0.354 N 
ATOM     45  C   UNL A   1      38.551  30.819  29.314  1.00  0.00     0.074 A 
ATOM     46  C   UNL A   1      37.683  29.920  28.583  1.00  0.00     0.031 C 
ATOM     47  C   UNL A   1      44.077  27.579  29.624  1.00  0.00     0.029 A 
ATOM     48  C   UNL A   1      43.795  28.919  30.130  1.00  0.00     0.049 A 
ATOM     49  H   UNL A   1      41.990  29.954  30.041  1.00  0.00     0.167 HD
ATOM     50  C   UNL A   1      38.178  32.044  29.761  1.00  0.00     0.031 A 
ATOM     51  C   UNL A   1      44.682  29.717  30.751  1.00  0.00     0.031 A 
ATOM     52  C   UNL A   1      39.035  32.939  30.492  1.00  0.00     0.049 A 
ATOM     53  C   UNL A   1      44.249  31.072  31.230  1.00  0.00     0.074 A 
ATOM     54  C   UNL A   1      38.730  34.174  31.036  1.00  0.00     0.029 A 
ATOM     55  N   UNL A   1      40.369  32.694  30.780  1.00  0.00    -0.354 N 
ATOM     56  N   UNL A   1      43.072  31.642  31.142  1.00  0.00    -0.248 NA
ATOM     57  C   UNL A   1      45.267  31.888  31.907  1.00  0.00     0.031 C 
ATOM     58  C   UNL A   1      39.892  34.698  31.616  1.00  0.00     0.029 A 
ATOM     59  C   UNL A   1      40.907  33.766  31.472  1.00  0.00     0.049 A 
ATOM     60  H   UNL A   1      40.860  31.879  30.528  1.00  0.00     0.167 HD
ATOM     61  C   UNL A   1      43.201  32.874  31.767  1.00  0.00     0.074 A 
ATOM     62  C   UNL A   1      44.566  32.963  32.245  1.00  0.00     0.031 C 
ATOM     63  C   UNL A   1      42.270  33.846  31.930  1.00  0.00     0.031 A 
BRANCH  50  64
ATOM     64  C   UNL A   1      36.776  32.489  29.451  1.00  0.00    -0.014 A 
ATOM     65  C   UNL A   1      35.731  32.297  30.371  1.00  0.00     0.009 A 
ATOM     66  C   UNL A   1      36.497  33.127  28.233  1.00  0.00     0.009 A 
ATOM     67  C   UNL A   1      34.430  32.695  30.058  1.00  0.00     0.001 A 
ATOM     68  C   UNL A   1      35.200  33.549  27.934  1.00  0.00     0.001 A 
ATOM     69  C   UNL A   1      34.166  33.322  28.842  1.00  0.00     0.000 A 
ENDBRANCH  50  64
BRANCH  51  70
ATOM     70  C   UNL A   1      46.068  29.239  30.981  1.00  0.00    -0.014 A 
ATOM     71  C   UNL A   1      47.068  29.483  30.027  1.00  0.00     0.009 A 
ATOM     72  C   UNL A   1      46.404  28.551  32.157  1.00  0.00     0.009 A 
ATOM     73  C   UNL A   1      48.373  29.034  30.239  1.00  0.00     0.001 A 
ATOM     74  C   UNL A   1      47.715  28.122  32.376  1.00  0.00     0.001 A 
ATOM     75  C   UNL A   1      48.696  28.359  31.415  1.00  0.00     0.000 A 
ENDBRANCH  51  70
BRANCH  63  76
ATOM     76  C   UNL A   1      42.697  35.079  32.675  1.00  0.00    -0.014 A 
ATOM     77  C   UNL A   1      43.387  36.115  32.027  1.00  0.00     0.009 A 
ATOM     78  C   UNL A   1      42.385  35.214  34.037  1.00  0.00     0.009 A 
ATOM     79  C   UNL A   1      43.786  37.249  32.740  1.00  0.00     0.001 A 
ATOM     80  C   UNL A   1      42.763  36.359  34.739  1.00  0.00     0.001 A 
ATOM     81  C   UNL A   1      43.471  37.370  34.092  1.00  0.00     0.000 A 
ENDBRANCH  63  76
ENDBRANCH  37  38
ENDBRANCH  29  32
ENDBRANCH  27  28
ENDBRANCH   1  27
TORSDOF 14
ENDMDL
