MODEL 1
REMARK VINA RESULT:     -12.5      0.000      0.000
REMARK SMILES O=C(NCCCNC(=O)c1cccc2c(=O)oc(=O)[nH]c12)c1ccc(-c2c3nc(c(-c4ccccc4)c4ccc([nH]4)c(-c4ccccc4)c4nc(c(-c5ccccc5)c5ccc2[nH]5)C=C4)C=C3)cc1
REMARK SMILES IDX 4 1 3 2 1 3 2 4 22 6 23 7 69 8 24 9 68 10 25 11 26 12 27 13
REMARK SMILES IDX 62 14 28 15 67 16 61 17 63 18 29 19 66 20 60 21 59 22 30 24
REMARK SMILES IDX 52 25 37 26 51 27 38 28 41 29 50 30 64 31 39 32 40 33 49 35
REMARK SMILES IDX 65 36 42 37 31 38 32 39 36 40 33 41 35 42 34 43 53 44 54 45
REMARK SMILES IDX 58 46 55 47 57 48 56 49 43 50 44 51 48 52 45 53 47 54 46 55
REMARK SMILES IDX 5 56 6 57 7 58 8 59 9 61 10 62 11 63 21 64 12 65 14 66 20 67
REMARK SMILES IDX 13 68 15 69 18 70 16 72 17 73 19 74
REMARK H PARENT 3 5 63 23 41 34 7 60 20 71
REMARK Flexibility Score: inf
ROOT
ATOM      1  C   UNL A   1      45.669  25.251  29.491  1.00  0.00     0.118 C 
ENDROOT
BRANCH   1   2
ATOM      2  N   UNL A   1      45.903  26.582  30.030  1.00  0.00    -0.352 N 
ATOM      3  O   UNL A   1      45.629  28.792  30.304  1.00  0.00    -0.269 OA
ATOM      4  C   UNL A   1      45.136  27.717  29.969  1.00  0.00     0.251 C 
ATOM      5  H   UNL A   1      46.752  26.684  30.518  1.00  0.00     0.163 HD
BRANCH   4   6
ATOM      6  C   UNL A   1      43.732  27.667  29.507  1.00  0.00     0.039 A 
ATOM      7  C   UNL A   1      42.739  27.276  30.410  1.00  0.00     0.014 A 
ATOM      8  C   UNL A   1      43.394  27.930  28.177  1.00  0.00     0.014 A 
ATOM      9  C   UNL A   1      41.414  27.169  29.984  1.00  0.00     0.010 A 
ATOM     10  C   UNL A   1      42.061  27.926  27.781  1.00  0.00     0.010 A 
ATOM     11  C   UNL A   1      41.061  27.506  28.668  1.00  0.00    -0.014 A 
BRANCH  11  12
ATOM     12  C   UNL A   1      39.671  27.344  28.175  1.00  0.00     0.031 A 
ATOM     13  C   UNL A   1      38.697  28.487  28.303  1.00  0.00     0.074 A 
ATOM     14  C   UNL A   1      39.273  26.175  27.639  1.00  0.00     0.049 A 
ATOM     15  N   UNL A   1      37.430  28.532  27.979  1.00  0.00    -0.248 NA
ATOM     16  C   UNL A   1      39.205  29.739  28.894  1.00  0.00     0.031 C 
ATOM     17  C   UNL A   1      40.119  24.992  27.471  1.00  0.00     0.029 A 
ATOM     18  N   UNL A   1      38.057  25.791  27.131  1.00  0.00    -0.354 N 
ATOM     19  C   UNL A   1      36.994  29.801  28.337  1.00  0.00     0.074 A 
ATOM     20  C   UNL A   1      38.107  30.475  28.963  1.00  0.00     0.031 C 
ATOM     21  C   UNL A   1      39.409  24.031  26.860  1.00  0.00     0.029 A 
ATOM     22  C   UNL A   1      38.045  24.506  26.642  1.00  0.00     0.049 A 
ATOM     23  H   UNL A   1      37.268  26.379  27.117  1.00  0.00     0.167 HD
ATOM     24  C   UNL A   1      35.782  30.367  28.134  1.00  0.00     0.031 A 
ATOM     25  C   UNL A   1      37.050  23.789  26.082  1.00  0.00     0.031 A 
ATOM     26  C   UNL A   1      34.686  29.702  27.484  1.00  0.00     0.049 A 
ATOM     27  C   UNL A   1      35.700  24.427  25.898  1.00  0.00     0.074 A 
ATOM     28  C   UNL A   1      33.434  30.210  27.186  1.00  0.00     0.029 A 
ATOM     29  N   UNL A   1      34.711  28.395  27.026  1.00  0.00    -0.354 N 
ATOM     30  N   UNL A   1      35.317  25.646  26.197  1.00  0.00    -0.248 NA
ATOM     31  C   UNL A   1      34.647  23.602  25.290  1.00  0.00     0.031 C 
ATOM     32  C   UNL A   1      32.676  29.186  26.619  1.00  0.00     0.029 A 
ATOM     33  C   UNL A   1      33.483  28.068  26.478  1.00  0.00     0.049 A 
ATOM     34  H   UNL A   1      35.486  27.789  27.081  1.00  0.00     0.167 HD
ATOM     35  C   UNL A   1      33.993  25.741  25.790  1.00  0.00     0.074 A 
ATOM     36  C   UNL A   1      33.641  24.463  25.206  1.00  0.00     0.031 C 
ATOM     37  C   UNL A   1      33.146  26.795  25.892  1.00  0.00     0.031 A 
BRANCH  24  38
ATOM     38  C   UNL A   1      35.568  31.782  28.600  1.00  0.00    -0.014 A 
ATOM     39  C   UNL A   1      35.201  32.030  29.932  1.00  0.00     0.009 A 
ATOM     40  C   UNL A   1      35.627  32.860  27.702  1.00  0.00     0.009 A 
ATOM     41  C   UNL A   1      34.873  33.323  30.349  1.00  0.00     0.001 A 
ATOM     42  C   UNL A   1      35.334  34.156  28.130  1.00  0.00     0.001 A 
ATOM     43  C   UNL A   1      34.944  34.384  29.450  1.00  0.00     0.000 A 
ENDBRANCH  24  38
BRANCH  25  44
ATOM     44  C   UNL A   1      37.321  22.399  25.624  1.00  0.00    -0.014 A 
ATOM     45  C   UNL A   1      36.275  21.568  25.189  1.00  0.00     0.009 A 
ATOM     46  C   UNL A   1      38.622  21.874  25.676  1.00  0.00     0.009 A 
ATOM     47  C   UNL A   1      36.518  20.235  24.850  1.00  0.00     0.001 A 
ATOM     48  C   UNL A   1      38.867  20.549  25.302  1.00  0.00     0.001 A 
ATOM     49  C   UNL A   1      37.815  19.728  24.903  1.00  0.00     0.000 A 
ENDBRANCH  25  44
BRANCH  37  50
ATOM     50  C   UNL A   1      31.749  26.645  25.352  1.00  0.00    -0.014 A 
ATOM     51  C   UNL A   1      30.771  25.999  26.127  1.00  0.00     0.009 A 
ATOM     52  C   UNL A   1      31.437  27.010  24.034  1.00  0.00     0.009 A 
ATOM     53  C   UNL A   1      29.522  25.694  25.585  1.00  0.00     0.001 A 
ATOM     54  C   UNL A   1      30.173  26.737  23.506  1.00  0.00     0.001 A 
ATOM     55  C   UNL A   1      29.223  26.066  24.276  1.00  0.00     0.000 A 
ENDBRANCH  37  50
ENDBRANCH  11  12
ENDBRANCH   4   6
ENDBRANCH   1   2
BRANCH   1  56
ATOM     56  C   UNL A   1      46.068  25.136  28.027  1.00  0.00     0.042 C 
BRANCH  56  57
ATOM     57  C   UNL A   1      46.153  23.704  27.520  1.00  0.00     0.118 C 
BRANCH  57  58
ATOM     58  N   UNL A   1      46.499  23.644  26.108  1.00  0.00    -0.352 N 
ATOM     59  C   UNL A   1      45.944  22.890  25.106  1.00  0.00     0.253 C 
ATOM     60  H   UNL A   1      47.241  24.230  25.831  1.00  0.00     0.163 HD
ATOM     61  O   UNL A   1      46.543  22.743  24.044  1.00  0.00    -0.269 OA
BRANCH  59  62
ATOM     62  C   UNL A   1      44.646  22.215  25.311  1.00  0.00     0.064 A 
ATOM     63  C   UNL A   1      43.466  22.973  25.363  1.00  0.00     0.016 A 
ATOM     64  C   UNL A   1      44.585  20.820  25.425  1.00  0.00     0.071 A 
ATOM     65  C   UNL A   1      42.247  22.353  25.626  1.00  0.00     0.002 A 
ATOM     66  C   UNL A   1      43.371  20.207  25.671  1.00  0.00     0.085 A 
ATOM     67  N   UNL A   1      45.705  20.009  25.303  1.00  0.00    -0.289 N 
ATOM     68  C   UNL A   1      42.199  20.968  25.790  1.00  0.00     0.018 A 
ATOM     69  C   UNL A   1      43.336  18.745  25.800  1.00  0.00     0.349 A 
ATOM     70  C   UNL A   1      45.677  18.652  25.432  1.00  0.00     0.419 A 
ATOM     71  H   UNL A   1      46.569  20.437  25.112  1.00  0.00     0.173 HD
ATOM     72  O   UNL A   1      42.265  18.184  26.012  1.00  0.00    -0.246 OA
ATOM     73  O   UNL A   1      44.488  18.050  25.691  1.00  0.00    -0.372 OA
ATOM     74  O   UNL A   1      46.711  17.999  25.322  1.00  0.00    -0.224 OA
ENDBRANCH  59  62
ENDBRANCH  57  58
ENDBRANCH  56  57
ENDBRANCH   1  56
TORSDOF 10
ENDMDL
MODEL 2
REMARK VINA RESULT:     -12.4      0.342      6.170
REMARK SMILES O=C(NCCCNC(=O)c1cccc2c(=O)oc(=O)[nH]c12)c1ccc(-c2c3nc(c(-c4ccccc4)c4ccc([nH]4)c(-c4ccccc4)c4nc(c(-c5ccccc5)c5ccc2[nH]5)C=C4)C=C3)cc1
REMARK SMILES IDX 4 1 3 2 1 3 2 4 22 6 23 7 69 8 24 9 68 10 25 11 26 12 27 13
REMARK SMILES IDX 62 14 28 15 67 16 61 17 63 18 29 19 66 20 60 21 59 22 30 24
REMARK SMILES IDX 52 25 37 26 51 27 38 28 41 29 50 30 64 31 39 32 40 33 49 35
REMARK SMILES IDX 65 36 42 37 31 38 32 39 36 40 33 41 35 42 34 43 53 44 54 45
REMARK SMILES IDX 58 46 55 47 57 48 56 49 43 50 44 51 48 52 45 53 47 54 46 55
REMARK SMILES IDX 5 56 6 57 7 58 8 59 9 61 10 62 11 63 21 64 12 65 14 66 20 67
REMARK SMILES IDX 13 68 15 69 18 70 16 72 17 73 19 74
REMARK H PARENT 3 5 63 23 41 34 7 60 20 71
REMARK Flexibility Score: inf
ROOT
ATOM      1  C   UNL A   1      45.681  25.274  29.742  1.00  0.00     0.118 C 
ENDROOT
BRANCH   1   2
ATOM      2  N   UNL A   1      45.944  26.595  30.292  1.00  0.00    -0.352 N 
ATOM      3  O   UNL A   1      45.731  28.810  30.572  1.00  0.00    -0.269 OA
ATOM      4  C   UNL A   1      45.213  27.753  30.223  1.00  0.00     0.251 C 
ATOM      5  H   UNL A   1      46.787  26.669  30.796  1.00  0.00     0.163 HD
BRANCH   4   6
ATOM      6  C   UNL A   1      43.817  27.747  29.733  1.00  0.00     0.039 A 
ATOM      7  C   UNL A   1      42.787  27.477  30.639  1.00  0.00     0.014 A 
ATOM      8  C   UNL A   1      43.519  27.931  28.381  1.00  0.00     0.014 A 
ATOM      9  C   UNL A   1      41.466  27.412  30.192  1.00  0.00     0.010 A 
ATOM     10  C   UNL A   1      42.195  27.973  27.956  1.00  0.00     0.010 A 
ATOM     11  C   UNL A   1      41.157  27.673  28.848  1.00  0.00    -0.014 A 
BRANCH  11  12
ATOM     12  C   UNL A   1      39.769  27.553  28.336  1.00  0.00     0.031 A 
ATOM     13  C   UNL A   1      39.329  26.275  27.670  1.00  0.00     0.074 A 
ATOM     14  C   UNL A   1      38.915  28.588  28.442  1.00  0.00     0.049 A 
ATOM     15  N   UNL A   1      38.180  25.987  27.116  1.00  0.00    -0.248 NA
ATOM     16  C   UNL A   1      40.317  25.183  27.595  1.00  0.00     0.031 C 
ATOM     17  C   UNL A   1      39.226  29.880  29.056  1.00  0.00     0.029 A 
ATOM     18  N   UNL A   1      37.607  28.715  28.043  1.00  0.00    -0.354 N 
ATOM     19  C   UNL A   1      38.313  24.697  26.620  1.00  0.00     0.074 A 
ATOM     20  C   UNL A   1      39.671  24.278  26.876  1.00  0.00     0.031 C 
ATOM     21  C   UNL A   1      38.128  30.651  29.031  1.00  0.00     0.029 A 
ATOM     22  C   UNL A   1      37.052  29.933  28.353  1.00  0.00     0.049 A 
ATOM     23  H   UNL A   1      37.114  28.001  27.578  1.00  0.00     0.167 HD
ATOM     24  C   UNL A   1      37.378  23.917  26.031  1.00  0.00     0.031 A 
ATOM     25  C   UNL A   1      35.817  30.420  28.118  1.00  0.00     0.031 A 
ATOM     26  C   UNL A   1      36.019  24.327  25.804  1.00  0.00     0.049 A 
ATOM     27  C   UNL A   1      34.803  29.547  27.430  1.00  0.00     0.074 A 
ATOM     28  C   UNL A   1      34.983  23.589  25.260  1.00  0.00     0.029 A 
ATOM     29  N   UNL A   1      35.506  25.577  26.114  1.00  0.00    -0.354 N 
ATOM     30  N   UNL A   1      34.930  28.309  27.012  1.00  0.00    -0.248 NA
ATOM     31  C   UNL A   1      33.473  30.126  27.191  1.00  0.00     0.031 C 
ATOM     32  C   UNL A   1      33.865  24.417  25.168  1.00  0.00     0.029 A 
ATOM     33  C   UNL A   1      34.176  25.642  25.738  1.00  0.00     0.049 A 
ATOM     34  H   UNL A   1      36.012  26.308  26.536  1.00  0.00     0.167 HD
ATOM     35  C   UNL A   1      33.693  27.955  26.487  1.00  0.00     0.074 A 
ATOM     36  C   UNL A   1      32.824  29.101  26.655  1.00  0.00     0.031 C 
ATOM     37  C   UNL A   1      33.316  26.784  25.917  1.00  0.00     0.031 A 
BRANCH  24  38
ATOM     38  C   UNL A   1      37.774  22.529  25.600  1.00  0.00    -0.014 A 
ATOM     39  C   UNL A   1      37.018  21.859  24.626  1.00  0.00     0.009 A 
ATOM     40  C   UNL A   1      38.827  21.846  26.230  1.00  0.00     0.009 A 
ATOM     41  C   UNL A   1      37.292  20.527  24.307  1.00  0.00     0.001 A 
ATOM     42  C   UNL A   1      39.121  20.526  25.884  1.00  0.00     0.001 A 
ATOM     43  C   UNL A   1      38.345  19.863  24.933  1.00  0.00     0.000 A 
ENDBRANCH  24  38
BRANCH  25  44
ATOM     44  C   UNL A   1      35.474  31.793  28.580  1.00  0.00    -0.014 A 
ATOM     45  C   UNL A   1      34.982  32.012  29.878  1.00  0.00     0.009 A 
ATOM     46  C   UNL A   1      35.578  32.885  27.705  1.00  0.00     0.009 A 
ATOM     47  C   UNL A   1      34.571  33.286  30.278  1.00  0.00     0.001 A 
ATOM     48  C   UNL A   1      35.199  34.165  28.121  1.00  0.00     0.001 A 
ATOM     49  C   UNL A   1      34.684  34.362  29.400  1.00  0.00     0.000 A 
ENDBRANCH  25  44
BRANCH  37  50
ATOM     50  C   UNL A   1      31.896  26.647  25.438  1.00  0.00    -0.014 A 
ATOM     51  C   UNL A   1      30.952  25.988  26.245  1.00  0.00     0.009 A 
ATOM     52  C   UNL A   1      31.525  27.037  24.143  1.00  0.00     0.009 A 
ATOM     53  C   UNL A   1      29.679  25.695  25.755  1.00  0.00     0.001 A 
ATOM     54  C   UNL A   1      30.237  26.775  23.669  1.00  0.00     0.001 A 
ATOM     55  C   UNL A   1      29.322  26.092  24.469  1.00  0.00     0.000 A 
ENDBRANCH  37  50
ENDBRANCH  11  12
ENDBRANCH   4   6
ENDBRANCH   1   2
BRANCH   1  56
ATOM     56  C   UNL A   1      46.497  24.991  28.489  1.00  0.00     0.042 C 
BRANCH  56  57
ATOM     57  C   UNL A   1      46.048  23.753  27.726  1.00  0.00     0.118 C 
BRANCH  57  58
ATOM     58  N   UNL A   1      46.461  23.793  26.330  1.00  0.00    -0.352 N 
ATOM     59  C   UNL A   1      46.013  23.051  25.268  1.00  0.00     0.253 C 
ATOM     60  H   UNL A   1      47.166  24.447  26.119  1.00  0.00     0.163 HD
ATOM     61  O   UNL A   1      46.668  23.005  24.231  1.00  0.00    -0.269 OA
BRANCH  59  62
ATOM     62  C   UNL A   1      44.764  22.268  25.376  1.00  0.00     0.064 A 
ATOM     63  C   UNL A   1      43.525  22.926  25.352  1.00  0.00     0.016 A 
ATOM     64  C   UNL A   1      44.811  20.871  25.475  1.00  0.00     0.071 A 
ATOM     65  C   UNL A   1      42.346  22.204  25.525  1.00  0.00     0.002 A 
ATOM     66  C   UNL A   1      43.638  20.158  25.632  1.00  0.00     0.085 A 
ATOM     67  N   UNL A   1      46.000  20.157  25.426  1.00  0.00    -0.289 N 
ATOM     68  C   UNL A   1      42.402  20.819  25.674  1.00  0.00     0.018 A 
ATOM     69  C   UNL A   1      43.715  18.696  25.747  1.00  0.00     0.349 A 
ATOM     70  C   UNL A   1      46.076  18.801  25.542  1.00  0.00     0.419 A 
ATOM     71  H   UNL A   1      46.837  20.657  25.299  1.00  0.00     0.173 HD
ATOM     72  O   UNL A   1      42.683  18.046  25.880  1.00  0.00    -0.246 OA
ATOM     73  O   UNL A   1      44.926  18.100  25.713  1.00  0.00    -0.372 OA
ATOM     74  O   UNL A   1      47.166  18.236  25.499  1.00  0.00    -0.224 OA
ENDBRANCH  59  62
ENDBRANCH  57  58
ENDBRANCH  56  57
ENDBRANCH   1  56
TORSDOF 10
ENDMDL
MODEL 3
REMARK VINA RESULT:     -12.3      4.136     10.982
REMARK SMILES O=C(NCCCNC(=O)c1cccc2c(=O)oc(=O)[nH]c12)c1ccc(-c2c3nc(c(-c4ccccc4)c4ccc([nH]4)c(-c4ccccc4)c4nc(c(-c5ccccc5)c5ccc2[nH]5)C=C4)C=C3)cc1
REMARK SMILES IDX 4 1 3 2 1 3 2 4 22 6 23 7 69 8 24 9 68 10 25 11 26 12 27 13
REMARK SMILES IDX 62 14 28 15 67 16 61 17 63 18 29 19 66 20 60 21 59 22 30 24
REMARK SMILES IDX 52 25 37 26 51 27 38 28 41 29 50 30 64 31 39 32 40 33 49 35
REMARK SMILES IDX 65 36 42 37 31 38 32 39 36 40 33 41 35 42 34 43 53 44 54 45
REMARK SMILES IDX 58 46 55 47 57 48 56 49 43 50 44 51 48 52 45 53 47 54 46 55
REMARK SMILES IDX 5 56 6 57 7 58 8 59 9 61 10 62 11 63 21 64 12 65 14 66 20 67
REMARK SMILES IDX 13 68 15 69 18 70 16 72 17 73 19 74
REMARK H PARENT 3 5 63 23 41 34 7 60 20 71
REMARK Flexibility Score: inf
ROOT
ATOM      1  C   UNL A   1      38.948  20.223  26.047  1.00  0.00     0.118 C 
ENDROOT
BRANCH   1   2
ATOM      2  N   UNL A   1      40.029  19.249  26.038  1.00  0.00    -0.352 N 
ATOM      3  O   UNL A   1      42.121  18.467  25.829  1.00  0.00    -0.269 OA
ATOM      4  C   UNL A   1      41.389  19.424  26.068  1.00  0.00     0.251 C 
ATOM      5  H   UNL A   1      39.735  18.310  26.004  1.00  0.00     0.163 HD
BRANCH   4   6
ATOM      6  C   UNL A   1      41.983  20.742  26.380  1.00  0.00     0.039 A 
ATOM      7  C   UNL A   1      42.211  21.078  27.718  1.00  0.00     0.014 A 
ATOM      8  C   UNL A   1      42.249  21.677  25.376  1.00  0.00     0.014 A 
ATOM      9  C   UNL A   1      42.721  22.337  28.042  1.00  0.00     0.010 A 
ATOM     10  C   UNL A   1      42.855  22.888  25.692  1.00  0.00     0.010 A 
ATOM     11  C   UNL A   1      43.061  23.249  27.030  1.00  0.00    -0.014 A 
BRANCH  11  12
ATOM     12  C   UNL A   1      43.548  24.613  27.350  1.00  0.00     0.031 A 
ATOM     13  C   UNL A   1      42.567  25.671  27.785  1.00  0.00     0.074 A 
ATOM     14  C   UNL A   1      44.855  24.913  27.228  1.00  0.00     0.049 A 
ATOM     15  N   UNL A   1      42.783  26.932  28.063  1.00  0.00    -0.248 NA
ATOM     16  C   UNL A   1      41.154  25.269  27.902  1.00  0.00     0.031 C 
ATOM     17  C   UNL A   1      45.899  23.979  26.805  1.00  0.00     0.029 A 
ATOM     18  N   UNL A   1      45.529  26.087  27.454  1.00  0.00    -0.354 N 
ATOM     19  C   UNL A   1      41.539  27.467  28.371  1.00  0.00     0.074 A 
ATOM     20  C   UNL A   1      40.563  26.420  28.184  1.00  0.00     0.031 C 
ATOM     21  C   UNL A   1      47.086  24.603  26.845  1.00  0.00     0.029 A 
ATOM     22  C   UNL A   1      46.884  25.995  27.242  1.00  0.00     0.049 A 
ATOM     23  H   UNL A   1      45.085  26.917  27.742  1.00  0.00     0.167 HD
ATOM     24  C   UNL A   1      41.240  28.713  28.804  1.00  0.00     0.031 A 
ATOM     25  C   UNL A   1      47.855  26.923  27.352  1.00  0.00     0.031 A 
ATOM     26  C   UNL A   1      42.218  29.745  29.017  1.00  0.00     0.049 A 
ATOM     27  C   UNL A   1      47.494  28.313  27.801  1.00  0.00     0.074 A 
ATOM     28  C   UNL A   1      42.018  31.025  29.501  1.00  0.00     0.029 A 
ATOM     29  N   UNL A   1      43.575  29.614  28.768  1.00  0.00    -0.354 N 
ATOM     30  N   UNL A   1      46.319  28.790  28.138  1.00  0.00    -0.248 NA
ATOM     31  C   UNL A   1      48.588  29.290  27.899  1.00  0.00     0.031 C 
ATOM     32  C   UNL A   1      43.241  31.694  29.471  1.00  0.00     0.029 A 
ATOM     33  C   UNL A   1      44.219  30.804  29.056  1.00  0.00     0.049 A 
ATOM     34  H   UNL A   1      44.014  28.798  28.435  1.00  0.00     0.167 HD
ATOM     35  C   UNL A   1      46.536  30.110  28.511  1.00  0.00     0.074 A 
ATOM     36  C   UNL A   1      47.957  30.355  28.378  1.00  0.00     0.031 C 
ATOM     37  C   UNL A   1      45.636  31.035  28.927  1.00  0.00     0.031 A 
BRANCH  24  38
ATOM     38  C   UNL A   1      39.799  29.041  29.096  1.00  0.00    -0.014 A 
ATOM     39  C   UNL A   1      39.268  28.780  30.368  1.00  0.00     0.009 A 
ATOM     40  C   UNL A   1      38.941  29.508  28.086  1.00  0.00     0.009 A 
ATOM     41  C   UNL A   1      37.905  28.955  30.619  1.00  0.00     0.001 A 
ATOM     42  C   UNL A   1      37.586  29.718  28.350  1.00  0.00     0.001 A 
ATOM     43  C   UNL A   1      37.067  29.428  29.612  1.00  0.00     0.000 A 
ENDBRANCH  24  38
BRANCH  25  44
ATOM     44  C   UNL A   1      49.266  26.540  27.068  1.00  0.00    -0.014 A 
ATOM     45  C   UNL A   1      49.737  26.464  25.747  1.00  0.00     0.009 A 
ATOM     46  C   UNL A   1      50.132  26.188  28.114  1.00  0.00     0.009 A 
ATOM     47  C   UNL A   1      51.032  26.014  25.477  1.00  0.00     0.001 A 
ATOM     48  C   UNL A   1      51.439  25.771  27.842  1.00  0.00     0.001 A 
ATOM     49  C   UNL A   1      51.883  25.671  26.526  1.00  0.00     0.000 A 
ENDBRANCH  25  44
BRANCH  37  50
ATOM     50  C   UNL A   1      46.137  32.406  29.294  1.00  0.00    -0.014 A 
ATOM     51  C   UNL A   1      46.462  32.691  30.631  1.00  0.00     0.009 A 
ATOM     52  C   UNL A   1      46.151  33.450  28.357  1.00  0.00     0.009 A 
ATOM     53  C   UNL A   1      46.762  33.994  31.029  1.00  0.00     0.001 A 
ATOM     54  C   UNL A   1      46.488  34.747  28.750  1.00  0.00     0.001 A 
ATOM     55  C   UNL A   1      46.777  35.020  30.087  1.00  0.00     0.000 A 
ENDBRANCH  37  50
ENDBRANCH  11  12
ENDBRANCH   4   6
ENDBRANCH   1   2
BRANCH   1  56
ATOM     56  C   UNL A   1      37.949  19.995  24.923  1.00  0.00     0.042 C 
BRANCH  56  57
ATOM     57  C   UNL A   1      36.867  21.062  24.831  1.00  0.00     0.118 C 
BRANCH  57  58
ATOM     58  N   UNL A   1      36.015  21.078  26.012  1.00  0.00    -0.352 N 
ATOM     59  C   UNL A   1      34.648  21.128  26.097  1.00  0.00     0.253 C 
ATOM     60  H   UNL A   1      36.490  21.050  26.874  1.00  0.00     0.163 HD
ATOM     61  O   UNL A   1      34.110  21.430  27.159  1.00  0.00    -0.269 OA
BRANCH  59  62
ATOM     62  C   UNL A   1      33.813  20.862  24.908  1.00  0.00     0.064 A 
ATOM     63  C   UNL A   1      33.195  21.928  24.237  1.00  0.00     0.016 A 
ATOM     64  C   UNL A   1      33.659  19.553  24.430  1.00  0.00     0.071 A 
ATOM     65  C   UNL A   1      32.349  21.680  23.159  1.00  0.00     0.002 A 
ATOM     66  C   UNL A   1      32.831  19.314  23.350  1.00  0.00     0.085 A 
ATOM     67  N   UNL A   1      34.307  18.467  25.000  1.00  0.00    -0.289 N 
ATOM     68  C   UNL A   1      32.159  20.371  22.719  1.00  0.00     0.018 A 
ATOM     69  C   UNL A   1      32.675  17.932  22.877  1.00  0.00     0.349 A 
ATOM     70  C   UNL A   1      34.157  17.182  24.569  1.00  0.00     0.419 A 
ATOM     71  H   UNL A   1      34.910  18.632  25.759  1.00  0.00     0.173 HD
ATOM     72  O   UNL A   1      31.949  17.703  21.915  1.00  0.00    -0.246 OA
ATOM     73  O   UNL A   1      33.330  16.943  23.520  1.00  0.00    -0.372 OA
ATOM     74  O   UNL A   1      34.756  16.268  25.131  1.00  0.00    -0.224 OA
ENDBRANCH  59  62
ENDBRANCH  57  58
ENDBRANCH  56  57
ENDBRANCH   1  56
TORSDOF 10
ENDMDL
