MODEL 1
REMARK VINA RESULT:     -12.9      0.000      0.000
REMARK SMILES C[C@H](NC(=O)c1cccc(NC(=O)c2ccccc2C(=O)NCCCNC(=O)c2ccc(-c3c4nc(c(-c5ccccc5)c5ccc([nH]5)c(-c5ccccc5)c5nc(c(-c6ccccc6)c6ccc3[nH]6)C=C5)C=C4)cc2)c1)c1ccccc1
REMARK SMILES IDX 20 1 21 2 22 3 19 5 14 6 15 7 16 8 18 9 17 10 12 11 11 12
REMARK SMILES IDX 13 14 10 15 6 16 7 17 77 18 8 19 9 20 4 21 3 22 5 24 2 25
REMARK SMILES IDX 1 26 78 27 79 28 83 29 80 30 82 31 81 32 23 33 24 34 25 35
REMARK SMILES IDX 26 36 27 37 28 39 29 40 30 41 76 42 31 43 75 44 32 45 33 46
REMARK SMILES IDX 34 47 69 48 35 49 74 50 68 51 70 52 36 53 73 54 67 55 66 56
REMARK SMILES IDX 37 58 59 59 44 60 58 61 45 62 48 63 57 64 71 65 46 66 47 67
REMARK SMILES IDX 56 69 72 70 49 71 38 72 39 73 43 74 40 75 42 76 41 77 60 78
REMARK SMILES IDX 61 79 65 80 62 81 64 82 63 83 50 84 51 85 55 86 52 87 54 88
REMARK SMILES IDX 53 89
REMARK H PARENT 22 4 11 13 3 23 26 38 70 57 48 68
REMARK Flexibility Score: inf
ROOT
ATOM      1  C   UNL A   1      33.787  28.546  23.822  1.00  0.00     0.252 C 
ATOM      2  O   UNL A   1      34.458  29.009  22.899  1.00  0.00    -0.269 OA
ATOM      3  N   UNL A   1      34.378  28.403  25.053  1.00  0.00    -0.352 N 
ATOM      4  H   UNL A   1      35.314  28.702  25.115  1.00  0.00     0.163 HD
ENDROOT
BRANCH   1   5
ATOM      5  C   UNL A   1      32.406  28.073  23.539  1.00  0.00     0.052 A 
ATOM      6  C   UNL A   1      32.035  26.908  22.847  1.00  0.00     0.052 A 
ATOM      7  C   UNL A   1      30.671  26.680  22.569  1.00  0.00     0.014 A 
ATOM      8  C   UNL A   1      29.682  27.540  23.043  1.00  0.00     0.001 A 
ATOM      9  C   UNL A   1      31.388  28.905  24.056  1.00  0.00     0.014 A 
ATOM     10  C   UNL A   1      30.039  28.639  23.811  1.00  0.00     0.001 A 
BRANCH   6  11
ATOM     11  C   UNL A   1      32.944  25.899  22.263  1.00  0.00     0.256 C 
ATOM     12  N   UNL A   1      33.228  24.678  22.818  1.00  0.00    -0.322 N 
ATOM     13  H   UNL A   1      33.974  24.213  22.374  1.00  0.00     0.170 HD
ATOM     14  O   UNL A   1      33.552  26.220  21.236  1.00  0.00    -0.269 OA
BRANCH  12  15
ATOM     15  C   UNL A   1      32.682  23.953  23.884  1.00  0.00     0.042 A 
ATOM     16  C   UNL A   1      33.109  22.738  25.932  1.00  0.00     0.041 A 
ATOM     17  C   UNL A   1      31.743  22.511  26.099  1.00  0.00     0.014 A 
ATOM     18  C   UNL A   1      33.585  23.442  24.825  1.00  0.00     0.040 A 
ATOM     19  C   UNL A   1      30.850  22.991  25.143  1.00  0.00     0.003 A 
ATOM     20  C   UNL A   1      31.319  23.694  24.030  1.00  0.00     0.026 A 
BRANCH  16  21
ATOM     21  C   UNL A   1      34.065  22.085  26.834  1.00  0.00     0.251 C 
ATOM     22  N   UNL A   1      34.969  21.182  26.363  1.00  0.00    -0.346 N 
ATOM     23  H   UNL A   1      35.517  20.751  27.057  1.00  0.00     0.164 HD
ATOM     24  O   UNL A   1      34.027  22.364  28.034  1.00  0.00    -0.269 OA
BRANCH  22  25
ATOM     25  C   UNL A   1      35.260  20.746  25.000  1.00  0.00     0.109 C 
ATOM     26  C   UNL A   1      36.770  20.477  24.920  1.00  0.00     0.036 C 
BRANCH  25  27
ATOM     27  C   UNL A   1      34.494  19.482  24.617  1.00  0.00    -0.026 A 
ATOM     28  C   UNL A   1      35.095  18.212  24.589  1.00  0.00     0.006 A 
ATOM     29  C   UNL A   1      33.146  19.578  24.224  1.00  0.00     0.006 A 
ATOM     30  C   UNL A   1      34.405  17.100  24.103  1.00  0.00     0.000 A 
ATOM     31  C   UNL A   1      32.461  18.468  23.725  1.00  0.00     0.000 A 
ATOM     32  C   UNL A   1      33.100  17.235  23.643  1.00  0.00     0.000 A 
ENDBRANCH  25  27
ENDBRANCH  22  25
ENDBRANCH  16  21
ENDBRANCH  12  15
ENDBRANCH   6  11
ENDBRANCH   1   5
BRANCH   3  33
ATOM     33  C   UNL A   1      33.809  27.871  26.270  1.00  0.00     0.118 C 
BRANCH  33  34
ATOM     34  C   UNL A   1      33.360  28.912  27.269  1.00  0.00     0.042 C 
BRANCH  34  35
ATOM     35  C   UNL A   1      33.785  30.342  26.964  1.00  0.00     0.118 C 
BRANCH  35  36
ATOM     36  N   UNL A   1      33.902  31.233  28.113  1.00  0.00    -0.352 N 
ATOM     37  C   UNL A   1      34.890  31.373  29.064  1.00  0.00     0.251 C 
ATOM     38  H   UNL A   1      33.140  31.845  28.230  1.00  0.00     0.163 HD
ATOM     39  O   UNL A   1      34.744  32.203  29.961  1.00  0.00    -0.269 OA
BRANCH  37  40
ATOM     40  C   UNL A   1      36.095  30.507  29.063  1.00  0.00     0.039 A 
ATOM     41  C   UNL A   1      36.929  30.496  27.938  1.00  0.00     0.014 A 
ATOM     42  C   UNL A   1      36.431  29.726  30.167  1.00  0.00     0.014 A 
ATOM     43  C   UNL A   1      38.157  29.828  27.985  1.00  0.00     0.010 A 
ATOM     44  C   UNL A   1      37.681  29.140  30.255  1.00  0.00     0.010 A 
ATOM     45  C   UNL A   1      38.567  29.216  29.178  1.00  0.00    -0.014 A 
BRANCH  45  46
ATOM     46  C   UNL A   1      39.951  28.751  29.411  1.00  0.00     0.031 A 
ATOM     47  C   UNL A   1      41.010  29.722  29.839  1.00  0.00     0.074 A 
ATOM     48  C   UNL A   1      40.274  27.509  29.000  1.00  0.00     0.049 A 
ATOM     49  N   UNL A   1      42.304  29.555  29.903  1.00  0.00    -0.248 NA
ATOM     50  C   UNL A   1      40.558  31.080  30.189  1.00  0.00     0.031 C 
ATOM     51  C   UNL A   1      39.333  26.527  28.448  1.00  0.00     0.029 A 
ATOM     52  N   UNL A   1      41.487  26.878  28.933  1.00  0.00    -0.354 N 
ATOM     53  C   UNL A   1      42.824  30.788  30.273  1.00  0.00     0.074 A 
ATOM     54  C   UNL A   1      41.711  31.706  30.371  1.00  0.00     0.031 C 
ATOM     55  C   UNL A   1      40.006  25.419  28.102  1.00  0.00     0.029 A 
ATOM     56  C   UNL A   1      41.420  25.622  28.380  1.00  0.00     0.049 A 
ATOM     57  H   UNL A   1      42.326  27.284  29.251  1.00  0.00     0.167 HD
ATOM     58  C   UNL A   1      44.114  31.115  30.523  1.00  0.00     0.031 A 
ATOM     59  C   UNL A   1      42.395  24.733  28.120  1.00  0.00     0.031 A 
ATOM     60  C   UNL A   1      45.204  30.182  30.433  1.00  0.00     0.049 A 
ATOM     61  C   UNL A   1      43.806  25.093  28.475  1.00  0.00     0.074 A 
ATOM     62  C   UNL A   1      46.534  30.368  30.767  1.00  0.00     0.029 A 
ATOM     63  N   UNL A   1      45.084  28.879  29.970  1.00  0.00    -0.354 N 
ATOM     64  N   UNL A   1      44.272  26.227  28.940  1.00  0.00    -0.248 NA
ATOM     65  C   UNL A   1      44.819  24.047  28.294  1.00  0.00     0.031 C 
ATOM     66  C   UNL A   1      47.224  29.185  30.477  1.00  0.00     0.029 A 
ATOM     67  C   UNL A   1      46.317  28.253  29.998  1.00  0.00     0.049 A 
ATOM     68  H   UNL A   1      44.246  28.462  29.667  1.00  0.00     0.167 HD
ATOM     69  C   UNL A   1      45.629  26.025  29.135  1.00  0.00     0.074 A 
ATOM     70  C   UNL A   1      45.908  24.656  28.744  1.00  0.00     0.031 C 
ATOM     71  C   UNL A   1      46.562  26.891  29.600  1.00  0.00     0.031 A 
BRANCH  58  72
ATOM     72  C   UNL A   1      44.403  32.534  30.931  1.00  0.00    -0.014 A 
ATOM     73  C   UNL A   1      44.753  33.504  29.977  1.00  0.00     0.009 A 
ATOM     74  C   UNL A   1      44.302  32.914  32.278  1.00  0.00     0.009 A 
ATOM     75  C   UNL A   1      45.036  34.815  30.369  1.00  0.00     0.001 A 
ATOM     76  C   UNL A   1      44.559  34.233  32.663  1.00  0.00     0.001 A 
ATOM     77  C   UNL A   1      44.935  35.179  31.710  1.00  0.00     0.000 A 
ENDBRANCH  58  72
BRANCH  59  78
ATOM     78  C   UNL A   1      42.049  23.405  27.557  1.00  0.00    -0.014 A 
ATOM     79  C   UNL A   1      42.244  23.153  26.191  1.00  0.00     0.009 A 
ATOM     80  C   UNL A   1      41.577  22.372  28.380  1.00  0.00     0.009 A 
ATOM     81  C   UNL A   1      41.958  21.894  25.656  1.00  0.00     0.001 A 
ATOM     82  C   UNL A   1      41.312  21.108  27.846  1.00  0.00     0.001 A 
ATOM     83  C   UNL A   1      41.497  20.873  26.484  1.00  0.00     0.000 A 
ENDBRANCH  59  78
BRANCH  71  84
ATOM     84  C   UNL A   1      47.959  26.365  29.737  1.00  0.00    -0.014 A 
ATOM     85  C   UNL A   1      48.419  25.842  30.955  1.00  0.00     0.009 A 
ATOM     86  C   UNL A   1      48.811  26.364  28.623  1.00  0.00     0.009 A 
ATOM     87  C   UNL A   1      49.721  25.352  31.060  1.00  0.00     0.001 A 
ATOM     88  C   UNL A   1      50.103  25.852  28.725  1.00  0.00     0.001 A 
ATOM     89  C   UNL A   1      50.560  25.354  29.946  1.00  0.00     0.000 A 
ENDBRANCH  71  84
ENDBRANCH  45  46
ENDBRANCH  37  40
ENDBRANCH  35  36
ENDBRANCH  34  35
ENDBRANCH  33  34
ENDBRANCH   3  33
TORSDOF 15
ENDMDL
MODEL 2
REMARK VINA RESULT:     -12.8      3.678      7.334
REMARK SMILES C[C@H](NC(=O)c1cccc(NC(=O)c2ccccc2C(=O)NCCCNC(=O)c2ccc(-c3c4nc(c(-c5ccccc5)c5ccc([nH]5)c(-c5ccccc5)c5nc(c(-c6ccccc6)c6ccc3[nH]6)C=C5)C=C4)cc2)c1)c1ccccc1
REMARK SMILES IDX 20 1 21 2 22 3 19 5 14 6 15 7 16 8 18 9 17 10 12 11 11 12
REMARK SMILES IDX 13 14 10 15 6 16 7 17 77 18 8 19 9 20 4 21 3 22 5 24 2 25
REMARK SMILES IDX 1 26 78 27 79 28 83 29 80 30 82 31 81 32 23 33 24 34 25 35
REMARK SMILES IDX 26 36 27 37 28 39 29 40 30 41 76 42 31 43 75 44 32 45 33 46
REMARK SMILES IDX 34 47 69 48 35 49 74 50 68 51 70 52 36 53 73 54 67 55 66 56
REMARK SMILES IDX 37 58 59 59 44 60 58 61 45 62 48 63 57 64 71 65 46 66 47 67
REMARK SMILES IDX 56 69 72 70 49 71 38 72 39 73 43 74 40 75 42 76 41 77 60 78
REMARK SMILES IDX 61 79 65 80 62 81 64 82 63 83 50 84 51 85 55 86 52 87 54 88
REMARK SMILES IDX 53 89
REMARK H PARENT 22 4 11 13 3 23 26 38 70 57 48 68
REMARK Flexibility Score: inf
ROOT
ATOM      1  C   UNL A   1      33.272  28.581  24.762  1.00  0.00     0.252 C 
ATOM      2  O   UNL A   1      34.242  28.274  24.068  1.00  0.00    -0.269 OA
ATOM      3  N   UNL A   1      33.500  29.185  25.974  1.00  0.00    -0.352 N 
ATOM      4  H   UNL A   1      34.444  29.347  26.200  1.00  0.00     0.163 HD
ENDROOT
BRANCH   1   5
ATOM      5  C   UNL A   1      31.910  28.196  24.305  1.00  0.00     0.052 A 
ATOM      6  C   UNL A   1      31.076  27.213  24.864  1.00  0.00     0.052 A 
ATOM      7  C   UNL A   1      29.859  26.901  24.222  1.00  0.00     0.014 A 
ATOM      8  C   UNL A   1      29.430  27.607  23.100  1.00  0.00     0.001 A 
ATOM      9  C   UNL A   1      31.436  28.936  23.199  1.00  0.00     0.014 A 
ATOM     10  C   UNL A   1      30.207  28.645  22.604  1.00  0.00     0.001 A 
BRANCH   6  11
ATOM     11  C   UNL A   1      31.374  26.361  26.034  1.00  0.00     0.256 C 
ATOM     12  N   UNL A   1      32.032  25.158  25.987  1.00  0.00    -0.322 N 
ATOM     13  H   UNL A   1      31.994  24.661  26.836  1.00  0.00     0.170 HD
ATOM     14  O   UNL A   1      30.923  26.728  27.124  1.00  0.00    -0.269 OA
BRANCH  12  15
ATOM     15  C   UNL A   1      32.744  24.488  24.986  1.00  0.00     0.042 A 
ATOM     16  C   UNL A   1      32.834  22.581  23.500  1.00  0.00     0.041 A 
ATOM     17  C   UNL A   1      34.032  23.044  22.955  1.00  0.00     0.014 A 
ATOM     18  C   UNL A   1      32.195  23.287  24.521  1.00  0.00     0.040 A 
ATOM     19  C   UNL A   1      34.594  24.222  23.445  1.00  0.00     0.003 A 
ATOM     20  C   UNL A   1      33.961  24.932  24.470  1.00  0.00     0.026 A 
BRANCH  16  21
ATOM     21  C   UNL A   1      32.333  21.256  23.118  1.00  0.00     0.251 C 
ATOM     22  N   UNL A   1      32.428  20.198  23.970  1.00  0.00    -0.346 N 
ATOM     23  H   UNL A   1      32.125  19.341  23.593  1.00  0.00     0.164 HD
ATOM     24  O   UNL A   1      31.829  21.117  22.002  1.00  0.00    -0.269 OA
BRANCH  22  25
ATOM     25  C   UNL A   1      32.904  20.123  25.349  1.00  0.00     0.109 C 
ATOM     26  C   UNL A   1      32.784  18.658  25.793  1.00  0.00     0.036 C 
BRANCH  25  27
ATOM     27  C   UNL A   1      34.352  20.585  25.490  1.00  0.00    -0.026 A 
ATOM     28  C   UNL A   1      34.721  21.685  26.283  1.00  0.00     0.006 A 
ATOM     29  C   UNL A   1      35.365  19.930  24.764  1.00  0.00     0.006 A 
ATOM     30  C   UNL A   1      36.033  22.165  26.280  1.00  0.00     0.000 A 
ATOM     31  C   UNL A   1      36.673  20.419  24.751  1.00  0.00     0.000 A 
ATOM     32  C   UNL A   1      36.999  21.551  25.492  1.00  0.00     0.000 A 
ENDBRANCH  25  27
ENDBRANCH  22  25
ENDBRANCH  16  21
ENDBRANCH  12  15
ENDBRANCH   6  11
ENDBRANCH   1   5
BRANCH   3  33
ATOM     33  C   UNL A   1      32.537  29.613  26.963  1.00  0.00     0.118 C 
BRANCH  33  34
ATOM     34  C   UNL A   1      32.112  31.059  26.850  1.00  0.00     0.042 C 
BRANCH  34  35
ATOM     35  C   UNL A   1      33.142  32.084  27.306  1.00  0.00     0.118 C 
BRANCH  35  36
ATOM     36  N   UNL A   1      32.633  33.423  27.581  1.00  0.00    -0.352 N 
ATOM     37  C   UNL A   1      33.100  34.428  28.402  1.00  0.00     0.251 C 
ATOM     38  H   UNL A   1      31.809  33.651  27.093  1.00  0.00     0.163 HD
ATOM     39  O   UNL A   1      32.470  35.481  28.475  1.00  0.00    -0.269 OA
BRANCH  37  40
ATOM     40  C   UNL A   1      34.311  34.243  29.239  1.00  0.00     0.039 A 
ATOM     41  C   UNL A   1      34.180  33.692  30.520  1.00  0.00     0.014 A 
ATOM     42  C   UNL A   1      35.579  34.579  28.770  1.00  0.00     0.014 A 
ATOM     43  C   UNL A   1      35.321  33.347  31.252  1.00  0.00     0.010 A 
ATOM     44  C   UNL A   1      36.711  34.159  29.445  1.00  0.00     0.010 A 
ATOM     45  C   UNL A   1      36.589  33.508  30.676  1.00  0.00    -0.014 A 
BRANCH  45  46
ATOM     46  C   UNL A   1      37.814  32.906  31.243  1.00  0.00     0.031 A 
ATOM     47  C   UNL A   1      38.424  31.695  30.603  1.00  0.00     0.074 A 
ATOM     48  C   UNL A   1      38.213  33.323  32.460  1.00  0.00     0.049 A 
ATOM     49  N   UNL A   1      39.368  30.912  31.054  1.00  0.00    -0.248 NA
ATOM     50  C   UNL A   1      37.858  31.275  29.310  1.00  0.00     0.031 C 
ATOM     51  C   UNL A   1      37.602  34.416  33.224  1.00  0.00     0.029 A 
ATOM     52  N   UNL A   1      39.191  32.845  33.291  1.00  0.00    -0.354 N 
ATOM     53  C   UNL A   1      39.492  29.895  30.117  1.00  0.00     0.074 A 
ATOM     54  C   UNL A   1      38.493  30.132  29.098  1.00  0.00     0.031 C 
ATOM     55  C   UNL A   1      38.222  34.525  34.410  1.00  0.00     0.029 A 
ATOM     56  C   UNL A   1      39.249  33.497  34.499  1.00  0.00     0.049 A 
ATOM     57  H   UNL A   1      39.795  32.106  33.047  1.00  0.00     0.167 HD
ATOM     58  C   UNL A   1      40.373  28.867  30.104  1.00  0.00     0.031 A 
ATOM     59  C   UNL A   1      40.039  33.284  35.565  1.00  0.00     0.031 A 
ATOM     60  C   UNL A   1      41.368  28.658  31.120  1.00  0.00     0.049 A 
ATOM     61  C   UNL A   1      41.056  32.186  35.496  1.00  0.00     0.074 A 
ATOM     62  C   UNL A   1      42.383  27.719  31.159  1.00  0.00     0.029 A 
ATOM     63  N   UNL A   1      41.468  29.407  32.284  1.00  0.00    -0.354 N 
ATOM     64  N   UNL A   1      41.245  31.300  34.546  1.00  0.00    -0.248 NA
ATOM     65  C   UNL A   1      41.982  32.070  36.628  1.00  0.00     0.031 C 
ATOM     66  C   UNL A   1      43.078  27.880  32.363  1.00  0.00     0.029 A 
ATOM     67  C   UNL A   1      42.519  28.944  33.054  1.00  0.00     0.049 A 
ATOM     68  H   UNL A   1      40.877  30.156  32.527  1.00  0.00     0.167 HD
ATOM     69  C   UNL A   1      42.330  30.539  34.952  1.00  0.00     0.074 A 
ATOM     70  C   UNL A   1      42.761  31.073  36.230  1.00  0.00     0.031 C 
ATOM     71  C   UNL A   1      42.921  29.495  34.322  1.00  0.00     0.031 A 
BRANCH  58  72
ATOM     72  C   UNL A   1      40.303  27.908  28.946  1.00  0.00    -0.014 A 
ATOM     73  C   UNL A   1      40.987  28.170  27.747  1.00  0.00     0.009 A 
ATOM     74  C   UNL A   1      39.568  26.719  29.060  1.00  0.00     0.009 A 
ATOM     75  C   UNL A   1      40.902  27.281  26.673  1.00  0.00     0.001 A 
ATOM     76  C   UNL A   1      39.507  25.818  27.993  1.00  0.00     0.001 A 
ATOM     77  C   UNL A   1      40.165  26.105  26.798  1.00  0.00     0.000 A 
ENDBRANCH  58  72
BRANCH  59  78
ATOM     78  C   UNL A   1      39.935  34.174  36.747  1.00  0.00    -0.014 A 
ATOM     79  C   UNL A   1      40.600  35.410  36.754  1.00  0.00     0.009 A 
ATOM     80  C   UNL A   1      39.136  33.826  37.846  1.00  0.00     0.009 A 
ATOM     81  C   UNL A   1      40.479  36.273  37.845  1.00  0.00     0.001 A 
ATOM     82  C   UNL A   1      39.001  34.701  38.928  1.00  0.00     0.001 A 
ATOM     83  C   UNL A   1      39.676  35.920  38.927  1.00  0.00     0.000 A 
ENDBRANCH  59  78
BRANCH  71  84
ATOM     84  C   UNL A   1      44.114  28.890  34.999  1.00  0.00    -0.014 A 
ATOM     85  C   UNL A   1      45.408  29.373  34.753  1.00  0.00     0.009 A 
ATOM     86  C   UNL A   1      43.934  27.846  35.918  1.00  0.00     0.009 A 
ATOM     87  C   UNL A   1      46.504  28.800  35.398  1.00  0.00     0.001 A 
ATOM     88  C   UNL A   1      45.029  27.291  36.578  1.00  0.00     0.001 A 
ATOM     89  C   UNL A   1      46.314  27.763  36.311  1.00  0.00     0.000 A 
ENDBRANCH  71  84
ENDBRANCH  45  46
ENDBRANCH  37  40
ENDBRANCH  35  36
ENDBRANCH  34  35
ENDBRANCH  33  34
ENDBRANCH   3  33
TORSDOF 15
ENDMDL
MODEL 3
REMARK VINA RESULT:     -12.8      4.292      8.125
REMARK SMILES C[C@H](NC(=O)c1cccc(NC(=O)c2ccccc2C(=O)NCCCNC(=O)c2ccc(-c3c4nc(c(-c5ccccc5)c5ccc([nH]5)c(-c5ccccc5)c5nc(c(-c6ccccc6)c6ccc3[nH]6)C=C5)C=C4)cc2)c1)c1ccccc1
REMARK SMILES IDX 20 1 21 2 22 3 19 5 14 6 15 7 16 8 18 9 17 10 12 11 11 12
REMARK SMILES IDX 13 14 10 15 6 16 7 17 77 18 8 19 9 20 4 21 3 22 5 24 2 25
REMARK SMILES IDX 1 26 78 27 79 28 83 29 80 30 82 31 81 32 23 33 24 34 25 35
REMARK SMILES IDX 26 36 27 37 28 39 29 40 30 41 76 42 31 43 75 44 32 45 33 46
REMARK SMILES IDX 34 47 69 48 35 49 74 50 68 51 70 52 36 53 73 54 67 55 66 56
REMARK SMILES IDX 37 58 59 59 44 60 58 61 45 62 48 63 57 64 71 65 46 66 47 67
REMARK SMILES IDX 56 69 72 70 49 71 38 72 39 73 43 74 40 75 42 76 41 77 60 78
REMARK SMILES IDX 61 79 65 80 62 81 64 82 63 83 50 84 51 85 55 86 52 87 54 88
REMARK SMILES IDX 53 89
REMARK H PARENT 22 4 11 13 3 23 26 38 70 57 48 68
REMARK Flexibility Score: inf
ROOT
ATOM      1  C   UNL A   1      35.650  32.545  31.391  1.00  0.00     0.252 C 
ATOM      2  O   UNL A   1      35.706  31.601  32.181  1.00  0.00    -0.269 OA
ATOM      3  N   UNL A   1      34.434  32.862  30.838  1.00  0.00    -0.352 N 
ATOM      4  H   UNL A   1      33.674  32.310  31.131  1.00  0.00     0.163 HD
ENDROOT
BRANCH   1   5
ATOM      5  C   UNL A   1      36.910  33.229  30.998  1.00  0.00     0.052 A 
ATOM      6  C   UNL A   1      37.823  33.877  31.848  1.00  0.00     0.052 A 
ATOM      7  C   UNL A   1      38.909  34.577  31.282  1.00  0.00     0.014 A 
ATOM      8  C   UNL A   1      39.142  34.564  29.908  1.00  0.00     0.001 A 
ATOM      9  C   UNL A   1      37.191  33.183  29.615  1.00  0.00     0.014 A 
ATOM     10  C   UNL A   1      38.297  33.842  29.076  1.00  0.00     0.001 A 
BRANCH   6  11
ATOM     11  C   UNL A   1      37.726  34.005  33.318  1.00  0.00     0.256 C 
ATOM     12  N   UNL A   1      38.438  33.260  34.223  1.00  0.00    -0.322 N 
ATOM     13  H   UNL A   1      38.124  33.370  35.149  1.00  0.00     0.170 HD
ATOM     14  O   UNL A   1      36.878  34.788  33.757  1.00  0.00    -0.269 OA
BRANCH  12  15
ATOM     15  C   UNL A   1      39.516  32.376  34.107  1.00  0.00     0.042 A 
ATOM     16  C   UNL A   1      40.232  30.106  33.671  1.00  0.00     0.041 A 
ATOM     17  C   UNL A   1      41.567  30.486  33.807  1.00  0.00     0.014 A 
ATOM     18  C   UNL A   1      39.205  31.038  33.834  1.00  0.00     0.040 A 
ATOM     19  C   UNL A   1      41.872  31.811  34.113  1.00  0.00     0.003 A 
ATOM     20  C   UNL A   1      40.849  32.749  34.280  1.00  0.00     0.026 A 
BRANCH  16  21
ATOM     21  C   UNL A   1      39.897  28.684  33.529  1.00  0.00     0.251 C 
ATOM     22  N   UNL A   1      40.744  27.716  33.976  1.00  0.00    -0.346 N 
ATOM     23  H   UNL A   1      40.459  26.797  33.772  1.00  0.00     0.164 HD
ATOM     24  O   UNL A   1      38.833  28.382  32.985  1.00  0.00    -0.269 OA
BRANCH  22  25
ATOM     25  C   UNL A   1      42.004  27.814  34.709  1.00  0.00     0.109 C 
ATOM     26  C   UNL A   1      41.681  27.623  36.199  1.00  0.00     0.036 C 
BRANCH  25  27
ATOM     27  C   UNL A   1      43.018  26.763  34.265  1.00  0.00    -0.026 A 
ATOM     28  C   UNL A   1      44.000  27.022  33.295  1.00  0.00     0.006 A 
ATOM     29  C   UNL A   1      42.950  25.463  34.799  1.00  0.00     0.006 A 
ATOM     30  C   UNL A   1      44.822  26.001  32.813  1.00  0.00     0.000 A 
ATOM     31  C   UNL A   1      43.762  24.439  34.306  1.00  0.00     0.000 A 
ATOM     32  C   UNL A   1      44.682  24.706  33.296  1.00  0.00     0.000 A 
ENDBRANCH  25  27
ENDBRANCH  22  25
ENDBRANCH  16  21
ENDBRANCH  12  15
ENDBRANCH   6  11
ENDBRANCH   1   5
BRANCH   3  33
ATOM     33  C   UNL A   1      34.123  33.900  29.882  1.00  0.00     0.118 C 
BRANCH  33  34
ATOM     34  C   UNL A   1      33.539  33.408  28.578  1.00  0.00     0.042 C 
BRANCH  34  35
ATOM     35  C   UNL A   1      34.453  32.525  27.740  1.00  0.00     0.118 C 
BRANCH  35  36
ATOM     36  N   UNL A   1      34.016  31.145  27.554  1.00  0.00    -0.352 N 
ATOM     37  C   UNL A   1      34.655  29.945  27.782  1.00  0.00     0.251 C 
ATOM     38  H   UNL A   1      33.101  31.055  27.203  1.00  0.00     0.163 HD
ATOM     39  O   UNL A   1      34.067  28.897  27.523  1.00  0.00    -0.269 OA
BRANCH  37  40
ATOM     40  C   UNL A   1      36.053  29.894  28.276  1.00  0.00     0.039 A 
ATOM     41  C   UNL A   1      36.297  29.509  29.600  1.00  0.00     0.014 A 
ATOM     42  C   UNL A   1      37.130  30.191  27.445  1.00  0.00     0.014 A 
ATOM     43  C   UNL A   1      37.608  29.283  30.031  1.00  0.00     0.010 A 
ATOM     44  C   UNL A   1      38.422  29.883  27.834  1.00  0.00     0.010 A 
ATOM     45  C   UNL A   1      38.667  29.394  29.119  1.00  0.00    -0.014 A 
BRANCH  45  46
ATOM     46  C   UNL A   1      40.029  28.894  29.400  1.00  0.00     0.031 A 
ATOM     47  C   UNL A   1      41.097  29.838  29.866  1.00  0.00     0.074 A 
ATOM     48  C   UNL A   1      40.334  27.644  29.000  1.00  0.00     0.049 A 
ATOM     49  N   UNL A   1      42.384  29.637  29.975  1.00  0.00    -0.248 NA
ATOM     50  C   UNL A   1      40.669  31.206  30.201  1.00  0.00     0.031 C 
ATOM     51  C   UNL A   1      39.389  26.687  28.414  1.00  0.00     0.029 A 
ATOM     52  N   UNL A   1      41.533  26.982  28.975  1.00  0.00    -0.354 N 
ATOM     53  C   UNL A   1      42.922  30.857  30.363  1.00  0.00     0.074 A 
ATOM     54  C   UNL A   1      41.830  31.803  30.423  1.00  0.00     0.031 C 
ATOM     55  C   UNL A   1      40.045  25.561  28.091  1.00  0.00     0.029 A 
ATOM     56  C   UNL A   1      41.454  25.728  28.419  1.00  0.00     0.049 A 
ATOM     57  H   UNL A   1      42.370  27.367  29.322  1.00  0.00     0.167 HD
ATOM     58  C   UNL A   1      44.210  31.151  30.659  1.00  0.00     0.031 A 
ATOM     59  C   UNL A   1      42.413  24.815  28.193  1.00  0.00     0.031 A 
ATOM     60  C   UNL A   1      45.279  30.190  30.607  1.00  0.00     0.049 A 
ATOM     61  C   UNL A   1      43.820  25.138  28.597  1.00  0.00     0.074 A 
ATOM     62  C   UNL A   1      46.600  30.342  30.988  1.00  0.00     0.029 A 
ATOM     63  N   UNL A   1      45.141  28.890  30.139  1.00  0.00    -0.354 N 
ATOM     64  N   UNL A   1      44.299  26.260  29.079  1.00  0.00    -0.248 NA
ATOM     65  C   UNL A   1      44.812  24.067  28.451  1.00  0.00     0.031 C 
ATOM     66  C   UNL A   1      47.270  29.142  30.721  1.00  0.00     0.029 A 
ATOM     67  C   UNL A   1      46.356  28.233  30.210  1.00  0.00     0.049 A 
ATOM     68  H   UNL A   1      44.304  28.495  29.806  1.00  0.00     0.167 HD
ATOM     69  C   UNL A   1      45.643  26.023  29.322  1.00  0.00     0.074 A 
ATOM     70  C   UNL A   1      45.899  24.647  28.939  1.00  0.00     0.031 C 
ATOM     71  C   UNL A   1      46.580  26.865  29.820  1.00  0.00     0.031 A 
BRANCH  58  72
ATOM     72  C   UNL A   1      44.521  32.562  31.078  1.00  0.00    -0.014 A 
ATOM     73  C   UNL A   1      44.786  33.558  30.123  1.00  0.00     0.009 A 
ATOM     74  C   UNL A   1      44.527  32.908  32.437  1.00  0.00     0.009 A 
ATOM     75  C   UNL A   1      45.089  34.862  30.524  1.00  0.00     0.001 A 
ATOM     76  C   UNL A   1      44.804  34.219  32.834  1.00  0.00     0.001 A 
ATOM     77  C   UNL A   1      45.096  35.191  31.878  1.00  0.00     0.000 A 
ENDBRANCH  58  72
BRANCH  59  78
ATOM     78  C   UNL A   1      42.053  23.496  27.617  1.00  0.00    -0.014 A 
ATOM     79  C   UNL A   1      42.356  23.212  26.277  1.00  0.00     0.009 A 
ATOM     80  C   UNL A   1      41.461  22.500  28.407  1.00  0.00     0.009 A 
ATOM     81  C   UNL A   1      42.056  21.961  25.733  1.00  0.00     0.001 A 
ATOM     82  C   UNL A   1      41.181  21.242  27.866  1.00  0.00     0.001 A 
ATOM     83  C   UNL A   1      41.475  20.976  26.530  1.00  0.00     0.000 A 
ENDBRANCH  59  78
BRANCH  71  84
ATOM     84  C   UNL A   1      47.957  26.304  30.005  1.00  0.00    -0.014 A 
ATOM     85  C   UNL A   1      48.388  25.841  31.258  1.00  0.00     0.009 A 
ATOM     86  C   UNL A   1      48.820  26.207  28.903  1.00  0.00     0.009 A 
ATOM     87  C   UNL A   1      49.671  25.317  31.408  1.00  0.00     0.001 A 
ATOM     88  C   UNL A   1      50.094  25.661  29.052  1.00  0.00     0.001 A 
ATOM     89  C   UNL A   1      50.522  25.223  30.306  1.00  0.00     0.000 A 
ENDBRANCH  71  84
ENDBRANCH  45  46
ENDBRANCH  37  40
ENDBRANCH  35  36
ENDBRANCH  34  35
ENDBRANCH  33  34
ENDBRANCH   3  33
TORSDOF 15
ENDMDL
