MODEL 1
REMARK VINA RESULT:     -10.3      0.000      0.000
REMARK SMILES CC(C)C[C@@H](CNc1ccccc1C(N)=O)C(=O)NCCCNC(=O)c1ccc(-c2c3nc(c(-c4ccccc4)c4ccc([nH]4)c(-c4ccccc4)c4nc(c(-c5ccccc5)c5ccc2[nH]5)C=C4)C=C3)cc1
REMARK SMILES IDX 20 1 19 2 17 3 18 4 5 6 4 7 2 8 1 9 3 10 6 11 7 12 8 14 9 15
REMARK SMILES IDX 13 16 10 17 12 18 11 19 14 20 15 21 16 22 21 25 22 26 23 27
REMARK SMILES IDX 24 28 25 30 26 31 27 32 73 33 28 34 72 35 29 36 30 37 31 38
REMARK SMILES IDX 66 39 32 40 71 41 65 42 67 43 33 44 70 45 64 46 63 47 34 49
REMARK SMILES IDX 56 50 41 51 55 52 42 53 45 54 54 55 68 56 43 57 44 58 53 60
REMARK SMILES IDX 69 61 46 62 35 63 36 64 40 65 37 66 39 67 38 68 57 69 58 70
REMARK SMILES IDX 62 71 59 72 61 73 60 74 47 75 48 76 52 77 49 78 51 79 50 80
REMARK H PARENT 19 5 7 13 15 23 15 24 23 29 67 48 45 59
REMARK Flexibility Score: inf
ROOT
ATOM      1  C   UNL A   1      36.522  20.323  25.016  1.00  0.00     0.117 C 
ENDROOT
BRANCH   1   2
ATOM      2  N   UNL A   1      35.440  19.360  24.992  1.00  0.00    -0.356 N 
ATOM      3  C   UNL A   1      34.099  19.591  24.952  1.00  0.00     0.224 C 
ATOM      4  O   UNL A   1      33.363  18.642  24.669  1.00  0.00    -0.275 OA
ATOM      5  H   UNL A   1      35.711  18.414  25.007  1.00  0.00     0.163 HD
BRANCH   3   6
ATOM      6  C   UNL A   1      33.520  20.956  25.287  1.00  0.00     0.098 C 
BRANCH   6   7
ATOM      7  C   UNL A   1      32.236  21.216  24.462  1.00  0.00     0.018 C 
BRANCH   7   8
ATOM      8  C   UNL A   1      32.371  21.988  23.145  1.00  0.00    -0.017 C 
ATOM      9  C   UNL A   1      31.923  21.139  21.958  1.00  0.00     0.007 C 
ATOM     10  C   UNL A   1      31.513  23.260  23.219  1.00  0.00     0.007 C 
ENDBRANCH   7   8
ENDBRANCH   6   7
BRANCH   6  11
ATOM     11  C   UNL A   1      33.625  21.269  26.799  1.00  0.00     0.126 C 
BRANCH  11  12
ATOM     12  N   UNL A   1      34.214  22.565  27.182  1.00  0.00    -0.384 N 
ATOM     13  H   UNL A   1      34.906  22.607  27.882  1.00  0.00     0.160 HD
BRANCH  12  14
ATOM     14  C   UNL A   1      33.780  23.746  26.540  1.00  0.00     0.047 A 
ATOM     15  C   UNL A   1      32.463  24.177  26.796  1.00  0.00     0.026 A 
ATOM     16  C   UNL A   1      34.485  24.469  25.554  1.00  0.00     0.062 A 
ATOM     17  C   UNL A   1      31.920  25.348  26.257  1.00  0.00     0.002 A 
ATOM     18  C   UNL A   1      33.924  25.642  24.990  1.00  0.00     0.016 A 
ATOM     19  C   UNL A   1      32.663  26.097  25.365  1.00  0.00     0.001 A 
BRANCH  16  20
ATOM     20  C   UNL A   1      35.762  23.976  24.966  1.00  0.00     0.250 C 
ATOM     21  N   UNL A   1      35.735  23.597  23.650  1.00  0.00    -0.366 N 
ATOM     22  O   UNL A   1      36.795  23.874  25.615  1.00  0.00    -0.269 OA
ATOM     23  H   UNL A   1      34.903  23.680  23.130  1.00  0.00     0.159 HD
ATOM     24  H   UNL A   1      36.548  23.240  23.224  1.00  0.00     0.159 HD
ENDBRANCH  16  20
ENDBRANCH  12  14
ENDBRANCH  11  12
ENDBRANCH   6  11
ENDBRANCH   3   6
ENDBRANCH   1   2
BRANCH   1  25
ATOM     25  C   UNL A   1      37.871  19.729  24.695  1.00  0.00     0.042 C 
BRANCH  25  26
ATOM     26  C   UNL A   1      38.946  20.206  25.658  1.00  0.00     0.118 C 
BRANCH  26  27
ATOM     27  N   UNL A   1      40.070  19.273  25.782  1.00  0.00    -0.352 N 
ATOM     28  C   UNL A   1      41.389  19.496  26.083  1.00  0.00     0.251 C 
ATOM     29  H   UNL A   1      39.838  18.329  25.623  1.00  0.00     0.163 HD
ATOM     30  O   UNL A   1      42.218  18.604  25.930  1.00  0.00    -0.269 OA
BRANCH  28  31
ATOM     31  C   UNL A   1      41.804  20.820  26.584  1.00  0.00     0.039 A 
ATOM     32  C   UNL A   1      42.241  21.799  25.691  1.00  0.00     0.014 A 
ATOM     33  C   UNL A   1      41.738  21.092  27.950  1.00  0.00     0.014 A 
ATOM     34  C   UNL A   1      42.536  23.077  26.171  1.00  0.00     0.010 A 
ATOM     35  C   UNL A   1      41.878  22.394  28.397  1.00  0.00     0.010 A 
ATOM     36  C   UNL A   1      42.317  23.394  27.522  1.00  0.00    -0.014 A 
BRANCH  36  37
ATOM     37  C   UNL A   1      42.591  24.743  28.069  1.00  0.00     0.031 A 
ATOM     38  C   UNL A   1      43.993  25.105  28.490  1.00  0.00     0.074 A 
ATOM     39  C   UNL A   1      41.578  25.608  28.264  1.00  0.00     0.049 A 
ATOM     40  N   UNL A   1      44.429  26.198  29.062  1.00  0.00    -0.248 NA
ATOM     41  C   UNL A   1      45.037  24.083  28.287  1.00  0.00     0.031 C 
ATOM     42  C   UNL A   1      40.166  25.350  27.969  1.00  0.00     0.029 A 
ATOM     43  N   UNL A   1      41.584  26.886  28.760  1.00  0.00    -0.354 N 
ATOM     44  C   UNL A   1      45.777  25.975  29.317  1.00  0.00     0.074 A 
ATOM     45  C   UNL A   1      46.071  24.621  28.911  1.00  0.00     0.031 C 
ATOM     46  C   UNL A   1      39.450  26.454  28.242  1.00  0.00     0.029 A 
ATOM     47  C   UNL A   1      40.346  27.480  28.764  1.00  0.00     0.049 A 
ATOM     48  H   UNL A   1      42.399  27.335  29.083  1.00  0.00     0.167 HD
ATOM     49  C   UNL A   1      46.702  26.831  29.812  1.00  0.00     0.031 A 
ATOM     50  C   UNL A   1      39.979  28.720  29.136  1.00  0.00     0.031 A 
ATOM     51  C   UNL A   1      46.418  28.192  30.169  1.00  0.00     0.049 A 
ATOM     52  C   UNL A   1      41.033  29.673  29.625  1.00  0.00     0.074 A 
ATOM     53  C   UNL A   1      47.290  29.170  30.612  1.00  0.00     0.029 A 
ATOM     54  N   UNL A   1      45.160  28.771  30.107  1.00  0.00    -0.354 N 
ATOM     55  N   UNL A   1      42.317  29.471  29.795  1.00  0.00    -0.248 NA
ATOM     56  C   UNL A   1      40.587  31.034  29.952  1.00  0.00     0.031 C 
ATOM     57  C   UNL A   1      46.552  30.334  30.851  1.00  0.00     0.029 A 
ATOM     58  C   UNL A   1      45.231  30.094  30.507  1.00  0.00     0.049 A 
ATOM     59  H   UNL A   1      44.339  28.311  29.821  1.00  0.00     0.167 HD
ATOM     60  C   UNL A   1      42.839  30.688  30.213  1.00  0.00     0.074 A 
ATOM     61  C   UNL A   1      41.735  31.624  30.255  1.00  0.00     0.031 C 
ATOM     62  C   UNL A   1      44.118  31.006  30.534  1.00  0.00     0.031 A 
BRANCH  49  63
ATOM     63  C   UNL A   1      48.104  26.311  29.974  1.00  0.00    -0.014 A 
ATOM     64  C   UNL A   1      48.564  25.825  31.209  1.00  0.00     0.009 A 
ATOM     65  C   UNL A   1      48.979  26.305  28.877  1.00  0.00     0.009 A 
ATOM     66  C   UNL A   1      49.881  25.388  31.355  1.00  0.00     0.001 A 
ATOM     67  C   UNL A   1      50.286  25.834  29.016  1.00  0.00     0.001 A 
ATOM     68  C   UNL A   1      50.740  25.389  30.257  1.00  0.00     0.000 A 
ENDBRANCH  49  63
BRANCH  50  69
ATOM     69  C   UNL A   1      38.564  29.152  29.002  1.00  0.00    -0.014 A 
ATOM     70  C   UNL A   1      38.092  29.666  27.784  1.00  0.00     0.009 A 
ATOM     71  C   UNL A   1      37.678  29.057  30.086  1.00  0.00     0.009 A 
ATOM     72  C   UNL A   1      36.773  30.107  27.663  1.00  0.00     0.001 A 
ATOM     73  C   UNL A   1      36.351  29.472  29.954  1.00  0.00     0.001 A 
ATOM     74  C   UNL A   1      35.902  30.007  28.747  1.00  0.00     0.000 A 
ENDBRANCH  50  69
BRANCH  62  75
ATOM     75  C   UNL A   1      44.391  32.435  30.906  1.00  0.00    -0.014 A 
ATOM     76  C   UNL A   1      44.719  33.394  29.937  1.00  0.00     0.009 A 
ATOM     77  C   UNL A   1      44.296  32.827  32.251  1.00  0.00     0.009 A 
ATOM     78  C   UNL A   1      44.993  34.710  30.313  1.00  0.00     0.001 A 
ATOM     79  C   UNL A   1      44.539  34.149  32.620  1.00  0.00     0.001 A 
ATOM     80  C   UNL A   1      44.899  35.087  31.652  1.00  0.00     0.000 A 
ENDBRANCH  62  75
ENDBRANCH  36  37
ENDBRANCH  28  31
ENDBRANCH  26  27
ENDBRANCH  25  26
ENDBRANCH   1  25
TORSDOF 16
ENDMDL
MODEL 2
REMARK VINA RESULT:     -10.2      3.907      9.020
REMARK SMILES CC(C)C[C@@H](CNc1ccccc1C(N)=O)C(=O)NCCCNC(=O)c1ccc(-c2c3nc(c(-c4ccccc4)c4ccc([nH]4)c(-c4ccccc4)c4nc(c(-c5ccccc5)c5ccc2[nH]5)C=C4)C=C3)cc1
REMARK SMILES IDX 20 1 19 2 17 3 18 4 5 6 4 7 2 8 1 9 3 10 6 11 7 12 8 14 9 15
REMARK SMILES IDX 13 16 10 17 12 18 11 19 14 20 15 21 16 22 21 25 22 26 23 27
REMARK SMILES IDX 24 28 25 30 26 31 27 32 73 33 28 34 72 35 29 36 30 37 31 38
REMARK SMILES IDX 66 39 32 40 71 41 65 42 67 43 33 44 70 45 64 46 63 47 34 49
REMARK SMILES IDX 56 50 41 51 55 52 42 53 45 54 54 55 68 56 43 57 44 58 53 60
REMARK SMILES IDX 69 61 46 62 35 63 36 64 40 65 37 66 39 67 38 68 57 69 58 70
REMARK SMILES IDX 62 71 59 72 61 73 60 74 47 75 48 76 52 77 49 78 51 79 50 80
REMARK H PARENT 19 5 7 13 15 23 15 24 23 29 67 48 45 59
REMARK Flexibility Score: inf
ROOT
ATOM      1  C   UNL A   1      31.443  30.326  26.233  1.00  0.00     0.117 C 
ENDROOT
BRANCH   1   2
ATOM      2  N   UNL A   1      32.341  29.855  25.199  1.00  0.00    -0.356 N 
ATOM      3  C   UNL A   1      32.038  29.205  24.042  1.00  0.00     0.224 C 
ATOM      4  O   UNL A   1      32.916  29.130  23.179  1.00  0.00    -0.275 OA
ATOM      5  H   UNL A   1      33.298  30.028  25.353  1.00  0.00     0.163 HD
BRANCH   3   6
ATOM      6  C   UNL A   1      30.681  28.552  23.833  1.00  0.00     0.098 C 
BRANCH   6   7
ATOM      7  C   UNL A   1      30.046  29.036  22.506  1.00  0.00     0.018 C 
BRANCH   7   8
ATOM      8  C   UNL A   1      28.701  29.765  22.575  1.00  0.00    -0.017 C 
ATOM      9  C   UNL A   1      27.585  28.825  23.023  1.00  0.00     0.007 C 
ATOM     10  C   UNL A   1      28.814  30.934  23.566  1.00  0.00     0.007 C 
ENDBRANCH   7   8
ENDBRANCH   6   7
BRANCH   6  11
ATOM     11  C   UNL A   1      30.683  27.068  24.271  1.00  0.00     0.126 C 
BRANCH  11  12
ATOM     12  N   UNL A   1      31.198  26.762  25.618  1.00  0.00    -0.384 N 
ATOM     13  H   UNL A   1      30.857  27.251  26.402  1.00  0.00     0.160 HD
BRANCH  12  14
ATOM     14  C   UNL A   1      32.185  25.763  25.778  1.00  0.00     0.047 A 
ATOM     15  C   UNL A   1      33.460  26.020  25.237  1.00  0.00     0.026 A 
ATOM     16  C   UNL A   1      31.988  24.469  26.304  1.00  0.00     0.062 A 
ATOM     17  C   UNL A   1      34.538  25.136  25.357  1.00  0.00     0.002 A 
ATOM     18  C   UNL A   1      33.074  23.564  26.403  1.00  0.00     0.016 A 
ATOM     19  C   UNL A   1      34.349  23.909  25.963  1.00  0.00     0.001 A 
BRANCH  16  20
ATOM     20  C   UNL A   1      30.635  23.946  26.647  1.00  0.00     0.250 C 
ATOM     21  N   UNL A   1      30.505  22.589  26.766  1.00  0.00    -0.366 N 
ATOM     22  O   UNL A   1      29.660  24.674  26.788  1.00  0.00    -0.269 OA
ATOM     23  H   UNL A   1      31.290  22.006  26.652  1.00  0.00     0.159 HD
ATOM     24  H   UNL A   1      29.625  22.194  26.966  1.00  0.00     0.159 HD
ENDBRANCH  16  20
ENDBRANCH  12  14
ENDBRANCH  11  12
ENDBRANCH   6  11
ENDBRANCH   3   6
ENDBRANCH   1   2
BRANCH   1  25
ATOM     25  C   UNL A   1      31.412  31.828  26.373  1.00  0.00     0.042 C 
BRANCH  25  26
ATOM     26  C   UNL A   1      32.642  32.358  27.091  1.00  0.00     0.118 C 
BRANCH  26  27
ATOM     27  N   UNL A   1      32.468  33.717  27.612  1.00  0.00    -0.352 N 
ATOM     28  C   UNL A   1      33.175  34.407  28.564  1.00  0.00     0.251 C 
ATOM     29  H   UNL A   1      31.720  34.217  27.212  1.00  0.00     0.163 HD
ATOM     30  O   UNL A   1      32.739  35.464  29.013  1.00  0.00    -0.269 OA
BRANCH  28  31
ATOM     31  C   UNL A   1      34.458  33.865  29.048  1.00  0.00     0.039 A 
ATOM     32  C   UNL A   1      34.489  33.053  30.183  1.00  0.00     0.014 A 
ATOM     33  C   UNL A   1      35.634  34.151  28.356  1.00  0.00     0.014 A 
ATOM     34  C   UNL A   1      35.696  32.468  30.571  1.00  0.00     0.010 A 
ATOM     35  C   UNL A   1      36.789  33.450  28.648  1.00  0.00     0.010 A 
ATOM     36  C   UNL A   1      36.847  32.631  29.782  1.00  0.00    -0.014 A 
BRANCH  36  37
ATOM     37  C   UNL A   1      38.143  32.008  30.140  1.00  0.00     0.031 A 
ATOM     38  C   UNL A   1      39.077  32.724  31.082  1.00  0.00     0.074 A 
ATOM     39  C   UNL A   1      38.514  30.849  29.564  1.00  0.00     0.049 A 
ATOM     40  N   UNL A   1      40.285  32.391  31.461  1.00  0.00    -0.248 NA
ATOM     41  C   UNL A   1      38.615  34.012  31.633  1.00  0.00     0.031 C 
ATOM     42  C   UNL A   1      37.733  30.096  28.579  1.00  0.00     0.029 A 
ATOM     43  N   UNL A   1      39.651  30.101  29.724  1.00  0.00    -0.354 N 
ATOM     44  C   UNL A   1      40.730  33.442  32.255  1.00  0.00     0.074 A 
ATOM     45  C   UNL A   1      39.701  34.454  32.242  1.00  0.00     0.031 C 
ATOM     46  C   UNL A   1      38.391  28.968  28.264  1.00  0.00     0.029 A 
ATOM     47  C   UNL A   1      39.654  28.939  28.994  1.00  0.00     0.049 A 
ATOM     48  H   UNL A   1      40.396  30.373  30.309  1.00  0.00     0.167 HD
ATOM     49  C   UNL A   1      41.879  33.543  32.964  1.00  0.00     0.031 A 
ATOM     50  C   UNL A   1      40.568  27.954  28.931  1.00  0.00     0.031 A 
ATOM     51  C   UNL A   1      42.879  32.515  33.015  1.00  0.00     0.049 A 
ATOM     52  C   UNL A   1      41.808  28.060  29.774  1.00  0.00     0.074 A 
ATOM     53  C   UNL A   1      44.047  32.478  33.754  1.00  0.00     0.029 A 
ATOM     54  N   UNL A   1      42.817  31.328  32.301  1.00  0.00    -0.354 N 
ATOM     55  N   UNL A   1      42.184  29.027  30.576  1.00  0.00    -0.248 NA
ATOM     56  C   UNL A   1      42.738  26.924  29.719  1.00  0.00     0.031 C 
ATOM     57  C   UNL A   1      44.710  31.282  33.462  1.00  0.00     0.029 A 
ATOM     58  C   UNL A   1      43.928  30.552  32.580  1.00  0.00     0.049 A 
ATOM     59  H   UNL A   1      42.091  31.075  31.687  1.00  0.00     0.167 HD
ATOM     60  C   UNL A   1      43.375  28.602  31.148  1.00  0.00     0.074 A 
ATOM     61  C   UNL A   1      43.649  27.284  30.613  1.00  0.00     0.031 C 
ATOM     62  C   UNL A   1      44.173  29.242  32.038  1.00  0.00     0.031 A 
BRANCH  49  63
ATOM     63  C   UNL A   1      42.093  34.808  33.750  1.00  0.00    -0.014 A 
ATOM     64  C   UNL A   1      41.618  34.938  35.067  1.00  0.00     0.009 A 
ATOM     65  C   UNL A   1      42.781  35.884  33.170  1.00  0.00     0.009 A 
ATOM     66  C   UNL A   1      41.786  36.134  35.767  1.00  0.00     0.001 A 
ATOM     67  C   UNL A   1      42.978  37.068  33.885  1.00  0.00     0.001 A 
ATOM     68  C   UNL A   1      42.468  37.196  35.177  1.00  0.00     0.000 A 
ENDBRANCH  49  63
BRANCH  50  69
ATOM     69  C   UNL A   1      40.319  26.756  28.089  1.00  0.00    -0.014 A 
ATOM     70  C   UNL A   1      39.555  25.688  28.585  1.00  0.00     0.009 A 
ATOM     71  C   UNL A   1      40.842  26.669  26.791  1.00  0.00     0.009 A 
ATOM     72  C   UNL A   1      39.348  24.544  27.813  1.00  0.00     0.001 A 
ATOM     73  C   UNL A   1      40.609  25.535  26.008  1.00  0.00     0.001 A 
ATOM     74  C   UNL A   1      39.872  24.470  26.523  1.00  0.00     0.000 A 
ENDBRANCH  50  69
BRANCH  62  75
ATOM     75  C   UNL A   1      45.386  28.499  32.522  1.00  0.00    -0.014 A 
ATOM     76  C   UNL A   1      45.330  27.659  33.643  1.00  0.00     0.009 A 
ATOM     77  C   UNL A   1      46.597  28.630  31.825  1.00  0.00     0.009 A 
ATOM     78  C   UNL A   1      46.478  27.000  34.086  1.00  0.00     0.001 A 
ATOM     79  C   UNL A   1      47.735  27.945  32.252  1.00  0.00     0.001 A 
ATOM     80  C   UNL A   1      47.677  27.140  33.389  1.00  0.00     0.000 A 
ENDBRANCH  62  75
ENDBRANCH  36  37
ENDBRANCH  28  31
ENDBRANCH  26  27
ENDBRANCH  25  26
ENDBRANCH   1  25
TORSDOF 16
ENDMDL
MODEL 3
REMARK VINA RESULT:     -10.2      1.400      2.374
REMARK SMILES CC(C)C[C@@H](CNc1ccccc1C(N)=O)C(=O)NCCCNC(=O)c1ccc(-c2c3nc(c(-c4ccccc4)c4ccc([nH]4)c(-c4ccccc4)c4nc(c(-c5ccccc5)c5ccc2[nH]5)C=C4)C=C3)cc1
REMARK SMILES IDX 20 1 19 2 17 3 18 4 5 6 4 7 2 8 1 9 3 10 6 11 7 12 8 14 9 15
REMARK SMILES IDX 13 16 10 17 12 18 11 19 14 20 15 21 16 22 21 25 22 26 23 27
REMARK SMILES IDX 24 28 25 30 26 31 27 32 73 33 28 34 72 35 29 36 30 37 31 38
REMARK SMILES IDX 66 39 32 40 71 41 65 42 67 43 33 44 70 45 64 46 63 47 34 49
REMARK SMILES IDX 56 50 41 51 55 52 42 53 45 54 54 55 68 56 43 57 44 58 53 60
REMARK SMILES IDX 69 61 46 62 35 63 36 64 40 65 37 66 39 67 38 68 57 69 58 70
REMARK SMILES IDX 62 71 59 72 61 73 60 74 47 75 48 76 52 77 49 78 51 79 50 80
REMARK H PARENT 19 5 7 13 15 23 15 24 23 29 67 48 45 59
REMARK Flexibility Score: inf
ROOT
ATOM      1  C   UNL A   1      36.796  20.854  24.568  1.00  0.00     0.117 C 
ENDROOT
BRANCH   1   2
ATOM      2  N   UNL A   1      35.860  21.205  25.615  1.00  0.00    -0.356 N 
ATOM      3  C   UNL A   1      34.559  20.827  25.753  1.00  0.00     0.224 C 
ATOM      4  O   UNL A   1      34.020  21.015  26.847  1.00  0.00    -0.275 OA
ATOM      5  H   UNL A   1      36.211  21.793  26.322  1.00  0.00     0.163 HD
BRANCH   3   6
ATOM      6  C   UNL A   1      33.779  20.236  24.590  1.00  0.00     0.098 C 
BRANCH   6   7
ATOM      7  C   UNL A   1      33.292  18.807  24.935  1.00  0.00     0.018 C 
BRANCH   7   8
ATOM      8  C   UNL A   1      34.161  17.625  24.493  1.00  0.00    -0.017 C 
ATOM      9  C   UNL A   1      33.955  16.416  25.401  1.00  0.00     0.007 C 
ATOM     10  C   UNL A   1      33.799  17.249  23.048  1.00  0.00     0.007 C 
ENDBRANCH   7   8
ENDBRANCH   6   7
BRANCH   6  11
ATOM     11  C   UNL A   1      32.872  21.291  23.911  1.00  0.00     0.126 C 
BRANCH  11  12
ATOM     12  N   UNL A   1      31.987  22.084  24.784  1.00  0.00    -0.384 N 
ATOM     13  H   UNL A   1      31.707  21.729  25.659  1.00  0.00     0.160 HD
BRANCH  12  14
ATOM     14  C   UNL A   1      31.544  23.355  24.357  1.00  0.00     0.047 A 
ATOM     15  C   UNL A   1      32.027  23.830  23.122  1.00  0.00     0.026 A 
ATOM     16  C   UNL A   1      30.771  24.267  25.108  1.00  0.00     0.062 A 
ATOM     17  C   UNL A   1      31.640  25.052  22.563  1.00  0.00     0.002 A 
ATOM     18  C   UNL A   1      30.399  25.517  24.552  1.00  0.00     0.016 A 
ATOM     19  C   UNL A   1      30.803  25.891  23.273  1.00  0.00     0.001 A 
BRANCH  16  20
ATOM     20  C   UNL A   1      30.431  24.032  26.539  1.00  0.00     0.250 C 
ATOM     21  N   UNL A   1      29.165  24.366  26.940  1.00  0.00    -0.366 N 
ATOM     22  O   UNL A   1      31.237  23.592  27.348  1.00  0.00    -0.269 OA
ATOM     23  H   UNL A   1      28.518  24.721  26.288  1.00  0.00     0.159 HD
ATOM     24  H   UNL A   1      28.901  24.253  27.882  1.00  0.00     0.159 HD
ENDBRANCH  16  20
ENDBRANCH  12  14
ENDBRANCH  11  12
ENDBRANCH   6  11
ENDBRANCH   3   6
ENDBRANCH   1   2
BRANCH   1  25
ATOM     25  C   UNL A   1      37.745  19.744  24.947  1.00  0.00     0.042 C 
BRANCH  25  26
ATOM     26  C   UNL A   1      38.902  20.249  25.792  1.00  0.00     0.118 C 
BRANCH  26  27
ATOM     27  N   UNL A   1      40.052  19.339  25.803  1.00  0.00    -0.352 N 
ATOM     28  C   UNL A   1      41.384  19.584  26.025  1.00  0.00     0.251 C 
ATOM     29  H   UNL A   1      39.831  18.397  25.622  1.00  0.00     0.163 HD
ATOM     30  O   UNL A   1      42.220  18.719  25.781  1.00  0.00    -0.269 OA
BRANCH  28  31
ATOM     31  C   UNL A   1      41.801  20.897  26.550  1.00  0.00     0.039 A 
ATOM     32  C   UNL A   1      42.345  21.852  25.691  1.00  0.00     0.014 A 
ATOM     33  C   UNL A   1      41.632  21.184  27.904  1.00  0.00     0.014 A 
ATOM     34  C   UNL A   1      42.645  23.124  26.185  1.00  0.00     0.010 A 
ATOM     35  C   UNL A   1      41.780  22.484  28.353  1.00  0.00     0.010 A 
ATOM     36  C   UNL A   1      42.325  23.460  27.511  1.00  0.00    -0.014 A 
BRANCH  36  37
ATOM     37  C   UNL A   1      42.601  24.804  28.071  1.00  0.00     0.031 A 
ATOM     38  C   UNL A   1      44.001  25.158  28.503  1.00  0.00     0.074 A 
ATOM     39  C   UNL A   1      41.589  25.671  28.267  1.00  0.00     0.049 A 
ATOM     40  N   UNL A   1      44.437  26.246  29.086  1.00  0.00    -0.248 NA
ATOM     41  C   UNL A   1      45.043  24.135  28.297  1.00  0.00     0.031 C 
ATOM     42  C   UNL A   1      40.178  25.419  27.962  1.00  0.00     0.029 A 
ATOM     43  N   UNL A   1      41.595  26.945  28.773  1.00  0.00    -0.354 N 
ATOM     44  C   UNL A   1      45.783  26.016  29.347  1.00  0.00     0.074 A 
ATOM     45  C   UNL A   1      46.075  24.664  28.932  1.00  0.00     0.031 C 
ATOM     46  C   UNL A   1      39.464  26.523  28.239  1.00  0.00     0.029 A 
ATOM     47  C   UNL A   1      40.359  27.543  28.775  1.00  0.00     0.049 A 
ATOM     48  H   UNL A   1      42.410  27.388  29.104  1.00  0.00     0.167 HD
ATOM     49  C   UNL A   1      46.707  26.865  29.854  1.00  0.00     0.031 A 
ATOM     50  C   UNL A   1      39.994  28.780  29.155  1.00  0.00     0.031 A 
ATOM     51  C   UNL A   1      46.426  28.225  30.220  1.00  0.00     0.049 A 
ATOM     52  C   UNL A   1      41.048  29.727  29.658  1.00  0.00     0.074 A 
ATOM     53  C   UNL A   1      47.298  29.196  30.677  1.00  0.00     0.029 A 
ATOM     54  N   UNL A   1      45.170  28.808  30.156  1.00  0.00    -0.354 N 
ATOM     55  N   UNL A   1      42.331  29.519  29.834  1.00  0.00    -0.248 NA
ATOM     56  C   UNL A   1      40.604  31.086  29.993  1.00  0.00     0.031 C 
ATOM     57  C   UNL A   1      46.562  30.360  30.921  1.00  0.00     0.029 A 
ATOM     58  C   UNL A   1      45.243  30.127  30.567  1.00  0.00     0.049 A 
ATOM     59  H   UNL A   1      44.349  28.352  29.861  1.00  0.00     0.167 HD
ATOM     60  C   UNL A   1      42.854  30.731  30.264  1.00  0.00     0.074 A 
ATOM     61  C   UNL A   1      41.752  31.670  30.308  1.00  0.00     0.031 C 
ATOM     62  C   UNL A   1      44.132  31.042  30.595  1.00  0.00     0.031 A 
BRANCH  49  63
ATOM     63  C   UNL A   1      48.107  26.340  30.020  1.00  0.00    -0.014 A 
ATOM     64  C   UNL A   1      49.037  26.395  28.968  1.00  0.00     0.009 A 
ATOM     65  C   UNL A   1      48.504  25.784  31.246  1.00  0.00     0.009 A 
ATOM     66  C   UNL A   1      50.318  25.863  29.124  1.00  0.00     0.001 A 
ATOM     67  C   UNL A   1      49.798  25.283  31.410  1.00  0.00     0.001 A 
ATOM     68  C   UNL A   1      50.698  25.311  30.346  1.00  0.00     0.000 A 
ENDBRANCH  49  63
BRANCH  50  69
ATOM     69  C   UNL A   1      38.581  29.218  29.017  1.00  0.00    -0.014 A 
ATOM     70  C   UNL A   1      37.700  29.120  30.105  1.00  0.00     0.009 A 
ATOM     71  C   UNL A   1      38.103  29.730  27.802  1.00  0.00     0.009 A 
ATOM     72  C   UNL A   1      36.362  29.495  29.970  1.00  0.00     0.001 A 
ATOM     73  C   UNL A   1      36.771  30.132  27.678  1.00  0.00     0.001 A 
ATOM     74  C   UNL A   1      35.899  30.004  28.758  1.00  0.00     0.000 A 
ENDBRANCH  50  69
BRANCH  62  75
ATOM     75  C   UNL A   1      44.407  32.467  30.980  1.00  0.00    -0.014 A 
ATOM     76  C   UNL A   1      44.337  32.891  32.315  1.00  0.00     0.009 A 
ATOM     77  C   UNL A   1      44.763  33.393  29.987  1.00  0.00     0.009 A 
ATOM     78  C   UNL A   1      44.574  34.227  32.642  1.00  0.00     0.001 A 
ATOM     79  C   UNL A   1      45.030  34.720  30.321  1.00  0.00     0.001 A 
ATOM     80  C   UNL A   1      44.923  35.139  31.647  1.00  0.00     0.000 A 
ENDBRANCH  62  75
ENDBRANCH  36  37
ENDBRANCH  28  31
ENDBRANCH  26  27
ENDBRANCH  25  26
ENDBRANCH   1  25
TORSDOF 16
ENDMDL
