MODEL 1
REMARK VINA RESULT:     -12.1      0.000      0.000
REMARK SMILES CC[C@@H](C)[C@H](NC(=O)[C@H]1CCCN(S(=O)(=O)c2ccccc2)C1)C(=O)NCCCNC(=O)c1ccc(-c2c3nc(c(-c4ccccc4)c4ccc([nH]4)c(-c4ccccc4)c4nc(c(-c5ccccc5)c5ccc2[nH]5)C=C4)C=C3)cc1
REMARK SMILES IDX 27 1 26 2 24 3 25 4 5 6 3 7 4 8 2 9 1 10 6 11 7 12 8 14 9 15
REMARK SMILES IDX 10 16 23 17 11 18 13 19 12 20 14 21 15 22 16 23 17 24 18 25
REMARK SMILES IDX 22 26 19 27 21 28 20 29 28 30 29 31 30 32 31 33 32 35 33 36
REMARK SMILES IDX 34 37 80 38 35 39 79 40 36 41 37 42 38 43 73 44 39 45 78 46
REMARK SMILES IDX 72 47 74 48 40 49 77 50 71 51 70 52 41 54 63 55 48 56 62 57
REMARK SMILES IDX 49 58 52 59 61 60 75 61 50 62 51 63 60 65 76 66 53 67 42 68
REMARK SMILES IDX 43 69 47 70 44 71 46 72 45 73 64 74 65 75 69 76 66 77 68 78
REMARK SMILES IDX 67 79 54 80 55 81 59 82 56 83 58 84 57 85
REMARK H PARENT 26 5 6 13 30 34 74 53 52 64
REMARK Flexibility Score: inf
ROOT
ATOM      1  C   UNL A   1      31.540  30.489  26.129  1.00  0.00     0.117 C 
ENDROOT
BRANCH   1   2
ATOM      2  N   UNL A   1      32.526  30.096  25.158  1.00  0.00    -0.354 N 
ATOM      3  C   UNL A   1      32.528  29.084  24.256  1.00  0.00     0.242 C 
ATOM      4  O   UNL A   1      33.222  29.235  23.244  1.00  0.00    -0.273 OA
ATOM      5  H   UNL A   1      33.334  30.657  25.146  1.00  0.00     0.163 HD
BRANCH   3   6
ATOM      6  C   UNL A   1      31.701  27.786  24.405  1.00  0.00     0.174 C 
BRANCH   6   7
ATOM      7  C   UNL A   1      30.209  28.016  23.935  1.00  0.00     0.018 C 
ATOM      8  C   UNL A   1      29.463  26.693  23.691  1.00  0.00     0.010 C 
BRANCH   7   9
ATOM      9  C   UNL A   1      30.008  29.062  22.802  1.00  0.00     0.002 C 
ATOM     10  C   UNL A   1      29.094  30.252  23.087  1.00  0.00     0.004 C 
ENDBRANCH   7   9
ENDBRANCH   6   7
BRANCH   6  11
ATOM     11  N   UNL A   1      31.798  26.985  25.657  1.00  0.00    -0.344 N 
ATOM     12  C   UNL A   1      31.975  25.664  25.950  1.00  0.00     0.225 C 
ATOM     13  H   UNL A   1      31.713  27.540  26.465  1.00  0.00     0.164 HD
ATOM     14  O   UNL A   1      31.398  25.287  26.981  1.00  0.00    -0.275 OA
BRANCH  12  15
ATOM     15  C   UNL A   1      32.881  24.654  25.223  1.00  0.00     0.094 C 
ATOM     16  C   UNL A   1      34.371  24.948  25.385  1.00  0.00     0.016 C 
ATOM     17  C   UNL A   1      32.627  23.222  25.576  1.00  0.00     0.116 C 
ATOM     18  C   UNL A   1      35.189  23.932  24.573  1.00  0.00     0.018 C 
ATOM     19  N   UNL A   1      33.402  22.197  24.801  1.00  0.00    -0.197 NA
ATOM     20  C   UNL A   1      34.866  22.474  24.931  1.00  0.00     0.102 C 
BRANCH  19  21
ATOM     21  S   UNL A   1      32.905  20.638  25.437  1.00  0.00     0.243 S 
ATOM     22  O   UNL A   1      33.651  20.426  26.665  1.00  0.00    -0.207 OA
ATOM     23  O   UNL A   1      31.457  20.631  25.460  1.00  0.00    -0.207 OA
BRANCH  21  24
ATOM     24  C   UNL A   1      33.419  19.368  24.315  1.00  0.00     0.082 A 
ATOM     25  C   UNL A   1      32.547  18.967  23.294  1.00  0.00     0.022 A 
ATOM     26  C   UNL A   1      34.504  18.562  24.670  1.00  0.00     0.022 A 
ATOM     27  C   UNL A   1      32.761  17.752  22.640  1.00  0.00     0.001 A 
ATOM     28  C   UNL A   1      34.721  17.356  24.004  1.00  0.00     0.001 A 
ATOM     29  C   UNL A   1      33.843  16.948  23.000  1.00  0.00     0.000 A 
ENDBRANCH  21  24
ENDBRANCH  19  21
ENDBRANCH  12  15
ENDBRANCH   6  11
ENDBRANCH   3   6
ENDBRANCH   1   2
BRANCH   1  30
ATOM     30  C   UNL A   1      31.407  31.972  26.425  1.00  0.00     0.042 C 
BRANCH  30  31
ATOM     31  C   UNL A   1      32.612  32.654  27.057  1.00  0.00     0.118 C 
BRANCH  31  32
ATOM     32  N   UNL A   1      32.350  33.982  27.583  1.00  0.00    -0.352 N 
ATOM     33  C   UNL A   1      33.059  34.673  28.531  1.00  0.00     0.251 C 
ATOM     34  H   UNL A   1      31.565  34.444  27.210  1.00  0.00     0.163 HD
ATOM     35  O   UNL A   1      32.693  35.778  28.917  1.00  0.00    -0.269 OA
BRANCH  33  36
ATOM     36  C   UNL A   1      34.271  34.057  29.100  1.00  0.00     0.039 A 
ATOM     37  C   UNL A   1      35.516  34.399  28.568  1.00  0.00     0.014 A 
ATOM     38  C   UNL A   1      34.169  33.158  30.166  1.00  0.00     0.014 A 
ATOM     39  C   UNL A   1      36.673  33.871  29.140  1.00  0.00     0.010 A 
ATOM     40  C   UNL A   1      35.326  32.677  30.769  1.00  0.00     0.010 A 
ATOM     41  C   UNL A   1      36.585  33.021  30.254  1.00  0.00    -0.014 A 
BRANCH  41  42
ATOM     42  C   UNL A   1      37.800  32.446  30.875  1.00  0.00     0.031 A 
ATOM     43  C   UNL A   1      38.435  31.225  30.273  1.00  0.00     0.074 A 
ATOM     44  C   UNL A   1      38.293  32.980  32.008  1.00  0.00     0.049 A 
ATOM     45  N   UNL A   1      39.456  30.528  30.703  1.00  0.00    -0.248 NA
ATOM     46  C   UNL A   1      37.825  30.707  29.038  1.00  0.00     0.031 C 
ATOM     47  C   UNL A   1      37.746  34.146  32.704  1.00  0.00     0.029 A 
ATOM     48  N   UNL A   1      39.362  32.599  32.779  1.00  0.00    -0.354 N 
ATOM     49  C   UNL A   1      39.595  29.479  29.804  1.00  0.00     0.074 A 
ATOM     50  C   UNL A   1      38.530  29.606  28.833  1.00  0.00     0.031 C 
ATOM     51  C   UNL A   1      38.492  34.394  33.792  1.00  0.00     0.029 A 
ATOM     52  C   UNL A   1      39.546  33.387  33.888  1.00  0.00     0.049 A 
ATOM     53  H   UNL A   1      39.940  31.835  32.558  1.00  0.00     0.167 HD
ATOM     54  C   UNL A   1      40.534  28.503  29.781  1.00  0.00     0.031 A 
ATOM     55  C   UNL A   1      40.457  33.303  34.875  1.00  0.00     0.031 A 
ATOM     56  C   UNL A   1      41.596  28.382  30.742  1.00  0.00     0.049 A 
ATOM     57  C   UNL A   1      41.490  32.212  34.830  1.00  0.00     0.074 A 
ATOM     58  C   UNL A   1      42.626  27.459  30.780  1.00  0.00     0.029 A 
ATOM     59  N   UNL A   1      41.761  29.216  31.839  1.00  0.00    -0.354 N 
ATOM     60  N   UNL A   1      41.646  31.260  33.943  1.00  0.00    -0.248 NA
ATOM     61  C   UNL A   1      42.481  32.193  35.915  1.00  0.00     0.031 C 
ATOM     62  C   UNL A   1      43.392  27.710  31.923  1.00  0.00     0.029 A 
ATOM     63  C   UNL A   1      42.868  28.818  32.569  1.00  0.00     0.049 A 
ATOM     64  H   UNL A   1      41.179  29.976  32.063  1.00  0.00     0.167 HD
ATOM     65  C   UNL A   1      42.768  30.546  34.346  1.00  0.00     0.074 A 
ATOM     66  C   UNL A   1      43.257  31.180  35.553  1.00  0.00     0.031 C 
ATOM     67  C   UNL A   1      43.342  29.465  33.764  1.00  0.00     0.031 A 
BRANCH  54  68
ATOM     68  C   UNL A   1      40.432  27.483  28.683  1.00  0.00    -0.014 A 
ATOM     69  C   UNL A   1      41.097  27.661  27.459  1.00  0.00     0.009 A 
ATOM     70  C   UNL A   1      39.662  26.325  28.875  1.00  0.00     0.009 A 
ATOM     71  C   UNL A   1      40.955  26.725  26.433  1.00  0.00     0.001 A 
ATOM     72  C   UNL A   1      39.545  25.376  27.858  1.00  0.00     0.001 A 
ATOM     73  C   UNL A   1      40.181  25.583  26.635  1.00  0.00     0.000 A 
ENDBRANCH  54  68
BRANCH  55  74
ATOM     74  C   UNL A   1      40.446  34.298  35.975  1.00  0.00    -0.014 A 
ATOM     75  C   UNL A   1      39.833  33.995  37.201  1.00  0.00     0.009 A 
ATOM     76  C   UNL A   1      41.061  35.549  35.814  1.00  0.00     0.009 A 
ATOM     77  C   UNL A   1      39.823  34.932  38.238  1.00  0.00     0.001 A 
ATOM     78  C   UNL A   1      41.070  36.475  36.860  1.00  0.00     0.001 A 
ATOM     79  C   UNL A   1      40.445  36.168  38.068  1.00  0.00     0.000 A 
ENDBRANCH  55  74
BRANCH  67  80
ATOM     80  C   UNL A   1      44.589  28.923  34.401  1.00  0.00    -0.014 A 
ATOM     81  C   UNL A   1      44.534  27.903  35.362  1.00  0.00     0.009 A 
ATOM     82  C   UNL A   1      45.842  29.403  33.985  1.00  0.00     0.009 A 
ATOM     83  C   UNL A   1      45.710  27.391  35.913  1.00  0.00     0.001 A 
ATOM     84  C   UNL A   1      47.016  28.871  34.519  1.00  0.00     0.001 A 
ATOM     85  C   UNL A   1      46.949  27.870  35.487  1.00  0.00     0.000 A 
ENDBRANCH  67  80
ENDBRANCH  41  42
ENDBRANCH  33  36
ENDBRANCH  31  32
ENDBRANCH  30  31
ENDBRANCH   1  30
TORSDOF 16
ENDMDL
MODEL 2
REMARK VINA RESULT:     -12.0      2.881      7.127
REMARK SMILES CC[C@@H](C)[C@H](NC(=O)[C@H]1CCCN(S(=O)(=O)c2ccccc2)C1)C(=O)NCCCNC(=O)c1ccc(-c2c3nc(c(-c4ccccc4)c4ccc([nH]4)c(-c4ccccc4)c4nc(c(-c5ccccc5)c5ccc2[nH]5)C=C4)C=C3)cc1
REMARK SMILES IDX 27 1 26 2 24 3 25 4 5 6 3 7 4 8 2 9 1 10 6 11 7 12 8 14 9 15
REMARK SMILES IDX 10 16 23 17 11 18 13 19 12 20 14 21 15 22 16 23 17 24 18 25
REMARK SMILES IDX 22 26 19 27 21 28 20 29 28 30 29 31 30 32 31 33 32 35 33 36
REMARK SMILES IDX 34 37 80 38 35 39 79 40 36 41 37 42 38 43 73 44 39 45 78 46
REMARK SMILES IDX 72 47 74 48 40 49 77 50 71 51 70 52 41 54 63 55 48 56 62 57
REMARK SMILES IDX 49 58 52 59 61 60 75 61 50 62 51 63 60 65 76 66 53 67 42 68
REMARK SMILES IDX 43 69 47 70 44 71 46 72 45 73 64 74 65 75 69 76 66 77 68 78
REMARK SMILES IDX 67 79 54 80 55 81 59 82 56 83 58 84 57 85
REMARK H PARENT 26 5 6 13 30 34 74 53 52 64
REMARK Flexibility Score: inf
ROOT
ATOM      1  C   UNL A   1      31.926  26.530  26.620  1.00  0.00     0.117 C 
ENDROOT
BRANCH   1   2
ATOM      2  N   UNL A   1      30.755  26.378  25.797  1.00  0.00    -0.354 N 
ATOM      3  C   UNL A   1      30.623  26.300  24.450  1.00  0.00     0.242 C 
ATOM      4  O   UNL A   1      29.631  25.702  24.018  1.00  0.00    -0.273 OA
ATOM      5  H   UNL A   1      29.910  26.321  26.297  1.00  0.00     0.163 HD
BRANCH   3   6
ATOM      6  C   UNL A   1      31.642  26.880  23.442  1.00  0.00     0.174 C 
BRANCH   6   7
ATOM      7  C   UNL A   1      31.285  28.378  23.085  1.00  0.00     0.018 C 
ATOM      8  C   UNL A   1      31.742  29.363  24.175  1.00  0.00     0.010 C 
BRANCH   7   9
ATOM      9  C   UNL A   1      29.833  28.630  22.587  1.00  0.00     0.002 C 
ATOM     10  C   UNL A   1      29.131  29.903  23.056  1.00  0.00     0.004 C 
ENDBRANCH   7   9
ENDBRANCH   6   7
BRANCH   6  11
ATOM     11  N   UNL A   1      32.042  26.079  22.251  1.00  0.00    -0.344 N 
ATOM     12  C   UNL A   1      32.590  24.845  22.054  1.00  0.00     0.225 C 
ATOM     13  H   UNL A   1      31.871  26.554  21.406  1.00  0.00     0.164 HD
ATOM     14  O   UNL A   1      33.334  24.768  21.064  1.00  0.00    -0.275 OA
BRANCH  12  15
ATOM     15  C   UNL A   1      32.298  23.552  22.836  1.00  0.00     0.094 C 
ATOM     16  C   UNL A   1      32.443  22.287  21.993  1.00  0.00     0.016 C 
ATOM     17  C   UNL A   1      33.092  23.392  24.093  1.00  0.00     0.116 C 
ATOM     18  C   UNL A   1      32.068  21.059  22.835  1.00  0.00     0.018 C 
ATOM     19  N   UNL A   1      32.752  22.207  24.950  1.00  0.00    -0.197 NA
ATOM     20  C   UNL A   1      32.871  20.955  24.141  1.00  0.00     0.102 C 
BRANCH  19  21
ATOM     21  S   UNL A   1      33.840  22.282  26.326  1.00  0.00     0.243 S 
ATOM     22  O   UNL A   1      33.580  23.541  27.002  1.00  0.00    -0.207 OA
ATOM     23  O   UNL A   1      33.701  21.033  27.045  1.00  0.00    -0.207 OA
BRANCH  21  24
ATOM     24  C   UNL A   1      35.507  22.367  25.736  1.00  0.00     0.082 A 
ATOM     25  C   UNL A   1      36.161  21.184  25.368  1.00  0.00     0.022 A 
ATOM     26  C   UNL A   1      36.244  23.531  25.979  1.00  0.00     0.022 A 
ATOM     27  C   UNL A   1      37.552  21.170  25.253  1.00  0.00     0.001 A 
ATOM     28  C   UNL A   1      37.631  23.514  25.850  1.00  0.00     0.001 A 
ATOM     29  C   UNL A   1      38.284  22.332  25.500  1.00  0.00     0.000 A 
ENDBRANCH  21  24
ENDBRANCH  19  21
ENDBRANCH  12  15
ENDBRANCH   6  11
ENDBRANCH   3   6
ENDBRANCH   1   2
BRANCH   1  30
ATOM     30  C   UNL A   1      32.052  27.813  27.421  1.00  0.00     0.042 C 
BRANCH  30  31
ATOM     31  C   UNL A   1      33.405  28.509  27.389  1.00  0.00     0.118 C 
BRANCH  31  32
ATOM     32  N   UNL A   1      33.348  29.953  27.538  1.00  0.00    -0.352 N 
ATOM     33  C   UNL A   1      34.337  30.801  27.965  1.00  0.00     0.251 C 
ATOM     34  H   UNL A   1      32.491  30.375  27.301  1.00  0.00     0.163 HD
ATOM     35  O   UNL A   1      34.133  32.004  28.087  1.00  0.00    -0.269 OA
BRANCH  33  36
ATOM     36  C   UNL A   1      35.659  30.239  28.295  1.00  0.00     0.039 A 
ATOM     37  C   UNL A   1      36.662  30.255  27.323  1.00  0.00     0.014 A 
ATOM     38  C   UNL A   1      35.903  29.716  29.569  1.00  0.00     0.014 A 
ATOM     39  C   UNL A   1      37.934  29.784  27.645  1.00  0.00     0.010 A 
ATOM     40  C   UNL A   1      37.186  29.300  29.903  1.00  0.00     0.010 A 
ATOM     41  C   UNL A   1      38.208  29.320  28.941  1.00  0.00    -0.014 A 
BRANCH  41  42
ATOM     42  C   UNL A   1      39.551  28.813  29.304  1.00  0.00     0.031 A 
ATOM     43  C   UNL A   1      40.493  29.694  30.075  1.00  0.00     0.074 A 
ATOM     44  C   UNL A   1      39.944  27.594  28.892  1.00  0.00     0.049 A 
ATOM     45  N   UNL A   1      41.733  29.467  30.429  1.00  0.00    -0.248 NA
ATOM     46  C   UNL A   1      39.979  31.012  30.480  1.00  0.00     0.031 C 
ATOM     47  C   UNL A   1      39.131  26.660  28.111  1.00  0.00     0.029 A 
ATOM     48  N   UNL A   1      41.138  26.940  29.063  1.00  0.00    -0.354 N 
ATOM     49  C   UNL A   1      42.152  30.622  31.076  1.00  0.00     0.074 A 
ATOM     50  C   UNL A   1      41.052  31.561  31.029  1.00  0.00     0.031 C 
ATOM     51  C   UNL A   1      39.845  25.546  27.884  1.00  0.00     0.029 A 
ATOM     52  C   UNL A   1      41.173  25.701  28.471  1.00  0.00     0.049 A 
ATOM     53  H   UNL A   1      41.895  27.321  29.562  1.00  0.00     0.167 HD
ATOM     54  C   UNL A   1      43.343  30.874  31.670  1.00  0.00     0.031 A 
ATOM     55  C   UNL A   1      42.167  24.796  28.404  1.00  0.00     0.031 A 
ATOM     56  C   UNL A   1      44.432  29.938  31.723  1.00  0.00     0.049 A 
ATOM     57  C   UNL A   1      43.481  25.096  29.069  1.00  0.00     0.074 A 
ATOM     58  C   UNL A   1      45.662  30.078  32.342  1.00  0.00     0.029 A 
ATOM     59  N   UNL A   1      44.420  28.684  31.131  1.00  0.00    -0.354 N 
ATOM     60  N   UNL A   1      43.845  26.170  29.728  1.00  0.00    -0.248 NA
ATOM     61  C   UNL A   1      44.515  24.055  28.993  1.00  0.00     0.031 C 
ATOM     62  C   UNL A   1      46.409  28.923  32.090  1.00  0.00     0.029 A 
ATOM     63  C   UNL A   1      45.627  28.045  31.357  1.00  0.00     0.049 A 
ATOM     64  H   UNL A   1      43.665  28.305  30.627  1.00  0.00     0.167 HD
ATOM     65  C   UNL A   1      45.139  25.922  30.170  1.00  0.00     0.074 A 
ATOM     66  C   UNL A   1      45.492  24.594  29.710  1.00  0.00     0.031 C 
ATOM     67  C   UNL A   1      45.957  26.722  30.896  1.00  0.00     0.031 A 
BRANCH  54  68
ATOM     68  C   UNL A   1      43.522  32.230  32.292  1.00  0.00    -0.014 A 
ATOM     69  C   UNL A   1      43.151  32.475  33.624  1.00  0.00     0.009 A 
ATOM     70  C   UNL A   1      44.072  33.277  31.537  1.00  0.00     0.009 A 
ATOM     71  C   UNL A   1      43.282  33.752  34.172  1.00  0.00     0.001 A 
ATOM     72  C   UNL A   1      44.231  34.546  32.097  1.00  0.00     0.001 A 
ATOM     73  C   UNL A   1      43.824  34.785  33.408  1.00  0.00     0.000 A 
ENDBRANCH  54  68
BRANCH  55  74
ATOM     74  C   UNL A   1      41.946  23.510  27.698  1.00  0.00    -0.014 A 
ATOM     75  C   UNL A   1      41.318  22.439  28.353  1.00  0.00     0.009 A 
ATOM     76  C   UNL A   1      42.343  23.350  26.362  1.00  0.00     0.009 A 
ATOM     77  C   UNL A   1      41.108  21.228  27.688  1.00  0.00     0.001 A 
ATOM     78  C   UNL A   1      42.111  22.147  25.692  1.00  0.00     0.001 A 
ATOM     79  C   UNL A   1      41.500  21.085  26.358  1.00  0.00     0.000 A 
ENDBRANCH  55  74
BRANCH  67  80
ATOM     80  C   UNL A   1      47.302  26.169  31.274  1.00  0.00    -0.014 A 
ATOM     81  C   UNL A   1      48.387  26.219  30.387  1.00  0.00     0.009 A 
ATOM     82  C   UNL A   1      47.495  25.645  32.562  1.00  0.00     0.009 A 
ATOM     83  C   UNL A   1      49.636  25.731  30.775  1.00  0.00     0.001 A 
ATOM     84  C   UNL A   1      48.751  25.181  32.955  1.00  0.00     0.001 A 
ATOM     85  C   UNL A   1      49.818  25.219  32.060  1.00  0.00     0.000 A 
ENDBRANCH  67  80
ENDBRANCH  41  42
ENDBRANCH  33  36
ENDBRANCH  31  32
ENDBRANCH  30  31
ENDBRANCH   1  30
TORSDOF 16
ENDMDL
MODEL 3
REMARK VINA RESULT:     -11.9      2.762      8.189
REMARK SMILES CC[C@@H](C)[C@H](NC(=O)[C@H]1CCCN(S(=O)(=O)c2ccccc2)C1)C(=O)NCCCNC(=O)c1ccc(-c2c3nc(c(-c4ccccc4)c4ccc([nH]4)c(-c4ccccc4)c4nc(c(-c5ccccc5)c5ccc2[nH]5)C=C4)C=C3)cc1
REMARK SMILES IDX 27 1 26 2 24 3 25 4 5 6 3 7 4 8 2 9 1 10 6 11 7 12 8 14 9 15
REMARK SMILES IDX 10 16 23 17 11 18 13 19 12 20 14 21 15 22 16 23 17 24 18 25
REMARK SMILES IDX 22 26 19 27 21 28 20 29 28 30 29 31 30 32 31 33 32 35 33 36
REMARK SMILES IDX 34 37 80 38 35 39 79 40 36 41 37 42 38 43 73 44 39 45 78 46
REMARK SMILES IDX 72 47 74 48 40 49 77 50 71 51 70 52 41 54 63 55 48 56 62 57
REMARK SMILES IDX 49 58 52 59 61 60 75 61 50 62 51 63 60 65 76 66 53 67 42 68
REMARK SMILES IDX 43 69 47 70 44 71 46 72 45 73 64 74 65 75 69 76 66 77 68 78
REMARK SMILES IDX 67 79 54 80 55 81 59 82 56 83 58 84 57 85
REMARK H PARENT 26 5 6 13 30 34 74 53 52 64
REMARK Flexibility Score: inf
ROOT
ATOM      1  C   UNL A   1      35.114  23.988  23.714  1.00  0.00     0.117 C 
ENDROOT
BRANCH   1   2
ATOM      2  N   UNL A   1      34.095  23.074  23.268  1.00  0.00    -0.354 N 
ATOM      3  C   UNL A   1      32.946  22.669  23.863  1.00  0.00     0.242 C 
ATOM      4  O   UNL A   1      32.034  22.289  23.120  1.00  0.00    -0.273 OA
ATOM      5  H   UNL A   1      34.261  22.679  22.383  1.00  0.00     0.163 HD
BRANCH   3   6
ATOM      6  C   UNL A   1      32.705  22.686  25.390  1.00  0.00     0.174 C 
BRANCH   6   7
ATOM      7  C   UNL A   1      33.329  21.401  26.069  1.00  0.00     0.018 C 
ATOM      8  C   UNL A   1      34.330  21.757  27.182  1.00  0.00     0.010 C 
BRANCH   7   9
ATOM      9  C   UNL A   1      33.845  20.302  25.096  1.00  0.00     0.002 C 
ATOM     10  C   UNL A   1      35.356  20.122  24.963  1.00  0.00     0.004 C 
ENDBRANCH   7   9
ENDBRANCH   6   7
BRANCH   6  11
ATOM     11  N   UNL A   1      31.357  23.026  25.924  1.00  0.00    -0.344 N 
ATOM     12  C   UNL A   1      30.570  24.141  25.926  1.00  0.00     0.225 C 
ATOM     13  H   UNL A   1      30.934  22.267  26.385  1.00  0.00     0.164 HD
ATOM     14  O   UNL A   1      29.860  24.265  26.935  1.00  0.00    -0.275 OA
BRANCH  12  15
ATOM     15  C   UNL A   1      30.390  25.165  24.791  1.00  0.00     0.094 C 
ATOM     16  C   UNL A   1      29.069  25.929  24.867  1.00  0.00     0.016 C 
ATOM     17  C   UNL A   1      31.511  26.146  24.653  1.00  0.00     0.116 C 
ATOM     18  C   UNL A   1      28.950  26.874  23.662  1.00  0.00     0.018 C 
ATOM     19  N   UNL A   1      31.436  27.084  23.484  1.00  0.00    -0.197 NA
ATOM     20  C   UNL A   1      30.142  27.833  23.527  1.00  0.00     0.102 C 
BRANCH  19  21
ATOM     21  S   UNL A   1      32.861  28.103  23.594  1.00  0.00     0.243 S 
ATOM     22  O   UNL A   1      34.014  27.234  23.439  1.00  0.00    -0.207 OA
ATOM     23  O   UNL A   1      32.663  29.210  22.682  1.00  0.00    -0.207 OA
BRANCH  21  24
ATOM     24  C   UNL A   1      32.962  28.778  25.228  1.00  0.00     0.082 A 
ATOM     25  C   UNL A   1      32.167  29.884  25.558  1.00  0.00     0.022 A 
ATOM     26  C   UNL A   1      34.057  28.435  26.027  1.00  0.00     0.022 A 
ATOM     27  C   UNL A   1      32.480  30.648  26.684  1.00  0.00     0.001 A 
ATOM     28  C   UNL A   1      34.356  29.194  27.157  1.00  0.00     0.001 A 
ATOM     29  C   UNL A   1      33.576  30.306  27.477  1.00  0.00     0.000 A 
ENDBRANCH  21  24
ENDBRANCH  19  21
ENDBRANCH  12  15
ENDBRANCH   6  11
ENDBRANCH   3   6
ENDBRANCH   1   2
BRANCH   1  30
ATOM     30  C   UNL A   1      36.528  23.449  23.832  1.00  0.00     0.042 C 
BRANCH  30  31
ATOM     31  C   UNL A   1      37.205  23.597  25.187  1.00  0.00     0.118 C 
BRANCH  31  32
ATOM     32  N   UNL A   1      38.232  22.608  25.462  1.00  0.00    -0.352 N 
ATOM     33  C   UNL A   1      39.389  22.765  26.181  1.00  0.00     0.251 C 
ATOM     34  H   UNL A   1      38.077  21.712  25.085  1.00  0.00     0.163 HD
ATOM     35  O   UNL A   1      40.195  21.848  26.295  1.00  0.00    -0.269 OA
BRANCH  33  36
ATOM     36  C   UNL A   1      39.662  24.070  26.810  1.00  0.00     0.039 A 
ATOM     37  C   UNL A   1      39.211  24.301  28.111  1.00  0.00     0.014 A 
ATOM     38  C   UNL A   1      40.378  25.049  26.114  1.00  0.00     0.014 A 
ATOM     39  C   UNL A   1      39.518  25.508  28.737  1.00  0.00     0.010 A 
ATOM     40  C   UNL A   1      40.730  26.228  26.761  1.00  0.00     0.010 A 
ATOM     41  C   UNL A   1      40.294  26.471  28.072  1.00  0.00    -0.014 A 
BRANCH  41  42
ATOM     42  C   UNL A   1      40.631  27.761  28.717  1.00  0.00     0.031 A 
ATOM     43  C   UNL A   1      41.988  27.950  29.332  1.00  0.00     0.074 A 
ATOM     44  C   UNL A   1      39.704  28.732  28.803  1.00  0.00     0.049 A 
ATOM     45  N   UNL A   1      42.455  28.972  30.004  1.00  0.00    -0.248 NA
ATOM     46  C   UNL A   1      42.936  26.833  29.194  1.00  0.00     0.031 C 
ATOM     47  C   UNL A   1      38.342  28.654  28.272  1.00  0.00     0.029 A 
ATOM     48  N   UNL A   1      39.767  29.973  29.385  1.00  0.00    -0.354 N 
ATOM     49  C   UNL A   1      43.740  28.611  30.387  1.00  0.00     0.074 A 
ATOM     50  C   UNL A   1      43.963  27.263  29.910  1.00  0.00     0.031 C 
ATOM     51  C   UNL A   1      37.703  29.804  28.540  1.00  0.00     0.029 A 
ATOM     52  C   UNL A   1      38.596  30.683  29.289  1.00  0.00     0.049 A 
ATOM     53  H   UNL A   1      40.574  30.320  29.829  1.00  0.00     0.167 HD
ATOM     54  C   UNL A   1      44.659  29.342  31.063  1.00  0.00     0.031 A 
ATOM     55  C   UNL A   1      38.278  31.904  29.759  1.00  0.00     0.031 A 
ATOM     56  C   UNL A   1      44.439  30.683  31.528  1.00  0.00     0.049 A 
ATOM     57  C   UNL A   1      39.311  32.698  30.506  1.00  0.00     0.074 A 
ATOM     58  C   UNL A   1      45.321  31.527  32.180  1.00  0.00     0.029 A 
ATOM     59  N   UNL A   1      43.246  31.377  31.390  1.00  0.00    -0.354 N 
ATOM     60  N   UNL A   1      40.543  32.367  30.812  1.00  0.00    -0.248 NA
ATOM     61  C   UNL A   1      38.916  34.037  30.962  1.00  0.00     0.031 C 
ATOM     62  C   UNL A   1      44.648  32.718  32.472  1.00  0.00     0.029 A 
ATOM     63  C   UNL A   1      43.364  32.634  31.959  1.00  0.00     0.049 A 
ATOM     64  H   UNL A   1      42.436  31.028  30.952  1.00  0.00     0.167 HD
ATOM     65  C   UNL A   1      41.079  33.467  31.469  1.00  0.00     0.074 A 
ATOM     66  C   UNL A   1      40.041  34.477  31.511  1.00  0.00     0.031 C 
ATOM     67  C   UNL A   1      42.321  33.626  31.986  1.00  0.00     0.031 A 
BRANCH  54  68
ATOM     68  C   UNL A   1      45.979  28.683  31.348  1.00  0.00    -0.014 A 
ATOM     69  C   UNL A   1      46.189  27.955  32.530  1.00  0.00     0.009 A 
ATOM     70  C   UNL A   1      47.027  28.790  30.421  1.00  0.00     0.009 A 
ATOM     71  C   UNL A   1      47.436  27.388  32.799  1.00  0.00     0.001 A 
ATOM     72  C   UNL A   1      48.264  28.197  30.679  1.00  0.00     0.001 A 
ATOM     73  C   UNL A   1      48.471  27.508  31.872  1.00  0.00     0.000 A 
ENDBRANCH  54  68
BRANCH  55  74
ATOM     74  C   UNL A   1      36.923  32.457  29.511  1.00  0.00    -0.014 A 
ATOM     75  C   UNL A   1      36.636  33.124  28.310  1.00  0.00     0.009 A 
ATOM     76  C   UNL A   1      35.904  32.306  30.464  1.00  0.00     0.009 A 
ATOM     77  C   UNL A   1      35.360  33.645  28.077  1.00  0.00     0.001 A 
ATOM     78  C   UNL A   1      34.623  32.806  30.219  1.00  0.00     0.001 A 
ATOM     79  C   UNL A   1      34.355  33.481  29.028  1.00  0.00     0.000 A 
ENDBRANCH  55  74
BRANCH  67  80
ATOM     80  C   UNL A   1      42.642  34.955  32.607  1.00  0.00    -0.014 A 
ATOM     81  C   UNL A   1      43.342  35.943  31.898  1.00  0.00     0.009 A 
ATOM     82  C   UNL A   1      42.182  35.241  33.903  1.00  0.00     0.009 A 
ATOM     83  C   UNL A   1      43.596  37.183  32.485  1.00  0.00     0.001 A 
ATOM     84  C   UNL A   1      42.416  36.491  34.477  1.00  0.00     0.001 A 
ATOM     85  C   UNL A   1      43.128  37.459  33.770  1.00  0.00     0.000 A 
ENDBRANCH  67  80
ENDBRANCH  41  42
ENDBRANCH  33  36
ENDBRANCH  31  32
ENDBRANCH  30  31
ENDBRANCH   1  30
TORSDOF 16
ENDMDL
