MODEL 1
REMARK VINA RESULT:     -12.7      0.000      0.000
REMARK SMILES Cc1cccc(OCC(=O)Nc2cc(C(=O)NCCCNC(=O)c3ccc(-c4c5nc(c(-c6ccccc6)c6ccc([nH]6)c(-c6ccccc6)c6nc(c(-c7ccccc7)c7ccc4[nH]7)C=C6)C=C5)cc3)c(Cl)cc2Cl)c1
REMARK SMILES IDX 18 1 17 2 15 3 16 4 14 6 12 7 13 8 75 9 74 10 76 11 72 12
REMARK SMILES IDX 73 13 11 14 9 15 10 16 8 18 7 19 6 20 1 21 2 22 3 23 77 24
REMARK SMILES IDX 4 25 5 26 19 27 20 28 21 29 22 30 23 32 24 33 25 34 71 35
REMARK SMILES IDX 26 36 70 37 27 38 28 39 29 40 64 41 30 42 69 43 63 44 65 45
REMARK SMILES IDX 31 46 68 47 62 48 61 49 32 51 54 52 39 53 53 54 40 55 43 56
REMARK SMILES IDX 52 57 66 58 41 59 42 60 51 62 67 63 44 64 33 65 34 66 38 67
REMARK SMILES IDX 35 68 37 69 36 70 55 71 56 72 60 73 57 74 59 75 58 76 45 77
REMARK SMILES IDX 46 78 50 79 47 80 49 81 48 82
REMARK H PARENT 17 5 11 17 21 31 65 50 43 61
REMARK Flexibility Score: inf
ROOT
ATOM      1  C   UNL A   1      37.604  23.181  26.272  1.00  0.00     0.118 C 
ENDROOT
BRANCH   1   2
ATOM      2  N   UNL A   1      37.563  23.328  24.833  1.00  0.00    -0.352 N 
ATOM      3  C   UNL A   1      36.662  22.835  23.919  1.00  0.00     0.252 C 
ATOM      4  O   UNL A   1      36.738  23.254  22.761  1.00  0.00    -0.269 OA
ATOM      5  H   UNL A   1      38.293  23.864  24.447  1.00  0.00     0.163 HD
BRANCH   3   6
ATOM      6  C   UNL A   1      35.635  21.814  24.283  1.00  0.00     0.060 A 
ATOM      7  C   UNL A   1      33.320  21.253  24.840  1.00  0.00     0.061 A 
ATOM      8  C   UNL A   1      34.258  22.146  24.321  1.00  0.00     0.043 A 
ATOM      9  C   UNL A   1      33.756  19.951  25.168  1.00  0.00     0.066 A 
ATOM     10  C   UNL A   1      35.087  19.570  25.022  1.00  0.00     0.044 A 
ATOM     11  Cl  UNL A   1      32.648  18.765  25.777  1.00  0.00    -0.082 Cl
ATOM     12  C   UNL A   1      36.036  20.506  24.612  1.00  0.00     0.055 A 
ATOM     13  Cl  UNL A   1      37.678  19.959  24.607  1.00  0.00    -0.083 Cl
BRANCH   7  14
ATOM     14  N   UNL A   1      31.985  21.572  25.165  1.00  0.00    -0.322 N 
ATOM     15  C   UNL A   1      31.326  22.294  26.109  1.00  0.00     0.262 C 
ATOM     16  O   UNL A   1      30.093  22.173  26.126  1.00  0.00    -0.271 OA
ATOM     17  H   UNL A   1      31.356  21.155  24.534  1.00  0.00     0.170 HD
BRANCH  15  18
ATOM     18  C   UNL A   1      31.998  23.298  27.042  1.00  0.00     0.329 C 
BRANCH  18  19
ATOM     19  O   UNL A   1      31.403  24.558  27.243  1.00  0.00    -0.484 OA
BRANCH  19  20
ATOM     20  C   UNL A   1      31.504  25.529  26.292  1.00  0.00     0.120 A 
ATOM     21  C   UNL A   1      33.665  27.884  24.220  1.00  0.00     0.044 C 
ATOM     22  C   UNL A   1      32.503  27.088  24.727  1.00  0.00    -0.047 A 
ATOM     23  C   UNL A   1      31.265  27.294  24.111  1.00  0.00     0.003 A 
ATOM     24  C   UNL A   1      32.626  26.182  25.805  1.00  0.00     0.049 A 
ATOM     25  C   UNL A   1      30.146  26.692  24.637  1.00  0.00     0.004 A 
ATOM     26  C   UNL A   1      30.274  25.871  25.751  1.00  0.00     0.046 A 
ENDBRANCH  19  20
ENDBRANCH  18  19
ENDBRANCH  15  18
ENDBRANCH   7  14
ENDBRANCH   3   6
ENDBRANCH   1   2
BRANCH   1  27
ATOM     27  C   UNL A   1      38.998  23.196  26.869  1.00  0.00     0.042 C 
BRANCH  27  28
ATOM     28  C   UNL A   1      39.863  21.975  26.554  1.00  0.00     0.118 C 
BRANCH  28  29
ATOM     29  N   UNL A   1      40.967  22.224  25.610  1.00  0.00    -0.352 N 
ATOM     30  C   UNL A   1      42.349  22.355  25.663  1.00  0.00     0.251 C 
ATOM     31  H   UNL A   1      40.634  22.325  24.689  1.00  0.00     0.163 HD
ATOM     32  O   UNL A   1      42.939  22.658  24.626  1.00  0.00    -0.269 OA
BRANCH  30  33
ATOM     33  C   UNL A   1      43.181  22.013  26.863  1.00  0.00     0.039 A 
ATOM     34  C   UNL A   1      42.359  21.973  28.000  1.00  0.00     0.014 A 
ATOM     35  C   UNL A   1      44.404  22.640  26.951  1.00  0.00     0.014 A 
ATOM     36  C   UNL A   1      42.365  23.082  28.824  1.00  0.00     0.010 A 
ATOM     37  C   UNL A   1      44.399  23.779  27.718  1.00  0.00     0.010 A 
ATOM     38  C   UNL A   1      43.289  24.064  28.529  1.00  0.00    -0.014 A 
BRANCH  38  39
ATOM     39  C   UNL A   1      43.197  25.445  28.954  1.00  0.00     0.031 A 
ATOM     40  C   UNL A   1      42.056  26.201  28.428  1.00  0.00     0.074 A 
ATOM     41  C   UNL A   1      43.993  25.913  29.945  1.00  0.00     0.049 A 
ATOM     42  N   UNL A   1      41.924  27.469  28.536  1.00  0.00    -0.248 NA
ATOM     43  C   UNL A   1      40.964  25.572  27.684  1.00  0.00     0.031 C 
ATOM     44  C   UNL A   1      43.794  27.098  30.778  1.00  0.00     0.029 A 
ATOM     45  N   UNL A   1      45.283  25.494  30.274  1.00  0.00    -0.354 N 
ATOM     46  C   UNL A   1      40.632  27.774  28.189  1.00  0.00     0.074 A 
ATOM     47  C   UNL A   1      40.098  26.581  27.586  1.00  0.00     0.031 C 
ATOM     48  C   UNL A   1      44.969  27.468  31.316  1.00  0.00     0.029 A 
ATOM     49  C   UNL A   1      45.994  26.625  30.728  1.00  0.00     0.049 A 
ATOM     50  H   UNL A   1      45.632  24.577  30.203  1.00  0.00     0.167 HD
ATOM     51  C   UNL A   1      40.138  28.972  28.592  1.00  0.00     0.031 A 
ATOM     52  C   UNL A   1      47.064  27.099  30.019  1.00  0.00     0.031 A 
ATOM     53  C   UNL A   1      41.205  29.795  29.156  1.00  0.00     0.049 A 
ATOM     54  C   UNL A   1      46.800  28.458  29.397  1.00  0.00     0.074 A 
ATOM     55  C   UNL A   1      41.604  30.076  30.452  1.00  0.00     0.029 A 
ATOM     56  N   UNL A   1      42.271  30.135  28.331  1.00  0.00    -0.354 N 
ATOM     57  N   UNL A   1      45.604  28.951  29.213  1.00  0.00    -0.248 NA
ATOM     58  C   UNL A   1      47.845  29.377  28.950  1.00  0.00     0.031 C 
ATOM     59  C   UNL A   1      42.956  30.520  30.401  1.00  0.00     0.029 A 
ATOM     60  C   UNL A   1      43.357  30.542  29.077  1.00  0.00     0.049 A 
ATOM     61  H   UNL A   1      42.251  30.092  27.348  1.00  0.00     0.167 HD
ATOM     62  C   UNL A   1      45.692  30.205  28.670  1.00  0.00     0.074 A 
ATOM     63  C   UNL A   1      47.118  30.423  28.512  1.00  0.00     0.031 C 
ATOM     64  C   UNL A   1      44.582  30.957  28.402  1.00  0.00     0.031 A 
BRANCH  51  65
ATOM     65  C   UNL A   1      38.677  29.304  28.692  1.00  0.00    -0.014 A 
ATOM     66  C   UNL A   1      38.036  29.141  29.932  1.00  0.00     0.009 A 
ATOM     67  C   UNL A   1      37.859  29.711  27.625  1.00  0.00     0.009 A 
ATOM     68  C   UNL A   1      36.659  29.333  30.089  1.00  0.00     0.001 A 
ATOM     69  C   UNL A   1      36.478  29.896  27.769  1.00  0.00     0.001 A 
ATOM     70  C   UNL A   1      35.877  29.703  29.003  1.00  0.00     0.000 A 
ENDBRANCH  51  65
BRANCH  52  71
ATOM     71  C   UNL A   1      47.864  25.988  29.418  1.00  0.00    -0.014 A 
ATOM     72  C   UNL A   1      47.626  25.698  28.055  1.00  0.00     0.009 A 
ATOM     73  C   UNL A   1      49.102  25.627  29.971  1.00  0.00     0.009 A 
ATOM     74  C   UNL A   1      48.663  25.256  27.228  1.00  0.00     0.001 A 
ATOM     75  C   UNL A   1      50.129  25.160  29.138  1.00  0.00     0.001 A 
ATOM     76  C   UNL A   1      49.928  25.034  27.763  1.00  0.00     0.000 A 
ENDBRANCH  52  71
BRANCH  64  77
ATOM     77  C   UNL A   1      44.509  32.188  27.521  1.00  0.00    -0.014 A 
ATOM     78  C   UNL A   1      44.505  32.170  26.123  1.00  0.00     0.009 A 
ATOM     79  C   UNL A   1      44.284  33.449  28.129  1.00  0.00     0.009 A 
ATOM     80  C   UNL A   1      44.318  33.345  25.379  1.00  0.00     0.001 A 
ATOM     81  C   UNL A   1      44.033  34.609  27.395  1.00  0.00     0.001 A 
ATOM     82  C   UNL A   1      44.066  34.559  26.013  1.00  0.00     0.000 A 
ENDBRANCH  64  77
ENDBRANCH  38  39
ENDBRANCH  30  33
ENDBRANCH  28  29
ENDBRANCH  27  28
ENDBRANCH   1  27
TORSDOF 14
ENDMDL
MODEL 2
REMARK VINA RESULT:     -12.1      3.246      5.072
REMARK SMILES Cc1cccc(OCC(=O)Nc2cc(C(=O)NCCCNC(=O)c3ccc(-c4c5nc(c(-c6ccccc6)c6ccc([nH]6)c(-c6ccccc6)c6nc(c(-c7ccccc7)c7ccc4[nH]7)C=C6)C=C5)cc3)c(Cl)cc2Cl)c1
REMARK SMILES IDX 18 1 17 2 15 3 16 4 14 6 12 7 13 8 75 9 74 10 76 11 72 12
REMARK SMILES IDX 73 13 11 14 9 15 10 16 8 18 7 19 6 20 1 21 2 22 3 23 77 24
REMARK SMILES IDX 4 25 5 26 19 27 20 28 21 29 22 30 23 32 24 33 25 34 71 35
REMARK SMILES IDX 26 36 70 37 27 38 28 39 29 40 64 41 30 42 69 43 63 44 65 45
REMARK SMILES IDX 31 46 68 47 62 48 61 49 32 51 54 52 39 53 53 54 40 55 43 56
REMARK SMILES IDX 52 57 66 58 41 59 42 60 51 62 67 63 44 64 33 65 34 66 38 67
REMARK SMILES IDX 35 68 37 69 36 70 55 71 56 72 60 73 57 74 59 75 58 76 45 77
REMARK SMILES IDX 46 78 50 79 47 80 49 81 48 82
REMARK H PARENT 17 5 11 17 21 31 65 50 43 61
REMARK Flexibility Score: inf
ROOT
ATOM      1  C   UNL A   1      43.615  20.972  25.505  1.00  0.00     0.118 C 
ENDROOT
BRANCH   1   2
ATOM      2  N   UNL A   1      43.070  20.116  26.536  1.00  0.00    -0.352 N 
ATOM      3  C   UNL A   1      41.949  20.274  27.316  1.00  0.00     0.252 C 
ATOM      4  O   UNL A   1      41.590  19.312  27.999  1.00  0.00    -0.269 OA
ATOM      5  H   UNL A   1      43.580  19.291  26.706  1.00  0.00     0.163 HD
BRANCH   3   6
ATOM      6  C   UNL A   1      41.191  21.559  27.369  1.00  0.00     0.060 A 
ATOM      7  C   UNL A   1      39.379  22.978  26.540  1.00  0.00     0.061 A 
ATOM      8  C   UNL A   1      39.986  21.725  26.642  1.00  0.00     0.043 A 
ATOM      9  C   UNL A   1      39.903  24.034  27.316  1.00  0.00     0.066 A 
ATOM     10  C   UNL A   1      41.017  23.854  28.132  1.00  0.00     0.044 A 
ATOM     11  Cl  UNL A   1      39.182  25.610  27.284  1.00  0.00    -0.082 Cl
ATOM     12  C   UNL A   1      41.684  22.630  28.138  1.00  0.00     0.055 A 
ATOM     13  Cl  UNL A   1      43.137  22.570  29.075  1.00  0.00    -0.083 Cl
BRANCH   7  14
ATOM     14  N   UNL A   1      38.343  23.309  25.642  1.00  0.00    -0.322 N 
ATOM     15  C   UNL A   1      37.337  22.671  24.988  1.00  0.00     0.262 C 
ATOM     16  O   UNL A   1      36.733  23.335  24.135  1.00  0.00    -0.271 OA
ATOM     17  H   UNL A   1      38.350  24.270  25.429  1.00  0.00     0.170 HD
BRANCH  15  18
ATOM     18  C   UNL A   1      36.860  21.260  25.322  1.00  0.00     0.329 C 
BRANCH  18  19
ATOM     19  O   UNL A   1      35.528  21.062  25.734  1.00  0.00    -0.484 OA
BRANCH  19  20
ATOM     20  C   UNL A   1      34.672  20.324  24.971  1.00  0.00     0.120 A 
ATOM     21  C   UNL A   1      33.677  16.973  23.459  1.00  0.00     0.044 C 
ATOM     22  C   UNL A   1      33.645  18.398  23.918  1.00  0.00    -0.047 A 
ATOM     23  C   UNL A   1      32.522  19.157  23.578  1.00  0.00     0.003 A 
ATOM     24  C   UNL A   1      34.712  18.979  24.640  1.00  0.00     0.049 A 
ATOM     25  C   UNL A   1      32.515  20.504  23.854  1.00  0.00     0.004 A 
ATOM     26  C   UNL A   1      33.611  21.075  24.489  1.00  0.00     0.046 A 
ENDBRANCH  19  20
ENDBRANCH  18  19
ENDBRANCH  15  18
ENDBRANCH   7  14
ENDBRANCH   3   6
ENDBRANCH   1   2
BRANCH   1  27
ATOM     27  C   UNL A   1      44.981  20.555  24.994  1.00  0.00     0.042 C 
BRANCH  27  28
ATOM     28  C   UNL A   1      45.901  21.697  24.563  1.00  0.00     0.118 C 
BRANCH  28  29
ATOM     29  N   UNL A   1      46.187  22.693  25.610  1.00  0.00    -0.352 N 
ATOM     30  C   UNL A   1      45.972  24.050  25.818  1.00  0.00     0.251 C 
ATOM     31  H   UNL A   1      46.659  22.285  26.372  1.00  0.00     0.163 HD
ATOM     32  O   UNL A   1      46.456  24.562  26.828  1.00  0.00    -0.269 OA
BRANCH  30  33
ATOM     33  C   UNL A   1      45.074  24.899  24.969  1.00  0.00     0.039 A 
ATOM     34  C   UNL A   1      45.516  26.230  25.015  1.00  0.00     0.014 A 
ATOM     35  C   UNL A   1      43.724  24.645  25.072  1.00  0.00     0.014 A 
ATOM     36  C   UNL A   1      44.845  27.091  25.861  1.00  0.00     0.010 A 
ATOM     37  C   UNL A   1      43.065  25.458  25.961  1.00  0.00     0.010 A 
ATOM     38  C   UNL A   1      43.710  26.595  26.472  1.00  0.00    -0.014 A 
BRANCH  38  39
ATOM     39  C   UNL A   1      43.116  27.129  27.679  1.00  0.00     0.031 A 
ATOM     40  C   UNL A   1      42.036  28.101  27.485  1.00  0.00     0.074 A 
ATOM     41  C   UNL A   1      43.403  26.581  28.885  1.00  0.00     0.049 A 
ATOM     42  N   UNL A   1      41.536  28.815  28.422  1.00  0.00    -0.248 NA
ATOM     43  C   UNL A   1      41.446  28.380  26.175  1.00  0.00     0.031 C 
ATOM     44  C   UNL A   1      42.638  26.684  30.127  1.00  0.00     0.029 A 
ATOM     45  N   UNL A   1      44.588  25.960  29.281  1.00  0.00    -0.354 N 
ATOM     46  C   UNL A   1      40.385  29.380  27.931  1.00  0.00     0.074 A 
ATOM     47  C   UNL A   1      40.414  29.153  26.511  1.00  0.00     0.031 C 
ATOM     48  C   UNL A   1      43.438  26.399  31.168  1.00  0.00     0.029 A 
ATOM     49  C   UNL A   1      44.785  26.250  30.647  1.00  0.00     0.049 A 
ATOM     50  H   UNL A   1      45.179  25.417  28.710  1.00  0.00     0.167 HD
ATOM     51  C   UNL A   1      39.484  29.850  28.830  1.00  0.00     0.031 A 
ATOM     52  C   UNL A   1      45.851  27.010  31.046  1.00  0.00     0.031 A 
ATOM     53  C   UNL A   1      40.053  29.834  30.175  1.00  0.00     0.049 A 
ATOM     54  C   UNL A   1      45.433  28.360  31.600  1.00  0.00     0.074 A 
ATOM     55  C   UNL A   1      39.934  28.966  31.247  1.00  0.00     0.029 A 
ATOM     56  N   UNL A   1      41.188  30.601  30.411  1.00  0.00    -0.354 N 
ATOM     57  N   UNL A   1      44.268  28.907  31.375  1.00  0.00    -0.248 NA
ATOM     58  C   UNL A   1      46.273  29.194  32.458  1.00  0.00     0.031 C 
ATOM     59  C   UNL A   1      41.059  29.171  32.096  1.00  0.00     0.029 A 
ATOM     60  C   UNL A   1      41.832  30.184  31.556  1.00  0.00     0.049 A 
ATOM     61  H   UNL A   1      41.489  31.343  29.837  1.00  0.00     0.167 HD
ATOM     62  C   UNL A   1      44.176  30.102  32.038  1.00  0.00     0.074 A 
ATOM     63  C   UNL A   1      45.463  30.244  32.693  1.00  0.00     0.031 C 
ATOM     64  C   UNL A   1      43.044  30.868  31.994  1.00  0.00     0.031 A 
BRANCH  51  65
ATOM     65  C   UNL A   1      38.032  30.097  28.534  1.00  0.00    -0.014 A 
ATOM     66  C   UNL A   1      37.196  28.990  28.309  1.00  0.00     0.009 A 
ATOM     67  C   UNL A   1      37.432  31.360  28.395  1.00  0.00     0.009 A 
ATOM     68  C   UNL A   1      35.856  29.134  27.932  1.00  0.00     0.001 A 
ATOM     69  C   UNL A   1      36.096  31.515  28.007  1.00  0.00     0.001 A 
ATOM     70  C   UNL A   1      35.307  30.400  27.771  1.00  0.00     0.000 A 
ENDBRANCH  51  65
BRANCH  52  71
ATOM     71  C   UNL A   1      47.069  26.724  30.228  1.00  0.00    -0.014 A 
ATOM     72  C   UNL A   1      47.364  27.631  29.185  1.00  0.00     0.009 A 
ATOM     73  C   UNL A   1      48.117  25.960  30.764  1.00  0.00     0.009 A 
ATOM     74  C   UNL A   1      48.688  27.914  28.838  1.00  0.00     0.001 A 
ATOM     75  C   UNL A   1      49.441  26.232  30.390  1.00  0.00     0.001 A 
ATOM     76  C   UNL A   1      49.728  27.247  29.477  1.00  0.00     0.000 A 
ENDBRANCH  52  71
BRANCH  64  77
ATOM     77  C   UNL A   1      42.917  32.325  32.391  1.00  0.00    -0.014 A 
ATOM     78  C   UNL A   1      43.049  33.406  31.514  1.00  0.00     0.009 A 
ATOM     79  C   UNL A   1      42.492  32.639  33.707  1.00  0.00     0.009 A 
ATOM     80  C   UNL A   1      42.803  34.722  31.934  1.00  0.00     0.001 A 
ATOM     81  C   UNL A   1      42.183  33.937  34.112  1.00  0.00     0.001 A 
ATOM     82  C   UNL A   1      42.354  34.986  33.226  1.00  0.00     0.000 A 
ENDBRANCH  64  77
ENDBRANCH  38  39
ENDBRANCH  30  33
ENDBRANCH  28  29
ENDBRANCH  27  28
ENDBRANCH   1  27
TORSDOF 14
ENDMDL
MODEL 3
REMARK VINA RESULT:     -11.8      2.309      3.678
REMARK SMILES Cc1cccc(OCC(=O)Nc2cc(C(=O)NCCCNC(=O)c3ccc(-c4c5nc(c(-c6ccccc6)c6ccc([nH]6)c(-c6ccccc6)c6nc(c(-c7ccccc7)c7ccc4[nH]7)C=C6)C=C5)cc3)c(Cl)cc2Cl)c1
REMARK SMILES IDX 18 1 17 2 15 3 16 4 14 6 12 7 13 8 75 9 74 10 76 11 72 12
REMARK SMILES IDX 73 13 11 14 9 15 10 16 8 18 7 19 6 20 1 21 2 22 3 23 77 24
REMARK SMILES IDX 4 25 5 26 19 27 20 28 21 29 22 30 23 32 24 33 25 34 71 35
REMARK SMILES IDX 26 36 70 37 27 38 28 39 29 40 64 41 30 42 69 43 63 44 65 45
REMARK SMILES IDX 31 46 68 47 62 48 61 49 32 51 54 52 39 53 53 54 40 55 43 56
REMARK SMILES IDX 52 57 66 58 41 59 42 60 51 62 67 63 44 64 33 65 34 66 38 67
REMARK SMILES IDX 35 68 37 69 36 70 55 71 56 72 60 73 57 74 59 75 58 76 45 77
REMARK SMILES IDX 46 78 50 79 47 80 49 81 48 82
REMARK H PARENT 17 5 11 17 21 31 65 50 43 61
REMARK Flexibility Score: inf
ROOT
ATOM      1  C   UNL A   1      36.936  21.905  25.035  1.00  0.00     0.118 C 
ENDROOT
BRANCH   1   2
ATOM      2  N   UNL A   1      36.113  22.198  26.189  1.00  0.00    -0.352 N 
ATOM      3  C   UNL A   1      34.891  22.823  26.267  1.00  0.00     0.252 C 
ATOM      4  O   UNL A   1      34.303  22.790  27.351  1.00  0.00    -0.269 OA
ATOM      5  H   UNL A   1      36.485  21.904  27.052  1.00  0.00     0.163 HD
BRANCH   3   6
ATOM      6  C   UNL A   1      34.288  23.543  25.107  1.00  0.00     0.060 A 
ATOM      7  C   UNL A   1      33.741  25.644  23.978  1.00  0.00     0.061 A 
ATOM      8  C   UNL A   1      34.455  24.942  24.950  1.00  0.00     0.043 A 
ATOM      9  C   UNL A   1      32.980  24.901  23.049  1.00  0.00     0.066 A 
ATOM     10  C   UNL A   1      32.903  23.512  23.116  1.00  0.00     0.044 A 
ATOM     11  Cl  UNL A   1      32.099  25.689  21.782  1.00  0.00    -0.082 Cl
ATOM     12  C   UNL A   1      33.528  22.831  24.161  1.00  0.00     0.055 A 
ATOM     13  Cl  UNL A   1      33.242  21.126  24.223  1.00  0.00    -0.083 Cl
BRANCH   7  14
ATOM     14  N   UNL A   1      33.629  27.047  23.905  1.00  0.00    -0.322 N 
ATOM     15  C   UNL A   1      33.468  28.089  24.764  1.00  0.00     0.262 C 
ATOM     16  O   UNL A   1      33.247  29.192  24.247  1.00  0.00    -0.271 OA
ATOM     17  H   UNL A   1      33.681  27.361  22.974  1.00  0.00     0.170 HD
BRANCH  15  18
ATOM     18  C   UNL A   1      33.653  27.987  26.275  1.00  0.00     0.329 C 
BRANCH  18  19
ATOM     19  O   UNL A   1      33.371  29.107  27.081  1.00  0.00    -0.484 OA
BRANCH  19  20
ATOM     20  C   UNL A   1      34.357  29.989  27.407  1.00  0.00     0.120 A 
ATOM     21  C   UNL A   1      35.439  33.546  28.237  1.00  0.00     0.044 C 
ATOM     22  C   UNL A   1      35.434  32.059  28.067  1.00  0.00    -0.047 A 
ATOM     23  C   UNL A   1      36.626  31.378  28.331  1.00  0.00     0.003 A 
ATOM     24  C   UNL A   1      34.289  31.356  27.627  1.00  0.00     0.049 A 
ATOM     25  C   UNL A   1      36.707  30.034  28.051  1.00  0.00     0.004 A 
ATOM     26  C   UNL A   1      35.594  29.378  27.539  1.00  0.00     0.046 A 
ENDBRANCH  19  20
ENDBRANCH  18  19
ENDBRANCH  15  18
ENDBRANCH   7  14
ENDBRANCH   3   6
ENDBRANCH   1   2
BRANCH   1  27
ATOM     27  C   UNL A   1      38.041  20.897  25.288  1.00  0.00     0.042 C 
BRANCH  27  28
ATOM     28  C   UNL A   1      39.267  21.434  26.026  1.00  0.00     0.118 C 
BRANCH  28  29
ATOM     29  N   UNL A   1      39.380  22.903  26.055  1.00  0.00    -0.352 N 
ATOM     30  C   UNL A   1      40.337  23.850  26.397  1.00  0.00     0.251 C 
ATOM     31  H   UNL A   1      38.548  23.331  25.747  1.00  0.00     0.163 HD
ATOM     32  O   UNL A   1      40.011  25.037  26.365  1.00  0.00    -0.269 OA
BRANCH  30  33
ATOM     33  C   UNL A   1      41.778  23.530  26.665  1.00  0.00     0.039 A 
ATOM     34  C   UNL A   1      41.947  23.267  28.033  1.00  0.00     0.014 A 
ATOM     35  C   UNL A   1      42.704  24.322  26.023  1.00  0.00     0.014 A 
ATOM     36  C   UNL A   1      42.454  24.287  28.814  1.00  0.00     0.010 A 
ATOM     37  C   UNL A   1      43.163  25.374  26.775  1.00  0.00     0.010 A 
ATOM     38  C   UNL A   1      42.885  25.418  28.150  1.00  0.00    -0.014 A 
BRANCH  38  39
ATOM     39  C   UNL A   1      43.036  26.726  28.750  1.00  0.00     0.031 A 
ATOM     40  C   UNL A   1      41.810  27.520  28.873  1.00  0.00     0.074 A 
ATOM     41  C   UNL A   1      44.199  27.074  29.354  1.00  0.00     0.049 A 
ATOM     42  N   UNL A   1      41.785  28.759  29.194  1.00  0.00    -0.248 NA
ATOM     43  C   UNL A   1      40.480  26.973  28.598  1.00  0.00     0.031 C 
ATOM     44  C   UNL A   1      44.422  28.131  30.339  1.00  0.00     0.029 A 
ATOM     45  N   UNL A   1      45.488  26.644  29.036  1.00  0.00    -0.354 N 
ATOM     46  C   UNL A   1      40.481  29.077  29.481  1.00  0.00     0.074 A 
ATOM     47  C   UNL A   1      39.696  27.965  29.017  1.00  0.00     0.031 C 
ATOM     48  C   UNL A   1      45.727  28.452  30.361  1.00  0.00     0.029 A 
ATOM     49  C   UNL A   1      46.367  27.720  29.282  1.00  0.00     0.049 A 
ATOM     50  H   UNL A   1      45.737  25.753  28.700  1.00  0.00     0.167 HD
ATOM     51  C   UNL A   1      40.255  30.198  30.212  1.00  0.00     0.031 A 
ATOM     52  C   UNL A   1      47.045  28.310  28.250  1.00  0.00     0.031 A 
ATOM     53  C   UNL A   1      41.491  30.962  30.363  1.00  0.00     0.049 A 
ATOM     54  C   UNL A   1      46.591  29.734  27.989  1.00  0.00     0.074 A 
ATOM     55  C   UNL A   1      42.419  31.075  31.385  1.00  0.00     0.029 A 
ATOM     56  N   UNL A   1      42.110  31.435  29.212  1.00  0.00    -0.354 N 
ATOM     57  N   UNL A   1      45.451  30.219  28.406  1.00  0.00    -0.248 NA
ATOM     58  C   UNL A   1      47.375  30.728  27.260  1.00  0.00     0.031 C 
ATOM     59  C   UNL A   1      43.634  31.552  30.815  1.00  0.00     0.029 A 
ATOM     60  C   UNL A   1      43.427  31.762  29.462  1.00  0.00     0.049 A 
ATOM     61  H   UNL A   1      41.668  31.524  28.337  1.00  0.00     0.167 HD
ATOM     62  C   UNL A   1      45.344  31.537  28.048  1.00  0.00     0.074 A 
ATOM     63  C   UNL A   1      46.571  31.807  27.320  1.00  0.00     0.031 C 
ATOM     64  C   UNL A   1      44.256  32.292  28.387  1.00  0.00     0.031 A 
BRANCH  51  65
ATOM     65  C   UNL A   1      38.993  30.481  30.975  1.00  0.00    -0.014 A 
ATOM     66  C   UNL A   1      38.637  31.820  31.209  1.00  0.00     0.009 A 
ATOM     67  C   UNL A   1      38.151  29.511  31.546  1.00  0.00     0.009 A 
ATOM     68  C   UNL A   1      37.533  32.170  31.995  1.00  0.00     0.001 A 
ATOM     69  C   UNL A   1      37.051  29.851  32.342  1.00  0.00     0.001 A 
ATOM     70  C   UNL A   1      36.743  31.183  32.570  1.00  0.00     0.000 A 
ENDBRANCH  51  65
BRANCH  52  71
ATOM     71  C   UNL A   1      47.465  27.308  27.223  1.00  0.00    -0.014 A 
ATOM     72  C   UNL A   1      48.324  26.273  27.657  1.00  0.00     0.009 A 
ATOM     73  C   UNL A   1      46.673  27.086  26.086  1.00  0.00     0.009 A 
ATOM     74  C   UNL A   1      48.237  24.993  27.100  1.00  0.00     0.001 A 
ATOM     75  C   UNL A   1      46.612  25.805  25.518  1.00  0.00     0.001 A 
ATOM     76  C   UNL A   1      47.345  24.750  26.062  1.00  0.00     0.000 A 
ENDBRANCH  52  71
BRANCH  64  77
ATOM     77  C   UNL A   1      43.858  33.630  27.794  1.00  0.00    -0.014 A 
ATOM     78  C   UNL A   1      43.775  33.903  26.425  1.00  0.00     0.009 A 
ATOM     79  C   UNL A   1      43.394  34.649  28.663  1.00  0.00     0.009 A 
ATOM     80  C   UNL A   1      43.287  35.131  25.955  1.00  0.00     0.001 A 
ATOM     81  C   UNL A   1      42.846  35.846  28.199  1.00  0.00     0.001 A 
ATOM     82  C   UNL A   1      42.808  36.094  26.838  1.00  0.00     0.000 A 
ENDBRANCH  64  77
ENDBRANCH  38  39
ENDBRANCH  30  33
ENDBRANCH  28  29
ENDBRANCH  27  28
ENDBRANCH   1  27
TORSDOF 14
ENDMDL
