MODEL 1
REMARK VINA RESULT:     -12.2      0.000      0.000
REMARK SMILES CCn1c(N2CCC(C(=O)NCCCNC(=O)c3ccc(-c4c5nc(c(-c6ccccc6)c6ccc([nH]6)c(-c6ccccc6)c6nc(c(-c7ccccc7)c7ccc4[nH]7)C=C6)C=C5)cc3)CC2)nc2cc(C)ccc21
REMARK SMILES IDX 13 1 12 2 11 3 9 4 10 5 8 7 5 8 6 9 67 10 7 11 66 12 4 13
REMARK SMILES IDX 3 14 75 15 68 16 69 17 74 18 70 19 73 20 71 21 72 22 2 23
REMARK SMILES IDX 1 24 14 25 15 26 16 27 17 29 18 30 19 31 65 32 20 33 64 34
REMARK SMILES IDX 21 35 22 36 23 37 58 38 24 39 63 40 57 41 59 42 25 43 62 44
REMARK SMILES IDX 56 45 55 46 26 48 48 49 33 50 47 51 34 52 37 53 46 54 60 55
REMARK SMILES IDX 35 56 36 57 45 59 61 60 38 61 27 62 28 63 32 64 29 65 31 66
REMARK SMILES IDX 30 67 49 68 50 69 54 70 51 71 53 72 52 73 39 74 40 75 44 76
REMARK SMILES IDX 41 77 43 78 42 79
REMARK H PARENT 11 6 15 28 59 47 37 58
REMARK Flexibility Score: inf
ROOT
ATOM      1  C   UNL A   1      33.464  29.224  26.608  1.00  0.00     0.042 C 
ENDROOT
BRANCH   1   2
ATOM      2  C   UNL A   1      33.263  29.013  25.109  1.00  0.00     0.117 C 
BRANCH   2   3
ATOM      3  N   UNL A   1      32.034  29.624  24.624  1.00  0.00    -0.356 N 
ATOM      4  C   UNL A   1      30.899  29.088  24.105  1.00  0.00     0.223 C 
ATOM      5  O   UNL A   1      30.002  29.869  23.776  1.00  0.00    -0.275 OA
ATOM      6  H   UNL A   1      32.023  30.608  24.683  1.00  0.00     0.163 HD
BRANCH   4   7
ATOM      7  C   UNL A   1      30.703  27.591  23.946  1.00  0.00     0.082 C 
ATOM      8  N   UNL A   1      31.621  24.899  24.183  1.00  0.00    -0.342 N 
ATOM      9  C   UNL A   1      31.536  25.470  22.846  1.00  0.00     0.120 C 
ATOM     10  C   UNL A   1      30.659  25.370  25.167  1.00  0.00     0.120 C 
ATOM     11  C   UNL A   1      31.634  26.987  22.891  1.00  0.00     0.035 C 
ATOM     12  C   UNL A   1      30.730  26.883  25.306  1.00  0.00     0.035 C 
BRANCH   8  13
ATOM     13  C   UNL A   1      32.787  24.339  24.582  1.00  0.00     0.206 A 
ATOM     14  N   UNL A   1      32.977  22.974  24.538  1.00  0.00    -0.310 N 
ATOM     15  C   UNL A   1      34.276  22.708  24.901  1.00  0.00     0.070 A 
ATOM     16  N   UNL A   1      33.893  24.957  24.930  1.00  0.00    -0.213 NA
ATOM     17  C   UNL A   1      34.816  23.964  25.151  1.00  0.00     0.091 A 
ATOM     18  C   UNL A   1      35.010  21.523  25.006  1.00  0.00     0.029 A 
ATOM     19  C   UNL A   1      36.156  24.062  25.550  1.00  0.00     0.034 A 
ATOM     20  C   UNL A   1      36.343  21.638  25.403  1.00  0.00     0.006 A 
ATOM     21  C   UNL A   1      36.915  22.886  25.675  1.00  0.00    -0.049 A 
ATOM     22  C   UNL A   1      38.338  22.976  26.122  1.00  0.00     0.044 C 
BRANCH  14  23
ATOM     23  C   UNL A   1      32.034  21.985  24.055  1.00  0.00     0.122 C 
ATOM     24  C   UNL A   1      32.210  21.701  22.574  1.00  0.00     0.028 C 
ENDBRANCH  14  23
ENDBRANCH   8  13
ENDBRANCH   4   7
ENDBRANCH   2   3
ENDBRANCH   1   2
BRANCH   1  25
ATOM     25  C   UNL A   1      34.926  29.199  27.055  1.00  0.00     0.118 C 
BRANCH  25  26
ATOM     26  N   UNL A   1      35.146  29.682  28.403  1.00  0.00    -0.352 N 
ATOM     27  C   UNL A   1      36.230  29.794  29.232  1.00  0.00     0.251 C 
ATOM     28  H   UNL A   1      34.318  30.008  28.823  1.00  0.00     0.163 HD
ATOM     29  O   UNL A   1      36.043  30.404  30.281  1.00  0.00    -0.269 OA
BRANCH  27  30
ATOM     30  C   UNL A   1      37.569  29.186  28.988  1.00  0.00     0.039 A 
ATOM     31  C   UNL A   1      38.218  28.272  29.814  1.00  0.00     0.014 A 
ATOM     32  C   UNL A   1      38.246  29.651  27.841  1.00  0.00     0.014 A 
ATOM     33  C   UNL A   1      39.544  27.921  29.569  1.00  0.00     0.010 A 
ATOM     34  C   UNL A   1      39.563  29.286  27.579  1.00  0.00     0.010 A 
ATOM     35  C   UNL A   1      40.230  28.461  28.475  1.00  0.00    -0.014 A 
BRANCH  35  36
ATOM     36  C   UNL A   1      41.614  28.039  28.262  1.00  0.00     0.031 A 
ATOM     37  C   UNL A   1      41.767  26.696  27.636  1.00  0.00     0.074 A 
ATOM     38  C   UNL A   1      42.694  28.813  28.500  1.00  0.00     0.049 A 
ATOM     39  N   UNL A   1      42.353  25.651  28.123  1.00  0.00    -0.248 NA
ATOM     40  C   UNL A   1      41.101  26.460  26.345  1.00  0.00     0.031 C 
ATOM     41  C   UNL A   1      42.729  30.243  28.817  1.00  0.00     0.029 A 
ATOM     42  N   UNL A   1      44.018  28.490  28.398  1.00  0.00    -0.354 N 
ATOM     43  C   UNL A   1      42.270  24.665  27.143  1.00  0.00     0.074 A 
ATOM     44  C   UNL A   1      41.389  25.177  26.124  1.00  0.00     0.031 C 
ATOM     45  C   UNL A   1      43.987  30.708  28.636  1.00  0.00     0.029 A 
ATOM     46  C   UNL A   1      44.866  29.589  28.339  1.00  0.00     0.049 A 
ATOM     47  H   UNL A   1      44.342  27.562  28.369  1.00  0.00     0.167 HD
ATOM     48  C   UNL A   1      43.082  23.572  27.150  1.00  0.00     0.031 A 
ATOM     49  C   UNL A   1      46.180  29.585  28.004  1.00  0.00     0.031 A 
ATOM     50  C   UNL A   1      43.688  23.365  28.439  1.00  0.00     0.049 A 
ATOM     51  C   UNL A   1      46.698  28.203  28.097  1.00  0.00     0.074 A 
ATOM     52  C   UNL A   1      43.203  23.132  29.709  1.00  0.00     0.029 A 
ATOM     53  N   UNL A   1      44.997  23.747  28.597  1.00  0.00    -0.354 N 
ATOM     54  N   UNL A   1      46.930  27.590  29.217  1.00  0.00    -0.248 NA
ATOM     55  C   UNL A   1      46.586  27.346  26.930  1.00  0.00     0.031 C 
ATOM     56  C   UNL A   1      44.069  23.870  30.566  1.00  0.00     0.029 A 
ATOM     57  C   UNL A   1      45.083  24.425  29.784  1.00  0.00     0.049 A 
ATOM     58  H   UNL A   1      45.737  23.567  27.973  1.00  0.00     0.167 HD
ATOM     59  C   UNL A   1      46.508  26.289  28.995  1.00  0.00     0.074 A 
ATOM     60  C   UNL A   1      46.428  26.169  27.540  1.00  0.00     0.031 C 
ATOM     61  C   UNL A   1      45.993  25.529  30.010  1.00  0.00     0.031 A 
BRANCH  48  62
ATOM     62  C   UNL A   1      43.624  22.918  25.902  1.00  0.00    -0.014 A 
ATOM     63  C   UNL A   1      44.361  23.611  24.925  1.00  0.00     0.009 A 
ATOM     64  C   UNL A   1      43.653  21.512  25.832  1.00  0.00     0.009 A 
ATOM     65  C   UNL A   1      45.123  22.946  23.960  1.00  0.00     0.001 A 
ATOM     66  C   UNL A   1      44.450  20.842  24.895  1.00  0.00     0.001 A 
ATOM     67  C   UNL A   1      45.193  21.562  23.965  1.00  0.00     0.000 A 
ENDBRANCH  48  62
BRANCH  49  68
ATOM     68  C   UNL A   1      46.967  30.620  27.304  1.00  0.00    -0.014 A 
ATOM     69  C   UNL A   1      48.360  30.660  27.481  1.00  0.00     0.009 A 
ATOM     70  C   UNL A   1      46.335  31.745  26.753  1.00  0.00     0.009 A 
ATOM     71  C   UNL A   1      49.090  31.813  27.179  1.00  0.00     0.001 A 
ATOM     72  C   UNL A   1      47.068  32.899  26.447  1.00  0.00     0.001 A 
ATOM     73  C   UNL A   1      48.441  32.939  26.682  1.00  0.00     0.000 A 
ENDBRANCH  49  68
BRANCH  61  74
ATOM     74  C   UNL A   1      46.173  25.996  31.444  1.00  0.00    -0.014 A 
ATOM     75  C   UNL A   1      47.363  25.658  32.113  1.00  0.00     0.009 A 
ATOM     76  C   UNL A   1      45.191  26.675  32.182  1.00  0.00     0.009 A 
ATOM     77  C   UNL A   1      47.568  25.991  33.454  1.00  0.00     0.001 A 
ATOM     78  C   UNL A   1      45.431  27.091  33.493  1.00  0.00     0.001 A 
ATOM     79  C   UNL A   1      46.611  26.731  34.137  1.00  0.00     0.000 A 
ENDBRANCH  61  74
ENDBRANCH  35  36
ENDBRANCH  27  30
ENDBRANCH  25  26
ENDBRANCH   1  25
TORSDOF 12
ENDMDL
MODEL 2
REMARK VINA RESULT:     -12.1      1.987      5.905
REMARK SMILES CCn1c(N2CCC(C(=O)NCCCNC(=O)c3ccc(-c4c5nc(c(-c6ccccc6)c6ccc([nH]6)c(-c6ccccc6)c6nc(c(-c7ccccc7)c7ccc4[nH]7)C=C6)C=C5)cc3)CC2)nc2cc(C)ccc21
REMARK SMILES IDX 13 1 12 2 11 3 9 4 10 5 8 7 5 8 6 9 67 10 7 11 66 12 4 13
REMARK SMILES IDX 3 14 75 15 68 16 69 17 74 18 70 19 73 20 71 21 72 22 2 23
REMARK SMILES IDX 1 24 14 25 15 26 16 27 17 29 18 30 19 31 65 32 20 33 64 34
REMARK SMILES IDX 21 35 22 36 23 37 58 38 24 39 63 40 57 41 59 42 25 43 62 44
REMARK SMILES IDX 56 45 55 46 26 48 48 49 33 50 47 51 34 52 37 53 46 54 60 55
REMARK SMILES IDX 35 56 36 57 45 59 61 60 38 61 27 62 28 63 32 64 29 65 31 66
REMARK SMILES IDX 30 67 49 68 50 69 54 70 51 71 53 72 52 73 39 74 40 75 44 76
REMARK SMILES IDX 41 77 43 78 42 79
REMARK H PARENT 11 6 15 28 59 47 37 58
REMARK Flexibility Score: inf
ROOT
ATOM      1  C   UNL A   1      32.620  29.813  26.897  1.00  0.00     0.042 C 
ENDROOT
BRANCH   1   2
ATOM      2  C   UNL A   1      32.388  29.200  25.517  1.00  0.00     0.117 C 
BRANCH   2   3
ATOM      3  N   UNL A   1      31.286  29.834  24.808  1.00  0.00    -0.356 N 
ATOM      4  C   UNL A   1      30.418  29.362  23.876  1.00  0.00     0.223 C 
ATOM      5  O   UNL A   1      29.566  30.145  23.446  1.00  0.00    -0.275 OA
ATOM      6  H   UNL A   1      31.142  30.778  25.049  1.00  0.00     0.163 HD
BRANCH   4   7
ATOM      7  C   UNL A   1      30.454  27.927  23.380  1.00  0.00     0.082 C 
ATOM      8  N   UNL A   1      31.681  25.355  23.220  1.00  0.00    -0.342 N 
ATOM      9  C   UNL A   1      31.726  26.202  22.036  1.00  0.00     0.120 C 
ATOM     10  C   UNL A   1      30.523  25.496  24.090  1.00  0.00     0.120 C 
ATOM     11  C   UNL A   1      31.610  27.672  22.409  1.00  0.00     0.035 C 
ATOM     12  C   UNL A   1      30.365  26.937  24.547  1.00  0.00     0.035 C 
BRANCH   8  13
ATOM     13  C   UNL A   1      32.836  24.838  23.699  1.00  0.00     0.206 A 
ATOM     14  N   UNL A   1      33.402  23.712  23.140  1.00  0.00    -0.310 N 
ATOM     15  C   UNL A   1      34.608  23.484  23.758  1.00  0.00     0.070 A 
ATOM     16  N   UNL A   1      33.620  25.351  24.621  1.00  0.00    -0.213 NA
ATOM     17  C   UNL A   1      34.709  24.515  24.684  1.00  0.00     0.091 A 
ATOM     18  C   UNL A   1      35.599  22.514  23.580  1.00  0.00     0.029 A 
ATOM     19  C   UNL A   1      35.844  24.587  25.503  1.00  0.00     0.034 A 
ATOM     20  C   UNL A   1      36.724  22.600  24.401  1.00  0.00     0.006 A 
ATOM     21  C   UNL A   1      36.851  23.618  25.354  1.00  0.00    -0.049 A 
ATOM     22  C   UNL A   1      38.056  23.672  26.236  1.00  0.00     0.044 C 
BRANCH  14  23
ATOM     23  C   UNL A   1      32.903  22.970  21.999  1.00  0.00     0.122 C 
ATOM     24  C   UNL A   1      32.151  21.717  22.414  1.00  0.00     0.028 C 
ENDBRANCH  14  23
ENDBRANCH   8  13
ENDBRANCH   4   7
ENDBRANCH   2   3
ENDBRANCH   1   2
BRANCH   1  25
ATOM     25  C   UNL A   1      34.072  30.201  27.174  1.00  0.00     0.118 C 
BRANCH  25  26
ATOM     26  N   UNL A   1      34.230  31.264  28.145  1.00  0.00    -0.352 N 
ATOM     27  C   UNL A   1      35.240  31.691  28.967  1.00  0.00     0.251 C 
ATOM     28  H   UNL A   1      33.418  31.811  28.236  1.00  0.00     0.163 HD
ATOM     29  O   UNL A   1      35.040  32.746  29.560  1.00  0.00    -0.269 OA
BRANCH  27  30
ATOM     30  C   UNL A   1      36.504  30.948  29.236  1.00  0.00     0.039 A 
ATOM     31  C   UNL A   1      37.781  31.329  28.832  1.00  0.00     0.014 A 
ATOM     32  C   UNL A   1      36.353  29.713  29.902  1.00  0.00     0.014 A 
ATOM     33  C   UNL A   1      38.856  30.455  28.985  1.00  0.00     0.010 A 
ATOM     34  C   UNL A   1      37.427  28.847  30.077  1.00  0.00     0.010 A 
ATOM     35  C   UNL A   1      38.671  29.197  29.568  1.00  0.00    -0.014 A 
BRANCH  35  36
ATOM     36  C   UNL A   1      39.843  28.334  29.716  1.00  0.00     0.031 A 
ATOM     37  C   UNL A   1      40.384  28.249  31.101  1.00  0.00     0.074 A 
ATOM     38  C   UNL A   1      40.362  27.576  28.728  1.00  0.00     0.049 A 
ATOM     39  N   UNL A   1      41.560  28.586  31.520  1.00  0.00    -0.248 NA
ATOM     40  C   UNL A   1      39.467  27.822  32.171  1.00  0.00     0.031 C 
ATOM     41  C   UNL A   1      39.790  27.296  27.408  1.00  0.00     0.029 A 
ATOM     42  N   UNL A   1      41.483  26.795  28.747  1.00  0.00    -0.354 N 
ATOM     43  C   UNL A   1      41.595  28.274  32.878  1.00  0.00     0.074 A 
ATOM     44  C   UNL A   1      40.248  27.921  33.248  1.00  0.00     0.031 C 
ATOM     45  C   UNL A   1      40.429  26.234  26.863  1.00  0.00     0.029 A 
ATOM     46  C   UNL A   1      41.540  25.859  27.722  1.00  0.00     0.049 A 
ATOM     47  H   UNL A   1      42.189  26.888  29.426  1.00  0.00     0.167 HD
ATOM     48  C   UNL A   1      42.768  28.148  33.557  1.00  0.00     0.031 A 
ATOM     49  C   UNL A   1      42.395  24.810  27.624  1.00  0.00     0.031 A 
ATOM     50  C   UNL A   1      43.862  28.759  32.853  1.00  0.00     0.049 A 
ATOM     51  C   UNL A   1      43.528  25.024  28.549  1.00  0.00     0.074 A 
ATOM     52  C   UNL A   1      44.141  30.040  32.422  1.00  0.00     0.029 A 
ATOM     53  N   UNL A   1      44.721  27.935  32.169  1.00  0.00    -0.354 N 
ATOM     54  N   UNL A   1      44.479  25.884  28.345  1.00  0.00    -0.248 NA
ATOM     55  C   UNL A   1      43.398  24.553  29.917  1.00  0.00     0.031 C 
ATOM     56  C   UNL A   1      44.772  29.866  31.157  1.00  0.00     0.029 A 
ATOM     57  C   UNL A   1      44.931  28.496  30.937  1.00  0.00     0.049 A 
ATOM     58  H   UNL A   1      45.114  27.096  32.503  1.00  0.00     0.167 HD
ATOM     59  C   UNL A   1      44.731  26.426  29.594  1.00  0.00     0.074 A 
ATOM     60  C   UNL A   1      44.130  25.482  30.536  1.00  0.00     0.031 C 
ATOM     61  C   UNL A   1      45.149  27.723  29.733  1.00  0.00     0.031 A 
BRANCH  48  62
ATOM     62  C   UNL A   1      42.993  27.147  34.666  1.00  0.00    -0.014 A 
ATOM     63  C   UNL A   1      42.824  27.453  36.028  1.00  0.00     0.009 A 
ATOM     64  C   UNL A   1      43.097  25.782  34.335  1.00  0.00     0.009 A 
ATOM     65  C   UNL A   1      42.715  26.458  37.003  1.00  0.00     0.001 A 
ATOM     66  C   UNL A   1      42.944  24.782  35.303  1.00  0.00     0.001 A 
ATOM     67  C   UNL A   1      42.743  25.122  36.636  1.00  0.00     0.000 A 
ENDBRANCH  48  62
BRANCH  49  68
ATOM     68  C   UNL A   1      42.172  23.478  27.029  1.00  0.00    -0.014 A 
ATOM     69  C   UNL A   1      41.311  22.574  27.673  1.00  0.00     0.009 A 
ATOM     70  C   UNL A   1      43.043  22.981  26.047  1.00  0.00     0.009 A 
ATOM     71  C   UNL A   1      41.364  21.206  27.392  1.00  0.00     0.001 A 
ATOM     72  C   UNL A   1      43.093  21.610  25.763  1.00  0.00     0.001 A 
ATOM     73  C   UNL A   1      42.270  20.722  26.453  1.00  0.00     0.000 A 
ENDBRANCH  49  68
BRANCH  61  74
ATOM     74  C   UNL A   1      45.639  28.472  28.507  1.00  0.00    -0.014 A 
ATOM     75  C   UNL A   1      44.690  29.108  27.687  1.00  0.00     0.009 A 
ATOM     76  C   UNL A   1      46.978  28.504  28.083  1.00  0.00     0.009 A 
ATOM     77  C   UNL A   1      45.059  29.755  26.506  1.00  0.00     0.001 A 
ATOM     78  C   UNL A   1      47.361  29.229  26.954  1.00  0.00     0.001 A 
ATOM     79  C   UNL A   1      46.400  29.836  26.152  1.00  0.00     0.000 A 
ENDBRANCH  61  74
ENDBRANCH  35  36
ENDBRANCH  27  30
ENDBRANCH  25  26
ENDBRANCH   1  25
TORSDOF 12
ENDMDL
MODEL 3
REMARK VINA RESULT:     -12.0      2.202      5.753
REMARK SMILES CCn1c(N2CCC(C(=O)NCCCNC(=O)c3ccc(-c4c5nc(c(-c6ccccc6)c6ccc([nH]6)c(-c6ccccc6)c6nc(c(-c7ccccc7)c7ccc4[nH]7)C=C6)C=C5)cc3)CC2)nc2cc(C)ccc21
REMARK SMILES IDX 13 1 12 2 11 3 9 4 10 5 8 7 5 8 6 9 67 10 7 11 66 12 4 13
REMARK SMILES IDX 3 14 75 15 68 16 69 17 74 18 70 19 73 20 71 21 72 22 2 23
REMARK SMILES IDX 1 24 14 25 15 26 16 27 17 29 18 30 19 31 65 32 20 33 64 34
REMARK SMILES IDX 21 35 22 36 23 37 58 38 24 39 63 40 57 41 59 42 25 43 62 44
REMARK SMILES IDX 56 45 55 46 26 48 48 49 33 50 47 51 34 52 37 53 46 54 60 55
REMARK SMILES IDX 35 56 36 57 45 59 61 60 38 61 27 62 28 63 32 64 29 65 31 66
REMARK SMILES IDX 30 67 49 68 50 69 54 70 51 71 53 72 52 73 39 74 40 75 44 76
REMARK SMILES IDX 41 77 43 78 42 79
REMARK H PARENT 11 6 15 28 59 47 37 58
REMARK Flexibility Score: inf
ROOT
ATOM      1  C   UNL A   1      32.107  30.329  26.763  1.00  0.00     0.042 C 
ENDROOT
BRANCH   1   2
ATOM      2  C   UNL A   1      31.668  29.784  25.406  1.00  0.00     0.117 C 
BRANCH   2   3
ATOM      3  N   UNL A   1      32.770  29.703  24.458  1.00  0.00    -0.356 N 
ATOM      4  C   UNL A   1      33.346  28.648  23.826  1.00  0.00     0.223 C 
ATOM      5  O   UNL A   1      34.282  28.888  23.059  1.00  0.00    -0.275 OA
ATOM      6  H   UNL A   1      33.172  30.574  24.233  1.00  0.00     0.163 HD
BRANCH   4   7
ATOM      7  C   UNL A   1      32.865  27.221  24.018  1.00  0.00     0.082 C 
ATOM      8  N   UNL A   1      33.332  24.476  24.646  1.00  0.00    -0.342 N 
ATOM      9  C   UNL A   1      33.068  24.817  23.255  1.00  0.00     0.120 C 
ATOM     10  C   UNL A   1      32.695  25.300  25.662  1.00  0.00     0.120 C 
ATOM     11  C   UNL A   1      33.435  26.264  22.966  1.00  0.00     0.035 C 
ATOM     12  C   UNL A   1      33.054  26.765  25.470  1.00  0.00     0.035 C 
BRANCH   8  13
ATOM     13  C   UNL A   1      34.441  23.760  24.945  1.00  0.00     0.206 A 
ATOM     14  N   UNL A   1      34.483  22.394  24.757  1.00  0.00    -0.310 N 
ATOM     15  C   UNL A   1      35.754  21.959  25.045  1.00  0.00     0.070 A 
ATOM     16  N   UNL A   1      35.615  24.220  25.314  1.00  0.00    -0.213 NA
ATOM     17  C   UNL A   1      36.432  23.119  25.400  1.00  0.00     0.091 A 
ATOM     18  C   UNL A   1      36.361  20.700  25.003  1.00  0.00     0.029 A 
ATOM     19  C   UNL A   1      37.784  23.035  25.760  1.00  0.00     0.034 A 
ATOM     20  C   UNL A   1      37.707  20.633  25.362  1.00  0.00     0.006 A 
ATOM     21  C   UNL A   1      38.416  21.780  25.739  1.00  0.00    -0.049 A 
ATOM     22  C   UNL A   1      39.851  21.675  26.141  1.00  0.00     0.044 C 
BRANCH  14  23
ATOM     23  C   UNL A   1      33.428  21.564  24.211  1.00  0.00     0.122 C 
ATOM     24  C   UNL A   1      32.450  21.104  25.277  1.00  0.00     0.028 C 
ENDBRANCH  14  23
ENDBRANCH   8  13
ENDBRANCH   4   7
ENDBRANCH   2   3
ENDBRANCH   1   2
BRANCH   1  25
ATOM     25  C   UNL A   1      33.616  30.535  26.897  1.00  0.00     0.118 C 
BRANCH  25  26
ATOM     26  N   UNL A   1      33.996  31.554  27.854  1.00  0.00    -0.352 N 
ATOM     27  C   UNL A   1      35.145  31.882  28.524  1.00  0.00     0.251 C 
ATOM     28  H   UNL A   1      33.249  32.155  28.077  1.00  0.00     0.163 HD
ATOM     29  O   UNL A   1      35.116  32.930  29.160  1.00  0.00    -0.269 OA
BRANCH  27  30
ATOM     30  C   UNL A   1      36.376  31.043  28.585  1.00  0.00     0.039 A 
ATOM     31  C   UNL A   1      36.469  29.697  28.237  1.00  0.00     0.014 A 
ATOM     32  C   UNL A   1      37.519  31.678  29.114  1.00  0.00     0.014 A 
ATOM     33  C   UNL A   1      37.630  28.978  28.515  1.00  0.00     0.010 A 
ATOM     34  C   UNL A   1      38.688  30.970  29.373  1.00  0.00     0.010 A 
ATOM     35  C   UNL A   1      38.725  29.605  29.122  1.00  0.00    -0.014 A 
BRANCH  35  36
ATOM     36  C   UNL A   1      39.920  28.800  29.371  1.00  0.00     0.031 A 
ATOM     37  C   UNL A   1      40.270  28.632  30.810  1.00  0.00     0.074 A 
ATOM     38  C   UNL A   1      40.621  28.156  28.415  1.00  0.00     0.049 A 
ATOM     39  N   UNL A   1      41.351  28.999  31.416  1.00  0.00    -0.248 NA
ATOM     40  C   UNL A   1      39.245  28.068  31.704  1.00  0.00     0.031 C 
ATOM     41  C   UNL A   1      40.256  27.953  27.010  1.00  0.00     0.029 A 
ATOM     42  N   UNL A   1      41.778  27.440  28.537  1.00  0.00    -0.354 N 
ATOM     43  C   UNL A   1      41.219  28.579  32.738  1.00  0.00     0.074 A 
ATOM     44  C   UNL A   1      39.861  28.122  32.885  1.00  0.00     0.031 C 
ATOM     45  C   UNL A   1      41.034  26.977  26.486  1.00  0.00     0.029 A 
ATOM     46  C   UNL A   1      42.038  26.596  27.465  1.00  0.00     0.049 A 
ATOM     47  H   UNL A   1      42.375  27.517  29.315  1.00  0.00     0.167 HD
ATOM     48  C   UNL A   1      42.293  28.464  33.567  1.00  0.00     0.031 A 
ATOM     49  C   UNL A   1      42.967  25.609  27.412  1.00  0.00     0.031 A 
ATOM     50  C   UNL A   1      43.430  29.192  33.073  1.00  0.00     0.049 A 
ATOM     51  C   UNL A   1      43.945  25.810  28.504  1.00  0.00     0.074 A 
ATOM     52  C   UNL A   1      43.679  30.517  32.781  1.00  0.00     0.029 A 
ATOM     53  N   UNL A   1      44.429  28.476  32.460  1.00  0.00    -0.354 N 
ATOM     54  N   UNL A   1      44.855  26.735  28.501  1.00  0.00    -0.248 NA
ATOM     55  C   UNL A   1      43.660  25.221  29.801  1.00  0.00     0.031 C 
ATOM     56  C   UNL A   1      44.489  30.483  31.611  1.00  0.00     0.029 A 
ATOM     57  C   UNL A   1      44.769  29.147  31.316  1.00  0.00     0.049 A 
ATOM     58  H   UNL A   1      44.827  27.636  32.784  1.00  0.00     0.167 HD
ATOM     59  C   UNL A   1      44.895  27.186  29.810  1.00  0.00     0.074 A 
ATOM     60  C   UNL A   1      44.235  26.136  30.584  1.00  0.00     0.031 C 
ATOM     61  C   UNL A   1      45.202  28.488  30.101  1.00  0.00     0.031 A 
BRANCH  48  62
ATOM     62  C   UNL A   1      42.430  27.390  34.620  1.00  0.00    -0.014 A 
ATOM     63  C   UNL A   1      41.901  27.509  35.917  1.00  0.00     0.009 A 
ATOM     64  C   UNL A   1      42.845  26.103  34.225  1.00  0.00     0.009 A 
ATOM     65  C   UNL A   1      41.748  26.405  36.760  1.00  0.00     0.001 A 
ATOM     66  C   UNL A   1      42.652  24.987  35.049  1.00  0.00     0.001 A 
ATOM     67  C   UNL A   1      42.094  25.139  36.314  1.00  0.00     0.000 A 
ENDBRANCH  48  62
BRANCH  49  68
ATOM     68  C   UNL A   1      42.919  24.319  26.696  1.00  0.00    -0.014 A 
ATOM     69  C   UNL A   1      43.071  23.125  27.421  1.00  0.00     0.009 A 
ATOM     70  C   UNL A   1      43.065  24.273  25.301  1.00  0.00     0.009 A 
ATOM     71  C   UNL A   1      43.423  21.935  26.779  1.00  0.00     0.001 A 
ATOM     72  C   UNL A   1      43.414  23.078  24.658  1.00  0.00     0.001 A 
ATOM     73  C   UNL A   1      43.615  21.916  25.401  1.00  0.00     0.000 A 
ENDBRANCH  49  68
BRANCH  61  74
ATOM     74  C   UNL A   1      45.805  29.362  29.016  1.00  0.00    -0.014 A 
ATOM     75  C   UNL A   1      44.982  29.772  27.952  1.00  0.00     0.009 A 
ATOM     76  C   UNL A   1      47.161  29.724  28.956  1.00  0.00     0.009 A 
ATOM     77  C   UNL A   1      45.485  30.516  26.883  1.00  0.00     0.001 A 
ATOM     78  C   UNL A   1      47.645  30.546  27.937  1.00  0.00     0.001 A 
ATOM     79  C   UNL A   1      46.812  30.925  26.888  1.00  0.00     0.000 A 
ENDBRANCH  61  74
ENDBRANCH  35  36
ENDBRANCH  27  30
ENDBRANCH  25  26
ENDBRANCH   1  25
TORSDOF 12
ENDMDL
