MODEL 1
REMARK VINA RESULT:     -11.1      0.000      0.000
REMARK SMILES COC(=O)C[C@H](c1ccc(C(=O)NCCCNC(=O)c2ccc(-c3c4nc(c(-c5ccccc5)c5ccc([nH]5)c(-c5ccccc5)c5nc(c(-c6ccccc6)c6ccc3[nH]6)C=C5)C=C4)cc2)cc1)c1c(O)n[nH]c1C
REMARK SMILES IDX 14 1 13 2 11 3 12 4 10 6 7 7 8 8 69 9 9 10 68 11 6 12 5 13
REMARK SMILES IDX 3 14 4 15 2 16 1 17 70 18 71 19 75 20 73 21 74 22 76 23
REMARK SMILES IDX 72 25 15 27 16 28 17 29 18 30 19 32 20 33 21 34 67 35 22 36
REMARK SMILES IDX 66 37 23 38 24 39 25 40 60 41 26 42 65 43 59 44 61 45 27 46
REMARK SMILES IDX 64 47 58 48 57 49 28 51 50 52 35 53 49 54 36 55 39 56 48 57
REMARK SMILES IDX 62 58 37 59 38 60 47 62 63 63 40 64 29 65 30 66 34 67 31 68
REMARK SMILES IDX 33 69 32 70 51 71 52 72 56 73 53 74 55 75 54 76 41 77 42 78
REMARK SMILES IDX 46 79 43 80 45 81 44 82
REMARK H PARENT 13 5 74 24 72 26 17 31 61 50 39 61
REMARK Flexibility Score: inf
ROOT
ATOM      1  C   UNL A   1      37.057  20.688  24.647  1.00  0.00     0.118 C 
ENDROOT
BRANCH   1   2
ATOM      2  N   UNL A   1      35.765  20.151  25.019  1.00  0.00    -0.352 N 
ATOM      3  C   UNL A   1      34.524  20.714  25.162  1.00  0.00     0.251 C 
ATOM      4  O   UNL A   1      33.647  19.984  25.629  1.00  0.00    -0.269 OA
ATOM      5  H   UNL A   1      35.782  19.185  25.209  1.00  0.00     0.163 HD
BRANCH   3   6
ATOM      6  C   UNL A   1      34.164  22.090  24.705  1.00  0.00     0.039 A 
ATOM      7  C   UNL A   1      33.217  24.731  24.344  1.00  0.00    -0.040 A 
ATOM      8  C   UNL A   1      34.192  24.445  25.312  1.00  0.00     0.005 A 
ATOM      9  C   UNL A   1      32.852  23.712  23.457  1.00  0.00     0.005 A 
ATOM     10  C   UNL A   1      34.644  23.140  25.498  1.00  0.00     0.014 A 
ATOM     11  C   UNL A   1      33.343  22.412  23.622  1.00  0.00     0.014 A 
BRANCH   7  12
ATOM     12  C   UNL A   1      32.430  26.039  24.340  1.00  0.00     0.068 C 
BRANCH  12  13
ATOM     13  C   UNL A   1      31.867  26.312  25.747  1.00  0.00     0.136 C 
BRANCH  13  14
ATOM     14  C   UNL A   1      30.632  25.506  26.097  1.00  0.00     0.306 C 
ATOM     15  O   UNL A   1      29.528  25.676  25.609  1.00  0.00    -0.252 OA
BRANCH  14  16
ATOM     16  O   UNL A   1      30.923  24.595  27.072  1.00  0.00    -0.469 OA
ATOM     17  C   UNL A   1      30.820  23.226  26.668  1.00  0.00     0.282 C 
ENDBRANCH  14  16
ENDBRANCH  13  14
ENDBRANCH  12  13
BRANCH  12  18
ATOM     18  C   UNL A   1      33.263  27.105  23.675  1.00  0.00     0.044 A 
ATOM     19  C   UNL A   1      33.484  27.269  22.290  1.00  0.00     0.234 A 
ATOM     20  C   UNL A   1      33.889  28.235  24.196  1.00  0.00     0.040 A 
ATOM     21  N   UNL A   1      34.242  28.296  21.950  1.00  0.00    -0.137 NA
ATOM     22  N   UNL A   1      34.510  28.855  23.139  1.00  0.00    -0.279 N 
ATOM     23  C   UNL A   1      33.967  28.834  25.552  1.00  0.00     0.066 C 
ATOM     24  H   UNL A   1      35.099  29.638  23.244  1.00  0.00     0.190 HD
BRANCH  19  25
ATOM     25  O   UNL A   1      33.033  26.559  21.260  1.00  0.00    -0.492 OA
ATOM     26  H   UNL A   1      33.473  25.771  21.006  1.00  0.00     0.295 HD
ENDBRANCH  19  25
ENDBRANCH  12  18
ENDBRANCH   7  12
ENDBRANCH   3   6
ENDBRANCH   1   2
BRANCH   1  27
ATOM     27  C   UNL A   1      38.139  19.621  24.806  1.00  0.00     0.042 C 
BRANCH  27  28
ATOM     28  C   UNL A   1      39.034  19.880  26.014  1.00  0.00     0.118 C 
BRANCH  28  29
ATOM     29  N   UNL A   1      40.297  19.167  25.899  1.00  0.00    -0.352 N 
ATOM     30  C   UNL A   1      41.578  19.644  25.990  1.00  0.00     0.251 C 
ATOM     31  H   UNL A   1      40.219  18.200  25.732  1.00  0.00     0.163 HD
ATOM     32  O   UNL A   1      42.513  18.951  25.603  1.00  0.00    -0.269 OA
BRANCH  30  33
ATOM     33  C   UNL A   1      41.839  20.985  26.554  1.00  0.00     0.039 A 
ATOM     34  C   UNL A   1      42.164  22.027  25.681  1.00  0.00     0.014 A 
ATOM     35  C   UNL A   1      41.825  21.205  27.934  1.00  0.00     0.014 A 
ATOM     36  C   UNL A   1      42.447  23.295  26.190  1.00  0.00     0.010 A 
ATOM     37  C   UNL A   1      42.042  22.485  28.437  1.00  0.00     0.010 A 
ATOM     38  C   UNL A   1      42.374  23.536  27.571  1.00  0.00    -0.014 A 
BRANCH  38  39
ATOM     39  C   UNL A   1      42.665  24.880  28.125  1.00  0.00     0.031 A 
ATOM     40  C   UNL A   1      44.065  25.239  28.540  1.00  0.00     0.074 A 
ATOM     41  C   UNL A   1      41.661  25.763  28.291  1.00  0.00     0.049 A 
ATOM     42  N   UNL A   1      44.511  26.352  29.067  1.00  0.00    -0.248 NA
ATOM     43  C   UNL A   1      45.097  24.205  28.362  1.00  0.00     0.031 C 
ATOM     44  C   UNL A   1      40.255  25.518  27.962  1.00  0.00     0.029 A 
ATOM     45  N   UNL A   1      41.672  27.043  28.780  1.00  0.00    -0.354 N 
ATOM     46  C   UNL A   1      45.865  26.145  29.297  1.00  0.00     0.074 A 
ATOM     47  C   UNL A   1      46.160  24.787  28.898  1.00  0.00     0.031 C 
ATOM     48  C   UNL A   1      39.544  26.624  28.233  1.00  0.00     0.029 A 
ATOM     49  C   UNL A   1      40.435  27.639  28.784  1.00  0.00     0.049 A 
ATOM     50  H   UNL A   1      42.488  27.492  29.098  1.00  0.00     0.167 HD
ATOM     51  C   UNL A   1      46.785  27.013  29.779  1.00  0.00     0.031 A 
ATOM     52  C   UNL A   1      40.061  28.867  29.187  1.00  0.00     0.031 A 
ATOM     53  C   UNL A   1      46.493  28.368  30.166  1.00  0.00     0.049 A 
ATOM     54  C   UNL A   1      41.101  29.813  29.718  1.00  0.00     0.074 A 
ATOM     55  C   UNL A   1      47.364  29.343  30.619  1.00  0.00     0.029 A 
ATOM     56  N   UNL A   1      45.229  28.937  30.145  1.00  0.00    -0.354 N 
ATOM     57  N   UNL A   1      42.390  29.623  29.868  1.00  0.00    -0.248 NA
ATOM     58  C   UNL A   1      40.636  31.147  30.119  1.00  0.00     0.031 C 
ATOM     59  C   UNL A   1      46.619  30.490  30.912  1.00  0.00     0.029 A 
ATOM     60  C   UNL A   1      45.294  30.245  30.593  1.00  0.00     0.049 A 
ATOM     61  H   UNL A   1      44.408  28.479  29.853  1.00  0.00     0.167 HD
ATOM     62  C   UNL A   1      42.893  30.821  30.357  1.00  0.00     0.074 A 
ATOM     63  C   UNL A   1      41.774  31.735  30.460  1.00  0.00     0.031 C 
ATOM     64  C   UNL A   1      44.168  31.138  30.690  1.00  0.00     0.031 A 
BRANCH  51  65
ATOM     65  C   UNL A   1      48.198  26.517  29.917  1.00  0.00    -0.014 A 
ATOM     66  C   UNL A   1      48.631  25.875  31.089  1.00  0.00     0.009 A 
ATOM     67  C   UNL A   1      49.101  26.669  28.853  1.00  0.00     0.009 A 
ATOM     68  C   UNL A   1      49.949  25.431  31.207  1.00  0.00     0.001 A 
ATOM     69  C   UNL A   1      50.411  26.198  28.964  1.00  0.00     0.001 A 
ATOM     70  C   UNL A   1      50.837  25.589  30.143  1.00  0.00     0.000 A 
ENDBRANCH  51  65
BRANCH  52  71
ATOM     71  C   UNL A   1      38.639  29.283  29.081  1.00  0.00    -0.014 A 
ATOM     72  C   UNL A   1      38.139  29.807  27.879  1.00  0.00     0.009 A 
ATOM     73  C   UNL A   1      37.774  29.159  30.179  1.00  0.00     0.009 A 
ATOM     74  C   UNL A   1      36.810  30.223  27.787  1.00  0.00     0.001 A 
ATOM     75  C   UNL A   1      36.437  29.550  30.076  1.00  0.00     0.001 A 
ATOM     76  C   UNL A   1      35.959  30.091  28.882  1.00  0.00     0.000 A 
ENDBRANCH  52  71
BRANCH  64  77
ATOM     77  C   UNL A   1      44.421  32.539  31.166  1.00  0.00    -0.014 A 
ATOM     78  C   UNL A   1      44.368  32.866  32.529  1.00  0.00     0.009 A 
ATOM     79  C   UNL A   1      44.744  33.539  30.236  1.00  0.00     0.009 A 
ATOM     80  C   UNL A   1      44.601  34.178  32.948  1.00  0.00     0.001 A 
ATOM     81  C   UNL A   1      45.003  34.843  30.661  1.00  0.00     0.001 A 
ATOM     82  C   UNL A   1      44.921  35.164  32.015  1.00  0.00     0.000 A 
ENDBRANCH  64  77
ENDBRANCH  38  39
ENDBRANCH  30  33
ENDBRANCH  28  29
ENDBRANCH  27  28
ENDBRANCH   1  27
TORSDOF 16
ENDMDL
MODEL 2
REMARK VINA RESULT:     -11.1      2.714      7.093
REMARK SMILES COC(=O)C[C@H](c1ccc(C(=O)NCCCNC(=O)c2ccc(-c3c4nc(c(-c5ccccc5)c5ccc([nH]5)c(-c5ccccc5)c5nc(c(-c6ccccc6)c6ccc3[nH]6)C=C5)C=C4)cc2)cc1)c1c(O)n[nH]c1C
REMARK SMILES IDX 14 1 13 2 11 3 12 4 10 6 7 7 8 8 69 9 9 10 68 11 6 12 5 13
REMARK SMILES IDX 3 14 4 15 2 16 1 17 70 18 71 19 75 20 73 21 74 22 76 23
REMARK SMILES IDX 72 25 15 27 16 28 17 29 18 30 19 32 20 33 21 34 67 35 22 36
REMARK SMILES IDX 66 37 23 38 24 39 25 40 60 41 26 42 65 43 59 44 61 45 27 46
REMARK SMILES IDX 64 47 58 48 57 49 28 51 50 52 35 53 49 54 36 55 39 56 48 57
REMARK SMILES IDX 62 58 37 59 38 60 47 62 63 63 40 64 29 65 30 66 34 67 31 68
REMARK SMILES IDX 33 69 32 70 51 71 52 72 56 73 53 74 55 75 54 76 41 77 42 78
REMARK SMILES IDX 46 79 43 80 45 81 44 82
REMARK H PARENT 13 5 74 24 72 26 17 31 61 50 39 61
REMARK Flexibility Score: inf
ROOT
ATOM      1  C   UNL A   1      34.328  23.465  24.766  1.00  0.00     0.118 C 
ENDROOT
BRANCH   1   2
ATOM      2  N   UNL A   1      33.811  22.873  23.549  1.00  0.00    -0.352 N 
ATOM      3  C   UNL A   1      32.722  23.149  22.764  1.00  0.00     0.251 C 
ATOM      4  O   UNL A   1      32.495  22.351  21.852  1.00  0.00    -0.269 OA
ATOM      5  H   UNL A   1      34.352  22.120  23.219  1.00  0.00     0.163 HD
BRANCH   3   6
ATOM      6  C   UNL A   1      31.881  24.377  22.889  1.00  0.00     0.039 A 
ATOM      7  C   UNL A   1      30.720  26.896  23.445  1.00  0.00    -0.040 A 
ATOM      8  C   UNL A   1      31.867  26.797  22.641  1.00  0.00     0.005 A 
ATOM      9  C   UNL A   1      30.077  25.713  23.821  1.00  0.00     0.005 A 
ATOM     10  C   UNL A   1      32.446  25.556  22.383  1.00  0.00     0.014 A 
ATOM     11  C   UNL A   1      30.639  24.467  23.521  1.00  0.00     0.014 A 
BRANCH   7  12
ATOM     12  C   UNL A   1      30.264  28.219  24.055  1.00  0.00     0.068 C 
BRANCH  12  13
ATOM     13  C   UNL A   1      31.466  28.942  24.689  1.00  0.00     0.136 C 
BRANCH  13  14
ATOM     14  C   UNL A   1      31.676  28.640  26.160  1.00  0.00     0.306 C 
ATOM     15  O   UNL A   1      31.726  27.521  26.642  1.00  0.00    -0.252 OA
BRANCH  14  16
ATOM     16  O   UNL A   1      31.752  29.801  26.874  1.00  0.00    -0.469 OA
ATOM     17  C   UNL A   1      33.065  30.363  26.974  1.00  0.00     0.282 C 
ENDBRANCH  14  16
ENDBRANCH  13  14
ENDBRANCH  12  13
BRANCH  12  18
ATOM     18  C   UNL A   1      29.428  28.958  23.041  1.00  0.00     0.044 A 
ATOM     19  C   UNL A   1      29.896  29.729  21.954  1.00  0.00     0.234 A 
ATOM     20  C   UNL A   1      28.052  28.968  22.821  1.00  0.00     0.040 A 
ATOM     21  N   UNL A   1      28.961  30.266  21.190  1.00  0.00    -0.137 NA
ATOM     22  N   UNL A   1      27.836  29.816  21.762  1.00  0.00    -0.279 N 
ATOM     23  C   UNL A   1      26.906  28.269  23.454  1.00  0.00     0.066 C 
ATOM     24  H   UNL A   1      26.936  30.070  21.452  1.00  0.00     0.190 HD
BRANCH  19  25
ATOM     25  O   UNL A   1      31.140  29.991  21.561  1.00  0.00    -0.492 OA
ATOM     26  H   UNL A   1      31.543  29.460  20.902  1.00  0.00     0.295 HD
ENDBRANCH  19  25
ENDBRANCH  12  18
ENDBRANCH   7  12
ENDBRANCH   3   6
ENDBRANCH   1   2
BRANCH   1  27
ATOM     27  C   UNL A   1      35.845  23.624  24.673  1.00  0.00     0.042 C 
BRANCH  27  28
ATOM     28  C   UNL A   1      36.516  23.570  26.042  1.00  0.00     0.118 C 
BRANCH  28  29
ATOM     29  N   UNL A   1      37.618  22.620  26.054  1.00  0.00    -0.352 N 
ATOM     30  C   UNL A   1      38.954  22.838  26.266  1.00  0.00     0.251 C 
ATOM     31  H   UNL A   1      37.367  21.683  25.883  1.00  0.00     0.163 HD
ATOM     32  O   UNL A   1      39.766  21.966  25.975  1.00  0.00    -0.269 OA
BRANCH  30  33
ATOM     33  C   UNL A   1      39.420  24.115  26.848  1.00  0.00     0.039 A 
ATOM     34  C   UNL A   1      39.162  24.369  28.197  1.00  0.00     0.014 A 
ATOM     35  C   UNL A   1      40.051  25.081  26.059  1.00  0.00     0.014 A 
ATOM     36  C   UNL A   1      39.563  25.581  28.762  1.00  0.00     0.010 A 
ATOM     37  C   UNL A   1      40.510  26.260  26.639  1.00  0.00     0.010 A 
ATOM     38  C   UNL A   1      40.253  26.529  27.990  1.00  0.00    -0.014 A 
BRANCH  38  39
ATOM     39  C   UNL A   1      40.690  27.817  28.580  1.00  0.00     0.031 A 
ATOM     40  C   UNL A   1      39.701  28.931  28.780  1.00  0.00     0.074 A 
ATOM     41  C   UNL A   1      41.987  27.996  28.897  1.00  0.00     0.049 A 
ATOM     42  N   UNL A   1      39.897  30.135  29.256  1.00  0.00    -0.248 NA
ATOM     43  C   UNL A   1      38.311  28.668  28.372  1.00  0.00     0.031 C 
ATOM     44  C   UNL A   1      43.049  27.005  28.713  1.00  0.00     0.029 A 
ATOM     45  N   UNL A   1      42.630  29.079  29.438  1.00  0.00    -0.354 N 
ATOM     46  C   UNL A   1      38.666  30.774  29.188  1.00  0.00     0.074 A 
ATOM     47  C   UNL A   1      37.739  29.844  28.583  1.00  0.00     0.031 C 
ATOM     48  C   UNL A   1      44.207  27.516  29.162  1.00  0.00     0.029 A 
ATOM     49  C   UNL A   1      43.975  28.877  29.631  1.00  0.00     0.049 A 
ATOM     50  H   UNL A   1      42.172  29.920  29.668  1.00  0.00     0.167 HD
ATOM     51  C   UNL A   1      38.331  32.016  29.610  1.00  0.00     0.031 A 
ATOM     52  C   UNL A   1      44.916  29.699  30.130  1.00  0.00     0.031 A 
ATOM     53  C   UNL A   1      39.252  32.937  30.221  1.00  0.00     0.049 A 
ATOM     54  C   UNL A   1      44.519  31.073  30.592  1.00  0.00     0.074 A 
ATOM     55  C   UNL A   1      39.000  34.200  30.728  1.00  0.00     0.029 A 
ATOM     56  N   UNL A   1      40.603  32.691  30.408  1.00  0.00    -0.354 N 
ATOM     57  N   UNL A   1      43.336  31.639  30.580  1.00  0.00    -0.248 NA
ATOM     58  C   UNL A   1      45.586  31.915  31.149  1.00  0.00     0.031 C 
ATOM     59  C   UNL A   1      40.209  34.735  31.184  1.00  0.00     0.029 A 
ATOM     60  C   UNL A   1      41.203  33.786  31.007  1.00  0.00     0.049 A 
ATOM     61  H   UNL A   1      41.067  31.861  30.153  1.00  0.00     0.167 HD
ATOM     62  C   UNL A   1      43.512  32.892  31.152  1.00  0.00     0.074 A 
ATOM     63  C   UNL A   1      44.910  32.996  31.515  1.00  0.00     0.031 C 
ATOM     64  C   UNL A   1      42.597  33.870  31.358  1.00  0.00     0.031 A 
BRANCH  51  65
ATOM     65  C   UNL A   1      36.904  32.450  29.417  1.00  0.00    -0.014 A 
ATOM     66  C   UNL A   1      35.941  32.248  30.419  1.00  0.00     0.009 A 
ATOM     67  C   UNL A   1      36.522  33.092  28.229  1.00  0.00     0.009 A 
ATOM     68  C   UNL A   1      34.618  32.645  30.220  1.00  0.00     0.001 A 
ATOM     69  C   UNL A   1      35.203  33.514  28.045  1.00  0.00     0.001 A 
ATOM     70  C   UNL A   1      34.250  33.280  29.035  1.00  0.00     0.000 A 
ENDBRANCH  51  65
BRANCH  52  71
ATOM     71  C   UNL A   1      46.323  29.236  30.243  1.00  0.00    -0.014 A 
ATOM     72  C   UNL A   1      46.768  28.593  31.408  1.00  0.00     0.009 A 
ATOM     73  C   UNL A   1      47.228  29.435  29.189  1.00  0.00     0.009 A 
ATOM     74  C   UNL A   1      48.097  28.182  31.526  1.00  0.00     0.001 A 
ATOM     75  C   UNL A   1      48.550  28.997  29.298  1.00  0.00     0.001 A 
ATOM     76  C   UNL A   1      48.985  28.380  30.471  1.00  0.00     0.000 A 
ENDBRANCH  52  71
BRANCH  64  77
ATOM     77  C   UNL A   1      43.077  35.121  32.036  1.00  0.00    -0.014 A 
ATOM     78  C   UNL A   1      43.563  36.209  31.295  1.00  0.00     0.009 A 
ATOM     79  C   UNL A   1      43.013  35.220  33.434  1.00  0.00     0.009 A 
ATOM     80  C   UNL A   1      44.011  37.360  31.947  1.00  0.00     0.001 A 
ATOM     81  C   UNL A   1      43.436  36.383  34.081  1.00  0.00     0.001 A 
ATOM     82  C   UNL A   1      43.943  37.448  33.338  1.00  0.00     0.000 A 
ENDBRANCH  64  77
ENDBRANCH  38  39
ENDBRANCH  30  33
ENDBRANCH  28  29
ENDBRANCH  27  28
ENDBRANCH   1  27
TORSDOF 16
ENDMDL
MODEL 3
REMARK VINA RESULT:     -11.1      3.319      8.890
REMARK SMILES COC(=O)C[C@H](c1ccc(C(=O)NCCCNC(=O)c2ccc(-c3c4nc(c(-c5ccccc5)c5ccc([nH]5)c(-c5ccccc5)c5nc(c(-c6ccccc6)c6ccc3[nH]6)C=C5)C=C4)cc2)cc1)c1c(O)n[nH]c1C
REMARK SMILES IDX 14 1 13 2 11 3 12 4 10 6 7 7 8 8 69 9 9 10 68 11 6 12 5 13
REMARK SMILES IDX 3 14 4 15 2 16 1 17 70 18 71 19 75 20 73 21 74 22 76 23
REMARK SMILES IDX 72 25 15 27 16 28 17 29 18 30 19 32 20 33 21 34 67 35 22 36
REMARK SMILES IDX 66 37 23 38 24 39 25 40 60 41 26 42 65 43 59 44 61 45 27 46
REMARK SMILES IDX 64 47 58 48 57 49 28 51 50 52 35 53 49 54 36 55 39 56 48 57
REMARK SMILES IDX 62 58 37 59 38 60 47 62 63 63 40 64 29 65 30 66 34 67 31 68
REMARK SMILES IDX 33 69 32 70 51 71 52 72 56 73 53 74 55 75 54 76 41 77 42 78
REMARK SMILES IDX 46 79 43 80 45 81 44 82
REMARK H PARENT 13 5 74 24 72 26 17 31 61 50 39 61
REMARK Flexibility Score: inf
ROOT
ATOM      1  C   UNL A   1      31.675  30.678  26.677  1.00  0.00     0.118 C 
ENDROOT
BRANCH   1   2
ATOM      2  N   UNL A   1      32.986  30.337  27.187  1.00  0.00    -0.352 N 
ATOM      3  C   UNL A   1      33.745  29.198  27.129  1.00  0.00     0.251 C 
ATOM      4  O   UNL A   1      34.782  29.202  27.795  1.00  0.00    -0.269 OA
ATOM      5  H   UNL A   1      33.420  31.073  27.675  1.00  0.00     0.163 HD
BRANCH   3   6
ATOM      6  C   UNL A   1      33.443  28.026  26.252  1.00  0.00     0.039 A 
ATOM      7  C   UNL A   1      33.104  25.504  25.017  1.00  0.00    -0.040 A 
ATOM      8  C   UNL A   1      32.382  25.839  26.173  1.00  0.00     0.005 A 
ATOM      9  C   UNL A   1      33.864  26.506  24.403  1.00  0.00     0.005 A 
ATOM     10  C   UNL A   1      32.563  27.076  26.788  1.00  0.00     0.014 A 
ATOM     11  C   UNL A   1      34.008  27.762  25.003  1.00  0.00     0.014 A 
BRANCH   7  12
ATOM     12  C   UNL A   1      33.225  24.066  24.518  1.00  0.00     0.068 C 
BRANCH  12  13
ATOM     13  C   UNL A   1      33.991  24.041  23.183  1.00  0.00     0.136 C 
BRANCH  13  14
ATOM     14  C   UNL A   1      33.197  23.495  22.013  1.00  0.00     0.306 C 
ATOM     15  O   UNL A   1      32.609  22.427  22.007  1.00  0.00    -0.252 OA
BRANCH  14  16
ATOM     16  O   UNL A   1      33.276  24.349  20.950  1.00  0.00    -0.469 OA
ATOM     17  C   UNL A   1      32.527  25.560  21.092  1.00  0.00     0.282 C 
ENDBRANCH  14  16
ENDBRANCH  13  14
ENDBRANCH  12  13
BRANCH  12  18
ATOM     18  C   UNL A   1      33.715  23.200  25.650  1.00  0.00     0.044 A 
ATOM     19  C   UNL A   1      32.996  22.182  26.314  1.00  0.00     0.234 A 
ATOM     20  C   UNL A   1      34.979  23.072  26.224  1.00  0.00     0.040 A 
ATOM     21  N   UNL A   1      33.653  21.548  27.269  1.00  0.00    -0.137 NA
ATOM     22  N   UNL A   1      34.857  22.135  27.221  1.00  0.00    -0.279 N 
ATOM     23  C   UNL A   1      36.299  23.692  25.950  1.00  0.00     0.066 C 
ATOM     24  H   UNL A   1      35.588  21.914  27.844  1.00  0.00     0.190 HD
BRANCH  19  25
ATOM     25  O   UNL A   1      31.756  21.743  26.120  1.00  0.00    -0.492 OA
ATOM     26  H   UNL A   1      31.510  21.385  25.289  1.00  0.00     0.295 HD
ENDBRANCH  19  25
ENDBRANCH  12  18
ENDBRANCH   7  12
ENDBRANCH   3   6
ENDBRANCH   1   2
BRANCH   1  27
ATOM     27  C   UNL A   1      31.410  32.172  26.856  1.00  0.00     0.042 C 
BRANCH  27  28
ATOM     28  C   UNL A   1      32.701  32.982  26.929  1.00  0.00     0.118 C 
BRANCH  28  29
ATOM     29  N   UNL A   1      32.527  34.183  27.732  1.00  0.00    -0.352 N 
ATOM     30  C   UNL A   1      33.184  34.574  28.869  1.00  0.00     0.251 C 
ATOM     31  H   UNL A   1      31.835  34.806  27.412  1.00  0.00     0.163 HD
ATOM     32  O   UNL A   1      32.724  35.480  29.556  1.00  0.00    -0.269 OA
BRANCH  30  33
ATOM     33  C   UNL A   1      34.445  33.913  29.269  1.00  0.00     0.039 A 
ATOM     34  C   UNL A   1      34.402  32.941  30.273  1.00  0.00     0.014 A 
ATOM     35  C   UNL A   1      35.668  34.288  28.707  1.00  0.00     0.014 A 
ATOM     36  C   UNL A   1      35.582  32.326  30.692  1.00  0.00     0.010 A 
ATOM     37  C   UNL A   1      36.835  33.626  29.077  1.00  0.00     0.010 A 
ATOM     38  C   UNL A   1      36.806  32.654  30.087  1.00  0.00    -0.014 A 
BRANCH  38  39
ATOM     39  C   UNL A   1      38.066  32.003  30.518  1.00  0.00     0.031 A 
ATOM     40  C   UNL A   1      38.912  32.630  31.592  1.00  0.00     0.074 A 
ATOM     41  C   UNL A   1      38.468  30.868  29.914  1.00  0.00     0.049 A 
ATOM     42  N   UNL A   1      40.056  32.225  32.083  1.00  0.00    -0.248 NA
ATOM     43  C   UNL A   1      38.421  33.890  32.173  1.00  0.00     0.031 C 
ATOM     44  C   UNL A   1      37.753  30.184  28.834  1.00  0.00     0.029 A 
ATOM     45  N   UNL A   1      39.578  30.092  30.124  1.00  0.00    -0.354 N 
ATOM     46  C   UNL A   1      40.427  33.185  33.016  1.00  0.00     0.074 A 
ATOM     47  C   UNL A   1      39.413  34.216  32.989  1.00  0.00     0.031 C 
ATOM     48  C   UNL A   1      38.430  29.075  28.495  1.00  0.00     0.029 A 
ATOM     49  C   UNL A   1      39.638  28.988  29.308  1.00  0.00     0.049 A 
ATOM     50  H   UNL A   1      40.267  30.305  30.794  1.00  0.00     0.167 HD
ATOM     51  C   UNL A   1      41.504  33.199  33.836  1.00  0.00     0.031 A 
ATOM     52  C   UNL A   1      40.564  28.016  29.226  1.00  0.00     0.031 A 
ATOM     53  C   UNL A   1      42.506  32.168  33.870  1.00  0.00     0.049 A 
ATOM     54  C   UNL A   1      41.750  28.053  30.147  1.00  0.00     0.074 A 
ATOM     55  C   UNL A   1      43.610  32.063  34.699  1.00  0.00     0.029 A 
ATOM     56  N   UNL A   1      42.525  31.061  33.036  1.00  0.00    -0.354 N 
ATOM     57  N   UNL A   1      42.053  28.935  31.069  1.00  0.00    -0.248 NA
ATOM     58  C   UNL A   1      42.714  26.951  30.026  1.00  0.00     0.031 C 
ATOM     59  C   UNL A   1      44.319  30.913  34.337  1.00  0.00     0.029 A 
ATOM     60  C   UNL A   1      43.630  30.276  33.318  1.00  0.00     0.049 A 
ATOM     61  H   UNL A   1      41.851  30.862  32.345  1.00  0.00     0.167 HD
ATOM     62  C   UNL A   1      43.227  28.481  31.655  1.00  0.00     0.074 A 
ATOM     63  C   UNL A   1      43.571  27.238  30.996  1.00  0.00     0.031 C 
ATOM     64  C   UNL A   1      43.956  29.043  32.649  1.00  0.00     0.031 A 
BRANCH  51  65
ATOM     65  C   UNL A   1      41.652  34.374  34.763  1.00  0.00    -0.014 A 
ATOM     66  C   UNL A   1      41.143  34.337  36.071  1.00  0.00     0.009 A 
ATOM     67  C   UNL A   1      42.331  35.524  34.332  1.00  0.00     0.009 A 
ATOM     68  C   UNL A   1      41.278  35.441  36.915  1.00  0.00     0.001 A 
ATOM     69  C   UNL A   1      42.489  36.616  35.188  1.00  0.00     0.001 A 
ATOM     70  C   UNL A   1      41.953  36.578  36.475  1.00  0.00     0.000 A 
ENDBRANCH  51  65
BRANCH  52  71
ATOM     71  C   UNL A   1      40.393  26.909  28.250  1.00  0.00    -0.014 A 
ATOM     72  C   UNL A   1      40.967  26.993  26.973  1.00  0.00     0.009 A 
ATOM     73  C   UNL A   1      39.656  25.764  28.589  1.00  0.00     0.009 A 
ATOM     74  C   UNL A   1      40.785  25.965  26.046  1.00  0.00     0.001 A 
ATOM     75  C   UNL A   1      39.498  24.724  27.670  1.00  0.00     0.001 A 
ATOM     76  C   UNL A   1      40.055  24.831  26.396  1.00  0.00     0.000 A 
ENDBRANCH  52  71
BRANCH  64  77
ATOM     77  C   UNL A   1      45.177  28.298  33.105  1.00  0.00    -0.014 A 
ATOM     78  C   UNL A   1      45.103  27.327  34.115  1.00  0.00     0.009 A 
ATOM     79  C   UNL A   1      46.414  28.553  32.492  1.00  0.00     0.009 A 
ATOM     80  C   UNL A   1      46.253  26.651  34.527  1.00  0.00     0.001 A 
ATOM     81  C   UNL A   1      47.556  27.855  32.888  1.00  0.00     0.001 A 
ATOM     82  C   UNL A   1      47.477  26.913  33.912  1.00  0.00     0.000 A 
ENDBRANCH  64  77
ENDBRANCH  38  39
ENDBRANCH  30  33
ENDBRANCH  28  29
ENDBRANCH  27  28
ENDBRANCH   1  27
TORSDOF 16
ENDMDL
