MODEL 1
REMARK VINA RESULT:     -11.1      0.000      0.000
REMARK SMILES CC[C@H](C)[N@@H+]1[C@@H](C(=O)NCCCNC(=O)c2ccc(-c3c4nc(c(-c5ccccc5)c5ccc([nH]5)c(-c5ccccc5)c5nc(c(-c6ccccc6)c6ccc3[nH]6)C=C5)C=C4)cc2)CC[C@H]2CCCC[C@H]21
REMARK SMILES IDX 11 1 10 2 9 3 7 4 8 5 6 7 5 8 71 9 64 11 66 12 70 13 65 14
REMARK SMILES IDX 67 15 69 16 68 17 3 18 4 19 2 20 1 21 12 22 13 23 14 24
REMARK SMILES IDX 15 26 16 27 17 28 63 29 18 30 62 31 19 32 20 33 21 34 56 35
REMARK SMILES IDX 22 36 61 37 55 38 57 39 23 40 60 41 54 42 53 43 24 45 46 46
REMARK SMILES IDX 31 47 45 48 32 49 35 50 44 51 58 52 33 53 34 54 43 56 59 57
REMARK SMILES IDX 36 58 25 59 26 60 30 61 27 62 29 63 28 64 47 65 48 66 52 67
REMARK SMILES IDX 49 68 51 69 50 70 37 71 38 72 42 73 39 74 41 75 40 76
REMARK H PARENT 9 6 5 10 13 25 57 44 35 55
REMARK Flexibility Score: inf
ROOT
ATOM      1  C   UNL A   1      37.886  19.570  24.994  1.00  0.00     0.042 C 
ENDROOT
BRANCH   1   2
ATOM      2  C   UNL A   1      36.672  20.490  25.003  1.00  0.00     0.118 C 
BRANCH   2   3
ATOM      3  N   UNL A   1      36.823  21.555  24.034  1.00  0.00    -0.351 N 
ATOM      4  C   UNL A   1      36.032  22.638  23.809  1.00  0.00     0.278 C 
ATOM      5  O   UNL A   1      36.215  23.251  22.750  1.00  0.00    -0.268 OA
ATOM      6  H   UNL A   1      37.614  21.484  23.453  1.00  0.00     0.163 HD
BRANCH   4   7
ATOM      7  C   UNL A   1      34.904  23.063  24.780  1.00  0.00     0.274 C 
ATOM      8  N   UNL A   1      33.531  22.656  24.320  1.00  0.00    -0.320 N 
ATOM      9  C   UNL A   1      32.473  23.416  25.072  1.00  0.00     0.187 C 
ATOM     10  H   UNL A   1      33.487  22.912  23.334  1.00  0.00     0.349 HD
ATOM     11  C   UNL A   1      35.155  24.571  24.987  1.00  0.00     0.076 C 
ATOM     12  C   UNL A   1      32.697  24.951  25.141  1.00  0.00     0.048 C 
ATOM     13  C   UNL A   1      31.029  23.266  24.549  1.00  0.00     0.065 C 
ATOM     14  C   UNL A   1      34.052  25.258  25.763  1.00  0.00     0.016 C 
ATOM     15  C   UNL A   1      32.508  25.678  23.794  1.00  0.00     0.010 C 
ATOM     16  C   UNL A   1      30.869  23.805  23.129  1.00  0.00     0.006 C 
ATOM     17  C   UNL A   1      31.275  25.265  22.992  1.00  0.00     0.001 C 
BRANCH   8  18
ATOM     18  C   UNL A   1      33.267  21.157  24.318  1.00  0.00     0.181 C 
ATOM     19  C   UNL A   1      32.794  20.706  25.717  1.00  0.00     0.075 C 
BRANCH  18  20
ATOM     20  C   UNL A   1      32.369  20.502  23.205  1.00  0.00     0.061 C 
ATOM     21  C   UNL A   1      32.316  18.974  23.132  1.00  0.00     0.010 C 
ENDBRANCH  18  20
ENDBRANCH   8  18
ENDBRANCH   4   7
ENDBRANCH   2   3
ENDBRANCH   1   2
BRANCH   1  22
ATOM     22  C   UNL A   1      39.060  20.122  25.790  1.00  0.00     0.118 C 
BRANCH  22  23
ATOM     23  N   UNL A   1      40.186  19.200  25.823  1.00  0.00    -0.352 N 
ATOM     24  C   UNL A   1      41.514  19.455  26.050  1.00  0.00     0.251 C 
ATOM     25  H   UNL A   1      39.961  18.255  25.660  1.00  0.00     0.163 HD
ATOM     26  O   UNL A   1      42.352  18.584  25.845  1.00  0.00    -0.269 OA
BRANCH  24  27
ATOM     27  C   UNL A   1      41.936  20.790  26.520  1.00  0.00     0.039 A 
ATOM     28  C   UNL A   1      42.326  21.744  25.577  1.00  0.00     0.014 A 
ATOM     29  C   UNL A   1      41.953  21.101  27.883  1.00  0.00     0.014 A 
ATOM     30  C   UNL A   1      42.680  23.026  25.998  1.00  0.00     0.010 A 
ATOM     31  C   UNL A   1      42.224  22.402  28.294  1.00  0.00     0.010 A 
ATOM     32  C   UNL A   1      42.599  23.376  27.356  1.00  0.00    -0.014 A 
BRANCH  32  33
ATOM     33  C   UNL A   1      42.911  24.753  27.812  1.00  0.00     0.031 A 
ATOM     34  C   UNL A   1      44.340  25.173  28.027  1.00  0.00     0.074 A 
ATOM     35  C   UNL A   1      41.906  25.614  28.069  1.00  0.00     0.049 A 
ATOM     36  N   UNL A   1      44.807  26.317  28.458  1.00  0.00    -0.248 NA
ATOM     37  C   UNL A   1      45.380  24.171  27.738  1.00  0.00     0.031 C 
ATOM     38  C   UNL A   1      40.478  25.321  27.929  1.00  0.00     0.029 A 
ATOM     39  N   UNL A   1      41.936  26.916  28.502  1.00  0.00    -0.354 N 
ATOM     40  C   UNL A   1      46.188  26.171  28.495  1.00  0.00     0.074 A 
ATOM     41  C   UNL A   1      46.481  24.810  28.102  1.00  0.00     0.031 C 
ATOM     42  C   UNL A   1      39.771  26.420  28.237  1.00  0.00     0.029 A 
ATOM     43  C   UNL A   1      40.690  27.480  28.637  1.00  0.00     0.049 A 
ATOM     44  H   UNL A   1      42.770  27.399  28.700  1.00  0.00     0.167 HD
ATOM     45  C   UNL A   1      47.131  27.091  28.804  1.00  0.00     0.031 A 
ATOM     46  C   UNL A   1      40.329  28.713  29.041  1.00  0.00     0.031 A 
ATOM     47  C   UNL A   1      46.843  28.446  29.192  1.00  0.00     0.049 A 
ATOM     48  C   UNL A   1      41.398  29.701  29.419  1.00  0.00     0.074 A 
ATOM     49  C   UNL A   1      47.731  29.462  29.498  1.00  0.00     0.029 A 
ATOM     50  N   UNL A   1      45.568  28.973  29.324  1.00  0.00    -0.354 N 
ATOM     51  N   UNL A   1      42.701  29.561  29.396  1.00  0.00    -0.248 NA
ATOM     52  C   UNL A   1      40.942  31.024  29.868  1.00  0.00     0.031 C 
ATOM     53  C   UNL A   1      46.993  30.593  29.860  1.00  0.00     0.029 A 
ATOM     54  C   UNL A   1      45.646  30.297  29.723  1.00  0.00     0.049 A 
ATOM     55  H   UNL A   1      44.732  28.481  29.160  1.00  0.00     0.167 HD
ATOM     56  C   UNL A   1      43.219  30.788  29.791  1.00  0.00     0.074 A 
ATOM     57  C   UNL A   1      42.092  31.664  30.030  1.00  0.00     0.031 C 
ATOM     58  C   UNL A   1      44.515  31.157  29.945  1.00  0.00     0.031 A 
BRANCH  45  59
ATOM     59  C   UNL A   1      48.570  26.665  28.724  1.00  0.00    -0.014 A 
ATOM     60  C   UNL A   1      49.318  26.860  27.552  1.00  0.00     0.009 A 
ATOM     61  C   UNL A   1      49.203  26.111  29.848  1.00  0.00     0.009 A 
ATOM     62  C   UNL A   1      50.660  26.483  27.496  1.00  0.00     0.001 A 
ATOM     63  C   UNL A   1      50.554  25.761  29.799  1.00  0.00     0.001 A 
ATOM     64  C   UNL A   1      51.279  25.941  28.622  1.00  0.00     0.000 A 
ENDBRANCH  45  59
BRANCH  46  65
ATOM     65  C   UNL A   1      38.894  29.097  29.107  1.00  0.00    -0.014 A 
ATOM     66  C   UNL A   1      38.264  29.692  28.002  1.00  0.00     0.009 A 
ATOM     67  C   UNL A   1      38.158  28.915  30.288  1.00  0.00     0.009 A 
ATOM     68  C   UNL A   1      36.943  30.135  28.092  1.00  0.00     0.001 A 
ATOM     69  C   UNL A   1      36.826  29.328  30.364  1.00  0.00     0.001 A 
ATOM     70  C   UNL A   1      36.224  29.951  29.272  1.00  0.00     0.000 A 
ENDBRANCH  46  65
BRANCH  58  71
ATOM     71  C   UNL A   1      44.779  32.583  30.341  1.00  0.00    -0.014 A 
ATOM     72  C   UNL A   1      44.914  33.597  29.380  1.00  0.00     0.009 A 
ATOM     73  C   UNL A   1      44.864  32.918  31.701  1.00  0.00     0.009 A 
ATOM     74  C   UNL A   1      45.167  34.911  29.774  1.00  0.00     0.001 A 
ATOM     75  C   UNL A   1      45.084  34.239  32.093  1.00  0.00     0.001 A 
ATOM     76  C   UNL A   1      45.247  35.233  31.129  1.00  0.00     0.000 A 
ENDBRANCH  58  71
ENDBRANCH  32  33
ENDBRANCH  24  27
ENDBRANCH  22  23
ENDBRANCH   1  22
TORSDOF 12
ENDMDL
MODEL 2
REMARK VINA RESULT:     -11.1      4.275      9.252
REMARK SMILES CC[C@H](C)[N@@H+]1[C@@H](C(=O)NCCCNC(=O)c2ccc(-c3c4nc(c(-c5ccccc5)c5ccc([nH]5)c(-c5ccccc5)c5nc(c(-c6ccccc6)c6ccc3[nH]6)C=C5)C=C4)cc2)CC[C@H]2CCCC[C@H]21
REMARK SMILES IDX 11 1 10 2 9 3 7 4 8 5 6 7 5 8 71 9 64 11 66 12 70 13 65 14
REMARK SMILES IDX 67 15 69 16 68 17 3 18 4 19 2 20 1 21 12 22 13 23 14 24
REMARK SMILES IDX 15 26 16 27 17 28 63 29 18 30 62 31 19 32 20 33 21 34 56 35
REMARK SMILES IDX 22 36 61 37 55 38 57 39 23 40 60 41 54 42 53 43 24 45 46 46
REMARK SMILES IDX 31 47 45 48 32 49 35 50 44 51 58 52 33 53 34 54 43 56 59 57
REMARK SMILES IDX 36 58 25 59 26 60 30 61 27 62 29 63 28 64 47 65 48 66 52 67
REMARK SMILES IDX 49 68 51 69 50 70 37 71 38 72 42 73 39 74 41 75 40 76
REMARK H PARENT 9 6 5 10 13 25 57 44 35 55
REMARK Flexibility Score: inf
ROOT
ATOM      1  C   UNL A   1      31.438  31.959  26.639  1.00  0.00     0.042 C 
ENDROOT
BRANCH   1   2
ATOM      2  C   UNL A   1      31.656  30.610  25.966  1.00  0.00     0.118 C 
BRANCH   2   3
ATOM      3  N   UNL A   1      31.512  29.528  26.916  1.00  0.00    -0.351 N 
ATOM      4  C   UNL A   1      31.714  28.194  26.746  1.00  0.00     0.278 C 
ATOM      5  O   UNL A   1      31.259  27.446  27.620  1.00  0.00    -0.268 OA
ATOM      6  H   UNL A   1      31.226  29.798  27.818  1.00  0.00     0.163 HD
BRANCH   4   7
ATOM      7  C   UNL A   1      32.413  27.609  25.494  1.00  0.00     0.274 C 
ATOM      8  N   UNL A   1      31.458  27.013  24.497  1.00  0.00    -0.320 N 
ATOM      9  C   UNL A   1      32.191  26.132  23.522  1.00  0.00     0.187 C 
ATOM     10  H   UNL A   1      30.815  26.441  25.044  1.00  0.00     0.349 HD
ATOM     11  C   UNL A   1      33.485  26.671  26.085  1.00  0.00     0.076 C 
ATOM     12  C   UNL A   1      33.163  25.109  24.170  1.00  0.00     0.048 C 
ATOM     13  C   UNL A   1      31.310  25.279  22.585  1.00  0.00     0.065 C 
ATOM     14  C   UNL A   1      34.184  25.831  25.039  1.00  0.00     0.016 C 
ATOM     15  C   UNL A   1      32.461  23.971  24.938  1.00  0.00     0.010 C 
ATOM     16  C   UNL A   1      30.455  24.273  23.351  1.00  0.00     0.006 C 
ATOM     17  C   UNL A   1      31.272  23.332  24.223  1.00  0.00     0.001 C 
BRANCH   8  18
ATOM     18  C   UNL A   1      30.547  28.011  23.796  1.00  0.00     0.181 C 
ATOM     19  C   UNL A   1      31.297  28.665  22.615  1.00  0.00     0.075 C 
BRANCH  18  20
ATOM     20  C   UNL A   1      29.095  27.599  23.354  1.00  0.00     0.061 C 
ATOM     21  C   UNL A   1      28.120  28.712  22.964  1.00  0.00     0.010 C 
ENDBRANCH  18  20
ENDBRANCH   8  18
ENDBRANCH   4   7
ENDBRANCH   2   3
ENDBRANCH   1   2
BRANCH   1  22
ATOM     22  C   UNL A   1      32.730  32.602  27.120  1.00  0.00     0.118 C 
BRANCH  22  23
ATOM     23  N   UNL A   1      32.511  33.930  27.677  1.00  0.00    -0.352 N 
ATOM     24  C   UNL A   1      33.200  34.584  28.666  1.00  0.00     0.251 C 
ATOM     25  H   UNL A   1      31.759  34.431  27.285  1.00  0.00     0.163 HD
ATOM     26  O   UNL A   1      32.753  35.621  29.145  1.00  0.00    -0.269 OA
BRANCH  24  27
ATOM     27  C   UNL A   1      34.471  34.025  29.169  1.00  0.00     0.039 A 
ATOM     28  C   UNL A   1      34.436  33.140  30.250  1.00  0.00     0.014 A 
ATOM     29  C   UNL A   1      35.692  34.374  28.585  1.00  0.00     0.014 A 
ATOM     30  C   UNL A   1      35.621  32.563  30.707  1.00  0.00     0.010 A 
ATOM     31  C   UNL A   1      36.860  33.734  28.987  1.00  0.00     0.010 A 
ATOM     32  C   UNL A   1      36.838  32.829  30.057  1.00  0.00    -0.014 A 
BRANCH  32  33
ATOM     33  C   UNL A   1      38.096  32.174  30.492  1.00  0.00     0.031 A 
ATOM     34  C   UNL A   1      38.957  32.816  31.546  1.00  0.00     0.074 A 
ATOM     35  C   UNL A   1      38.484  31.021  29.911  1.00  0.00     0.049 A 
ATOM     36  N   UNL A   1      40.107  32.416  32.027  1.00  0.00    -0.248 NA
ATOM     37  C   UNL A   1      38.474  34.082  32.122  1.00  0.00     0.031 C 
ATOM     38  C   UNL A   1      37.753  30.313  28.857  1.00  0.00     0.029 A 
ATOM     39  N   UNL A   1      39.591  30.241  30.128  1.00  0.00    -0.354 N 
ATOM     40  C   UNL A   1      40.484  33.379  32.955  1.00  0.00     0.074 A 
ATOM     41  C   UNL A   1      39.473  34.413  32.927  1.00  0.00     0.031 C 
ATOM     42  C   UNL A   1      38.415  29.186  28.545  1.00  0.00     0.029 A 
ATOM     43  C   UNL A   1      39.634  29.114  29.342  1.00  0.00     0.049 A 
ATOM     44  H   UNL A   1      40.290  30.466  30.784  1.00  0.00     0.167 HD
ATOM     45  C   UNL A   1      41.561  33.392  33.775  1.00  0.00     0.031 A 
ATOM     46  C   UNL A   1      40.556  28.135  29.270  1.00  0.00     0.031 A 
ATOM     47  C   UNL A   1      42.566  32.365  33.807  1.00  0.00     0.049 A 
ATOM     48  C   UNL A   1      41.763  28.199  30.164  1.00  0.00     0.074 A 
ATOM     49  C   UNL A   1      43.680  32.275  34.623  1.00  0.00     0.029 A 
ATOM     50  N   UNL A   1      42.576  31.247  32.989  1.00  0.00    -0.354 N 
ATOM     51  N   UNL A   1      42.074  29.090  31.073  1.00  0.00    -0.248 NA
ATOM     52  C   UNL A   1      42.742  27.110  30.027  1.00  0.00     0.031 C 
ATOM     53  C   UNL A   1      44.391  31.124  34.267  1.00  0.00     0.029 A 
ATOM     54  C   UNL A   1      43.687  30.468  33.269  1.00  0.00     0.049 A 
ATOM     55  H   UNL A   1      41.896  31.036  32.309  1.00  0.00     0.167 HD
ATOM     56  C   UNL A   1      43.264  28.650  31.641  1.00  0.00     0.074 A 
ATOM     57  C   UNL A   1      43.607  27.406  30.987  1.00  0.00     0.031 C 
ATOM     58  C   UNL A   1      44.007  29.227  32.617  1.00  0.00     0.031 A 
BRANCH  45  59
ATOM     59  C   UNL A   1      41.702  34.556  34.717  1.00  0.00    -0.014 A 
ATOM     60  C   UNL A   1      41.173  34.502  36.016  1.00  0.00     0.009 A 
ATOM     61  C   UNL A   1      42.416  35.697  34.322  1.00  0.00     0.009 A 
ATOM     62  C   UNL A   1      41.330  35.577  36.891  1.00  0.00     0.001 A 
ATOM     63  C   UNL A   1      42.598  36.761  35.209  1.00  0.00     0.001 A 
ATOM     64  C   UNL A   1      42.049  36.702  36.490  1.00  0.00     0.000 A 
ENDBRANCH  45  59
BRANCH  46  65
ATOM     65  C   UNL A   1      40.380  27.000  28.324  1.00  0.00    -0.014 A 
ATOM     66  C   UNL A   1      40.896  27.073  27.021  1.00  0.00     0.009 A 
ATOM     67  C   UNL A   1      39.659  25.858  28.705  1.00  0.00     0.009 A 
ATOM     68  C   UNL A   1      40.655  26.046  26.105  1.00  0.00     0.001 A 
ATOM     69  C   UNL A   1      39.449  24.818  27.797  1.00  0.00     0.001 A 
ATOM     70  C   UNL A   1      39.933  24.919  26.494  1.00  0.00     0.000 A 
ENDBRANCH  46  65
BRANCH  58  71
ATOM     71  C   UNL A   1      45.236  28.489  33.069  1.00  0.00    -0.014 A 
ATOM     72  C   UNL A   1      45.181  27.541  34.103  1.00  0.00     0.009 A 
ATOM     73  C   UNL A   1      46.461  28.726  32.427  1.00  0.00     0.009 A 
ATOM     74  C   UNL A   1      46.338  26.875  34.510  1.00  0.00     0.001 A 
ATOM     75  C   UNL A   1      47.610  28.035  32.814  1.00  0.00     0.001 A 
ATOM     76  C   UNL A   1      47.550  27.119  33.863  1.00  0.00     0.000 A 
ENDBRANCH  58  71
ENDBRANCH  32  33
ENDBRANCH  24  27
ENDBRANCH  22  23
ENDBRANCH   1  22
TORSDOF 12
ENDMDL
MODEL 3
REMARK VINA RESULT:     -11.0      4.427      9.101
REMARK SMILES CC[C@H](C)[N@@H+]1[C@@H](C(=O)NCCCNC(=O)c2ccc(-c3c4nc(c(-c5ccccc5)c5ccc([nH]5)c(-c5ccccc5)c5nc(c(-c6ccccc6)c6ccc3[nH]6)C=C5)C=C4)cc2)CC[C@H]2CCCC[C@H]21
REMARK SMILES IDX 11 1 10 2 9 3 7 4 8 5 6 7 5 8 71 9 64 11 66 12 70 13 65 14
REMARK SMILES IDX 67 15 69 16 68 17 3 18 4 19 2 20 1 21 12 22 13 23 14 24
REMARK SMILES IDX 15 26 16 27 17 28 63 29 18 30 62 31 19 32 20 33 21 34 56 35
REMARK SMILES IDX 22 36 61 37 55 38 57 39 23 40 60 41 54 42 53 43 24 45 46 46
REMARK SMILES IDX 31 47 45 48 32 49 35 50 44 51 58 52 33 53 34 54 43 56 59 57
REMARK SMILES IDX 36 58 25 59 26 60 30 61 27 62 29 63 28 64 47 65 48 66 52 67
REMARK SMILES IDX 49 68 51 69 50 70 37 71 38 72 42 73 39 74 41 75 40 76
REMARK H PARENT 9 6 5 10 13 25 57 44 35 55
REMARK Flexibility Score: inf
ROOT
ATOM      1  C   UNL A   1      31.459  31.843  26.533  1.00  0.00     0.042 C 
ENDROOT
BRANCH   1   2
ATOM      2  C   UNL A   1      31.746  30.489  25.898  1.00  0.00     0.118 C 
BRANCH   2   3
ATOM      3  N   UNL A   1      31.578  29.420  26.860  1.00  0.00    -0.351 N 
ATOM      4  C   UNL A   1      31.753  28.081  26.704  1.00  0.00     0.278 C 
ATOM      5  O   UNL A   1      31.282  27.351  27.586  1.00  0.00    -0.268 OA
ATOM      6  H   UNL A   1      31.296  29.706  27.758  1.00  0.00     0.163 HD
BRANCH   4   7
ATOM      7  C   UNL A   1      32.441  27.468  25.460  1.00  0.00     0.274 C 
ATOM      8  N   UNL A   1      31.480  26.830  24.495  1.00  0.00    -0.320 N 
ATOM      9  C   UNL A   1      32.210  25.931  23.535  1.00  0.00     0.187 C 
ATOM     10  H   UNL A   1      30.852  26.267  25.068  1.00  0.00     0.349 HD
ATOM     11  C   UNL A   1      33.534  26.561  26.062  1.00  0.00     0.076 C 
ATOM     12  C   UNL A   1      33.205  24.940  24.199  1.00  0.00     0.048 C 
ATOM     13  C   UNL A   1      31.328  25.039  22.637  1.00  0.00     0.065 C 
ATOM     14  C   UNL A   1      34.229  25.700  25.031  1.00  0.00     0.016 C 
ATOM     15  C   UNL A   1      32.529  23.816  25.010  1.00  0.00     0.010 C 
ATOM     16  C   UNL A   1      30.496  24.046  23.445  1.00  0.00     0.006 C 
ATOM     17  C   UNL A   1      31.338  23.141  24.332  1.00  0.00     0.001 C 
BRANCH   8  18
ATOM     18  C   UNL A   1      30.546  27.795  23.778  1.00  0.00     0.181 C 
ATOM     19  C   UNL A   1      31.240  28.358  22.518  1.00  0.00     0.075 C 
BRANCH  18  20
ATOM     20  C   UNL A   1      29.066  27.381  23.442  1.00  0.00     0.061 C 
ATOM     21  C   UNL A   1      28.078  28.487  23.070  1.00  0.00     0.010 C 
ENDBRANCH  18  20
ENDBRANCH   8  18
ENDBRANCH   4   7
ENDBRANCH   2   3
ENDBRANCH   1   2
BRANCH   1  22
ATOM     22  C   UNL A   1      32.650  32.414  27.287  1.00  0.00     0.118 C 
BRANCH  22  23
ATOM     23  N   UNL A   1      32.449  33.806  27.664  1.00  0.00    -0.352 N 
ATOM     24  C   UNL A   1      33.147  34.575  28.559  1.00  0.00     0.251 C 
ATOM     25  H   UNL A   1      31.703  34.260  27.210  1.00  0.00     0.163 HD
ATOM     26  O   UNL A   1      32.714  35.671  28.898  1.00  0.00    -0.269 OA
BRANCH  24  27
ATOM     27  C   UNL A   1      34.412  34.071  29.132  1.00  0.00     0.039 A 
ATOM     28  C   UNL A   1      34.358  33.236  30.251  1.00  0.00     0.014 A 
ATOM     29  C   UNL A   1      35.645  34.422  28.575  1.00  0.00     0.014 A 
ATOM     30  C   UNL A   1      35.539  32.710  30.776  1.00  0.00     0.010 A 
ATOM     31  C   UNL A   1      36.812  33.830  29.047  1.00  0.00     0.010 A 
ATOM     32  C   UNL A   1      36.772  32.975  30.157  1.00  0.00    -0.014 A 
BRANCH  32  33
ATOM     33  C   UNL A   1      38.029  32.371  30.666  1.00  0.00     0.031 A 
ATOM     34  C   UNL A   1      38.542  31.085  30.077  1.00  0.00     0.074 A 
ATOM     35  C   UNL A   1      38.688  32.961  31.683  1.00  0.00     0.049 A 
ATOM     36  N   UNL A   1      39.596  30.387  30.414  1.00  0.00    -0.248 NA
ATOM     37  C   UNL A   1      37.758  30.494  28.980  1.00  0.00     0.031 C 
ATOM     38  C   UNL A   1      38.280  34.194  32.360  1.00  0.00     0.029 A 
ATOM     39  N   UNL A   1      39.846  32.599  32.324  1.00  0.00    -0.354 N 
ATOM     40  C   UNL A   1      39.599  29.279  29.577  1.00  0.00     0.074 A 
ATOM     41  C   UNL A   1      38.412  29.364  28.757  1.00  0.00     0.031 C 
ATOM     42  C   UNL A   1      39.190  34.504  33.297  1.00  0.00     0.029 A 
ATOM     43  C   UNL A   1      40.221  33.472  33.318  1.00  0.00     0.049 A 
ATOM     44  H   UNL A   1      40.359  31.791  32.096  1.00  0.00     0.167 HD
ATOM     45  C   UNL A   1      40.520  28.292  29.478  1.00  0.00     0.031 A 
ATOM     46  C   UNL A   1      41.275  33.440  34.154  1.00  0.00     0.031 A 
ATOM     47  C   UNL A   1      41.704  28.206  30.290  1.00  0.00     0.049 A 
ATOM     48  C   UNL A   1      42.259  32.308  34.050  1.00  0.00     0.074 A 
ATOM     49  C   UNL A   1      42.712  27.257  30.247  1.00  0.00     0.029 A 
ATOM     50  N   UNL A   1      42.041  29.104  31.290  1.00  0.00    -0.354 N 
ATOM     51  N   UNL A   1      42.274  31.298  33.215  1.00  0.00    -0.248 NA
ATOM     52  C   UNL A   1      43.380  32.320  35.001  1.00  0.00     0.031 C 
ATOM     53  C   UNL A   1      43.637  27.557  31.252  1.00  0.00     0.029 A 
ATOM     54  C   UNL A   1      43.234  28.724  31.882  1.00  0.00     0.049 A 
ATOM     55  H   UNL A   1      41.512  29.895  31.542  1.00  0.00     0.167 HD
ATOM     56  C   UNL A   1      43.423  30.576  33.515  1.00  0.00     0.074 A 
ATOM     57  C   UNL A   1      44.087  31.273  34.596  1.00  0.00     0.031 C 
ATOM     58  C   UNL A   1      43.886  29.436  32.948  1.00  0.00     0.031 A 
BRANCH  45  59
ATOM     59  C   UNL A   1      40.286  27.224  28.445  1.00  0.00    -0.014 A 
ATOM     60  C   UNL A   1      40.827  27.338  27.154  1.00  0.00     0.009 A 
ATOM     61  C   UNL A   1      39.565  26.068  28.779  1.00  0.00     0.009 A 
ATOM     62  C   UNL A   1      40.625  26.331  26.211  1.00  0.00     0.001 A 
ATOM     63  C   UNL A   1      39.389  25.048  27.842  1.00  0.00     0.001 A 
ATOM     64  C   UNL A   1      39.913  25.183  26.557  1.00  0.00     0.000 A 
ENDBRANCH  45  59
BRANCH  46  65
ATOM     65  C   UNL A   1      41.472  34.515  35.164  1.00  0.00    -0.014 A 
ATOM     66  C   UNL A   1      42.237  35.651  34.855  1.00  0.00     0.009 A 
ATOM     67  C   UNL A   1      40.935  34.391  36.455  1.00  0.00     0.009 A 
ATOM     68  C   UNL A   1      42.497  36.617  35.830  1.00  0.00     0.001 A 
ATOM     69  C   UNL A   1      41.169  35.376  37.417  1.00  0.00     0.001 A 
ATOM     70  C   UNL A   1      41.961  36.480  37.109  1.00  0.00     0.000 A 
ENDBRANCH  46  65
BRANCH  58  71
ATOM     71  C   UNL A   1      45.199  28.903  33.452  1.00  0.00    -0.014 A 
ATOM     72  C   UNL A   1      46.418  29.316  32.894  1.00  0.00     0.009 A 
ATOM     73  C   UNL A   1      45.211  27.997  34.524  1.00  0.00     0.009 A 
ATOM     74  C   UNL A   1      47.623  28.800  33.375  1.00  0.00     0.001 A 
ATOM     75  C   UNL A   1      46.419  27.508  35.024  1.00  0.00     0.001 A 
ATOM     76  C   UNL A   1      47.623  27.901  34.442  1.00  0.00     0.000 A 
ENDBRANCH  58  71
ENDBRANCH  32  33
ENDBRANCH  24  27
ENDBRANCH  22  23
ENDBRANCH   1  22
TORSDOF 12
ENDMDL
