MODEL 1
REMARK VINA RESULT:      -9.6      0.000      0.000
REMARK SMILES COC(=O)CCN(C)C(=O)NCc1ccc(C(=O)NCCCNC(=O)c2ccc(-c3c4nc(c(-c5ccccc5)c5ccc([nH]5)c(-c5ccccc5)c5nc(c(-c6ccccc6)c6ccc3[nH]6)C=C5)C=C4)cc2)o1
REMARK SMILES IDX 13 1 14 2 15 3 16 4 74 5 12 6 11 7 9 8 10 9 7 11 8 12 6 13
REMARK SMILES IDX 5 14 3 15 4 16 2 17 1 18 17 19 18 20 19 21 20 23 21 24 22 25
REMARK SMILES IDX 23 26 24 27 25 29 26 30 27 31 73 32 28 33 72 34 29 35 30 36
REMARK SMILES IDX 31 37 66 38 32 39 71 40 65 41 67 42 33 43 70 44 64 45 63 46
REMARK SMILES IDX 34 48 56 49 41 50 55 51 42 52 45 53 54 54 68 55 43 56 44 57
REMARK SMILES IDX 53 59 69 60 46 61 35 62 36 63 40 64 37 65 39 66 38 67 57 68
REMARK SMILES IDX 58 69 62 70 59 71 61 72 60 73 47 74 48 75 52 76 49 77 51 78
REMARK SMILES IDX 50 79
REMARK H PARENT 11 10 19 22 23 28 67 47 45 58
REMARK Flexibility Score: inf
ROOT
ATOM      1  C   UNL A   1      34.378  24.101  24.189  1.00  0.00     0.124 A 
ATOM      2  C   UNL A   1      35.203  24.431  25.238  1.00  0.00     0.048 A 
ATOM      3  C   UNL A   1      35.517  23.213  25.895  1.00  0.00     0.056 A 
ATOM      4  C   UNL A   1      34.888  22.192  25.201  1.00  0.00     0.191 A 
ATOM      5  O   UNL A   1      34.157  22.758  24.188  1.00  0.00    -0.454 OA
ENDROOT
BRANCH   1   6
ATOM      6  C   UNL A   1      33.727  24.883  23.105  1.00  0.00     0.193 C 
BRANCH   6   7
ATOM      7  N   UNL A   1      33.715  26.278  23.492  1.00  0.00    -0.331 N 
ATOM      8  C   UNL A   1      32.820  27.131  24.011  1.00  0.00     0.317 C 
ATOM      9  O   UNL A   1      33.288  28.187  24.448  1.00  0.00    -0.249 OA
ATOM     10  H   UNL A   1      34.585  26.710  23.332  1.00  0.00     0.165 HD
BRANCH   8  11
ATOM     11  N   UNL A   1      31.488  26.839  24.108  1.00  0.00    -0.327 N 
ATOM     12  C   UNL A   1      30.544  26.769  23.007  1.00  0.00     0.148 C 
BRANCH  11  13
ATOM     13  C   UNL A   1      30.936  26.639  25.455  1.00  0.00     0.132 C 
BRANCH  13  14
ATOM     14  C   UNL A   1      31.724  25.622  26.269  1.00  0.00     0.144 C 
BRANCH  14  15
ATOM     15  C   UNL A   1      30.988  24.312  26.347  1.00  0.00     0.307 C 
ATOM     16  O   UNL A   1      30.343  23.949  27.323  1.00  0.00    -0.252 OA
BRANCH  15  17
ATOM     17  O   UNL A   1      31.149  23.603  25.196  1.00  0.00    -0.469 OA
ATOM     18  C   UNL A   1      30.962  22.196  25.347  1.00  0.00     0.282 C 
ENDBRANCH  15  17
ENDBRANCH  14  15
ENDBRANCH  13  14
ENDBRANCH  11  13
ENDBRANCH   8  11
ENDBRANCH   6   7
ENDBRANCH   1   6
BRANCH   4  19
ATOM     19  C   UNL A   1      34.819  20.746  25.304  1.00  0.00     0.286 C 
ATOM     20  O   UNL A   1      33.789  20.143  25.614  1.00  0.00    -0.266 OA
ATOM     21  N   UNL A   1      35.908  19.950  25.033  1.00  0.00    -0.349 N 
ATOM     22  H   UNL A   1      35.757  18.988  25.177  1.00  0.00     0.163 HD
BRANCH  21  23
ATOM     23  C   UNL A   1      37.239  20.287  24.575  1.00  0.00     0.118 C 
BRANCH  23  24
ATOM     24  C   UNL A   1      38.266  19.252  25.028  1.00  0.00     0.042 C 
BRANCH  24  25
ATOM     25  C   UNL A   1      39.292  19.809  26.016  1.00  0.00     0.118 C 
BRANCH  25  26
ATOM     26  N   UNL A   1      40.572  19.122  25.913  1.00  0.00    -0.352 N 
ATOM     27  C   UNL A   1      41.853  19.601  25.998  1.00  0.00     0.251 C 
ATOM     28  H   UNL A   1      40.505  18.153  25.754  1.00  0.00     0.163 HD
ATOM     29  O   UNL A   1      42.783  18.880  25.643  1.00  0.00    -0.269 OA
BRANCH  27  30
ATOM     30  C   UNL A   1      42.140  20.962  26.505  1.00  0.00     0.039 A 
ATOM     31  C   UNL A   1      42.075  21.183  27.884  1.00  0.00     0.014 A 
ATOM     32  C   UNL A   1      42.389  22.032  25.641  1.00  0.00     0.014 A 
ATOM     33  C   UNL A   1      42.297  22.462  28.398  1.00  0.00     0.010 A 
ATOM     34  C   UNL A   1      42.674  23.297  26.159  1.00  0.00     0.010 A 
ATOM     35  C   UNL A   1      42.621  23.526  27.541  1.00  0.00    -0.014 A 
BRANCH  35  36
ATOM     36  C   UNL A   1      42.903  24.878  28.086  1.00  0.00     0.031 A 
ATOM     37  C   UNL A   1      44.305  25.281  28.454  1.00  0.00     0.074 A 
ATOM     38  C   UNL A   1      41.884  25.736  28.284  1.00  0.00     0.049 A 
ATOM     39  N   UNL A   1      44.735  26.418  28.943  1.00  0.00    -0.248 NA
ATOM     40  C   UNL A   1      45.359  24.270  28.269  1.00  0.00     0.031 C 
ATOM     41  C   UNL A   1      40.474  25.453  28.009  1.00  0.00     0.029 A 
ATOM     42  N   UNL A   1      41.879  27.023  28.760  1.00  0.00    -0.354 N 
ATOM     43  C   UNL A   1      46.101  26.254  29.138  1.00  0.00     0.074 A 
ATOM     44  C   UNL A   1      46.422  24.896  28.755  1.00  0.00     0.031 C 
ATOM     45  C   UNL A   1      39.744  26.544  28.290  1.00  0.00     0.029 A 
ATOM     46  C   UNL A   1      40.629  27.590  28.792  1.00  0.00     0.049 A 
ATOM     47  H   UNL A   1      42.693  27.493  29.050  1.00  0.00     0.167 HD
ATOM     48  C   UNL A   1      47.011  27.156  29.579  1.00  0.00     0.031 A 
ATOM     49  C   UNL A   1      40.238  28.819  29.179  1.00  0.00     0.031 A 
ATOM     50  C   UNL A   1      46.697  28.510  29.949  1.00  0.00     0.049 A 
ATOM     51  C   UNL A   1      41.267  29.804  29.651  1.00  0.00     0.074 A 
ATOM     52  C   UNL A   1      47.558  29.516  30.356  1.00  0.00     0.029 A 
ATOM     53  N   UNL A   1      45.421  29.050  29.960  1.00  0.00    -0.354 N 
ATOM     54  N   UNL A   1      42.564  29.653  29.766  1.00  0.00    -0.248 NA
ATOM     55  C   UNL A   1      40.777  31.136  30.034  1.00  0.00     0.031 C 
ATOM     56  C   UNL A   1      46.796  30.653  30.650  1.00  0.00     0.029 A 
ATOM     57  C   UNL A   1      45.467  30.368  30.383  1.00  0.00     0.049 A 
ATOM     58  H   UNL A   1      44.601  28.567  29.704  1.00  0.00     0.167 HD
ATOM     59  C   UNL A   1      43.048  30.876  30.213  1.00  0.00     0.074 A 
ATOM     60  C   UNL A   1      41.907  31.762  30.328  1.00  0.00     0.031 C 
ATOM     61  C   UNL A   1      44.323  31.232  30.502  1.00  0.00     0.031 A 
BRANCH  48  62
ATOM     62  C   UNL A   1      48.439  26.698  29.689  1.00  0.00    -0.014 A 
ATOM     63  C   UNL A   1      49.343  26.875  28.630  1.00  0.00     0.009 A 
ATOM     64  C   UNL A   1      48.894  26.108  30.878  1.00  0.00     0.009 A 
ATOM     65  C   UNL A   1      50.664  26.437  28.746  1.00  0.00     0.001 A 
ATOM     66  C   UNL A   1      50.223  25.695  31.001  1.00  0.00     0.001 A 
ATOM     67  C   UNL A   1      51.103  25.851  29.931  1.00  0.00     0.000 A 
ENDBRANCH  48  62
BRANCH  49  68
ATOM     68  C   UNL A   1      38.803  29.197  29.105  1.00  0.00    -0.014 A 
ATOM     69  C   UNL A   1      38.272  29.736  27.924  1.00  0.00     0.009 A 
ATOM     70  C   UNL A   1      37.961  29.018  30.213  1.00  0.00     0.009 A 
ATOM     71  C   UNL A   1      36.929  30.114  27.862  1.00  0.00     0.001 A 
ATOM     72  C   UNL A   1      36.612  29.373  30.139  1.00  0.00     0.001 A 
ATOM     73  C   UNL A   1      36.099  29.928  28.967  1.00  0.00     0.000 A 
ENDBRANCH  49  68
BRANCH  61  74
ATOM     74  C   UNL A   1      44.546  32.649  30.951  1.00  0.00    -0.014 A 
ATOM     75  C   UNL A   1      44.870  33.659  30.034  1.00  0.00     0.009 A 
ATOM     76  C   UNL A   1      44.416  32.977  32.310  1.00  0.00     0.009 A 
ATOM     77  C   UNL A   1      45.100  34.964  30.474  1.00  0.00     0.001 A 
ATOM     78  C   UNL A   1      44.620  34.287  32.743  1.00  0.00     0.001 A 
ATOM     79  C   UNL A   1      44.973  35.278  31.826  1.00  0.00     0.000 A 
ENDBRANCH  61  74
ENDBRANCH  35  36
ENDBRANCH  27  30
ENDBRANCH  25  26
ENDBRANCH  24  25
ENDBRANCH  23  24
ENDBRANCH  21  23
ENDBRANCH   4  19
TORSDOF 17
ENDMDL
MODEL 2
REMARK VINA RESULT:      -9.2      1.335      6.302
REMARK SMILES COC(=O)CCN(C)C(=O)NCc1ccc(C(=O)NCCCNC(=O)c2ccc(-c3c4nc(c(-c5ccccc5)c5ccc([nH]5)c(-c5ccccc5)c5nc(c(-c6ccccc6)c6ccc3[nH]6)C=C5)C=C4)cc2)o1
REMARK SMILES IDX 13 1 14 2 15 3 16 4 74 5 12 6 11 7 9 8 10 9 7 11 8 12 6 13
REMARK SMILES IDX 5 14 3 15 4 16 2 17 1 18 17 19 18 20 19 21 20 23 21 24 22 25
REMARK SMILES IDX 23 26 24 27 25 29 26 30 27 31 73 32 28 33 72 34 29 35 30 36
REMARK SMILES IDX 31 37 66 38 32 39 71 40 65 41 67 42 33 43 70 44 64 45 63 46
REMARK SMILES IDX 34 48 56 49 41 50 55 51 42 52 45 53 54 54 68 55 43 56 44 57
REMARK SMILES IDX 53 59 69 60 46 61 35 62 36 63 40 64 37 65 39 66 38 67 57 68
REMARK SMILES IDX 58 69 62 70 59 71 61 72 60 73 47 74 48 75 52 76 49 77 51 78
REMARK SMILES IDX 50 79
REMARK H PARENT 11 10 19 22 23 28 67 47 45 58
REMARK Flexibility Score: inf
ROOT
ATOM      1  C   UNL A   1      33.054  23.513  24.328  1.00  0.00     0.124 A 
ATOM      2  C   UNL A   1      33.532  23.898  25.559  1.00  0.00     0.048 A 
ATOM      3  C   UNL A   1      34.031  22.722  26.177  1.00  0.00     0.056 A 
ATOM      4  C   UNL A   1      33.857  21.677  25.284  1.00  0.00     0.191 A 
ATOM      5  O   UNL A   1      33.215  22.169  24.176  1.00  0.00    -0.454 OA
ENDROOT
BRANCH   1   6
ATOM      6  C   UNL A   1      32.442  24.242  23.187  1.00  0.00     0.193 C 
BRANCH   6   7
ATOM      7  N   UNL A   1      31.144  24.731  23.600  1.00  0.00    -0.331 N 
ATOM      8  C   UNL A   1      30.600  25.928  23.863  1.00  0.00     0.317 C 
ATOM      9  O   UNL A   1      29.367  25.945  23.930  1.00  0.00    -0.249 OA
ATOM     10  H   UNL A   1      30.496  23.999  23.718  1.00  0.00     0.165 HD
BRANCH   8  11
ATOM     11  N   UNL A   1      31.343  27.068  23.994  1.00  0.00    -0.327 N 
ATOM     12  C   UNL A   1      31.910  27.584  25.227  1.00  0.00     0.148 C 
BRANCH  11  13
ATOM     13  C   UNL A   1      31.540  27.889  22.791  1.00  0.00     0.132 C 
BRANCH  13  14
ATOM     14  C   UNL A   1      31.037  29.316  22.964  1.00  0.00     0.144 C 
BRANCH  14  15
ATOM     15  C   UNL A   1      29.683  29.488  22.331  1.00  0.00     0.307 C 
ATOM     16  O   UNL A   1      29.505  29.992  21.229  1.00  0.00    -0.252 OA
BRANCH  15  17
ATOM     17  O   UNL A   1      28.707  29.014  23.153  1.00  0.00    -0.469 OA
ATOM     18  C   UNL A   1      27.382  29.353  22.741  1.00  0.00     0.282 C 
ENDBRANCH  15  17
ENDBRANCH  14  15
ENDBRANCH  13  14
ENDBRANCH  11  13
ENDBRANCH   8  11
ENDBRANCH   6   7
ENDBRANCH   1   6
BRANCH   4  19
ATOM     19  C   UNL A   1      34.169  20.259  25.259  1.00  0.00     0.286 C 
ATOM     20  O   UNL A   1      33.321  19.382  25.435  1.00  0.00    -0.266 OA
ATOM     21  N   UNL A   1      35.444  19.805  25.012  1.00  0.00    -0.349 N 
ATOM     22  H   UNL A   1      35.546  18.827  25.062  1.00  0.00     0.163 HD
BRANCH  21  23
ATOM     23  C   UNL A   1      36.661  20.520  24.692  1.00  0.00     0.118 C 
BRANCH  23  24
ATOM     24  C   UNL A   1      37.890  19.625  24.833  1.00  0.00     0.042 C 
BRANCH  24  25
ATOM     25  C   UNL A   1      38.914  20.154  25.836  1.00  0.00     0.118 C 
BRANCH  25  26
ATOM     26  N   UNL A   1      40.097  19.308  25.901  1.00  0.00    -0.352 N 
ATOM     27  C   UNL A   1      41.414  19.626  26.108  1.00  0.00     0.251 C 
ATOM     28  H   UNL A   1      39.922  18.348  25.773  1.00  0.00     0.163 HD
ATOM     29  O   UNL A   1      42.274  18.777  25.885  1.00  0.00    -0.269 OA
BRANCH  27  30
ATOM     30  C   UNL A   1      41.822  20.965  26.590  1.00  0.00     0.039 A 
ATOM     31  C   UNL A   1      41.742  21.229  27.962  1.00  0.00     0.014 A 
ATOM     32  C   UNL A   1      42.199  21.982  25.709  1.00  0.00     0.014 A 
ATOM     33  C   UNL A   1      42.076  22.493  28.451  1.00  0.00     0.010 A 
ATOM     34  C   UNL A   1      42.595  23.225  26.205  1.00  0.00     0.010 A 
ATOM     35  C   UNL A   1      42.528  23.496  27.579  1.00  0.00    -0.014 A 
BRANCH  35  36
ATOM     36  C   UNL A   1      42.929  24.827  28.100  1.00  0.00     0.031 A 
ATOM     37  C   UNL A   1      41.898  25.887  28.374  1.00  0.00     0.074 A 
ATOM     38  C   UNL A   1      44.235  25.094  28.294  1.00  0.00     0.049 A 
ATOM     39  N   UNL A   1      42.067  27.104  28.829  1.00  0.00    -0.248 NA
ATOM     40  C   UNL A   1      40.497  25.546  28.080  1.00  0.00     0.031 C 
ATOM     41  C   UNL A   1      45.337  24.167  28.026  1.00  0.00     0.029 A 
ATOM     42  N   UNL A   1      44.855  26.223  28.766  1.00  0.00    -0.354 N 
ATOM     43  C   UNL A   1      40.801  27.676  28.861  1.00  0.00     0.074 A 
ATOM     44  C   UNL A   1      39.879  26.690  28.340  1.00  0.00     0.031 C 
ATOM     45  C   UNL A   1      46.495  24.754  28.367  1.00  0.00     0.029 A 
ATOM     46  C   UNL A   1      46.220  26.104  28.848  1.00  0.00     0.049 A 
ATOM     47  H   UNL A   1      44.368  27.039  29.020  1.00  0.00     0.167 HD
ATOM     48  C   UNL A   1      40.434  28.905  29.300  1.00  0.00     0.031 A 
ATOM     49  C   UNL A   1      47.150  26.982  29.269  1.00  0.00     0.031 A 
ATOM     50  C   UNL A   1      41.346  29.883  29.829  1.00  0.00     0.049 A 
ATOM     51  C   UNL A   1      46.716  28.332  29.762  1.00  0.00     0.074 A 
ATOM     52  C   UNL A   1      41.064  31.135  30.350  1.00  0.00     0.029 A 
ATOM     53  N   UNL A   1      42.721  29.721  29.905  1.00  0.00    -0.354 N 
ATOM     54  N   UNL A   1      45.508  28.832  29.847  1.00  0.00    -0.248 NA
ATOM     55  C   UNL A   1      47.778  29.233  30.232  1.00  0.00     0.031 C 
ATOM     56  C   UNL A   1      42.272  31.746  30.703  1.00  0.00     0.029 A 
ATOM     57  C   UNL A   1      43.303  30.856  30.445  1.00  0.00     0.049 A 
ATOM     58  H   UNL A   1      43.211  28.917  29.616  1.00  0.00     0.167 HD
ATOM     59  C   UNL A   1      45.660  30.097  30.400  1.00  0.00     0.074 A 
ATOM     60  C   UNL A   1      47.076  30.278  30.648  1.00  0.00     0.031 C 
ATOM     61  C   UNL A   1      44.713  31.025  30.676  1.00  0.00     0.031 A 
BRANCH  48  62
ATOM     62  C   UNL A   1      38.975  29.259  29.218  1.00  0.00    -0.014 A 
ATOM     63  C   UNL A   1      38.105  29.010  30.292  1.00  0.00     0.009 A 
ATOM     64  C   UNL A   1      38.469  29.876  28.064  1.00  0.00     0.009 A 
ATOM     65  C   UNL A   1      36.752  29.338  30.197  1.00  0.00     0.001 A 
ATOM     66  C   UNL A   1      37.120  30.228  27.982  1.00  0.00     0.001 A 
ATOM     67  C   UNL A   1      36.261  29.950  29.044  1.00  0.00     0.000 A 
ENDBRANCH  48  62
BRANCH  49  68
ATOM     68  C   UNL A   1      48.585  26.598  29.271  1.00  0.00    -0.014 A 
ATOM     69  C   UNL A   1      49.374  26.800  28.128  1.00  0.00     0.009 A 
ATOM     70  C   UNL A   1      49.171  26.031  30.413  1.00  0.00     0.009 A 
ATOM     71  C   UNL A   1      50.717  26.418  28.121  1.00  0.00     0.001 A 
ATOM     72  C   UNL A   1      50.521  25.674  30.411  1.00  0.00     0.001 A 
ATOM     73  C   UNL A   1      51.290  25.860  29.262  1.00  0.00     0.000 A 
ENDBRANCH  49  68
BRANCH  61  74
ATOM     74  C   UNL A   1      45.182  32.310  31.297  1.00  0.00    -0.014 A 
ATOM     75  C   UNL A   1      45.534  33.413  30.506  1.00  0.00     0.009 A 
ATOM     76  C   UNL A   1      45.260  32.419  32.694  1.00  0.00     0.009 A 
ATOM     77  C   UNL A   1      45.994  34.590  31.101  1.00  0.00     0.001 A 
ATOM     78  C   UNL A   1      45.694  33.605  33.287  1.00  0.00     0.001 A 
ATOM     79  C   UNL A   1      46.071  34.686  32.490  1.00  0.00     0.000 A 
ENDBRANCH  61  74
ENDBRANCH  35  36
ENDBRANCH  27  30
ENDBRANCH  25  26
ENDBRANCH  24  25
ENDBRANCH  23  24
ENDBRANCH  21  23
ENDBRANCH   4  19
TORSDOF 17
ENDMDL
MODEL 3
REMARK VINA RESULT:      -9.1      5.797     10.867
REMARK SMILES COC(=O)CCN(C)C(=O)NCc1ccc(C(=O)NCCCNC(=O)c2ccc(-c3c4nc(c(-c5ccccc5)c5ccc([nH]5)c(-c5ccccc5)c5nc(c(-c6ccccc6)c6ccc3[nH]6)C=C5)C=C4)cc2)o1
REMARK SMILES IDX 13 1 14 2 15 3 16 4 74 5 12 6 11 7 9 8 10 9 7 11 8 12 6 13
REMARK SMILES IDX 5 14 3 15 4 16 2 17 1 18 17 19 18 20 19 21 20 23 21 24 22 25
REMARK SMILES IDX 23 26 24 27 25 29 26 30 27 31 73 32 28 33 72 34 29 35 30 36
REMARK SMILES IDX 31 37 66 38 32 39 71 40 65 41 67 42 33 43 70 44 64 45 63 46
REMARK SMILES IDX 34 48 56 49 41 50 55 51 42 52 45 53 54 54 68 55 43 56 44 57
REMARK SMILES IDX 53 59 69 60 46 61 35 62 36 63 40 64 37 65 39 66 38 67 57 68
REMARK SMILES IDX 58 69 62 70 59 71 61 72 60 73 47 74 48 75 52 76 49 77 51 78
REMARK SMILES IDX 50 79
REMARK H PARENT 11 10 19 22 23 28 67 47 45 58
REMARK Flexibility Score: inf
ROOT
ATOM      1  C   UNL A   1      36.240  33.844  34.294  1.00  0.00     0.124 A 
ATOM      2  C   UNL A   1      37.482  34.332  33.960  1.00  0.00     0.048 A 
ATOM      3  C   UNL A   1      38.423  33.544  34.673  1.00  0.00     0.056 A 
ATOM      4  C   UNL A   1      37.713  32.596  35.390  1.00  0.00     0.191 A 
ATOM      5  O   UNL A   1      36.376  32.823  35.185  1.00  0.00    -0.454 OA
ENDROOT
BRANCH   1   6
ATOM      6  C   UNL A   1      34.854  34.189  33.883  1.00  0.00     0.193 C 
BRANCH   6   7
ATOM      7  N   UNL A   1      34.678  35.619  34.018  1.00  0.00    -0.331 N 
ATOM      8  C   UNL A   1      33.845  36.543  33.519  1.00  0.00     0.317 C 
ATOM      9  O   UNL A   1      33.858  37.634  34.097  1.00  0.00    -0.249 OA
ATOM     10  H   UNL A   1      35.339  36.013  34.632  1.00  0.00     0.165 HD
BRANCH   8  11
ATOM     11  N   UNL A   1      32.994  36.289  32.479  1.00  0.00    -0.327 N 
ATOM     12  C   UNL A   1      31.622  35.826  32.589  1.00  0.00     0.148 C 
BRANCH  11  13
ATOM     13  C   UNL A   1      33.527  36.435  31.118  1.00  0.00     0.132 C 
BRANCH  13  14
ATOM     14  C   UNL A   1      33.543  35.121  30.348  1.00  0.00     0.144 C 
BRANCH  14  15
ATOM     15  C   UNL A   1      32.959  35.299  28.972  1.00  0.00     0.307 C 
ATOM     16  O   UNL A   1      32.239  36.237  28.654  1.00  0.00    -0.252 OA
BRANCH  15  17
ATOM     17  O   UNL A   1      33.339  34.279  28.156  1.00  0.00    -0.469 OA
ATOM     18  C   UNL A   1      34.753  34.160  27.990  1.00  0.00     0.282 C 
ENDBRANCH  15  17
ENDBRANCH  14  15
ENDBRANCH  13  14
ENDBRANCH  11  13
ENDBRANCH   8  11
ENDBRANCH   6   7
ENDBRANCH   1   6
BRANCH   4  19
ATOM     19  C   UNL A   1      38.040  31.488  36.271  1.00  0.00     0.286 C 
ATOM     20  O   UNL A   1      38.443  30.399  35.858  1.00  0.00    -0.266 OA
ATOM     21  N   UNL A   1      37.941  31.601  37.638  1.00  0.00    -0.349 N 
ATOM     22  H   UNL A   1      38.148  30.774  38.131  1.00  0.00     0.163 HD
BRANCH  21  23
ATOM     23  C   UNL A   1      37.583  32.726  38.475  1.00  0.00     0.118 C 
BRANCH  23  24
ATOM     24  C   UNL A   1      38.677  33.791  38.478  1.00  0.00     0.042 C 
BRANCH  24  25
ATOM     25  C   UNL A   1      40.014  33.286  39.022  1.00  0.00     0.118 C 
BRANCH  25  26
ATOM     26  N   UNL A   1      41.090  34.237  38.786  1.00  0.00    -0.352 N 
ATOM     27  C   UNL A   1      42.141  34.200  37.907  1.00  0.00     0.251 C 
ATOM     28  H   UNL A   1      41.058  35.040  39.355  1.00  0.00     0.163 HD
ATOM     29  O   UNL A   1      43.062  35.001  38.046  1.00  0.00    -0.269 OA
BRANCH  27  30
ATOM     30  C   UNL A   1      42.189  33.220  36.798  1.00  0.00     0.039 A 
ATOM     31  C   UNL A   1      41.744  31.917  37.045  1.00  0.00     0.014 A 
ATOM     32  C   UNL A   1      42.740  33.542  35.554  1.00  0.00     0.014 A 
ATOM     33  C   UNL A   1      41.815  30.953  36.038  1.00  0.00     0.010 A 
ATOM     34  C   UNL A   1      42.751  32.596  34.529  1.00  0.00     0.010 A 
ATOM     35  C   UNL A   1      42.297  31.290  34.763  1.00  0.00    -0.014 A 
BRANCH  35  36
ATOM     36  C   UNL A   1      42.330  30.280  33.676  1.00  0.00     0.031 A 
ATOM     37  C   UNL A   1      43.484  29.323  33.551  1.00  0.00     0.074 A 
ATOM     38  C   UNL A   1      41.331  30.249  32.773  1.00  0.00     0.049 A 
ATOM     39  N   UNL A   1      43.679  28.377  32.665  1.00  0.00    -0.248 NA
ATOM     40  C   UNL A   1      44.569  29.456  34.536  1.00  0.00     0.031 C 
ATOM     41  C   UNL A   1      40.176  31.150  32.757  1.00  0.00     0.029 A 
ATOM     42  N   UNL A   1      41.125  29.423  31.697  1.00  0.00    -0.354 N 
ATOM     43  C   UNL A   1      44.912  27.816  32.975  1.00  0.00     0.074 A 
ATOM     44  C   UNL A   1      45.439  28.554  34.103  1.00  0.00     0.031 C 
ATOM     45  C   UNL A   1      39.368  30.808  31.742  1.00  0.00     0.029 A 
ATOM     46  C   UNL A   1      39.960  29.687  31.020  1.00  0.00     0.049 A 
ATOM     47  H   UNL A   1      41.752  28.711  31.435  1.00  0.00     0.167 HD
ATOM     48  C   UNL A   1      45.542  26.771  32.386  1.00  0.00     0.031 A 
ATOM     49  C   UNL A   1      39.423  29.089  29.939  1.00  0.00     0.031 A 
ATOM     50  C   UNL A   1      45.016  26.029  31.272  1.00  0.00     0.049 A 
ATOM     51  C   UNL A   1      40.135  27.925  29.314  1.00  0.00     0.074 A 
ATOM     52  C   UNL A   1      45.554  24.920  30.641  1.00  0.00     0.029 A 
ATOM     53  N   UNL A   1      43.828  26.321  30.620  1.00  0.00    -0.354 N 
ATOM     54  N   UNL A   1      41.268  27.366  29.661  1.00  0.00    -0.248 NA
ATOM     55  C   UNL A   1      39.483  27.301  28.153  1.00  0.00     0.031 C 
ATOM     56  C   UNL A   1      44.710  24.566  29.581  1.00  0.00     0.029 A 
ATOM     57  C   UNL A   1      43.625  25.426  29.582  1.00  0.00     0.049 A 
ATOM     58  H   UNL A   1      43.218  27.057  30.859  1.00  0.00     0.167 HD
ATOM     59  C   UNL A   1      41.455  26.311  28.776  1.00  0.00     0.074 A 
ATOM     60  C   UNL A   1      40.308  26.298  27.891  1.00  0.00     0.031 C 
ATOM     61  C   UNL A   1      42.485  25.433  28.704  1.00  0.00     0.031 A 
BRANCH  48  62
ATOM     62  C   UNL A   1      46.882  26.374  32.940  1.00  0.00    -0.014 A 
ATOM     63  C   UNL A   1      46.991  25.427  33.971  1.00  0.00     0.009 A 
ATOM     64  C   UNL A   1      48.054  26.931  32.403  1.00  0.00     0.009 A 
ATOM     65  C   UNL A   1      48.243  25.074  34.479  1.00  0.00     0.001 A 
ATOM     66  C   UNL A   1      49.306  26.556  32.895  1.00  0.00     0.001 A 
ATOM     67  C   UNL A   1      49.399  25.636  33.938  1.00  0.00     0.000 A 
ENDBRANCH  48  62
BRANCH  49  68
ATOM     68  C   UNL A   1      38.124  29.564  29.398  1.00  0.00    -0.014 A 
ATOM     69  C   UNL A   1      38.088  30.391  28.266  1.00  0.00     0.009 A 
ATOM     70  C   UNL A   1      36.917  29.192  30.010  1.00  0.00     0.009 A 
ATOM     71  C   UNL A   1      36.868  30.858  27.771  1.00  0.00     0.001 A 
ATOM     72  C   UNL A   1      35.698  29.640  29.497  1.00  0.00     0.001 A 
ATOM     73  C   UNL A   1      35.675  30.478  28.383  1.00  0.00     0.000 A 
ENDBRANCH  49  68
BRANCH  61  74
ATOM     74  C   UNL A   1      42.400  24.374  27.641  1.00  0.00    -0.014 A 
ATOM     75  C   UNL A   1      41.746  23.156  27.880  1.00  0.00     0.009 A 
ATOM     76  C   UNL A   1      42.971  24.606  26.381  1.00  0.00     0.009 A 
ATOM     77  C   UNL A   1      41.701  22.174  26.889  1.00  0.00     0.001 A 
ATOM     78  C   UNL A   1      42.902  23.633  25.383  1.00  0.00     0.001 A 
ATOM     79  C   UNL A   1      42.276  22.414  25.642  1.00  0.00     0.000 A 
ENDBRANCH  61  74
ENDBRANCH  35  36
ENDBRANCH  27  30
ENDBRANCH  25  26
ENDBRANCH  24  25
ENDBRANCH  23  24
ENDBRANCH  21  23
ENDBRANCH   4  19
TORSDOF 17
ENDMDL
