MODEL 1
REMARK VINA RESULT:     -10.8      0.000      0.000
REMARK SMILES CC[NH2+][C@]1(C(=O)NCCCNC(=O)c2ccc(-c3c4nc(c(-c5ccccc5)c5ccc([nH]5)c(-c5ccccc5)c5nc(c(-c6ccccc6)c6ccc3[nH]6)C=C5)C=C4)cc2)CCC[C@H]1CC[N@H+]1CCC[C@@H](CC)C1
REMARK SMILES IDX 8 1 7 2 5 3 6 4 4 6 62 7 65 8 63 9 64 10 3 11 2 14 1 15
REMARK SMILES IDX 66 16 67 17 68 18 69 19 75 20 70 22 72 23 71 24 73 25 74 26
REMARK SMILES IDX 9 27 10 28 11 29 12 30 13 32 14 33 15 34 61 35 16 36 60 37
REMARK SMILES IDX 17 38 18 39 19 40 54 41 20 42 59 43 53 44 55 45 21 46 58 47
REMARK SMILES IDX 52 48 51 49 22 51 44 52 29 53 43 54 30 55 33 56 42 57 56 58
REMARK SMILES IDX 31 59 32 60 41 62 57 63 34 64 23 65 24 66 28 67 25 68 27 69
REMARK SMILES IDX 26 70 45 71 46 72 50 73 47 74 49 75 48 76 35 77 36 78 40 79
REMARK SMILES IDX 37 80 39 81 38 82
REMARK H PARENT 7 5 3 12 3 13 68 21 11 31 55 50 33 61
REMARK Flexibility Score: inf
ROOT
ATOM      1  C   UNL A   1      31.602  30.585  25.817  1.00  0.00     0.118 C 
ENDROOT
BRANCH   1   2
ATOM      2  N   UNL A   1      31.457  29.502  26.767  1.00  0.00    -0.351 N 
ATOM      3  C   UNL A   1      31.927  28.226  26.748  1.00  0.00     0.281 C 
ATOM      4  O   UNL A   1      31.286  27.436  27.440  1.00  0.00    -0.268 OA
ATOM      5  H   UNL A   1      30.927  29.729  27.565  1.00  0.00     0.163 HD
BRANCH   3   6
ATOM      6  C   UNL A   1      33.124  27.810  25.848  1.00  0.00     0.178 C 
ATOM      7  C   UNL A   1      33.498  26.337  26.103  1.00  0.00     0.079 C 
ATOM      8  C   UNL A   1      32.814  27.797  24.312  1.00  0.00     0.066 C 
ATOM      9  C   UNL A   1      34.197  25.822  24.856  1.00  0.00     0.008 C 
ATOM     10  C   UNL A   1      33.881  26.816  23.750  1.00  0.00     0.011 C 
BRANCH   6  11
ATOM     11  N   UNL A   1      34.178  28.846  26.001  1.00  0.00    -0.334 N 
ATOM     12  H   UNL A   1      34.888  28.639  25.298  1.00  0.00     0.347 HD
ATOM     13  H   UNL A   1      33.644  29.712  25.920  1.00  0.00     0.347 HD
BRANCH  11  14
ATOM     14  C   UNL A   1      34.883  29.037  27.247  1.00  0.00     0.257 C 
ATOM     15  C   UNL A   1      35.179  30.522  27.429  1.00  0.00     0.071 C 
ENDBRANCH  11  14
ENDBRANCH   6  11
BRANCH   8  16
ATOM     16  C   UNL A   1      31.431  27.363  23.762  1.00  0.00     0.072 C 
BRANCH  16  17
ATOM     17  C   UNL A   1      30.884  27.913  22.416  1.00  0.00     0.262 C 
BRANCH  17  18
ATOM     18  N   UNL A   1      29.614  28.648  22.291  1.00  0.00    -0.335 N 
ATOM     19  C   UNL A   1      28.676  28.303  23.359  1.00  0.00     0.262 C 
ATOM     20  C   UNL A   1      29.709  30.079  22.024  1.00  0.00     0.265 C 
ATOM     21  H   UNL A   1      29.218  28.307  21.414  1.00  0.00     0.348 HD
ATOM     22  C   UNL A   1      27.290  28.868  23.065  1.00  0.00     0.062 C 
ATOM     23  C   UNL A   1      28.349  30.796  21.842  1.00  0.00     0.044 C 
ATOM     24  C   UNL A   1      27.353  30.382  22.934  1.00  0.00     0.015 C 
BRANCH  23  25
ATOM     25  C   UNL A   1      28.589  32.327  21.737  1.00  0.00     0.006 C 
ATOM     26  C   UNL A   1      28.829  33.080  23.039  1.00  0.00     0.004 C 
ENDBRANCH  23  25
ENDBRANCH  17  18
ENDBRANCH  16  17
ENDBRANCH   8  16
ENDBRANCH   3   6
ENDBRANCH   1   2
BRANCH   1  27
ATOM     27  C   UNL A   1      31.380  31.941  26.478  1.00  0.00     0.042 C 
BRANCH  27  28
ATOM     28  C   UNL A   1      32.596  32.462  27.238  1.00  0.00     0.118 C 
BRANCH  28  29
ATOM     29  N   UNL A   1      32.473  33.872  27.577  1.00  0.00    -0.352 N 
ATOM     30  C   UNL A   1      33.118  34.625  28.522  1.00  0.00     0.251 C 
ATOM     31  H   UNL A   1      31.817  34.367  27.036  1.00  0.00     0.163 HD
ATOM     32  O   UNL A   1      32.682  35.735  28.806  1.00  0.00    -0.269 OA
BRANCH  30  33
ATOM     33  C   UNL A   1      34.325  34.113  29.201  1.00  0.00     0.039 A 
ATOM     34  C   UNL A   1      35.574  34.363  28.624  1.00  0.00     0.014 A 
ATOM     35  C   UNL A   1      34.234  33.326  30.352  1.00  0.00     0.014 A 
ATOM     36  C   UNL A   1      36.728  33.848  29.216  1.00  0.00     0.010 A 
ATOM     37  C   UNL A   1      35.388  32.890  30.992  1.00  0.00     0.010 A 
ATOM     38  C   UNL A   1      36.645  33.118  30.412  1.00  0.00    -0.014 A 
BRANCH  38  39
ATOM     39  C   UNL A   1      37.853  32.523  31.031  1.00  0.00     0.031 A 
ATOM     40  C   UNL A   1      38.503  31.322  30.397  1.00  0.00     0.074 A 
ATOM     41  C   UNL A   1      38.340  33.032  32.178  1.00  0.00     0.049 A 
ATOM     42  N   UNL A   1      39.537  30.631  30.805  1.00  0.00    -0.248 NA
ATOM     43  C   UNL A   1      37.892  30.812  29.158  1.00  0.00     0.031 C 
ATOM     44  C   UNL A   1      37.778  34.167  32.911  1.00  0.00     0.029 A 
ATOM     45  N   UNL A   1      39.426  32.655  32.927  1.00  0.00    -0.354 N 
ATOM     46  C   UNL A   1      39.679  29.594  29.891  1.00  0.00     0.074 A 
ATOM     47  C   UNL A   1      38.600  29.715  28.937  1.00  0.00     0.031 C 
ATOM     48  C   UNL A   1      38.542  34.415  33.988  1.00  0.00     0.029 A 
ATOM     49  C   UNL A   1      39.627  33.440  34.035  1.00  0.00     0.049 A 
ATOM     50  H   UNL A   1      40.005  31.894  32.692  1.00  0.00     0.167 HD
ATOM     51  C   UNL A   1      40.637  28.637  29.835  1.00  0.00     0.031 A 
ATOM     52  C   UNL A   1      40.585  33.385  34.978  1.00  0.00     0.031 A 
ATOM     53  C   UNL A   1      41.729  28.535  30.762  1.00  0.00     0.049 A 
ATOM     54  C   UNL A   1      41.658  32.337  34.873  1.00  0.00     0.074 A 
ATOM     55  C   UNL A   1      42.780  27.634  30.763  1.00  0.00     0.029 A 
ATOM     56  N   UNL A   1      41.917  29.374  31.849  1.00  0.00    -0.354 N 
ATOM     57  N   UNL A   1      41.809  31.396  33.973  1.00  0.00    -0.248 NA
ATOM     58  C   UNL A   1      42.705  32.361  35.904  1.00  0.00     0.031 C 
ATOM     59  C   UNL A   1      43.590  27.912  31.870  1.00  0.00     0.029 A 
ATOM     60  C   UNL A   1      43.065  29.011  32.531  1.00  0.00     0.049 A 
ATOM     61  H   UNL A   1      41.322  30.117  32.099  1.00  0.00     0.167 HD
ATOM     62  C   UNL A   1      42.983  30.736  34.310  1.00  0.00     0.074 A 
ATOM     63  C   UNL A   1      43.510  31.393  35.489  1.00  0.00     0.031 C 
ATOM     64  C   UNL A   1      43.576  29.684  33.696  1.00  0.00     0.031 A 
BRANCH  51  65
ATOM     65  C   UNL A   1      40.535  27.628  28.725  1.00  0.00    -0.014 A 
ATOM     66  C   UNL A   1      39.753  26.471  28.864  1.00  0.00     0.009 A 
ATOM     67  C   UNL A   1      41.219  27.845  27.519  1.00  0.00     0.009 A 
ATOM     68  C   UNL A   1      39.692  25.530  27.834  1.00  0.00     0.001 A 
ATOM     69  C   UNL A   1      41.133  26.916  26.479  1.00  0.00     0.001 A 
ATOM     70  C   UNL A   1      40.379  25.755  26.642  1.00  0.00     0.000 A 
ENDBRANCH  51  65
BRANCH  52  71
ATOM     71  C   UNL A   1      40.602  34.379  36.080  1.00  0.00    -0.014 A 
ATOM     72  C   UNL A   1      41.324  35.575  35.943  1.00  0.00     0.009 A 
ATOM     73  C   UNL A   1      39.900  34.141  37.270  1.00  0.00     0.009 A 
ATOM     74  C   UNL A   1      41.365  36.500  36.988  1.00  0.00     0.001 A 
ATOM     75  C   UNL A   1      39.922  35.080  38.304  1.00  0.00     0.001 A 
ATOM     76  C   UNL A   1      40.661  36.253  38.166  1.00  0.00     0.000 A 
ENDBRANCH  52  71
BRANCH  64  77
ATOM     77  C   UNL A   1      44.884  29.212  34.260  1.00  0.00    -0.014 A 
ATOM     78  C   UNL A   1      46.104  29.753  33.828  1.00  0.00     0.009 A 
ATOM     79  C   UNL A   1      44.889  28.231  35.264  1.00  0.00     0.009 A 
ATOM     80  C   UNL A   1      47.307  29.296  34.367  1.00  0.00     0.001 A 
ATOM     81  C   UNL A   1      46.092  27.794  35.819  1.00  0.00     0.001 A 
ATOM     82  C   UNL A   1      47.300  28.320  35.364  1.00  0.00     0.000 A 
ENDBRANCH  64  77
ENDBRANCH  38  39
ENDBRANCH  30  33
ENDBRANCH  28  29
ENDBRANCH  27  28
ENDBRANCH   1  27
TORSDOF 16
ENDMDL
MODEL 2
REMARK VINA RESULT:     -10.6      4.613      9.185
REMARK SMILES CC[NH2+][C@]1(C(=O)NCCCNC(=O)c2ccc(-c3c4nc(c(-c5ccccc5)c5ccc([nH]5)c(-c5ccccc5)c5nc(c(-c6ccccc6)c6ccc3[nH]6)C=C5)C=C4)cc2)CCC[C@H]1CC[N@H+]1CCC[C@@H](CC)C1
REMARK SMILES IDX 8 1 7 2 5 3 6 4 4 6 62 7 65 8 63 9 64 10 3 11 2 14 1 15
REMARK SMILES IDX 66 16 67 17 68 18 69 19 75 20 70 22 72 23 71 24 73 25 74 26
REMARK SMILES IDX 9 27 10 28 11 29 12 30 13 32 14 33 15 34 61 35 16 36 60 37
REMARK SMILES IDX 17 38 18 39 19 40 54 41 20 42 59 43 53 44 55 45 21 46 58 47
REMARK SMILES IDX 52 48 51 49 22 51 44 52 29 53 43 54 30 55 33 56 42 57 56 58
REMARK SMILES IDX 31 59 32 60 41 62 57 63 34 64 23 65 24 66 28 67 25 68 27 69
REMARK SMILES IDX 26 70 45 71 46 72 50 73 47 74 49 75 48 76 35 77 36 78 40 79
REMARK SMILES IDX 37 80 39 81 38 82
REMARK H PARENT 7 5 3 12 3 13 68 21 11 31 55 50 33 61
REMARK Flexibility Score: inf
ROOT
ATOM      1  C   UNL A   1      37.084  21.012  24.658  1.00  0.00     0.118 C 
ENDROOT
BRANCH   1   2
ATOM      2  N   UNL A   1      36.346  21.269  25.876  1.00  0.00    -0.351 N 
ATOM      3  C   UNL A   1      35.055  21.644  26.078  1.00  0.00     0.281 C 
ATOM      4  O   UNL A   1      34.849  22.208  27.152  1.00  0.00    -0.268 OA
ATOM      5  H   UNL A   1      36.870  21.151  26.701  1.00  0.00     0.163 HD
BRANCH   3   6
ATOM      6  C   UNL A   1      33.966  21.444  24.986  1.00  0.00     0.178 C 
ATOM      7  C   UNL A   1      32.583  21.852  25.530  1.00  0.00     0.079 C 
ATOM      8  C   UNL A   1      34.107  22.386  23.741  1.00  0.00     0.066 C 
ATOM      9  C   UNL A   1      31.714  22.216  24.339  1.00  0.00     0.008 C 
ATOM     10  C   UNL A   1      32.662  22.422  23.168  1.00  0.00     0.011 C 
BRANCH   6  11
ATOM     11  N   UNL A   1      34.136  20.076  24.433  1.00  0.00    -0.334 N 
ATOM     12  H   UNL A   1      33.834  20.120  23.459  1.00  0.00     0.347 HD
ATOM     13  H   UNL A   1      35.116  19.881  24.635  1.00  0.00     0.347 HD
BRANCH  11  14
ATOM     14  C   UNL A   1      33.470  18.932  25.013  1.00  0.00     0.257 C 
ATOM     15  C   UNL A   1      32.367  18.467  24.067  1.00  0.00     0.071 C 
ENDBRANCH  11  14
ENDBRANCH   6  11
BRANCH   8  16
ATOM     16  C   UNL A   1      34.603  23.848  23.876  1.00  0.00     0.072 C 
BRANCH  16  17
ATOM     17  C   UNL A   1      33.786  25.039  23.305  1.00  0.00     0.262 C 
BRANCH  17  18
ATOM     18  N   UNL A   1      33.914  26.423  23.788  1.00  0.00    -0.335 N 
ATOM     19  C   UNL A   1      33.331  27.384  22.852  1.00  0.00     0.262 C 
ATOM     20  C   UNL A   1      33.560  26.665  25.183  1.00  0.00     0.265 C 
ATOM     21  H   UNL A   1      34.921  26.585  23.807  1.00  0.00     0.348 HD
ATOM     22  C   UNL A   1      33.704  28.812  23.241  1.00  0.00     0.062 C 
ATOM     23  C   UNL A   1      33.767  28.123  25.661  1.00  0.00     0.044 C 
ATOM     24  C   UNL A   1      33.205  29.126  24.643  1.00  0.00     0.015 C 
BRANCH  23  25
ATOM     25  C   UNL A   1      33.196  28.276  27.097  1.00  0.00     0.006 C 
ATOM     26  C   UNL A   1      31.953  29.143  27.258  1.00  0.00     0.004 C 
ENDBRANCH  23  25
ENDBRANCH  17  18
ENDBRANCH  16  17
ENDBRANCH   8  16
ENDBRANCH   3   6
ENDBRANCH   1   2
BRANCH   1  27
ATOM     27  C   UNL A   1      38.088  19.878  24.841  1.00  0.00     0.042 C 
BRANCH  27  28
ATOM     28  C   UNL A   1      39.022  20.069  26.031  1.00  0.00     0.118 C 
BRANCH  28  29
ATOM     29  N   UNL A   1      40.260  19.319  25.886  1.00  0.00    -0.352 N 
ATOM     30  C   UNL A   1      41.566  19.726  25.955  1.00  0.00     0.251 C 
ATOM     31  H   UNL A   1      40.140  18.358  25.711  1.00  0.00     0.163 HD
ATOM     32  O   UNL A   1      42.451  18.978  25.555  1.00  0.00    -0.269 OA
BRANCH  30  33
ATOM     33  C   UNL A   1      41.916  21.053  26.500  1.00  0.00     0.039 A 
ATOM     34  C   UNL A   1      41.918  21.227  27.887  1.00  0.00     0.014 A 
ATOM     35  C   UNL A   1      42.164  22.142  25.660  1.00  0.00     0.014 A 
ATOM     36  C   UNL A   1      42.196  22.483  28.429  1.00  0.00     0.010 A 
ATOM     37  C   UNL A   1      42.529  23.370  26.201  1.00  0.00     0.010 A 
ATOM     38  C   UNL A   1      42.515  23.561  27.590  1.00  0.00    -0.014 A 
BRANCH  38  39
ATOM     39  C   UNL A   1      42.766  24.914  28.143  1.00  0.00     0.031 A 
ATOM     40  C   UNL A   1      44.160  25.307  28.554  1.00  0.00     0.074 A 
ATOM     41  C   UNL A   1      41.741  25.770  28.313  1.00  0.00     0.049 A 
ATOM     42  N   UNL A   1      44.577  26.422  29.095  1.00  0.00    -0.248 NA
ATOM     43  C   UNL A   1      45.219  24.303  28.357  1.00  0.00     0.031 C 
ATOM     44  C   UNL A   1      40.340  25.494  27.993  1.00  0.00     0.029 A 
ATOM     45  N   UNL A   1      41.726  27.052  28.801  1.00  0.00    -0.354 N 
ATOM     46  C   UNL A   1      45.935  26.241  29.329  1.00  0.00     0.074 A 
ATOM     47  C   UNL A   1      46.262  24.894  28.917  1.00  0.00     0.031 C 
ATOM     48  C   UNL A   1      39.606  26.587  28.261  1.00  0.00     0.029 A 
ATOM     49  C   UNL A   1      40.478  27.625  28.799  1.00  0.00     0.049 A 
ATOM     50  H   UNL A   1      42.533  27.516  29.122  1.00  0.00     0.167 HD
ATOM     51  C   UNL A   1      46.838  27.124  29.821  1.00  0.00     0.031 A 
ATOM     52  C   UNL A   1      40.085  28.853  29.181  1.00  0.00     0.031 A 
ATOM     53  C   UNL A   1      46.522  28.473  30.199  1.00  0.00     0.049 A 
ATOM     54  C   UNL A   1      41.112  29.828  29.689  1.00  0.00     0.074 A 
ATOM     55  C   UNL A   1      47.372  29.463  30.660  1.00  0.00     0.029 A 
ATOM     56  N   UNL A   1      45.252  29.026  30.146  1.00  0.00    -0.354 N 
ATOM     57  N   UNL A   1      42.401  29.659  29.854  1.00  0.00    -0.248 NA
ATOM     58  C   UNL A   1      40.628  31.170  30.041  1.00  0.00     0.031 C 
ATOM     59  C   UNL A   1      46.609  30.608  30.914  1.00  0.00     0.029 A 
ATOM     60  C   UNL A   1      45.293  30.342  30.570  1.00  0.00     0.049 A 
ATOM     61  H   UNL A   1      44.440  28.551  29.852  1.00  0.00     0.167 HD
ATOM     62  C   UNL A   1      42.888  30.880  30.298  1.00  0.00     0.074 A 
ATOM     63  C   UNL A   1      41.758  31.784  30.365  1.00  0.00     0.031 C 
ATOM     64  C   UNL A   1      44.159  31.226  30.619  1.00  0.00     0.031 A 
BRANCH  51  65
ATOM     65  C   UNL A   1      48.255  26.645  29.972  1.00  0.00    -0.014 A 
ATOM     66  C   UNL A   1      49.196  26.824  28.947  1.00  0.00     0.009 A 
ATOM     67  C   UNL A   1      48.657  26.018  31.161  1.00  0.00     0.009 A 
ATOM     68  C   UNL A   1      50.501  26.348  29.092  1.00  0.00     0.001 A 
ATOM     69  C   UNL A   1      49.970  25.568  31.316  1.00  0.00     0.001 A 
ATOM     70  C   UNL A   1      50.887  25.724  30.278  1.00  0.00     0.000 A 
ENDBRANCH  51  65
BRANCH  52  71
ATOM     71  C   UNL A   1      38.660  29.250  29.055  1.00  0.00    -0.014 A 
ATOM     72  C   UNL A   1      38.163  29.726  27.832  1.00  0.00     0.009 A 
ATOM     73  C   UNL A   1      37.792  29.157  30.152  1.00  0.00     0.009 A 
ATOM     74  C   UNL A   1      36.830  30.126  27.717  1.00  0.00     0.001 A 
ATOM     75  C   UNL A   1      36.453  29.534  30.027  1.00  0.00     0.001 A 
ATOM     76  C   UNL A   1      35.976  30.027  28.814  1.00  0.00     0.000 A 
ENDBRANCH  52  71
BRANCH  64  77
ATOM     77  C   UNL A   1      44.398  32.652  31.021  1.00  0.00    -0.014 A 
ATOM     78  C   UNL A   1      44.294  33.061  32.359  1.00  0.00     0.009 A 
ATOM     79  C   UNL A   1      44.765  33.592  30.045  1.00  0.00     0.009 A 
ATOM     80  C   UNL A   1      44.520  34.394  32.707  1.00  0.00     0.001 A 
ATOM     81  C   UNL A   1      45.015  34.918  30.400  1.00  0.00     0.001 A 
ATOM     82  C   UNL A   1      44.883  35.319  31.728  1.00  0.00     0.000 A 
ENDBRANCH  64  77
ENDBRANCH  38  39
ENDBRANCH  30  33
ENDBRANCH  28  29
ENDBRANCH  27  28
ENDBRANCH   1  27
TORSDOF 16
ENDMDL
MODEL 3
REMARK VINA RESULT:     -10.4      2.525      7.834
REMARK SMILES CC[NH2+][C@]1(C(=O)NCCCNC(=O)c2ccc(-c3c4nc(c(-c5ccccc5)c5ccc([nH]5)c(-c5ccccc5)c5nc(c(-c6ccccc6)c6ccc3[nH]6)C=C5)C=C4)cc2)CCC[C@H]1CC[N@H+]1CCC[C@@H](CC)C1
REMARK SMILES IDX 8 1 7 2 5 3 6 4 4 6 62 7 65 8 63 9 64 10 3 11 2 14 1 15
REMARK SMILES IDX 66 16 67 17 68 18 69 19 75 20 70 22 72 23 71 24 73 25 74 26
REMARK SMILES IDX 9 27 10 28 11 29 12 30 13 32 14 33 15 34 61 35 16 36 60 37
REMARK SMILES IDX 17 38 18 39 19 40 54 41 20 42 59 43 53 44 55 45 21 46 58 47
REMARK SMILES IDX 52 48 51 49 22 51 44 52 29 53 43 54 30 55 33 56 42 57 56 58
REMARK SMILES IDX 31 59 32 60 41 62 57 63 34 64 23 65 24 66 28 67 25 68 27 69
REMARK SMILES IDX 26 70 45 71 46 72 50 73 47 74 49 75 48 76 35 77 36 78 40 79
REMARK SMILES IDX 37 80 39 81 38 82
REMARK H PARENT 7 5 3 12 3 13 68 21 11 31 55 50 33 61
REMARK Flexibility Score: inf
ROOT
ATOM      1  C   UNL A   1      31.863  29.944  25.707  1.00  0.00     0.118 C 
ENDROOT
BRANCH   1   2
ATOM      2  N   UNL A   1      32.658  29.677  24.527  1.00  0.00    -0.351 N 
ATOM      3  C   UNL A   1      32.764  28.564  23.753  1.00  0.00     0.281 C 
ATOM      4  O   UNL A   1      33.815  28.481  23.120  1.00  0.00    -0.268 OA
ATOM      5  H   UNL A   1      33.219  30.432  24.235  1.00  0.00     0.163 HD
BRANCH   3   6
ATOM      6  C   UNL A   1      31.669  27.460  23.755  1.00  0.00     0.178 C 
ATOM      7  C   UNL A   1      31.884  26.493  22.575  1.00  0.00     0.079 C 
ATOM      8  C   UNL A   1      31.728  26.484  24.980  1.00  0.00     0.066 C 
ATOM      9  C   UNL A   1      31.231  25.171  22.944  1.00  0.00     0.008 C 
ATOM     10  C   UNL A   1      31.004  25.215  24.447  1.00  0.00     0.011 C 
BRANCH   6  11
ATOM     11  N   UNL A   1      30.354  28.137  23.887  1.00  0.00    -0.334 N 
ATOM     12  H   UNL A   1      29.775  27.530  24.467  1.00  0.00     0.347 HD
ATOM     13  H   UNL A   1      30.618  29.055  24.248  1.00  0.00     0.347 HD
BRANCH  11  14
ATOM     14  C   UNL A   1      29.555  28.480  22.734  1.00  0.00     0.257 C 
ATOM     15  C   UNL A   1      29.483  29.998  22.611  1.00  0.00     0.071 C 
ENDBRANCH  11  14
ENDBRANCH   6  11
BRANCH   8  16
ATOM     16  C   UNL A   1      33.074  26.038  25.605  1.00  0.00     0.072 C 
BRANCH  16  17
ATOM     17  C   UNL A   1      33.359  24.549  25.941  1.00  0.00     0.262 C 
BRANCH  17  18
ATOM     18  N   UNL A   1      34.391  23.743  25.266  1.00  0.00    -0.335 N 
ATOM     19  C   UNL A   1      34.519  24.095  23.852  1.00  0.00     0.262 C 
ATOM     20  C   UNL A   1      35.667  23.599  25.959  1.00  0.00     0.265 C 
ATOM     21  H   UNL A   1      34.029  22.791  25.313  1.00  0.00     0.348 HD
ATOM     22  C   UNL A   1      35.394  23.081  23.120  1.00  0.00     0.062 C 
ATOM     23  C   UNL A   1      36.697  22.696  25.240  1.00  0.00     0.044 C 
ATOM     24  C   UNL A   1      36.781  23.032  23.744  1.00  0.00     0.015 C 
BRANCH  23  25
ATOM     25  C   UNL A   1      38.054  22.768  25.992  1.00  0.00     0.006 C 
ATOM     26  C   UNL A   1      38.549  24.152  26.394  1.00  0.00     0.004 C 
ENDBRANCH  23  25
ENDBRANCH  17  18
ENDBRANCH  16  17
ENDBRANCH   8  16
ENDBRANCH   3   6
ENDBRANCH   1   2
BRANCH   1  27
ATOM     27  C   UNL A   1      32.630  29.614  26.984  1.00  0.00     0.042 C 
BRANCH  27  28
ATOM     28  C   UNL A   1      33.998  30.283  27.071  1.00  0.00     0.118 C 
BRANCH  28  29
ATOM     29  N   UNL A   1      33.959  31.520  27.835  1.00  0.00    -0.352 N 
ATOM     30  C   UNL A   1      34.734  31.954  28.878  1.00  0.00     0.251 C 
ATOM     31  H   UNL A   1      33.260  32.154  27.554  1.00  0.00     0.163 HD
ATOM     32  O   UNL A   1      34.369  32.921  29.537  1.00  0.00    -0.269 OA
BRANCH  30  33
ATOM     33  C   UNL A   1      35.996  31.267  29.217  1.00  0.00     0.039 A 
ATOM     34  C   UNL A   1      35.943  30.133  30.033  1.00  0.00     0.014 A 
ATOM     35  C   UNL A   1      37.233  31.774  28.807  1.00  0.00     0.014 A 
ATOM     36  C   UNL A   1      37.124  29.494  30.412  1.00  0.00     0.010 A 
ATOM     37  C   UNL A   1      38.402  31.085  29.109  1.00  0.00     0.010 A 
ATOM     38  C   UNL A   1      38.363  29.958  29.942  1.00  0.00    -0.014 A 
BRANCH  38  39
ATOM     39  C   UNL A   1      39.631  29.323  30.371  1.00  0.00     0.031 A 
ATOM     40  C   UNL A   1      40.346  29.832  31.595  1.00  0.00     0.074 A 
ATOM     41  C   UNL A   1      40.160  28.321  29.644  1.00  0.00     0.049 A 
ATOM     42  N   UNL A   1      41.484  29.441  32.109  1.00  0.00    -0.248 NA
ATOM     43  C   UNL A   1      39.712  30.947  32.319  1.00  0.00     0.031 C 
ATOM     44  C   UNL A   1      39.586  27.765  28.418  1.00  0.00     0.029 A 
ATOM     45  N   UNL A   1      41.306  27.592  29.837  1.00  0.00    -0.354 N 
ATOM     46  C   UNL A   1      41.713  30.279  33.193  1.00  0.00     0.074 A 
ATOM     47  C   UNL A   1      40.625  31.230  33.235  1.00  0.00     0.031 C 
ATOM     48  C   UNL A   1      40.365  26.760  27.986  1.00  0.00     0.029 A 
ATOM     49  C   UNL A   1      41.505  26.622  28.886  1.00  0.00     0.049 A 
ATOM     50  H   UNL A   1      41.926  27.749  30.586  1.00  0.00     0.167 HD
ATOM     51  C   UNL A   1      42.728  30.248  34.091  1.00  0.00     0.031 A 
ATOM     52  C   UNL A   1      42.492  25.717  28.761  1.00  0.00     0.031 A 
ATOM     53  C   UNL A   1      43.792  29.284  34.071  1.00  0.00     0.049 A 
ATOM     54  C   UNL A   1      43.588  25.678  29.791  1.00  0.00     0.074 A 
ATOM     55  C   UNL A   1      44.840  29.134  34.963  1.00  0.00     0.029 A 
ATOM     56  N   UNL A   1      43.936  28.294  33.111  1.00  0.00    -0.354 N 
ATOM     57  N   UNL A   1      43.762  26.443  30.840  1.00  0.00    -0.248 NA
ATOM     58  C   UNL A   1      44.608  24.634  29.628  1.00  0.00     0.031 C 
ATOM     59  C   UNL A   1      45.635  28.069  34.526  1.00  0.00     0.029 A 
ATOM     60  C   UNL A   1      45.057  27.531  33.387  1.00  0.00     0.049 A 
ATOM     61  H   UNL A   1      43.331  28.155  32.347  1.00  0.00     0.167 HD
ATOM     62  C   UNL A   1      44.893  25.954  31.481  1.00  0.00     0.074 A 
ATOM     63  C   UNL A   1      45.354  24.819  30.707  1.00  0.00     0.031 C 
ATOM     64  C   UNL A   1      45.493  26.401  32.610  1.00  0.00     0.031 A 
BRANCH  51  65
ATOM     65  C   UNL A   1      42.722  31.295  35.170  1.00  0.00    -0.014 A 
ATOM     66  C   UNL A   1      43.351  32.536  34.982  1.00  0.00     0.009 A 
ATOM     67  C   UNL A   1      42.068  31.043  36.385  1.00  0.00     0.009 A 
ATOM     68  C   UNL A   1      43.362  33.486  36.005  1.00  0.00     0.001 A 
ATOM     69  C   UNL A   1      42.055  32.006  37.396  1.00  0.00     0.001 A 
ATOM     70  C   UNL A   1      42.711  33.222  37.209  1.00  0.00     0.000 A 
ENDBRANCH  51  65
BRANCH  52  71
ATOM     71  C   UNL A   1      42.469  24.741  27.642  1.00  0.00    -0.014 A 
ATOM     72  C   UNL A   1      43.018  25.081  26.396  1.00  0.00     0.009 A 
ATOM     73  C   UNL A   1      41.901  23.470  27.812  1.00  0.00     0.009 A 
ATOM     74  C   UNL A   1      42.973  24.176  25.333  1.00  0.00     0.001 A 
ATOM     75  C   UNL A   1      41.881  22.558  26.754  1.00  0.00     0.001 A 
ATOM     76  C   UNL A   1      42.407  22.915  25.514  1.00  0.00     0.000 A 
ENDBRANCH  52  71
BRANCH  64  77
ATOM     77  C   UNL A   1      46.684  25.630  33.102  1.00  0.00    -0.014 A 
ATOM     78  C   UNL A   1      47.985  25.958  32.694  1.00  0.00     0.009 A 
ATOM     79  C   UNL A   1      46.497  24.579  34.014  1.00  0.00     0.009 A 
ATOM     80  C   UNL A   1      49.075  25.224  33.164  1.00  0.00     0.001 A 
ATOM     81  C   UNL A   1      47.592  23.864  34.501  1.00  0.00     0.001 A 
ATOM     82  C   UNL A   1      48.878  24.181  34.069  1.00  0.00     0.000 A 
ENDBRANCH  64  77
ENDBRANCH  38  39
ENDBRANCH  30  33
ENDBRANCH  28  29
ENDBRANCH  27  28
ENDBRANCH   1  27
TORSDOF 16
ENDMDL
