MODEL 1
REMARK VINA RESULT:     -11.2      0.000      0.000
REMARK SMILES C[C@H](C(=O)NCCCNC(=O)c1ccc(-c2c3nc(c(-c4ccccc4)c4ccc([nH]4)c(-c4ccccc4)c4nc(c(-c5ccccc5)c5ccc2[nH]5)C=C4)C=C3)cc1)c1ccc(C[C@@H]2CCC[C@H]2O)cc1
REMARK SMILES IDX 6 1 5 2 3 3 4 4 2 6 1 7 60 8 61 9 72 10 62 11 71 12 63 13
REMARK SMILES IDX 64 14 65 15 66 16 69 17 67 18 68 19 70 20 7 22 8 23 9 24
REMARK SMILES IDX 10 25 11 27 12 28 13 29 59 30 14 31 58 32 15 33 16 34 17 35
REMARK SMILES IDX 52 36 18 37 57 38 51 39 53 40 19 41 56 42 50 43 49 44 20 46
REMARK SMILES IDX 42 47 27 48 41 49 28 50 31 51 40 52 54 53 29 54 30 55 39 57
REMARK SMILES IDX 55 58 32 59 21 60 22 61 26 62 23 63 25 64 24 65 43 66 44 67
REMARK SMILES IDX 48 68 45 69 47 70 46 71 33 72 34 73 38 74 35 75 37 76 36 77
REMARK H PARENT 5 5 70 21 9 26 53 45 31 56
REMARK Flexibility Score: inf
ROOT
ATOM      1  C   UNL A   1      31.746  26.950  26.498  1.00  0.00     0.117 C 
ENDROOT
BRANCH   1   2
ATOM      2  N   UNL A   1      32.670  26.924  25.377  1.00  0.00    -0.356 N 
ATOM      3  C   UNL A   1      32.737  26.050  24.324  1.00  0.00     0.227 C 
ATOM      4  O   UNL A   1      33.706  26.144  23.569  1.00  0.00    -0.274 OA
ATOM      5  H   UNL A   1      33.348  27.638  25.374  1.00  0.00     0.163 HD
BRANCH   3   6
ATOM      6  C   UNL A   1      31.614  25.023  24.106  1.00  0.00     0.105 C 
ATOM      7  C   UNL A   1      31.014  25.139  22.698  1.00  0.00     0.023 C 
BRANCH   6   8
ATOM      8  C   UNL A   1      32.051  23.591  24.378  1.00  0.00    -0.036 A 
ATOM      9  C   UNL A   1      32.188  22.682  23.321  1.00  0.00     0.005 A 
ATOM     10  C   UNL A   1      32.324  23.145  25.681  1.00  0.00     0.005 A 
ATOM     11  C   UNL A   1      32.545  21.351  23.565  1.00  0.00     0.004 A 
ATOM     12  C   UNL A   1      32.673  21.812  25.922  1.00  0.00     0.004 A 
ATOM     13  C   UNL A   1      32.771  20.894  24.868  1.00  0.00    -0.048 A 
BRANCH  13  14
ATOM     14  C   UNL A   1      33.167  19.460  25.132  1.00  0.00     0.041 C 
BRANCH  14  15
ATOM     15  C   UNL A   1      32.419  18.318  24.410  1.00  0.00     0.022 C 
ATOM     16  C   UNL A   1      32.502  16.952  25.100  1.00  0.00     0.007 C 
ATOM     17  C   UNL A   1      32.893  18.029  22.984  1.00  0.00     0.117 C 
ATOM     18  C   UNL A   1      33.590  16.161  24.379  1.00  0.00     0.003 C 
ATOM     19  C   UNL A   1      33.956  16.950  23.123  1.00  0.00     0.032 C 
BRANCH  17  20
ATOM     20  O   UNL A   1      31.809  17.517  22.208  1.00  0.00    -0.393 OA
ATOM     21  H   UNL A   1      31.625  18.121  21.472  1.00  0.00     0.210 HD
ENDBRANCH  17  20
ENDBRANCH  14  15
ENDBRANCH  13  14
ENDBRANCH   6   8
ENDBRANCH   3   6
ENDBRANCH   1   2
BRANCH   1  22
ATOM     22  C   UNL A   1      32.156  27.981  27.545  1.00  0.00     0.042 C 
BRANCH  22  23
ATOM     23  C   UNL A   1      33.523  28.623  27.320  1.00  0.00     0.118 C 
BRANCH  23  24
ATOM     24  N   UNL A   1      33.520  30.037  27.651  1.00  0.00    -0.352 N 
ATOM     25  C   UNL A   1      34.438  30.825  28.292  1.00  0.00     0.251 C 
ATOM     26  H   UNL A   1      32.710  30.517  27.362  1.00  0.00     0.163 HD
ATOM     27  O   UNL A   1      34.083  31.958  28.633  1.00  0.00    -0.269 OA
BRANCH  25  28
ATOM     28  C   UNL A   1      35.827  30.389  28.601  1.00  0.00     0.039 A 
ATOM     29  C   UNL A   1      36.789  30.531  27.591  1.00  0.00     0.014 A 
ATOM     30  C   UNL A   1      36.192  29.749  29.789  1.00  0.00     0.014 A 
ATOM     31  C   UNL A   1      38.094  30.061  27.773  1.00  0.00     0.010 A 
ATOM     32  C   UNL A   1      37.517  29.335  29.998  1.00  0.00     0.010 A 
ATOM     33  C   UNL A   1      38.479  29.472  28.987  1.00  0.00    -0.014 A 
BRANCH  33  34
ATOM     34  C   UNL A   1      39.880  29.004  29.181  1.00  0.00     0.031 A 
ATOM     35  C   UNL A   1      40.915  29.882  29.836  1.00  0.00     0.074 A 
ATOM     36  C   UNL A   1      40.233  27.770  28.769  1.00  0.00     0.049 A 
ATOM     37  N   UNL A   1      42.167  29.611  30.121  1.00  0.00    -0.248 NA
ATOM     38  C   UNL A   1      40.498  31.242  30.207  1.00  0.00     0.031 C 
ATOM     39  C   UNL A   1      39.351  26.823  28.087  1.00  0.00     0.029 A 
ATOM     40  N   UNL A   1      41.427  27.099  28.872  1.00  0.00    -0.354 N 
ATOM     41  C   UNL A   1      42.686  30.765  30.693  1.00  0.00     0.074 A 
ATOM     42  C   UNL A   1      41.626  31.752  30.681  1.00  0.00     0.031 C 
ATOM     43  C   UNL A   1      40.022  25.683  27.860  1.00  0.00     0.029 A 
ATOM     44  C   UNL A   1      41.388  25.827  28.354  1.00  0.00     0.049 A 
ATOM     45  H   UNL A   1      42.234  27.491  29.278  1.00  0.00     0.167 HD
ATOM     46  C   UNL A   1      43.926  30.985  31.198  1.00  0.00     0.031 A 
ATOM     47  C   UNL A   1      42.340  24.878  28.284  1.00  0.00     0.031 A 
ATOM     48  C   UNL A   1      44.988  30.012  31.223  1.00  0.00     0.049 A 
ATOM     49  C   UNL A   1      43.705  25.145  28.851  1.00  0.00     0.074 A 
ATOM     50  C   UNL A   1      46.259  30.138  31.761  1.00  0.00     0.029 A 
ATOM     51  N   UNL A   1      44.907  28.740  30.684  1.00  0.00    -0.354 N 
ATOM     52  N   UNL A   1      44.157  26.220  29.446  1.00  0.00    -0.248 NA
ATOM     53  C   UNL A   1      44.689  24.056  28.744  1.00  0.00     0.031 C 
ATOM     54  C   UNL A   1      46.961  28.952  31.511  1.00  0.00     0.029 A 
ATOM     55  C   UNL A   1      46.111  28.075  30.858  1.00  0.00     0.049 A 
ATOM     56  H   UNL A   1      44.112  28.362  30.242  1.00  0.00     0.167 HD
ATOM     57  C   UNL A   1      45.469  25.935  29.798  1.00  0.00     0.074 A 
ATOM     58  C   UNL A   1      45.734  24.577  29.371  1.00  0.00     0.031 C 
ATOM     59  C   UNL A   1      46.374  26.730  30.419  1.00  0.00     0.031 A 
BRANCH  46  60
ATOM     60  C   UNL A   1      44.205  32.346  31.771  1.00  0.00    -0.014 A 
ATOM     61  C   UNL A   1      44.017  32.610  33.137  1.00  0.00     0.009 A 
ATOM     62  C   UNL A   1      44.708  33.364  30.945  1.00  0.00     0.009 A 
ATOM     63  C   UNL A   1      44.295  33.876  33.658  1.00  0.00     0.001 A 
ATOM     64  C   UNL A   1      45.008  34.621  31.473  1.00  0.00     0.001 A 
ATOM     65  C   UNL A   1      44.793  34.879  32.826  1.00  0.00     0.000 A 
ENDBRANCH  46  60
BRANCH  47  66
ATOM     66  C   UNL A   1      42.029  23.566  27.662  1.00  0.00    -0.014 A 
ATOM     67  C   UNL A   1      42.311  23.337  26.306  1.00  0.00     0.009 A 
ATOM     68  C   UNL A   1      41.447  22.538  28.419  1.00  0.00     0.009 A 
ATOM     69  C   UNL A   1      41.996  22.111  25.717  1.00  0.00     0.001 A 
ATOM     70  C   UNL A   1      41.157  21.305  27.833  1.00  0.00     0.001 A 
ATOM     71  C   UNL A   1      41.423  21.096  26.482  1.00  0.00     0.000 A 
ENDBRANCH  47  66
BRANCH  59  72
ATOM     72  C   UNL A   1      47.730  26.142  30.684  1.00  0.00    -0.014 A 
ATOM     73  C   UNL A   1      48.075  25.659  31.956  1.00  0.00     0.009 A 
ATOM     74  C   UNL A   1      48.672  26.060  29.646  1.00  0.00     0.009 A 
ATOM     75  C   UNL A   1      49.350  25.139  32.192  1.00  0.00     0.001 A 
ATOM     76  C   UNL A   1      49.937  25.519  29.879  1.00  0.00     0.001 A 
ATOM     77  C   UNL A   1      50.278  25.068  31.153  1.00  0.00     0.000 A 
ENDBRANCH  59  72
ENDBRANCH  33  34
ENDBRANCH  25  28
ENDBRANCH  23  24
ENDBRANCH  22  23
ENDBRANCH   1  22
TORSDOF 14
ENDMDL
MODEL 2
REMARK VINA RESULT:     -11.1      1.660      6.328
REMARK SMILES C[C@H](C(=O)NCCCNC(=O)c1ccc(-c2c3nc(c(-c4ccccc4)c4ccc([nH]4)c(-c4ccccc4)c4nc(c(-c5ccccc5)c5ccc2[nH]5)C=C4)C=C3)cc1)c1ccc(C[C@@H]2CCC[C@H]2O)cc1
REMARK SMILES IDX 6 1 5 2 3 3 4 4 2 6 1 7 60 8 61 9 72 10 62 11 71 12 63 13
REMARK SMILES IDX 64 14 65 15 66 16 69 17 67 18 68 19 70 20 7 22 8 23 9 24
REMARK SMILES IDX 10 25 11 27 12 28 13 29 59 30 14 31 58 32 15 33 16 34 17 35
REMARK SMILES IDX 52 36 18 37 57 38 51 39 53 40 19 41 56 42 50 43 49 44 20 46
REMARK SMILES IDX 42 47 27 48 41 49 28 50 31 51 40 52 54 53 29 54 30 55 39 57
REMARK SMILES IDX 55 58 32 59 21 60 22 61 26 62 23 63 25 64 24 65 43 66 44 67
REMARK SMILES IDX 48 68 45 69 47 70 46 71 33 72 34 73 38 74 35 75 37 76 36 77
REMARK H PARENT 5 5 70 21 9 26 53 45 31 56
REMARK Flexibility Score: inf
ROOT
ATOM      1  C   UNL A   1      32.334  29.467  25.208  1.00  0.00     0.117 C 
ENDROOT
BRANCH   1   2
ATOM      2  N   UNL A   1      33.254  29.327  24.092  1.00  0.00    -0.356 N 
ATOM      3  C   UNL A   1      33.458  28.258  23.261  1.00  0.00     0.227 C 
ATOM      4  O   UNL A   1      34.403  28.324  22.473  1.00  0.00    -0.274 OA
ATOM      5  H   UNL A   1      33.814  30.117  23.907  1.00  0.00     0.163 HD
BRANCH   3   6
ATOM      6  C   UNL A   1      32.508  27.050  23.315  1.00  0.00     0.105 C 
ATOM      7  C   UNL A   1      31.668  26.940  22.035  1.00  0.00     0.023 C 
BRANCH   6   8
ATOM      8  C   UNL A   1      33.225  25.737  23.592  1.00  0.00    -0.036 A 
ATOM      9  C   UNL A   1      34.023  25.596  24.735  1.00  0.00     0.005 A 
ATOM     10  C   UNL A   1      33.109  24.644  22.719  1.00  0.00     0.005 A 
ATOM     11  C   UNL A   1      34.722  24.407  24.975  1.00  0.00     0.004 A 
ATOM     12  C   UNL A   1      33.817  23.460  22.958  1.00  0.00     0.004 A 
ATOM     13  C   UNL A   1      34.646  23.334  24.080  1.00  0.00    -0.048 A 
BRANCH  13  14
ATOM     14  C   UNL A   1      35.392  22.047  24.344  1.00  0.00     0.041 C 
BRANCH  14  15
ATOM     15  C   UNL A   1      34.780  20.992  25.291  1.00  0.00     0.022 C 
ATOM     16  C   UNL A   1      34.410  19.661  24.626  1.00  0.00     0.007 C 
ATOM     17  C   UNL A   1      33.485  21.416  25.988  1.00  0.00     0.117 C 
ATOM     18  C   UNL A   1      32.909  19.708  24.352  1.00  0.00     0.003 C 
ATOM     19  C   UNL A   1      32.362  20.934  25.081  1.00  0.00     0.032 C 
BRANCH  17  20
ATOM     20  O   UNL A   1      33.377  20.759  27.251  1.00  0.00    -0.393 OA
ATOM     21  H   UNL A   1      33.539  21.398  27.963  1.00  0.00     0.210 HD
ENDBRANCH  17  20
ENDBRANCH  14  15
ENDBRANCH  13  14
ENDBRANCH   6   8
ENDBRANCH   3   6
ENDBRANCH   1   2
BRANCH   1  22
ATOM     22  C   UNL A   1      32.617  28.444  26.304  1.00  0.00     0.042 C 
BRANCH  22  23
ATOM     23  C   UNL A   1      33.888  28.695  27.112  1.00  0.00     0.118 C 
BRANCH  23  24
ATOM     24  N   UNL A   1      33.870  29.994  27.762  1.00  0.00    -0.352 N 
ATOM     25  C   UNL A   1      34.796  30.637  28.540  1.00  0.00     0.251 C 
ATOM     26  H   UNL A   1      33.042  30.506  27.616  1.00  0.00     0.163 HD
ATOM     27  O   UNL A   1      34.432  31.651  29.143  1.00  0.00    -0.269 OA
BRANCH  25  28
ATOM     28  C   UNL A   1      36.202  30.178  28.697  1.00  0.00     0.039 A 
ATOM     29  C   UNL A   1      37.031  30.236  27.568  1.00  0.00     0.014 A 
ATOM     30  C   UNL A   1      36.701  29.594  29.866  1.00  0.00     0.014 A 
ATOM     31  C   UNL A   1      38.338  29.738  27.612  1.00  0.00     0.010 A 
ATOM     32  C   UNL A   1      38.032  29.154  29.931  1.00  0.00     0.010 A 
ATOM     33  C   UNL A   1      38.861  29.206  28.801  1.00  0.00    -0.014 A 
BRANCH  33  34
ATOM     34  C   UNL A   1      40.264  28.709  28.845  1.00  0.00     0.031 A 
ATOM     35  C   UNL A   1      40.603  27.286  28.481  1.00  0.00     0.074 A 
ATOM     36  C   UNL A   1      41.257  29.545  29.211  1.00  0.00     0.049 A 
ATOM     37  N   UNL A   1      41.778  26.705  28.423  1.00  0.00    -0.248 NA
ATOM     38  C   UNL A   1      39.479  26.396  28.153  1.00  0.00     0.031 C 
ATOM     39  C   UNL A   1      41.077  30.937  29.624  1.00  0.00     0.029 A 
ATOM     40  N   UNL A   1      42.614  29.347  29.285  1.00  0.00    -0.354 N 
ATOM     41  C   UNL A   1      41.534  25.386  28.063  1.00  0.00     0.074 A 
ATOM     42  C   UNL A   1      40.098  25.241  27.953  1.00  0.00     0.031 C 
ATOM     43  C   UNL A   1      42.279  31.477  29.880  1.00  0.00     0.029 A 
ATOM     44  C   UNL A   1      43.311  30.464  29.675  1.00  0.00     0.049 A 
ATOM     45  H   UNL A   1      43.046  28.487  29.079  1.00  0.00     0.167 HD
ATOM     46  C   UNL A   1      42.422  24.387  27.830  1.00  0.00     0.031 A 
ATOM     47  C   UNL A   1      44.631  30.660  29.848  1.00  0.00     0.031 A 
ATOM     48  C   UNL A   1      43.852  24.518  27.929  1.00  0.00     0.049 A 
ATOM     49  C   UNL A   1      45.594  29.538  29.583  1.00  0.00     0.074 A 
ATOM     50  C   UNL A   1      44.825  23.568  27.662  1.00  0.00     0.029 A 
ATOM     51  N   UNL A   1      44.516  25.664  28.332  1.00  0.00    -0.354 N 
ATOM     52  N   UNL A   1      45.348  28.316  29.181  1.00  0.00    -0.248 NA
ATOM     53  C   UNL A   1      47.021  29.831  29.785  1.00  0.00     0.031 C 
ATOM     54  C   UNL A   1      46.077  24.129  27.942  1.00  0.00     0.029 A 
ATOM     55  C   UNL A   1      45.884  25.442  28.340  1.00  0.00     0.049 A 
ATOM     56  H   UNL A   1      44.080  26.513  28.577  1.00  0.00     0.167 HD
ATOM     57  C   UNL A   1      46.586  27.699  29.067  1.00  0.00     0.074 A 
ATOM     58  C   UNL A   1      47.584  28.687  29.420  1.00  0.00     0.031 C 
ATOM     59  C   UNL A   1      46.870  26.424  28.705  1.00  0.00     0.031 A 
BRANCH  46  60
ATOM     60  C   UNL A   1      41.863  23.047  27.441  1.00  0.00    -0.014 A 
ATOM     61  C   UNL A   1      41.687  22.031  28.393  1.00  0.00     0.009 A 
ATOM     62  C   UNL A   1      41.461  22.813  26.116  1.00  0.00     0.009 A 
ATOM     63  C   UNL A   1      41.152  20.796  28.020  1.00  0.00     0.001 A 
ATOM     64  C   UNL A   1      40.904  21.586  25.751  1.00  0.00     0.001 A 
ATOM     65  C   UNL A   1      40.758  20.576  26.700  1.00  0.00     0.000 A 
ENDBRANCH  46  60
BRANCH  47  66
ATOM     66  C   UNL A   1      45.130  31.989  30.283  1.00  0.00    -0.014 A 
ATOM     67  C   UNL A   1      45.468  32.966  29.335  1.00  0.00     0.009 A 
ATOM     68  C   UNL A   1      45.272  32.284  31.648  1.00  0.00     0.009 A 
ATOM     69  C   UNL A   1      45.960  34.208  29.746  1.00  0.00     0.001 A 
ATOM     70  C   UNL A   1      45.740  33.535  32.055  1.00  0.00     0.001 A 
ATOM     71  C   UNL A   1      46.090  34.491  31.105  1.00  0.00     0.000 A 
ENDBRANCH  47  66
BRANCH  59  72
ATOM     72  C   UNL A   1      48.320  26.034  28.660  1.00  0.00    -0.014 A 
ATOM     73  C   UNL A   1      48.984  25.578  29.809  1.00  0.00     0.009 A 
ATOM     74  C   UNL A   1      49.028  26.114  27.450  1.00  0.00     0.009 A 
ATOM     75  C   UNL A   1      50.339  25.245  29.755  1.00  0.00     0.001 A 
ATOM     76  C   UNL A   1      50.376  25.758  27.394  1.00  0.00     0.001 A 
ATOM     77  C   UNL A   1      51.033  25.333  28.548  1.00  0.00     0.000 A 
ENDBRANCH  59  72
ENDBRANCH  33  34
ENDBRANCH  25  28
ENDBRANCH  23  24
ENDBRANCH  22  23
ENDBRANCH   1  22
TORSDOF 14
ENDMDL
MODEL 3
REMARK VINA RESULT:     -11.1      2.318      8.091
REMARK SMILES C[C@H](C(=O)NCCCNC(=O)c1ccc(-c2c3nc(c(-c4ccccc4)c4ccc([nH]4)c(-c4ccccc4)c4nc(c(-c5ccccc5)c5ccc2[nH]5)C=C4)C=C3)cc1)c1ccc(C[C@@H]2CCC[C@H]2O)cc1
REMARK SMILES IDX 6 1 5 2 3 3 4 4 2 6 1 7 60 8 61 9 72 10 62 11 71 12 63 13
REMARK SMILES IDX 64 14 65 15 66 16 69 17 67 18 68 19 70 20 7 22 8 23 9 24
REMARK SMILES IDX 10 25 11 27 12 28 13 29 59 30 14 31 58 32 15 33 16 34 17 35
REMARK SMILES IDX 52 36 18 37 57 38 51 39 53 40 19 41 56 42 50 43 49 44 20 46
REMARK SMILES IDX 42 47 27 48 41 49 28 50 31 51 40 52 54 53 29 54 30 55 39 57
REMARK SMILES IDX 55 58 32 59 21 60 22 61 26 62 23 63 25 64 24 65 43 66 44 67
REMARK SMILES IDX 48 68 45 69 47 70 46 71 33 72 34 73 38 74 35 75 37 76 36 77
REMARK H PARENT 5 5 70 21 9 26 53 45 31 56
REMARK Flexibility Score: inf
ROOT
ATOM      1  C   UNL A   1      36.423  20.427  24.623  1.00  0.00     0.117 C 
ENDROOT
BRANCH   1   2
ATOM      2  N   UNL A   1      35.197  19.888  25.188  1.00  0.00    -0.356 N 
ATOM      3  C   UNL A   1      33.910  20.337  25.058  1.00  0.00     0.227 C 
ATOM      4  O   UNL A   1      33.048  19.797  25.755  1.00  0.00    -0.274 OA
ATOM      5  H   UNL A   1      35.309  19.084  25.745  1.00  0.00     0.163 HD
BRANCH   3   6
ATOM      6  C   UNL A   1      33.582  21.452  24.053  1.00  0.00     0.105 C 
ATOM      7  C   UNL A   1      32.307  21.134  23.259  1.00  0.00     0.023 C 
BRANCH   6   8
ATOM      8  C   UNL A   1      33.475  22.826  24.697  1.00  0.00    -0.036 A 
ATOM      9  C   UNL A   1      32.276  23.234  25.296  1.00  0.00     0.005 A 
ATOM     10  C   UNL A   1      34.562  23.715  24.707  1.00  0.00     0.005 A 
ATOM     11  C   UNL A   1      32.153  24.513  25.850  1.00  0.00     0.004 A 
ATOM     12  C   UNL A   1      34.433  24.996  25.255  1.00  0.00     0.004 A 
ATOM     13  C   UNL A   1      33.221  25.417  25.818  1.00  0.00    -0.048 A 
BRANCH  13  14
ATOM     14  C   UNL A   1      33.093  26.794  26.426  1.00  0.00     0.041 C 
BRANCH  14  15
ATOM     15  C   UNL A   1      33.774  27.997  25.736  1.00  0.00     0.022 C 
ATOM     16  C   UNL A   1      33.756  29.300  26.543  1.00  0.00     0.007 C 
ATOM     17  C   UNL A   1      33.171  28.402  24.389  1.00  0.00     0.117 C 
ATOM     18  C   UNL A   1      32.608  30.142  25.994  1.00  0.00     0.003 C 
ATOM     19  C   UNL A   1      32.127  29.458  24.715  1.00  0.00     0.032 C 
BRANCH  17  20
ATOM     20  O   UNL A   1      34.180  28.983  23.563  1.00  0.00    -0.393 OA
ATOM     21  H   UNL A   1      35.011  29.042  24.060  1.00  0.00     0.210 HD
ENDBRANCH  17  20
ENDBRANCH  14  15
ENDBRANCH  13  14
ENDBRANCH   6   8
ENDBRANCH   3   6
ENDBRANCH   1   2
BRANCH   1  22
ATOM     22  C   UNL A   1      37.623  19.532  24.920  1.00  0.00     0.042 C 
BRANCH  22  23
ATOM     23  C   UNL A   1      38.710  20.172  25.780  1.00  0.00     0.118 C 
BRANCH  23  24
ATOM     24  N   UNL A   1      39.922  19.372  25.806  1.00  0.00    -0.352 N 
ATOM     25  C   UNL A   1      41.232  19.707  26.028  1.00  0.00     0.251 C 
ATOM     26  H   UNL A   1      39.776  18.413  25.635  1.00  0.00     0.163 HD
ATOM     27  O   UNL A   1      42.091  18.856  25.778  1.00  0.00    -0.269 OA
BRANCH  25  28
ATOM     28  C   UNL A   1      41.667  21.033  26.543  1.00  0.00     0.039 A 
ATOM     29  C   UNL A   1      41.443  21.304  27.900  1.00  0.00     0.014 A 
ATOM     30  C   UNL A   1      42.178  22.051  25.732  1.00  0.00     0.014 A 
ATOM     31  C   UNL A   1      41.742  22.560  28.439  1.00  0.00     0.010 A 
ATOM     32  C   UNL A   1      42.538  23.290  26.284  1.00  0.00     0.010 A 
ATOM     33  C   UNL A   1      42.310  23.565  27.640  1.00  0.00    -0.014 A 
BRANCH  33  34
ATOM     34  C   UNL A   1      42.653  24.887  28.232  1.00  0.00     0.031 A 
ATOM     35  C   UNL A   1      44.074  25.237  28.597  1.00  0.00     0.074 A 
ATOM     36  C   UNL A   1      41.680  25.796  28.444  1.00  0.00     0.049 A 
ATOM     37  N   UNL A   1      44.550  26.361  29.079  1.00  0.00    -0.248 NA
ATOM     38  C   UNL A   1      45.088  24.190  28.409  1.00  0.00     0.031 C 
ATOM     39  C   UNL A   1      40.258  25.585  28.175  1.00  0.00     0.029 A 
ATOM     40  N   UNL A   1      41.743  27.081  28.925  1.00  0.00    -0.354 N 
ATOM     41  C   UNL A   1      45.911  26.152  29.261  1.00  0.00     0.074 A 
ATOM     42  C   UNL A   1      46.179  24.783  28.872  1.00  0.00     0.031 C 
ATOM     43  C   UNL A   1      39.586  26.711  28.467  1.00  0.00     0.029 A 
ATOM     44  C   UNL A   1      40.523  27.711  28.967  1.00  0.00     0.049 A 
ATOM     45  H   UNL A   1      42.581  27.509  29.214  1.00  0.00     0.167 HD
ATOM     46  C   UNL A   1      46.858  27.020  29.695  1.00  0.00     0.031 A 
ATOM     47  C   UNL A   1      40.191  28.955  29.361  1.00  0.00     0.031 A 
ATOM     48  C   UNL A   1      46.607  28.386  30.079  1.00  0.00     0.049 A 
ATOM     49  C   UNL A   1      41.257  29.898  29.838  1.00  0.00     0.074 A 
ATOM     50  C   UNL A   1      47.518  29.348  30.484  1.00  0.00     0.029 A 
ATOM     51  N   UNL A   1      45.358  28.982  30.111  1.00  0.00    -0.354 N 
ATOM     52  N   UNL A   1      42.548  29.702  29.941  1.00  0.00    -0.248 NA
ATOM     53  C   UNL A   1      40.817  31.243  30.242  1.00  0.00     0.031 C 
ATOM     54  C   UNL A   1      46.813  30.516  30.800  1.00  0.00     0.029 A 
ATOM     55  C   UNL A   1      45.470  30.292  30.547  1.00  0.00     0.049 A 
ATOM     56  H   UNL A   1      44.514  28.540  29.860  1.00  0.00     0.167 HD
ATOM     57  C   UNL A   1      43.076  30.898  30.406  1.00  0.00     0.074 A 
ATOM     58  C   UNL A   1      41.970  31.823  30.543  1.00  0.00     0.031 C 
ATOM     59  C   UNL A   1      44.365  31.202  30.695  1.00  0.00     0.031 A 
BRANCH  46  60
ATOM     60  C   UNL A   1      48.270  26.512  29.782  1.00  0.00    -0.014 A 
ATOM     61  C   UNL A   1      49.170  26.691  28.720  1.00  0.00     0.009 A 
ATOM     62  C   UNL A   1      48.720  25.891  30.958  1.00  0.00     0.009 A 
ATOM     63  C   UNL A   1      50.484  26.227  28.821  1.00  0.00     0.001 A 
ATOM     64  C   UNL A   1      50.040  25.451  31.066  1.00  0.00     0.001 A 
ATOM     65  C   UNL A   1      50.918  25.611  29.994  1.00  0.00     0.000 A 
ENDBRANCH  46  60
BRANCH  47  66
ATOM     66  C   UNL A   1      38.773  29.392  29.304  1.00  0.00    -0.014 A 
ATOM     67  C   UNL A   1      38.245  29.940  28.125  1.00  0.00     0.009 A 
ATOM     68  C   UNL A   1      37.943  29.265  30.428  1.00  0.00     0.009 A 
ATOM     69  C   UNL A   1      36.917  30.373  28.081  1.00  0.00     0.001 A 
ATOM     70  C   UNL A   1      36.610  29.676  30.373  1.00  0.00     0.001 A 
ATOM     71  C   UNL A   1      36.101  30.236  29.203  1.00  0.00     0.000 A 
ENDBRANCH  47  66
BRANCH  59  72
ATOM     72  C   UNL A   1      44.646  32.597  31.176  1.00  0.00    -0.014 A 
ATOM     73  C   UNL A   1      44.635  32.908  32.545  1.00  0.00     0.009 A 
ATOM     74  C   UNL A   1      44.934  33.612  30.249  1.00  0.00     0.009 A 
ATOM     75  C   UNL A   1      44.872  34.216  32.973  1.00  0.00     0.001 A 
ATOM     76  C   UNL A   1      45.194  34.913  30.682  1.00  0.00     0.001 A 
ATOM     77  C   UNL A   1      45.153  35.216  32.042  1.00  0.00     0.000 A 
ENDBRANCH  59  72
ENDBRANCH  33  34
ENDBRANCH  25  28
ENDBRANCH  23  24
ENDBRANCH  22  23
ENDBRANCH   1  22
TORSDOF 14
ENDMDL
