MODEL 1
REMARK VINA RESULT:      -8.3      0.000      0.000
REMARK SMILES C[C@H]([NH2+]CC1(O)CCCC1)[C@H](C)C(=O)NCCCNC(=O)c1ccc(-c2c3nc(c(-c4ccccc4)c4ccc([nH]4)c(-c4ccccc4)c4nc(c(-c5ccccc5)c5ccc2[nH]5)C=C4)C=C3)cc1
REMARK SMILES IDX 13 1 14 2 15 3 11 5 12 6 2 7 1 8 3 9 4 12 5 13 7 14 10 15
REMARK SMILES IDX 8 16 9 17 6 18 16 20 17 21 18 22 19 23 20 24 21 26 22 27
REMARK SMILES IDX 23 28 69 29 24 30 68 31 25 32 26 33 27 34 62 35 28 36 67 37
REMARK SMILES IDX 61 38 63 39 29 40 66 41 60 42 59 43 30 45 52 46 37 47 51 48
REMARK SMILES IDX 38 49 41 50 50 51 64 52 39 53 40 54 49 56 65 57 42 58 31 59
REMARK SMILES IDX 32 60 36 61 33 62 35 63 34 64 53 65 54 66 58 67 55 68 57 69
REMARK SMILES IDX 56 70 43 71 44 72 48 73 45 74 47 75 46 76
REMARK H PARENT 15 4 3 10 3 11 6 19 19 25 63 44 41 55
REMARK Flexibility Score: inf
ROOT
ATOM      1  C   UNL A   1      36.578  33.732  35.839  1.00  0.00     0.228 C 
ATOM      2  O   UNL A   1      36.242  33.377  36.975  1.00  0.00    -0.275 OA
ATOM      3  N   UNL A   1      35.579  34.031  34.977  1.00  0.00    -0.356 N 
ATOM      4  H   UNL A   1      34.673  33.804  35.289  1.00  0.00     0.163 HD
ENDROOT
BRANCH   1   5
ATOM      5  C   UNL A   1      38.047  33.762  35.449  1.00  0.00     0.133 C 
ATOM      6  C   UNL A   1      38.865  34.529  36.502  1.00  0.00     0.024 C 
BRANCH   5   7
ATOM      7  C   UNL A   1      38.749  32.443  35.014  1.00  0.00     0.191 C 
ATOM      8  C   UNL A   1      37.711  31.492  34.393  1.00  0.00     0.076 C 
BRANCH   7   9
ATOM      9  N   UNL A   1      39.568  31.664  35.934  1.00  0.00    -0.341 N 
ATOM     10  H   UNL A   1      39.093  30.771  36.066  1.00  0.00     0.346 HD
ATOM     11  H   UNL A   1      39.654  32.275  36.745  1.00  0.00     0.346 HD
BRANCH   9  12
ATOM     12  C   UNL A   1      40.954  31.357  35.597  1.00  0.00     0.296 C 
BRANCH  12  13
ATOM     13  C   UNL A   1      41.143  29.831  35.303  1.00  0.00     0.113 C 
ATOM     14  C   UNL A   1      42.612  29.397  35.380  1.00  0.00     0.041 C 
ATOM     15  C   UNL A   1      40.765  29.427  33.875  1.00  0.00     0.041 C 
ATOM     16  C   UNL A   1      42.700  28.113  34.550  1.00  0.00     0.003 C 
ATOM     17  C   UNL A   1      41.438  28.069  33.691  1.00  0.00     0.003 C 
BRANCH  13  18
ATOM     18  O   UNL A   1      40.327  29.040  36.199  1.00  0.00    -0.384 OA
ATOM     19  H   UNL A   1      40.443  29.358  37.108  1.00  0.00     0.211 HD
ENDBRANCH  13  18
ENDBRANCH  12  13
ENDBRANCH   9  12
ENDBRANCH   7   9
ENDBRANCH   5   7
ENDBRANCH   1   5
BRANCH   3  20
ATOM     20  C   UNL A   1      35.640  34.635  33.664  1.00  0.00     0.117 C 
BRANCH  20  21
ATOM     21  C   UNL A   1      34.290  35.137  33.182  1.00  0.00     0.042 C 
BRANCH  21  22
ATOM     22  C   UNL A   1      34.355  36.052  31.965  1.00  0.00     0.118 C 
BRANCH  22  23
ATOM     23  N   UNL A   1      33.340  35.801  30.951  1.00  0.00    -0.352 N 
ATOM     24  C   UNL A   1      33.352  34.839  29.962  1.00  0.00     0.251 C 
ATOM     25  H   UNL A   1      32.549  36.387  30.975  1.00  0.00     0.163 HD
ATOM     26  O   UNL A   1      32.439  34.756  29.148  1.00  0.00    -0.269 OA
BRANCH  24  27
ATOM     27  C   UNL A   1      34.525  33.942  29.862  1.00  0.00     0.039 A 
ATOM     28  C   UNL A   1      35.601  34.332  29.062  1.00  0.00     0.014 A 
ATOM     29  C   UNL A   1      34.609  32.795  30.656  1.00  0.00     0.014 A 
ATOM     30  C   UNL A   1      36.811  33.641  29.156  1.00  0.00     0.010 A 
ATOM     31  C   UNL A   1      35.837  32.155  30.804  1.00  0.00     0.010 A 
ATOM     32  C   UNL A   1      36.956  32.593  30.080  1.00  0.00    -0.014 A 
BRANCH  32  33
ATOM     33  C   UNL A   1      38.289  32.007  30.368  1.00  0.00     0.031 A 
ATOM     34  C   UNL A   1      39.286  32.742  31.214  1.00  0.00     0.074 A 
ATOM     35  C   UNL A   1      38.636  30.844  29.779  1.00  0.00     0.049 A 
ATOM     36  N   UNL A   1      40.510  32.401  31.527  1.00  0.00    -0.248 NA
ATOM     37  C   UNL A   1      38.866  34.045  31.752  1.00  0.00     0.031 C 
ATOM     38  C   UNL A   1      37.789  30.067  28.869  1.00  0.00     0.029 A 
ATOM     39  N   UNL A   1      39.796  30.115  29.852  1.00  0.00    -0.354 N 
ATOM     40  C   UNL A   1      41.015  33.454  32.277  1.00  0.00     0.074 A 
ATOM     41  C   UNL A   1      39.978  34.463  32.341  1.00  0.00     0.031 C 
ATOM     42  C   UNL A   1      38.447  28.959  28.492  1.00  0.00     0.029 A 
ATOM     43  C   UNL A   1      39.768  28.959  29.111  1.00  0.00     0.049 A 
ATOM     44  H   UNL A   1      40.575  30.395  30.384  1.00  0.00     0.167 HD
ATOM     45  C   UNL A   1      42.225  33.568  32.873  1.00  0.00     0.031 A 
ATOM     46  C   UNL A   1      40.699  28.000  28.950  1.00  0.00     0.031 A 
ATOM     47  C   UNL A   1      43.249  32.559  32.833  1.00  0.00     0.049 A 
ATOM     48  C   UNL A   1      42.013  28.122  29.663  1.00  0.00     0.074 A 
ATOM     49  C   UNL A   1      44.477  32.550  33.470  1.00  0.00     0.029 A 
ATOM     50  N   UNL A   1      43.161  31.378  32.112  1.00  0.00    -0.354 N 
ATOM     51  N   UNL A   1      42.439  29.086  30.442  1.00  0.00    -0.248 NA
ATOM     52  C   UNL A   1      42.969  27.020  29.486  1.00  0.00     0.031 C 
ATOM     53  C   UNL A   1      45.146  31.375  33.111  1.00  0.00     0.029 A 
ATOM     54  C   UNL A   1      44.319  30.639  32.277  1.00  0.00     0.049 A 
ATOM     55  H   UNL A   1      42.390  31.107  31.564  1.00  0.00     0.167 HD
ATOM     56  C   UNL A   1      43.703  28.699  30.863  1.00  0.00     0.074 A 
ATOM     57  C   UNL A   1      43.969  27.407  30.265  1.00  0.00     0.031 C 
ATOM     58  C   UNL A   1      44.567  29.356  31.674  1.00  0.00     0.031 A 
BRANCH  45  59
ATOM     59  C   UNL A   1      42.501  34.839  33.622  1.00  0.00    -0.014 A 
ATOM     60  C   UNL A   1      43.080  35.945  32.980  1.00  0.00     0.009 A 
ATOM     61  C   UNL A   1      42.168  34.938  34.981  1.00  0.00     0.009 A 
ATOM     62  C   UNL A   1      43.357  37.112  33.695  1.00  0.00     0.001 A 
ATOM     63  C   UNL A   1      42.424  36.114  35.688  1.00  0.00     0.001 A 
ATOM     64  C   UNL A   1      43.027  37.195  35.047  1.00  0.00     0.000 A 
ENDBRANCH  45  59
BRANCH  46  65
ATOM     65  C   UNL A   1      40.405  26.818  28.100  1.00  0.00    -0.014 A 
ATOM     66  C   UNL A   1      40.895  26.753  26.788  1.00  0.00     0.009 A 
ATOM     67  C   UNL A   1      39.645  25.750  28.598  1.00  0.00     0.009 A 
ATOM     68  C   UNL A   1      40.612  25.648  25.982  1.00  0.00     0.001 A 
ATOM     69  C   UNL A   1      39.380  24.638  27.797  1.00  0.00     0.001 A 
ATOM     70  C   UNL A   1      39.858  24.590  26.488  1.00  0.00     0.000 A 
ENDBRANCH  46  65
BRANCH  58  71
ATOM     71  C   UNL A   1      45.871  28.678  31.975  1.00  0.00    -0.014 A 
ATOM     72  C   UNL A   1      47.001  28.899  31.174  1.00  0.00     0.009 A 
ATOM     73  C   UNL A   1      45.976  27.837  33.093  1.00  0.00     0.009 A 
ATOM     74  C   UNL A   1      48.209  28.269  31.476  1.00  0.00     0.001 A 
ATOM     75  C   UNL A   1      47.191  27.224  33.402  1.00  0.00     0.001 A 
ATOM     76  C   UNL A   1      48.304  27.436  32.590  1.00  0.00     0.000 A 
ENDBRANCH  58  71
ENDBRANCH  32  33
ENDBRANCH  24  27
ENDBRANCH  22  23
ENDBRANCH  21  22
ENDBRANCH  20  21
ENDBRANCH   3  20
TORSDOF 15
ENDMDL
MODEL 2
REMARK VINA RESULT:      -8.3      4.504      7.820
REMARK SMILES C[C@H]([NH2+]CC1(O)CCCC1)[C@H](C)C(=O)NCCCNC(=O)c1ccc(-c2c3nc(c(-c4ccccc4)c4ccc([nH]4)c(-c4ccccc4)c4nc(c(-c5ccccc5)c5ccc2[nH]5)C=C4)C=C3)cc1
REMARK SMILES IDX 13 1 14 2 15 3 11 5 12 6 2 7 1 8 3 9 4 12 5 13 7 14 10 15
REMARK SMILES IDX 8 16 9 17 6 18 16 20 17 21 18 22 19 23 20 24 21 26 22 27
REMARK SMILES IDX 23 28 69 29 24 30 68 31 25 32 26 33 27 34 62 35 28 36 67 37
REMARK SMILES IDX 61 38 63 39 29 40 66 41 60 42 59 43 30 45 52 46 37 47 51 48
REMARK SMILES IDX 38 49 41 50 50 51 64 52 39 53 40 54 49 56 65 57 42 58 31 59
REMARK SMILES IDX 32 60 36 61 33 62 35 63 34 64 53 65 54 66 58 67 55 68 57 69
REMARK SMILES IDX 56 70 43 71 44 72 48 73 45 74 47 75 46 76
REMARK H PARENT 15 4 3 10 3 11 6 19 19 25 63 44 41 55
REMARK Flexibility Score: inf
ROOT
ATOM      1  C   UNL A   1      33.391  28.605  23.865  1.00  0.00     0.228 C 
ATOM      2  O   UNL A   1      34.317  28.793  23.067  1.00  0.00    -0.275 OA
ATOM      3  N   UNL A   1      33.010  29.668  24.612  1.00  0.00    -0.356 N 
ATOM      4  H   UNL A   1      33.598  30.455  24.552  1.00  0.00     0.163 HD
ENDROOT
BRANCH   1   5
ATOM      5  C   UNL A   1      32.775  27.223  24.013  1.00  0.00     0.133 C 
ATOM      6  C   UNL A   1      32.882  26.743  25.471  1.00  0.00     0.024 C 
BRANCH   5   7
ATOM      7  C   UNL A   1      31.368  26.945  23.409  1.00  0.00     0.191 C 
ATOM      8  C   UNL A   1      31.366  25.563  22.733  1.00  0.00     0.076 C 
BRANCH   7   9
ATOM      9  N   UNL A   1      30.718  27.883  22.503  1.00  0.00    -0.341 N 
ATOM     10  H   UNL A   1      30.513  27.368  21.646  1.00  0.00     0.346 HD
ATOM     11  H   UNL A   1      31.386  28.650  22.442  1.00  0.00     0.346 HD
BRANCH   9  12
ATOM     12  C   UNL A   1      29.481  28.546  22.900  1.00  0.00     0.296 C 
BRANCH  12  13
ATOM     13  C   UNL A   1      29.409  30.002  22.332  1.00  0.00     0.113 C 
ATOM     14  C   UNL A   1      29.128  31.043  23.424  1.00  0.00     0.041 C 
ATOM     15  C   UNL A   1      28.243  30.231  21.366  1.00  0.00     0.041 C 
ATOM     16  C   UNL A   1      28.540  32.252  22.691  1.00  0.00     0.003 C 
ATOM     17  C   UNL A   1      28.106  31.751  21.315  1.00  0.00     0.003 C 
BRANCH  13  18
ATOM     18  O   UNL A   1      30.624  30.325  21.616  1.00  0.00    -0.384 OA
ATOM     19  H   UNL A   1      30.405  30.584  20.707  1.00  0.00     0.211 HD
ENDBRANCH  13  18
ENDBRANCH  12  13
ENDBRANCH   9  12
ENDBRANCH   7   9
ENDBRANCH   5   7
ENDBRANCH   1   5
BRANCH   3  20
ATOM     20  C   UNL A   1      31.868  29.822  25.485  1.00  0.00     0.117 C 
BRANCH  20  21
ATOM     21  C   UNL A   1      32.260  30.043  26.935  1.00  0.00     0.042 C 
BRANCH  21  22
ATOM     22  C   UNL A   1      33.228  31.200  27.157  1.00  0.00     0.118 C 
BRANCH  22  23
ATOM     23  N   UNL A   1      32.598  32.491  27.401  1.00  0.00    -0.352 N 
ATOM     24  C   UNL A   1      33.102  33.556  28.119  1.00  0.00     0.251 C 
ATOM     25  H   UNL A   1      31.706  32.620  27.004  1.00  0.00     0.163 HD
ATOM     26  O   UNL A   1      32.449  34.582  28.273  1.00  0.00    -0.269 OA
BRANCH  24  27
ATOM     27  C   UNL A   1      34.431  33.414  28.756  1.00  0.00     0.039 A 
ATOM     28  C   UNL A   1      34.514  32.786  30.001  1.00  0.00     0.014 A 
ATOM     29  C   UNL A   1      35.590  33.780  28.066  1.00  0.00     0.014 A 
ATOM     30  C   UNL A   1      35.763  32.409  30.496  1.00  0.00     0.010 A 
ATOM     31  C   UNL A   1      36.827  33.337  28.526  1.00  0.00     0.010 A 
ATOM     32  C   UNL A   1      36.921  32.619  29.728  1.00  0.00    -0.014 A 
BRANCH  32  33
ATOM     33  C   UNL A   1      38.219  32.016  30.122  1.00  0.00     0.031 A 
ATOM     34  C   UNL A   1      39.163  32.750  31.028  1.00  0.00     0.074 A 
ATOM     35  C   UNL A   1      38.588  30.839  29.578  1.00  0.00     0.049 A 
ATOM     36  N   UNL A   1      40.355  32.394  31.437  1.00  0.00    -0.248 NA
ATOM     37  C   UNL A   1      38.727  34.067  31.515  1.00  0.00     0.031 C 
ATOM     38  C   UNL A   1      37.798  30.061  28.619  1.00  0.00     0.029 A 
ATOM     39  N   UNL A   1      39.728  30.093  29.749  1.00  0.00    -0.354 N 
ATOM     40  C   UNL A   1      40.821  33.451  32.207  1.00  0.00     0.074 A 
ATOM     41  C   UNL A   1      39.799  34.477  32.177  1.00  0.00     0.031 C 
ATOM     42  C   UNL A   1      38.462  28.936  28.310  1.00  0.00     0.029 A 
ATOM     43  C   UNL A   1      39.734  28.925  29.025  1.00  0.00     0.049 A 
ATOM     44  H   UNL A   1      40.470  30.369  30.332  1.00  0.00     0.167 HD
ATOM     45  C   UNL A   1      41.985  33.555  32.889  1.00  0.00     0.031 A 
ATOM     46  C   UNL A   1      40.658  27.949  28.948  1.00  0.00     0.031 A 
ATOM     47  C   UNL A   1      42.992  32.530  32.939  1.00  0.00     0.049 A 
ATOM     48  C   UNL A   1      41.918  28.062  29.755  1.00  0.00     0.074 A 
ATOM     49  C   UNL A   1      44.169  32.511  33.666  1.00  0.00     0.029 A 
ATOM     50  N   UNL A   1      42.937  31.339  32.232  1.00  0.00    -0.354 N 
ATOM     51  N   UNL A   1      42.302  29.031  30.548  1.00  0.00    -0.248 NA
ATOM     52  C   UNL A   1      42.865  26.942  29.666  1.00  0.00     0.031 C 
ATOM     53  C   UNL A   1      44.843  31.320  33.376  1.00  0.00     0.029 A 
ATOM     54  C   UNL A   1      44.067  30.584  32.494  1.00  0.00     0.049 A 
ATOM     55  H   UNL A   1      42.204  31.071  31.633  1.00  0.00     0.167 HD
ATOM     56  C   UNL A   1      43.524  28.631  31.068  1.00  0.00     0.074 A 
ATOM     57  C   UNL A   1      43.812  27.325  30.510  1.00  0.00     0.031 C 
ATOM     58  C   UNL A   1      44.337  29.287  31.930  1.00  0.00     0.031 A 
BRANCH  45  59
ATOM     59  C   UNL A   1      42.227  34.834  33.636  1.00  0.00    -0.014 A 
ATOM     60  C   UNL A   1      42.920  35.900  33.041  1.00  0.00     0.009 A 
ATOM     61  C   UNL A   1      41.747  34.981  34.946  1.00  0.00     0.009 A 
ATOM     62  C   UNL A   1      43.162  37.073  33.758  1.00  0.00     0.001 A 
ATOM     63  C   UNL A   1      41.970  36.164  35.652  1.00  0.00     0.001 A 
ATOM     64  C   UNL A   1      42.685  37.205  35.061  1.00  0.00     0.000 A 
ENDBRANCH  45  59
BRANCH  46  65
ATOM     65  C   UNL A   1      40.407  26.758  28.097  1.00  0.00    -0.014 A 
ATOM     66  C   UNL A   1      39.615  25.703  28.574  1.00  0.00     0.009 A 
ATOM     67  C   UNL A   1      40.948  26.674  26.806  1.00  0.00     0.009 A 
ATOM     68  C   UNL A   1      39.386  24.577  27.782  1.00  0.00     0.001 A 
ATOM     69  C   UNL A   1      40.702  25.555  26.008  1.00  0.00     0.001 A 
ATOM     70  C   UNL A   1      39.927  24.505  26.498  1.00  0.00     0.000 A 
ENDBRANCH  46  65
BRANCH  58  71
ATOM     71  C   UNL A   1      45.603  28.593  32.337  1.00  0.00    -0.014 A 
ATOM     72  C   UNL A   1      46.794  28.786  31.621  1.00  0.00     0.009 A 
ATOM     73  C   UNL A   1      45.610  27.768  33.471  1.00  0.00     0.009 A 
ATOM     74  C   UNL A   1      47.965  28.141  32.021  1.00  0.00     0.001 A 
ATOM     75  C   UNL A   1      46.788  27.140  33.879  1.00  0.00     0.001 A 
ATOM     76  C   UNL A   1      47.963  27.323  33.151  1.00  0.00     0.000 A 
ENDBRANCH  58  71
ENDBRANCH  32  33
ENDBRANCH  24  27
ENDBRANCH  22  23
ENDBRANCH  21  22
ENDBRANCH  20  21
ENDBRANCH   3  20
TORSDOF 15
ENDMDL
MODEL 3
REMARK VINA RESULT:      -8.3      4.553      9.955
REMARK SMILES C[C@H]([NH2+]CC1(O)CCCC1)[C@H](C)C(=O)NCCCNC(=O)c1ccc(-c2c3nc(c(-c4ccccc4)c4ccc([nH]4)c(-c4ccccc4)c4nc(c(-c5ccccc5)c5ccc2[nH]5)C=C4)C=C3)cc1
REMARK SMILES IDX 13 1 14 2 15 3 11 5 12 6 2 7 1 8 3 9 4 12 5 13 7 14 10 15
REMARK SMILES IDX 8 16 9 17 6 18 16 20 17 21 18 22 19 23 20 24 21 26 22 27
REMARK SMILES IDX 23 28 69 29 24 30 68 31 25 32 26 33 27 34 62 35 28 36 67 37
REMARK SMILES IDX 61 38 63 39 29 40 66 41 60 42 59 43 30 45 52 46 37 47 51 48
REMARK SMILES IDX 38 49 41 50 50 51 64 52 39 53 40 54 49 56 65 57 42 58 31 59
REMARK SMILES IDX 32 60 36 61 33 62 35 63 34 64 53 65 54 66 58 67 55 68 57 69
REMARK SMILES IDX 56 70 43 71 44 72 48 73 45 74 47 75 46 76
REMARK H PARENT 15 4 3 10 3 11 6 19 19 25 63 44 41 55
REMARK Flexibility Score: inf
ROOT
ATOM      1  C   UNL A   1      33.216  28.746  23.701  1.00  0.00     0.228 C 
ATOM      2  O   UNL A   1      34.073  29.015  22.851  1.00  0.00    -0.275 OA
ATOM      3  N   UNL A   1      32.900  29.729  24.576  1.00  0.00    -0.356 N 
ATOM      4  H   UNL A   1      33.483  30.521  24.544  1.00  0.00     0.163 HD
ENDROOT
BRANCH   1   5
ATOM      5  C   UNL A   1      32.612  27.352  23.765  1.00  0.00     0.133 C 
ATOM      6  C   UNL A   1      33.144  26.594  24.993  1.00  0.00     0.024 C 
BRANCH   5   7
ATOM      7  C   UNL A   1      31.074  27.178  23.594  1.00  0.00     0.191 C 
ATOM      8  C   UNL A   1      30.726  25.678  23.599  1.00  0.00     0.076 C 
BRANCH   7   9
ATOM      9  N   UNL A   1      30.344  27.798  22.497  1.00  0.00    -0.341 N 
ATOM     10  H   UNL A   1      30.079  27.048  21.859  1.00  0.00     0.346 HD
ATOM     11  H   UNL A   1      30.996  28.501  22.150  1.00  0.00     0.346 HD
BRANCH   9  12
ATOM     12  C   UNL A   1      29.134  28.567  22.766  1.00  0.00     0.296 C 
BRANCH  12  13
ATOM     13  C   UNL A   1      29.278  30.045  22.271  1.00  0.00     0.113 C 
ATOM     14  C   UNL A   1      29.083  31.064  23.402  1.00  0.00     0.041 C 
ATOM     15  C   UNL A   1      28.199  30.469  21.271  1.00  0.00     0.041 C 
ATOM     16  C   UNL A   1      28.691  32.371  22.708  1.00  0.00     0.003 C 
ATOM     17  C   UNL A   1      28.261  31.994  21.292  1.00  0.00     0.003 C 
BRANCH  13  18
ATOM     18  O   UNL A   1      30.557  30.238  21.623  1.00  0.00    -0.384 OA
ATOM     19  H   UNL A   1      30.896  31.123  21.832  1.00  0.00     0.211 HD
ENDBRANCH  13  18
ENDBRANCH  12  13
ENDBRANCH   9  12
ENDBRANCH   7   9
ENDBRANCH   5   7
ENDBRANCH   1   5
BRANCH   3  20
ATOM     20  C   UNL A   1      31.835  29.791  25.551  1.00  0.00     0.117 C 
BRANCH  20  21
ATOM     21  C   UNL A   1      32.346  29.887  26.978  1.00  0.00     0.042 C 
BRANCH  21  22
ATOM     22  C   UNL A   1      33.290  31.056  27.233  1.00  0.00     0.118 C 
BRANCH  22  23
ATOM     23  N   UNL A   1      32.636  32.346  27.413  1.00  0.00    -0.352 N 
ATOM     24  C   UNL A   1      33.117  33.451  28.083  1.00  0.00     0.251 C 
ATOM     25  H   UNL A   1      31.744  32.441  27.006  1.00  0.00     0.163 HD
ATOM     26  O   UNL A   1      32.446  34.472  28.186  1.00  0.00    -0.269 OA
BRANCH  24  27
ATOM     27  C   UNL A   1      34.444  33.362  28.734  1.00  0.00     0.039 A 
ATOM     28  C   UNL A   1      34.544  32.719  29.969  1.00  0.00     0.014 A 
ATOM     29  C   UNL A   1      35.592  33.795  28.063  1.00  0.00     0.014 A 
ATOM     30  C   UNL A   1      35.805  32.394  30.472  1.00  0.00     0.010 A 
ATOM     31  C   UNL A   1      36.844  33.404  28.530  1.00  0.00     0.010 A 
ATOM     32  C   UNL A   1      36.960  32.671  29.721  1.00  0.00    -0.014 A 
BRANCH  32  33
ATOM     33  C   UNL A   1      38.281  32.125  30.120  1.00  0.00     0.031 A 
ATOM     34  C   UNL A   1      38.764  30.812  29.580  1.00  0.00     0.074 A 
ATOM     35  C   UNL A   1      39.006  32.776  31.053  1.00  0.00     0.049 A 
ATOM     36  N   UNL A   1      39.868  30.165  29.855  1.00  0.00    -0.248 NA
ATOM     37  C   UNL A   1      37.880  30.119  28.630  1.00  0.00     0.031 C 
ATOM     38  C   UNL A   1      38.612  34.021  31.718  1.00  0.00     0.029 A 
ATOM     39  N   UNL A   1      40.224  32.476  31.609  1.00  0.00    -0.354 N 
ATOM     40  C   UNL A   1      39.801  28.980  29.135  1.00  0.00     0.074 A 
ATOM     41  C   UNL A   1      38.532  28.981  28.439  1.00  0.00     0.031 C 
ATOM     42  C   UNL A   1      39.582  34.392  32.570  1.00  0.00     0.029 A 
ATOM     43  C   UNL A   1      40.651  33.400  32.530  1.00  0.00     0.049 A 
ATOM     44  H   UNL A   1      40.741  31.673  31.371  1.00  0.00     0.167 HD
ATOM     45  C   UNL A   1      40.718  27.989  29.046  1.00  0.00     0.031 A 
ATOM     46  C   UNL A   1      41.781  33.451  33.261  1.00  0.00     0.031 A 
ATOM     47  C   UNL A   1      41.989  27.995  29.717  1.00  0.00     0.049 A 
ATOM     48  C   UNL A   1      42.806  32.366  33.106  1.00  0.00     0.074 A 
ATOM     49  C   UNL A   1      43.017  27.072  29.627  1.00  0.00     0.029 A 
ATOM     50  N   UNL A   1      42.407  28.976  30.603  1.00  0.00    -0.354 N 
ATOM     51  N   UNL A   1      42.763  31.296  32.350  1.00  0.00    -0.248 NA
ATOM     52  C   UNL A   1      44.039  32.502  33.894  1.00  0.00     0.031 C 
ATOM     53  C   UNL A   1      44.046  27.480  30.483  1.00  0.00     0.029 A 
ATOM     54  C   UNL A   1      43.670  28.674  31.079  1.00  0.00     0.049 A 
ATOM     55  H   UNL A   1      41.881  29.769  30.856  1.00  0.00     0.167 HD
ATOM     56  C   UNL A   1      43.969  30.642  32.557  1.00  0.00     0.074 A 
ATOM     57  C   UNL A   1      44.727  31.441  33.497  1.00  0.00     0.031 C 
ATOM     58  C   UNL A   1      44.409  29.480  32.015  1.00  0.00     0.031 A 
BRANCH  45  59
ATOM     59  C   UNL A   1      40.367  26.809  28.187  1.00  0.00    -0.014 A 
ATOM     60  C   UNL A   1      39.548  25.777  28.674  1.00  0.00     0.009 A 
ATOM     61  C   UNL A   1      40.849  26.732  26.873  1.00  0.00     0.009 A 
ATOM     62  C   UNL A   1      39.252  24.673  27.874  1.00  0.00     0.001 A 
ATOM     63  C   UNL A   1      40.533  25.637  26.066  1.00  0.00     0.001 A 
ATOM     64  C   UNL A   1      39.743  24.605  26.570  1.00  0.00     0.000 A 
ENDBRANCH  45  59
BRANCH  46  65
ATOM     65  C   UNL A   1      42.017  34.591  34.182  1.00  0.00    -0.014 A 
ATOM     66  C   UNL A   1      42.598  35.775  33.704  1.00  0.00     0.009 A 
ATOM     67  C   UNL A   1      41.657  34.505  35.534  1.00  0.00     0.009 A 
ATOM     68  C   UNL A   1      42.832  36.846  34.570  1.00  0.00     0.001 A 
ATOM     69  C   UNL A   1      41.874  35.584  36.393  1.00  0.00     0.001 A 
ATOM     70  C   UNL A   1      42.467  36.750  35.912  1.00  0.00     0.000 A 
ENDBRANCH  46  65
BRANCH  58  71
ATOM     71  C   UNL A   1      45.780  29.018  32.412  1.00  0.00    -0.014 A 
ATOM     72  C   UNL A   1      46.916  29.440  31.704  1.00  0.00     0.009 A 
ATOM     73  C   UNL A   1      45.937  28.183  33.527  1.00  0.00     0.009 A 
ATOM     74  C   UNL A   1      48.185  29.010  32.095  1.00  0.00     0.001 A 
ATOM     75  C   UNL A   1      47.209  27.771  33.926  1.00  0.00     0.001 A 
ATOM     76  C   UNL A   1      48.331  28.180  33.207  1.00  0.00     0.000 A 
ENDBRANCH  58  71
ENDBRANCH  32  33
ENDBRANCH  24  27
ENDBRANCH  22  23
ENDBRANCH  21  22
ENDBRANCH  20  21
ENDBRANCH   3  20
TORSDOF 15
ENDMDL
