MODEL 1
REMARK VINA RESULT:     -12.9      0.000      0.000
REMARK SMILES O=C(NCCCNC(=O)c1ccc(-c2c3nc(c(-c4ccccc4)c4ccc([nH]4)c(-c4ccccc4)c4nc(c(-c5ccccc5)c5ccc2[nH]5)C=C4)C=C3)cc1)C1=Cc2cc(Cl)cc(-c3ccc(Cl)cc3)c2O[C@@H]1C(F)(F)F
REMARK SMILES IDX 5 1 4 2 3 3 1 4 2 5 58 7 59 8 75 9 60 10 74 11 61 12 73 13
REMARK SMILES IDX 62 14 65 15 63 16 64 17 76 18 77 19 78 20 79 21 66 22 67 23
REMARK SMILES IDX 72 24 68 25 71 26 69 27 70 28 6 29 7 30 8 31 9 33 10 34
REMARK SMILES IDX 11 35 57 36 12 37 56 38 13 39 14 40 15 41 50 42 16 43 55 44
REMARK SMILES IDX 49 45 51 46 17 47 54 48 48 49 47 50 18 52 40 53 25 54 39 55
REMARK SMILES IDX 26 56 29 57 38 58 52 59 27 60 28 61 37 63 53 64 30 65 19 66
REMARK SMILES IDX 20 67 24 68 21 69 23 70 22 71 41 72 42 73 46 74 43 75 45 76
REMARK SMILES IDX 44 77 31 78 32 79 36 80 33 81 35 82 34 83
REMARK H PARENT 3 6 7 32 51 51 29 62
REMARK Flexibility Score: inf
ROOT
ATOM      1  C   UNL A   1      32.887  28.324  27.269  1.00  0.00     0.042 C 
ENDROOT
BRANCH   1   2
ATOM      2  C   UNL A   1      32.529  27.254  26.236  1.00  0.00     0.118 C 
BRANCH   2   3
ATOM      3  N   UNL A   1      31.714  26.174  26.801  1.00  0.00    -0.352 N 
ATOM      4  O   UNL A   1      31.154  24.028  27.285  1.00  0.00    -0.270 OA
ATOM      5  C   UNL A   1      31.770  24.820  26.586  1.00  0.00     0.251 C 
ATOM      6  H   UNL A   1      31.018  26.466  27.432  1.00  0.00     0.163 HD
BRANCH   5   7
ATOM      7  C   UNL A   1      32.659  24.362  25.510  1.00  0.00     0.067 C 
ATOM      8  C   UNL A   1      33.966  24.610  25.645  1.00  0.00     0.025 C 
ATOM      9  C   UNL A   1      32.120  23.363  24.539  1.00  0.00     0.314 C 
ATOM     10  C   UNL A   1      34.836  23.518  25.202  1.00  0.00     0.019 A 
ATOM     11  O   UNL A   1      32.915  22.151  24.545  1.00  0.00    -0.475 OA
ATOM     12  C   UNL A   1      36.192  23.596  25.528  1.00  0.00     0.032 A 
ATOM     13  C   UNL A   1      34.252  22.278  24.857  1.00  0.00     0.135 A 
ATOM     14  C   UNL A   1      36.938  22.428  25.617  1.00  0.00     0.042 A 
ATOM     15  C   UNL A   1      34.991  21.090  24.999  1.00  0.00     0.026 A 
ATOM     16  Cl  UNL A   1      38.561  22.506  26.182  1.00  0.00    -0.084 Cl
ATOM     17  C   UNL A   1      36.343  21.188  25.382  1.00  0.00     0.033 A 
BRANCH   9  18
ATOM     18  C   UNL A   1      31.970  23.958  23.128  1.00  0.00     0.429 C 
ATOM     19  F   UNL A   1      32.599  23.192  22.204  1.00  0.00    -0.167 F 
ATOM     20  F   UNL A   1      30.671  24.034  22.751  1.00  0.00    -0.167 F 
ATOM     21  F   UNL A   1      32.487  25.206  23.032  1.00  0.00    -0.167 F 
ENDBRANCH   9  18
BRANCH  15  22
ATOM     22  C   UNL A   1      34.368  19.757  24.952  1.00  0.00    -0.015 A 
ATOM     23  C   UNL A   1      33.170  19.522  25.652  1.00  0.00     0.010 A 
ATOM     24  C   UNL A   1      34.962  18.680  24.286  1.00  0.00     0.010 A 
ATOM     25  C   UNL A   1      32.614  18.247  25.748  1.00  0.00     0.021 A 
ATOM     26  C   UNL A   1      34.401  17.398  24.369  1.00  0.00     0.021 A 
ATOM     27  C   UNL A   1      33.243  17.184  25.115  1.00  0.00     0.041 A 
ATOM     28  Cl  UNL A   1      32.591  15.600  25.269  1.00  0.00    -0.084 Cl
ENDBRANCH  15  22
ENDBRANCH   5   7
ENDBRANCH   2   3
ENDBRANCH   1   2
BRANCH   1  29
ATOM     29  C   UNL A   1      33.374  29.622  26.628  1.00  0.00     0.118 C 
BRANCH  29  30
ATOM     30  N   UNL A   1      33.538  30.739  27.543  1.00  0.00    -0.352 N 
ATOM     31  C   UNL A   1      34.621  31.072  28.335  1.00  0.00     0.251 C 
ATOM     32  H   UNL A   1      32.766  31.347  27.607  1.00  0.00     0.163 HD
ATOM     33  O   UNL A   1      34.567  32.075  29.044  1.00  0.00    -0.269 OA
BRANCH  31  34
ATOM     34  C   UNL A   1      35.796  30.173  28.437  1.00  0.00     0.039 A 
ATOM     35  C   UNL A   1      36.683  30.132  27.354  1.00  0.00     0.014 A 
ATOM     36  C   UNL A   1      36.099  29.472  29.599  1.00  0.00     0.014 A 
ATOM     37  C   UNL A   1      37.936  29.534  27.502  1.00  0.00     0.010 A 
ATOM     38  C   UNL A   1      37.384  28.978  29.788  1.00  0.00     0.010 A 
ATOM     39  C   UNL A   1      38.327  29.039  28.754  1.00  0.00    -0.014 A 
BRANCH  39  40
ATOM     40  C   UNL A   1      39.730  28.647  29.032  1.00  0.00     0.031 A 
ATOM     41  C   UNL A   1      40.682  29.634  29.643  1.00  0.00     0.074 A 
ATOM     42  C   UNL A   1      40.170  27.443  28.611  1.00  0.00     0.049 A 
ATOM     43  N   UNL A   1      41.973  29.530  29.828  1.00  0.00    -0.248 NA
ATOM     44  C   UNL A   1      40.118  30.929  30.054  1.00  0.00     0.031 C 
ATOM     45  C   UNL A   1      39.359  26.429  27.930  1.00  0.00     0.029 A 
ATOM     46  N   UNL A   1      41.414  26.871  28.686  1.00  0.00    -0.354 N 
ATOM     47  C   UNL A   1      42.379  30.758  30.333  1.00  0.00     0.074 A 
ATOM     48  C   UNL A   1      41.208  31.605  30.381  1.00  0.00     0.031 C 
ATOM     49  C   UNL A   1      40.114  25.345  27.692  1.00  0.00     0.029 A 
ATOM     50  C   UNL A   1      41.469  25.601  28.161  1.00  0.00     0.049 A 
ATOM     51  H   UNL A   1      42.194  27.325  29.077  1.00  0.00     0.167 HD
ATOM     52  C   UNL A   1      43.612  31.140  30.741  1.00  0.00     0.031 A 
ATOM     53  C   UNL A   1      42.497  24.738  28.071  1.00  0.00     0.031 A 
ATOM     54  C   UNL A   1      44.761  30.276  30.734  1.00  0.00     0.049 A 
ATOM     55  C   UNL A   1      43.838  25.155  28.605  1.00  0.00     0.074 A 
ATOM     56  C   UNL A   1      46.043  30.535  31.184  1.00  0.00     0.029 A 
ATOM     57  N   UNL A   1      44.756  28.971  30.261  1.00  0.00    -0.354 N 
ATOM     58  N   UNL A   1      44.194  26.302  29.131  1.00  0.00    -0.248 NA
ATOM     59  C   UNL A   1      44.912  24.157  28.546  1.00  0.00     0.031 C 
ATOM     60  C   UNL A   1      46.819  29.391  30.966  1.00  0.00     0.029 A 
ATOM     61  C   UNL A   1      46.011  28.410  30.414  1.00  0.00     0.049 A 
ATOM     62  H   UNL A   1      43.974  28.512  29.876  1.00  0.00     0.167 HD
ATOM     63  C   UNL A   1      45.525  26.156  29.490  1.00  0.00     0.074 A 
ATOM     64  C   UNL A   1      45.909  24.804  29.134  1.00  0.00     0.031 C 
ATOM     65  C   UNL A   1      46.359  27.059  30.060  1.00  0.00     0.031 A 
BRANCH  52  66
ATOM     66  C   UNL A   1      43.764  32.552  31.232  1.00  0.00    -0.014 A 
ATOM     67  C   UNL A   1      44.105  33.595  30.354  1.00  0.00     0.009 A 
ATOM     68  C   UNL A   1      43.578  32.846  32.592  1.00  0.00     0.009 A 
ATOM     69  C   UNL A   1      44.307  34.889  30.834  1.00  0.00     0.001 A 
ATOM     70  C   UNL A   1      43.752  34.148  33.065  1.00  0.00     0.001 A 
ATOM     71  C   UNL A   1      44.129  35.165  32.189  1.00  0.00     0.000 A 
ENDBRANCH  52  66
BRANCH  53  72
ATOM     72  C   UNL A   1      42.289  23.382  27.501  1.00  0.00    -0.014 A 
ATOM     73  C   UNL A   1      41.734  22.363  28.291  1.00  0.00     0.009 A 
ATOM     74  C   UNL A   1      42.632  23.098  26.170  1.00  0.00     0.009 A 
ATOM     75  C   UNL A   1      41.550  21.081  27.768  1.00  0.00     0.001 A 
ATOM     76  C   UNL A   1      42.423  21.820  25.643  1.00  0.00     0.001 A 
ATOM     77  C   UNL A   1      41.891  20.811  26.444  1.00  0.00     0.000 A 
ENDBRANCH  53  72
BRANCH  65  78
ATOM     78  C   UNL A   1      47.751  26.595  30.368  1.00  0.00    -0.014 A 
ATOM     79  C   UNL A   1      48.071  26.041  31.617  1.00  0.00     0.009 A 
ATOM     80  C   UNL A   1      48.744  26.682  29.380  1.00  0.00     0.009 A 
ATOM     81  C   UNL A   1      49.372  25.605  31.878  1.00  0.00     0.001 A 
ATOM     82  C   UNL A   1      50.036  26.224  29.638  1.00  0.00     0.001 A 
ATOM     83  C   UNL A   1      50.350  25.693  30.888  1.00  0.00     0.000 A 
ENDBRANCH  65  78
ENDBRANCH  39  40
ENDBRANCH  31  34
ENDBRANCH  29  30
ENDBRANCH   1  29
TORSDOF 12
ENDMDL
MODEL 2
REMARK VINA RESULT:     -12.8      2.806      6.082
REMARK SMILES O=C(NCCCNC(=O)c1ccc(-c2c3nc(c(-c4ccccc4)c4ccc([nH]4)c(-c4ccccc4)c4nc(c(-c5ccccc5)c5ccc2[nH]5)C=C4)C=C3)cc1)C1=Cc2cc(Cl)cc(-c3ccc(Cl)cc3)c2O[C@@H]1C(F)(F)F
REMARK SMILES IDX 5 1 4 2 3 3 1 4 2 5 58 7 59 8 75 9 60 10 74 11 61 12 73 13
REMARK SMILES IDX 62 14 65 15 63 16 64 17 76 18 77 19 78 20 79 21 66 22 67 23
REMARK SMILES IDX 72 24 68 25 71 26 69 27 70 28 6 29 7 30 8 31 9 33 10 34
REMARK SMILES IDX 11 35 57 36 12 37 56 38 13 39 14 40 15 41 50 42 16 43 55 44
REMARK SMILES IDX 49 45 51 46 17 47 54 48 48 49 47 50 18 52 40 53 25 54 39 55
REMARK SMILES IDX 26 56 29 57 38 58 52 59 27 60 28 61 37 63 53 64 30 65 19 66
REMARK SMILES IDX 20 67 24 68 21 69 23 70 22 71 41 72 42 73 46 74 43 75 45 76
REMARK SMILES IDX 44 77 31 78 32 79 36 80 33 81 35 82 34 83
REMARK H PARENT 3 6 7 32 51 51 29 62
REMARK Flexibility Score: inf
ROOT
ATOM      1  C   UNL A   1      31.633  28.036  26.680  1.00  0.00     0.042 C 
ENDROOT
BRANCH   1   2
ATOM      2  C   UNL A   1      31.894  26.683  26.017  1.00  0.00     0.118 C 
BRANCH   2   3
ATOM      3  N   UNL A   1      31.412  25.556  26.822  1.00  0.00    -0.352 N 
ATOM      4  O   UNL A   1      31.398  23.435  27.631  1.00  0.00    -0.270 OA
ATOM      5  C   UNL A   1      31.732  24.223  26.758  1.00  0.00     0.251 C 
ATOM      6  H   UNL A   1      30.756  25.793  27.517  1.00  0.00     0.163 HD
BRANCH   5   7
ATOM      7  C   UNL A   1      32.553  23.799  25.616  1.00  0.00     0.067 C 
ATOM      8  C   UNL A   1      33.862  24.070  25.666  1.00  0.00     0.025 C 
ATOM      9  C   UNL A   1      31.966  22.807  24.667  1.00  0.00     0.314 C 
ATOM     10  C   UNL A   1      34.718  23.001  25.145  1.00  0.00     0.019 A 
ATOM     11  O   UNL A   1      32.781  21.609  24.598  1.00  0.00    -0.475 OA
ATOM     12  C   UNL A   1      36.091  23.099  25.380  1.00  0.00     0.032 A 
ATOM     13  C   UNL A   1      34.133  21.756  24.819  1.00  0.00     0.135 A 
ATOM     14  C   UNL A   1      36.862  21.943  25.398  1.00  0.00     0.042 A 
ATOM     15  C   UNL A   1      34.901  20.580  24.890  1.00  0.00     0.026 A 
ATOM     16  Cl  UNL A   1      38.519  22.042  25.852  1.00  0.00    -0.084 Cl
ATOM     17  C   UNL A   1      36.274  20.697  25.181  1.00  0.00     0.033 A 
BRANCH   9  18
ATOM     18  C   UNL A   1      31.709  23.422  23.280  1.00  0.00     0.429 C 
ATOM     19  F   UNL A   1      30.399  23.342  22.944  1.00  0.00    -0.167 F 
ATOM     20  F   UNL A   1      32.040  24.735  23.245  1.00  0.00    -0.167 F 
ATOM     21  F   UNL A   1      32.412  22.806  22.300  1.00  0.00    -0.167 F 
ENDBRANCH   9  18
BRANCH  15  22
ATOM     22  C   UNL A   1      34.299  19.236  24.863  1.00  0.00    -0.015 A 
ATOM     23  C   UNL A   1      33.064  19.013  25.497  1.00  0.00     0.010 A 
ATOM     24  C   UNL A   1      34.948  18.142  24.281  1.00  0.00     0.010 A 
ATOM     25  C   UNL A   1      32.520  17.734  25.615  1.00  0.00     0.021 A 
ATOM     26  C   UNL A   1      34.400  16.856  24.384  1.00  0.00     0.021 A 
ATOM     27  C   UNL A   1      33.200  16.656  25.067  1.00  0.00     0.041 A 
ATOM     28  Cl  UNL A   1      32.561  15.069  25.249  1.00  0.00    -0.084 Cl
ENDBRANCH  15  22
ENDBRANCH   5   7
ENDBRANCH   2   3
ENDBRANCH   1   2
BRANCH   1  29
ATOM     29  C   UNL A   1      32.489  29.155  26.094  1.00  0.00     0.118 C 
BRANCH  29  30
ATOM     30  N   UNL A   1      32.232  30.480  26.634  1.00  0.00    -0.352 N 
ATOM     31  C   UNL A   1      33.106  31.368  27.231  1.00  0.00     0.251 C 
ATOM     32  H   UNL A   1      31.300  30.787  26.565  1.00  0.00     0.163 HD
ATOM     33  O   UNL A   1      32.690  32.457  27.621  1.00  0.00    -0.269 OA
BRANCH  31  34
ATOM     34  C   UNL A   1      34.508  30.980  27.520  1.00  0.00     0.039 A 
ATOM     35  C   UNL A   1      35.439  32.004  27.731  1.00  0.00     0.014 A 
ATOM     36  C   UNL A   1      34.892  29.655  27.700  1.00  0.00     0.014 A 
ATOM     37  C   UNL A   1      36.688  31.708  28.280  1.00  0.00     0.010 A 
ATOM     38  C   UNL A   1      36.086  29.369  28.350  1.00  0.00     0.010 A 
ATOM     39  C   UNL A   1      36.979  30.396  28.681  1.00  0.00    -0.014 A 
BRANCH  39  40
ATOM     40  C   UNL A   1      38.168  30.080  29.509  1.00  0.00     0.031 A 
ATOM     41  C   UNL A   1      39.257  29.203  28.963  1.00  0.00     0.074 A 
ATOM     42  C   UNL A   1      38.195  30.482  30.797  1.00  0.00     0.049 A 
ATOM     43  N   UNL A   1      40.297  28.698  29.575  1.00  0.00    -0.248 NA
ATOM     44  C   UNL A   1      39.134  28.798  27.553  1.00  0.00     0.031 C 
ATOM     45  C   UNL A   1      37.156  31.270  31.466  1.00  0.00     0.029 A 
ATOM     46  N   UNL A   1      39.130  30.273  31.778  1.00  0.00    -0.354 N 
ATOM     47  C   UNL A   1      40.923  27.883  28.641  1.00  0.00     0.074 A 
ATOM     48  C   UNL A   1      40.122  27.924  27.438  1.00  0.00     0.031 C 
ATOM     49  C   UNL A   1      37.532  31.516  32.731  1.00  0.00     0.029 A 
ATOM     50  C   UNL A   1      38.814  30.868  32.977  1.00  0.00     0.049 A 
ATOM     51  H   UNL A   1      39.950  29.747  31.639  1.00  0.00     0.167 HD
ATOM     52  C   UNL A   1      42.074  27.182  28.768  1.00  0.00     0.031 A 
ATOM     53  C   UNL A   1      39.485  30.891  34.142  1.00  0.00     0.031 A 
ATOM     54  C   UNL A   1      42.887  27.184  29.952  1.00  0.00     0.049 A 
ATOM     55  C   UNL A   1      40.800  30.171  34.233  1.00  0.00     0.074 A 
ATOM     56  C   UNL A   1      44.104  26.563  30.169  1.00  0.00     0.029 A 
ATOM     57  N   UNL A   1      42.567  27.861  31.120  1.00  0.00    -0.354 N 
ATOM     58  N   UNL A   1      41.407  29.450  33.322  1.00  0.00    -0.248 NA
ATOM     59  C   UNL A   1      41.527  30.281  35.503  1.00  0.00     0.031 C 
ATOM     60  C   UNL A   1      44.511  26.849  31.477  1.00  0.00     0.029 A 
ATOM     61  C   UNL A   1      43.566  27.677  32.061  1.00  0.00     0.049 A 
ATOM     62  H   UNL A   1      41.751  28.394  31.259  1.00  0.00     0.167 HD
ATOM     63  C   UNL A   1      42.600  29.040  33.900  1.00  0.00     0.074 A 
ATOM     64  C   UNL A   1      42.636  29.606  35.233  1.00  0.00     0.031 C 
ATOM     65  C   UNL A   1      43.578  28.262  33.376  1.00  0.00     0.031 A 
BRANCH  52  66
ATOM     66  C   UNL A   1      42.509  26.363  27.584  1.00  0.00    -0.014 A 
ATOM     67  C   UNL A   1      43.298  26.921  26.565  1.00  0.00     0.009 A 
ATOM     68  C   UNL A   1      42.115  25.020  27.479  1.00  0.00     0.009 A 
ATOM     69  C   UNL A   1      43.640  26.168  25.441  1.00  0.00     0.001 A 
ATOM     70  C   UNL A   1      42.485  24.260  26.366  1.00  0.00     0.001 A 
ATOM     71  C   UNL A   1      43.234  24.838  25.343  1.00  0.00     0.000 A 
ENDBRANCH  52  66
BRANCH  53  72
ATOM     72  C   UNL A   1      38.953  31.661  35.297  1.00  0.00    -0.014 A 
ATOM     73  C   UNL A   1      39.193  33.040  35.395  1.00  0.00     0.009 A 
ATOM     74  C   UNL A   1      38.199  31.030  36.298  1.00  0.00     0.009 A 
ATOM     75  C   UNL A   1      38.710  33.768  36.485  1.00  0.00     0.001 A 
ATOM     76  C   UNL A   1      37.697  31.767  37.375  1.00  0.00     0.001 A 
ATOM     77  C   UNL A   1      37.960  33.132  37.472  1.00  0.00     0.000 A 
ENDBRANCH  53  72
BRANCH  65  78
ATOM     78  C   UNL A   1      44.782  28.017  34.235  1.00  0.00    -0.014 A 
ATOM     79  C   UNL A   1      44.849  26.905  35.088  1.00  0.00     0.009 A 
ATOM     80  C   UNL A   1      45.877  28.892  34.158  1.00  0.00     0.009 A 
ATOM     81  C   UNL A   1      45.985  26.690  35.871  1.00  0.00     0.001 A 
ATOM     82  C   UNL A   1      47.019  28.660  34.924  1.00  0.00     0.001 A 
ATOM     83  C   UNL A   1      47.069  27.564  35.785  1.00  0.00     0.000 A 
ENDBRANCH  65  78
ENDBRANCH  39  40
ENDBRANCH  31  34
ENDBRANCH  29  30
ENDBRANCH   1  29
TORSDOF 12
ENDMDL
MODEL 3
REMARK VINA RESULT:     -12.7      3.386      8.459
REMARK SMILES O=C(NCCCNC(=O)c1ccc(-c2c3nc(c(-c4ccccc4)c4ccc([nH]4)c(-c4ccccc4)c4nc(c(-c5ccccc5)c5ccc2[nH]5)C=C4)C=C3)cc1)C1=Cc2cc(Cl)cc(-c3ccc(Cl)cc3)c2O[C@@H]1C(F)(F)F
REMARK SMILES IDX 5 1 4 2 3 3 1 4 2 5 58 7 59 8 75 9 60 10 74 11 61 12 73 13
REMARK SMILES IDX 62 14 65 15 63 16 64 17 76 18 77 19 78 20 79 21 66 22 67 23
REMARK SMILES IDX 72 24 68 25 71 26 69 27 70 28 6 29 7 30 8 31 9 33 10 34
REMARK SMILES IDX 11 35 57 36 12 37 56 38 13 39 14 40 15 41 50 42 16 43 55 44
REMARK SMILES IDX 49 45 51 46 17 47 54 48 48 49 47 50 18 52 40 53 25 54 39 55
REMARK SMILES IDX 26 56 29 57 38 58 52 59 27 60 28 61 37 63 53 64 30 65 19 66
REMARK SMILES IDX 20 67 24 68 21 69 23 70 22 71 41 72 42 73 46 74 43 75 45 76
REMARK SMILES IDX 44 77 31 78 32 79 36 80 33 81 35 82 34 83
REMARK H PARENT 3 6 7 32 51 51 29 62
REMARK Flexibility Score: inf
ROOT
ATOM      1  C   UNL A   1      36.193  22.052  25.730  1.00  0.00     0.042 C 
ENDROOT
BRANCH   1   2
ATOM      2  C   UNL A   1      34.885  22.824  25.550  1.00  0.00     0.118 C 
BRANCH   2   3
ATOM      3  N   UNL A   1      34.768  23.435  24.222  1.00  0.00    -0.352 N 
ATOM      4  O   UNL A   1      34.320  25.081  22.724  1.00  0.00    -0.270 OA
ATOM      5  C   UNL A   1      34.159  24.604  23.838  1.00  0.00     0.251 C 
ATOM      6  H   UNL A   1      35.191  22.928  23.493  1.00  0.00     0.163 HD
BRANCH   5   7
ATOM      7  C   UNL A   1      33.352  25.289  24.856  1.00  0.00     0.067 C 
ATOM      8  C   UNL A   1      33.995  26.083  25.720  1.00  0.00     0.025 C 
ATOM      9  C   UNL A   1      31.874  25.346  24.650  1.00  0.00     0.314 C 
ATOM     10  C   UNL A   1      33.286  27.323  26.041  1.00  0.00     0.019 A 
ATOM     11  O   UNL A   1      31.409  26.718  24.591  1.00  0.00    -0.475 OA
ATOM     12  C   UNL A   1      33.989  28.309  26.739  1.00  0.00     0.032 A 
ATOM     13  C   UNL A   1      32.123  27.654  25.308  1.00  0.00     0.135 A 
ATOM     14  C   UNL A   1      33.598  29.637  26.618  1.00  0.00     0.042 A 
ATOM     15  C   UNL A   1      31.759  29.002  25.142  1.00  0.00     0.026 A 
ATOM     16  Cl  UNL A   1      34.560  30.867  27.338  1.00  0.00    -0.084 Cl
ATOM     17  C   UNL A   1      32.514  29.985  25.811  1.00  0.00     0.033 A 
BRANCH   9  18
ATOM     18  C   UNL A   1      31.116  24.516  25.702  1.00  0.00     0.429 C 
ATOM     19  F   UNL A   1      30.037  25.188  26.171  1.00  0.00    -0.167 F 
ATOM     20  F   UNL A   1      30.654  23.352  25.184  1.00  0.00    -0.167 F 
ATOM     21  F   UNL A   1      31.886  24.200  26.769  1.00  0.00    -0.167 F 
ENDBRANCH   9  18
BRANCH  15  22
ATOM     22  C   UNL A   1      30.754  29.437  24.157  1.00  0.00    -0.015 A 
ATOM     23  C   UNL A   1      30.681  28.797  22.906  1.00  0.00     0.010 A 
ATOM     24  C   UNL A   1      29.901  30.520  24.392  1.00  0.00     0.010 A 
ATOM     25  C   UNL A   1      29.840  29.258  21.894  1.00  0.00     0.021 A 
ATOM     26  C   UNL A   1      29.044  30.980  23.383  1.00  0.00     0.021 A 
ATOM     27  C   UNL A   1      29.032  30.360  22.134  1.00  0.00     0.041 A 
ATOM     28  Cl  UNL A   1      28.028  30.965  20.876  1.00  0.00    -0.084 Cl
ENDBRANCH  15  22
ENDBRANCH   5   7
ENDBRANCH   2   3
ENDBRANCH   1   2
BRANCH   1  29
ATOM     29  C   UNL A   1      37.410  22.834  25.244  1.00  0.00     0.118 C 
BRANCH  29  30
ATOM     30  N   UNL A   1      38.697  22.284  25.637  1.00  0.00    -0.352 N 
ATOM     31  C   UNL A   1      39.688  22.844  26.421  1.00  0.00     0.251 C 
ATOM     32  H   UNL A   1      38.891  21.382  25.294  1.00  0.00     0.163 HD
ATOM     33  O   UNL A   1      40.714  22.207  26.647  1.00  0.00    -0.269 OA
BRANCH  31  34
ATOM     34  C   UNL A   1      39.585  24.247  26.891  1.00  0.00     0.039 A 
ATOM     35  C   UNL A   1      38.961  24.480  28.122  1.00  0.00     0.014 A 
ATOM     36  C   UNL A   1      40.183  25.305  26.214  1.00  0.00     0.014 A 
ATOM     37  C   UNL A   1      39.085  25.725  28.742  1.00  0.00     0.010 A 
ATOM     38  C   UNL A   1      40.406  26.506  26.876  1.00  0.00     0.010 A 
ATOM     39  C   UNL A   1      39.891  26.714  28.163  1.00  0.00    -0.014 A 
BRANCH  39  40
ATOM     40  C   UNL A   1      40.275  27.940  28.904  1.00  0.00     0.031 A 
ATOM     41  C   UNL A   1      41.598  28.013  29.610  1.00  0.00     0.074 A 
ATOM     42  C   UNL A   1      39.369  28.930  29.045  1.00  0.00     0.049 A 
ATOM     43  N   UNL A   1      42.051  28.932  30.423  1.00  0.00    -0.248 NA
ATOM     44  C   UNL A   1      42.514  26.878  29.414  1.00  0.00     0.031 C 
ATOM     45  C   UNL A   1      38.019  28.938  28.474  1.00  0.00     0.029 A 
ATOM     46  N   UNL A   1      39.446  30.120  29.721  1.00  0.00    -0.354 N 
ATOM     47  C   UNL A   1      43.280  28.464  30.869  1.00  0.00     0.074 A 
ATOM     48  C   UNL A   1      43.480  27.161  30.274  1.00  0.00     0.031 C 
ATOM     49  C   UNL A   1      37.413  30.095  28.786  1.00  0.00     0.029 A 
ATOM     50  C   UNL A   1      38.311  30.890  29.613  1.00  0.00     0.049 A 
ATOM     51  H   UNL A   1      40.237  30.399  30.236  1.00  0.00     0.167 HD
ATOM     52  C   UNL A   1      44.172  29.075  31.684  1.00  0.00     0.031 A 
ATOM     53  C   UNL A   1      38.029  32.103  30.121  1.00  0.00     0.031 A 
ATOM     54  C   UNL A   1      43.985  30.389  32.234  1.00  0.00     0.049 A 
ATOM     55  C   UNL A   1      39.067  32.796  30.956  1.00  0.00     0.074 A 
ATOM     56  C   UNL A   1      44.850  31.132  33.018  1.00  0.00     0.029 A 
ATOM     57  N   UNL A   1      42.852  31.166  32.039  1.00  0.00    -0.354 N 
ATOM     58  N   UNL A   1      40.249  32.364  31.325  1.00  0.00    -0.248 NA
ATOM     59  C   UNL A   1      38.740  34.145  31.432  1.00  0.00     0.031 C 
ATOM     60  C   UNL A   1      44.230  32.351  33.313  1.00  0.00     0.029 A 
ATOM     61  C   UNL A   1      42.996  32.382  32.683  1.00  0.00     0.049 A 
ATOM     62  H   UNL A   1      42.062  30.892  31.518  1.00  0.00     0.167 HD
ATOM     63  C   UNL A   1      40.818  33.397  32.054  1.00  0.00     0.074 A 
ATOM     64  C   UNL A   1      39.857  34.482  32.063  1.00  0.00     0.031 C 
ATOM     65  C   UNL A   1      42.026  33.445  32.665  1.00  0.00     0.031 A 
BRANCH  52  66
ATOM     66  C   UNL A   1      45.427  28.316  32.016  1.00  0.00    -0.014 A 
ATOM     67  C   UNL A   1      45.491  27.474  33.139  1.00  0.00     0.009 A 
ATOM     68  C   UNL A   1      46.564  28.454  31.205  1.00  0.00     0.009 A 
ATOM     69  C   UNL A   1      46.682  26.827  33.472  1.00  0.00     0.001 A 
ATOM     70  C   UNL A   1      47.745  27.781  31.524  1.00  0.00     0.001 A 
ATOM     71  C   UNL A   1      47.808  26.980  32.664  1.00  0.00     0.000 A 
ENDBRANCH  52  66
BRANCH  53  72
ATOM     72  C   UNL A   1      36.732  32.760  29.813  1.00  0.00    -0.014 A 
ATOM     73  C   UNL A   1      36.602  33.558  28.665  1.00  0.00     0.009 A 
ATOM     74  C   UNL A   1      35.620  32.591  30.651  1.00  0.00     0.009 A 
ATOM     75  C   UNL A   1      35.391  34.192  28.376  1.00  0.00     0.001 A 
ATOM     76  C   UNL A   1      34.403  33.207  30.346  1.00  0.00     0.001 A 
ATOM     77  C   UNL A   1      34.292  34.014  29.214  1.00  0.00     0.000 A 
ENDBRANCH  53  72
BRANCH  65  78
ATOM     78  C   UNL A   1      42.386  34.726  33.356  1.00  0.00    -0.014 A 
ATOM     79  C   UNL A   1      43.100  35.734  32.691  1.00  0.00     0.009 A 
ATOM     80  C   UNL A   1      41.968  34.940  34.679  1.00  0.00     0.009 A 
ATOM     81  C   UNL A   1      43.415  36.923  33.350  1.00  0.00     0.001 A 
ATOM     82  C   UNL A   1      42.264  36.139  35.326  1.00  0.00     0.001 A 
ATOM     83  C   UNL A   1      42.993  37.126  34.664  1.00  0.00     0.000 A 
ENDBRANCH  65  78
ENDBRANCH  39  40
ENDBRANCH  31  34
ENDBRANCH  29  30
ENDBRANCH   1  29
TORSDOF 12
ENDMDL
