MODEL 1
REMARK VINA RESULT:     -10.1      0.000      0.000
REMARK SMILES COc1cc(OC)cc(C(=O)C[C@H](C)CC(=O)NCCCNC(=O)c2ccc(-c3c4nc(c(-c5ccccc5)c5ccc([nH]5)c(-c5ccccc5)c5nc(c(-c6ccccc6)c6ccc3[nH]6)C=C5)C=C4)cc2)c1
REMARK SMILES IDX 16 1 17 2 18 3 15 5 13 6 14 7 12 8 10 9 11 10 9 11 3 12 4 13
REMARK SMILES IDX 73 14 5 15 8 16 2 17 1 18 6 19 7 20 19 21 20 22 21 23 22 24
REMARK SMILES IDX 23 25 24 27 25 28 26 29 72 30 27 31 71 32 28 33 29 34 30 35
REMARK SMILES IDX 65 36 31 37 70 38 64 39 66 40 32 41 69 42 63 43 62 44 33 46
REMARK SMILES IDX 55 47 40 48 54 49 41 50 44 51 53 52 67 53 42 54 43 55 52 57
REMARK SMILES IDX 68 58 45 59 34 60 35 61 39 62 36 63 38 64 37 65 56 66 57 67
REMARK SMILES IDX 61 68 58 69 60 70 59 71 46 72 47 73 51 74 48 75 50 76 49 77
REMARK H PARENT 18 4 22 26 66 45 44 56
REMARK Flexibility Score: inf
ROOT
ATOM      1  C   UNL A   1      33.360  28.089  22.663  1.00  0.00     0.220 C 
ATOM      2  O   UNL A   1      34.039  27.843  21.663  1.00  0.00    -0.275 OA
ATOM      3  N   UNL A   1      33.881  28.902  23.620  1.00  0.00    -0.356 N 
ATOM      4  H   UNL A   1      34.746  29.315  23.393  1.00  0.00     0.163 HD
ENDROOT
BRANCH   1   5
ATOM      5  C   UNL A   1      31.980  27.477  22.824  1.00  0.00     0.103 C 
BRANCH   5   6
ATOM      6  C   UNL A   1      32.050  26.126  23.558  1.00  0.00     0.003 C 
ATOM      7  C   UNL A   1      31.128  26.085  24.781  1.00  0.00     0.008 C 
BRANCH   6   8
ATOM      8  C   UNL A   1      31.678  24.973  22.611  1.00  0.00     0.085 C 
BRANCH   8   9
ATOM      9  C   UNL A   1      32.915  24.260  22.099  1.00  0.00     0.163 C 
ATOM     10  O   UNL A   1      33.294  24.415  20.940  1.00  0.00    -0.294 OA
BRANCH   9  11
ATOM     11  C   UNL A   1      33.651  23.322  23.001  1.00  0.00     0.025 A 
ATOM     12  C   UNL A   1      33.750  21.372  24.431  1.00  0.00     0.123 A 
ATOM     13  C   UNL A   1      35.102  21.626  24.663  1.00  0.00     0.092 A 
ATOM     14  C   UNL A   1      33.020  22.230  23.613  1.00  0.00     0.058 A 
ATOM     15  C   UNL A   1      35.743  22.712  24.063  1.00  0.00     0.123 A 
ATOM     16  C   UNL A   1      35.016  23.554  23.223  1.00  0.00     0.058 A 
BRANCH  12  17
ATOM     17  O   UNL A   1      33.233  20.284  25.083  1.00  0.00    -0.497 OA
ATOM     18  C   UNL A   1      33.048  19.113  24.290  1.00  0.00     0.278 C 
ENDBRANCH  12  17
BRANCH  15  19
ATOM     19  O   UNL A   1      37.071  22.837  24.363  1.00  0.00    -0.497 OA
ATOM     20  C   UNL A   1      37.424  22.785  25.740  1.00  0.00     0.278 C 
ENDBRANCH  15  19
ENDBRANCH   9  11
ENDBRANCH   8   9
ENDBRANCH   6   8
ENDBRANCH   5   6
ENDBRANCH   1   5
BRANCH   3  21
ATOM     21  C   UNL A   1      33.356  29.253  24.928  1.00  0.00     0.117 C 
BRANCH  21  22
ATOM     22  C   UNL A   1      33.864  28.298  26.004  1.00  0.00     0.042 C 
BRANCH  22  23
ATOM     23  C   UNL A   1      33.340  28.606  27.399  1.00  0.00     0.118 C 
BRANCH  23  24
ATOM     24  N   UNL A   1      33.468  30.016  27.729  1.00  0.00    -0.352 N 
ATOM     25  C   UNL A   1      34.500  30.717  28.295  1.00  0.00     0.251 C 
ATOM     26  H   UNL A   1      32.677  30.561  27.510  1.00  0.00     0.163 HD
ATOM     27  O   UNL A   1      34.280  31.861  28.703  1.00  0.00    -0.269 OA
BRANCH  25  28
ATOM     28  C   UNL A   1      35.864  30.151  28.432  1.00  0.00     0.039 A 
ATOM     29  C   UNL A   1      36.235  29.599  29.665  1.00  0.00     0.014 A 
ATOM     30  C   UNL A   1      36.817  30.244  27.414  1.00  0.00     0.014 A 
ATOM     31  C   UNL A   1      37.538  29.134  29.867  1.00  0.00     0.010 A 
ATOM     32  C   UNL A   1      38.088  29.695  27.585  1.00  0.00     0.010 A 
ATOM     33  C   UNL A   1      38.475  29.169  28.824  1.00  0.00    -0.014 A 
BRANCH  33  34
ATOM     34  C   UNL A   1      39.878  28.731  29.042  1.00  0.00     0.031 A 
ATOM     35  C   UNL A   1      40.865  29.656  29.711  1.00  0.00     0.074 A 
ATOM     36  C   UNL A   1      40.280  27.515  28.624  1.00  0.00     0.049 A 
ATOM     37  N   UNL A   1      42.132  29.460  29.978  1.00  0.00    -0.248 NA
ATOM     38  C   UNL A   1      40.369  30.984  30.108  1.00  0.00     0.031 C 
ATOM     39  C   UNL A   1      39.440  26.537  27.929  1.00  0.00     0.029 A 
ATOM     40  N   UNL A   1      41.500  26.895  28.729  1.00  0.00    -0.354 N 
ATOM     41  C   UNL A   1      42.586  30.644  30.546  1.00  0.00     0.074 A 
ATOM     42  C   UNL A   1      41.475  31.569  30.543  1.00  0.00     0.031 C 
ATOM     43  C   UNL A   1      40.161  25.425  27.703  1.00  0.00     0.029 A 
ATOM     44  C   UNL A   1      41.515  25.623  28.209  1.00  0.00     0.049 A 
ATOM     45  H   UNL A   1      42.287  27.320  29.138  1.00  0.00     0.167 HD
ATOM     46  C   UNL A   1      43.809  30.934  31.050  1.00  0.00     0.031 A 
ATOM     47  C   UNL A   1      42.507  24.716  28.153  1.00  0.00     0.031 A 
ATOM     48  C   UNL A   1      44.909  30.009  31.090  1.00  0.00     0.049 A 
ATOM     49  C   UNL A   1      43.849  25.050  28.738  1.00  0.00     0.074 A 
ATOM     50  C   UNL A   1      46.167  30.187  31.639  1.00  0.00     0.029 A 
ATOM     51  N   UNL A   1      44.878  28.728  30.564  1.00  0.00    -0.354 N 
ATOM     52  N   UNL A   1      44.241  26.153  29.329  1.00  0.00    -0.248 NA
ATOM     53  C   UNL A   1      44.883  24.008  28.661  1.00  0.00     0.031 C 
ATOM     54  C   UNL A   1      46.910  29.023  31.413  1.00  0.00     0.029 A 
ATOM     55  C   UNL A   1      46.099  28.108  30.760  1.00  0.00     0.049 A 
ATOM     56  H   UNL A   1      44.101  28.319  30.117  1.00  0.00     0.167 HD
ATOM     57  C   UNL A   1      45.558  25.930  29.711  1.00  0.00     0.074 A 
ATOM     58  C   UNL A   1      45.891  24.581  29.302  1.00  0.00     0.031 C 
ATOM     59  C   UNL A   1      46.415  26.768  30.342  1.00  0.00     0.031 A 
BRANCH  46  60
ATOM     60  C   UNL A   1      44.018  32.316  31.603  1.00  0.00    -0.014 A 
ATOM     61  C   UNL A   1      43.758  32.606  32.952  1.00  0.00     0.009 A 
ATOM     62  C   UNL A   1      44.499  33.337  30.770  1.00  0.00     0.009 A 
ATOM     63  C   UNL A   1      43.940  33.900  33.445  1.00  0.00     0.001 A 
ATOM     64  C   UNL A   1      44.706  34.623  31.272  1.00  0.00     0.001 A 
ATOM     65  C   UNL A   1      44.417  34.906  32.606  1.00  0.00     0.000 A 
ENDBRANCH  46  60
BRANCH  47  66
ATOM     66  C   UNL A   1      42.260  23.383  27.544  1.00  0.00    -0.014 A 
ATOM     67  C   UNL A   1      42.618  23.137  26.210  1.00  0.00     0.009 A 
ATOM     68  C   UNL A   1      41.665  22.355  28.291  1.00  0.00     0.009 A 
ATOM     69  C   UNL A   1      42.364  21.893  25.629  1.00  0.00     0.001 A 
ATOM     70  C   UNL A   1      41.435  21.105  27.713  1.00  0.00     0.001 A 
ATOM     71  C   UNL A   1      41.777  20.877  26.382  1.00  0.00     0.000 A 
ENDBRANCH  47  66
BRANCH  59  72
ATOM     72  C   UNL A   1      47.787  26.239  30.647  1.00  0.00    -0.014 A 
ATOM     73  C   UNL A   1      48.793  26.233  29.670  1.00  0.00     0.009 A 
ATOM     74  C   UNL A   1      48.083  25.773  31.938  1.00  0.00     0.009 A 
ATOM     75  C   UNL A   1      50.063  25.737  29.972  1.00  0.00     0.001 A 
ATOM     76  C   UNL A   1      49.360  25.300  32.242  1.00  0.00     0.001 A 
ATOM     77  C   UNL A   1      50.346  25.274  31.256  1.00  0.00     0.000 A 
ENDBRANCH  59  72
ENDBRANCH  33  34
ENDBRANCH  25  28
ENDBRANCH  23  24
ENDBRANCH  22  23
ENDBRANCH  21  22
ENDBRANCH   3  21
TORSDOF 16
ENDMDL
MODEL 2
REMARK VINA RESULT:     -10.0      0.689      6.063
REMARK SMILES COc1cc(OC)cc(C(=O)C[C@H](C)CC(=O)NCCCNC(=O)c2ccc(-c3c4nc(c(-c5ccccc5)c5ccc([nH]5)c(-c5ccccc5)c5nc(c(-c6ccccc6)c6ccc3[nH]6)C=C5)C=C4)cc2)c1
REMARK SMILES IDX 16 1 17 2 18 3 15 5 13 6 14 7 12 8 10 9 11 10 9 11 3 12 4 13
REMARK SMILES IDX 73 14 5 15 8 16 2 17 1 18 6 19 7 20 19 21 20 22 21 23 22 24
REMARK SMILES IDX 23 25 24 27 25 28 26 29 72 30 27 31 71 32 28 33 29 34 30 35
REMARK SMILES IDX 65 36 31 37 70 38 64 39 66 40 32 41 69 42 63 43 62 44 33 46
REMARK SMILES IDX 55 47 40 48 54 49 41 50 44 51 53 52 67 53 42 54 43 55 52 57
REMARK SMILES IDX 68 58 45 59 34 60 35 61 39 62 36 63 38 64 37 65 56 66 57 67
REMARK SMILES IDX 61 68 58 69 60 70 59 71 46 72 47 73 51 74 48 75 50 76 49 77
REMARK H PARENT 18 4 22 26 66 45 44 56
REMARK Flexibility Score: inf
ROOT
ATOM      1  C   UNL A   1      33.264  27.866  22.629  1.00  0.00     0.220 C 
ATOM      2  O   UNL A   1      33.895  27.586  21.607  1.00  0.00    -0.275 OA
ATOM      3  N   UNL A   1      33.789  28.780  23.489  1.00  0.00    -0.356 N 
ATOM      4  H   UNL A   1      34.609  29.226  23.176  1.00  0.00     0.163 HD
ENDROOT
BRANCH   1   5
ATOM      5  C   UNL A   1      31.939  27.186  22.924  1.00  0.00     0.103 C 
BRANCH   5   6
ATOM      6  C   UNL A   1      32.117  26.024  23.918  1.00  0.00     0.003 C 
ATOM      7  C   UNL A   1      31.189  26.154  25.131  1.00  0.00     0.008 C 
BRANCH   6   8
ATOM      8  C   UNL A   1      31.854  24.674  23.228  1.00  0.00     0.085 C 
BRANCH   8   9
ATOM      9  C   UNL A   1      33.151  23.955  22.914  1.00  0.00     0.163 C 
ATOM     10  O   UNL A   1      33.912  24.382  22.047  1.00  0.00    -0.294 OA
BRANCH   9  11
ATOM     11  C   UNL A   1      33.484  22.687  23.633  1.00  0.00     0.025 A 
ATOM     12  C   UNL A   1      32.876  20.533  24.555  1.00  0.00     0.123 A 
ATOM     13  C   UNL A   1      34.194  20.354  24.973  1.00  0.00     0.092 A 
ATOM     14  C   UNL A   1      32.517  21.707  23.898  1.00  0.00     0.058 A 
ATOM     15  C   UNL A   1      35.167  21.323  24.719  1.00  0.00     0.123 A 
ATOM     16  C   UNL A   1      34.811  22.486  24.038  1.00  0.00     0.058 A 
BRANCH  12  17
ATOM     17  O   UNL A   1      32.013  19.518  24.871  1.00  0.00    -0.497 OA
ATOM     18  C   UNL A   1      32.613  18.256  25.156  1.00  0.00     0.278 C 
ENDBRANCH  12  17
BRANCH  15  19
ATOM     19  O   UNL A   1      36.421  21.015  25.171  1.00  0.00    -0.497 OA
ATOM     20  C   UNL A   1      37.477  21.881  24.773  1.00  0.00     0.278 C 
ENDBRANCH  15  19
ENDBRANCH   9  11
ENDBRANCH   8   9
ENDBRANCH   6   8
ENDBRANCH   5   6
ENDBRANCH   1   5
BRANCH   3  21
ATOM     21  C   UNL A   1      33.322  29.197  24.800  1.00  0.00     0.117 C 
BRANCH  21  22
ATOM     22  C   UNL A   1      34.063  28.459  25.912  1.00  0.00     0.042 C 
BRANCH  22  23
ATOM     23  C   UNL A   1      33.473  28.682  27.298  1.00  0.00     0.118 C 
BRANCH  23  24
ATOM     24  N   UNL A   1      33.580  30.069  27.718  1.00  0.00    -0.352 N 
ATOM     25  C   UNL A   1      34.595  30.743  28.345  1.00  0.00     0.251 C 
ATOM     26  H   UNL A   1      32.788  30.619  27.519  1.00  0.00     0.163 HD
ATOM     27  O   UNL A   1      34.356  31.857  28.819  1.00  0.00    -0.269 OA
BRANCH  25  28
ATOM     28  C   UNL A   1      35.963  30.184  28.470  1.00  0.00     0.039 A 
ATOM     29  C   UNL A   1      36.355  29.657  29.707  1.00  0.00     0.014 A 
ATOM     30  C   UNL A   1      36.898  30.259  27.435  1.00  0.00     0.014 A 
ATOM     31  C   UNL A   1      37.662  29.199  29.897  1.00  0.00     0.010 A 
ATOM     32  C   UNL A   1      38.174  29.716  27.595  1.00  0.00     0.010 A 
ATOM     33  C   UNL A   1      38.582  29.215  28.838  1.00  0.00    -0.014 A 
BRANCH  33  34
ATOM     34  C   UNL A   1      39.990  28.785  29.042  1.00  0.00     0.031 A 
ATOM     35  C   UNL A   1      40.423  27.396  28.641  1.00  0.00     0.074 A 
ATOM     36  C   UNL A   1      40.879  29.625  29.605  1.00  0.00     0.049 A 
ATOM     37  N   UNL A   1      41.600  26.834  28.749  1.00  0.00    -0.248 NA
ATOM     38  C   UNL A   1      39.391  26.517  28.066  1.00  0.00     0.031 C 
ATOM     39  C   UNL A   1      40.585  30.980  30.075  1.00  0.00     0.029 A 
ATOM     40  N   UNL A   1      42.215  29.461  29.873  1.00  0.00    -0.354 N 
ATOM     41  C   UNL A   1      41.443  25.534  28.283  1.00  0.00     0.074 A 
ATOM     42  C   UNL A   1      40.048  25.374  27.936  1.00  0.00     0.031 C 
ATOM     43  C   UNL A   1      41.717  31.537  30.540  1.00  0.00     0.029 A 
ATOM     44  C   UNL A   1      42.805  30.571  30.428  1.00  0.00     0.049 A 
ATOM     45  H   UNL A   1      42.704  28.628  29.685  1.00  0.00     0.167 HD
ATOM     46  C   UNL A   1      42.375  24.563  28.133  1.00  0.00     0.031 A 
ATOM     47  C   UNL A   1      44.080  30.788  30.797  1.00  0.00     0.031 A 
ATOM     48  C   UNL A   1      43.770  24.725  28.441  1.00  0.00     0.049 A 
ATOM     49  C   UNL A   1      45.102  29.705  30.600  1.00  0.00     0.074 A 
ATOM     50  C   UNL A   1      44.804  23.822  28.261  1.00  0.00     0.029 A 
ATOM     51  N   UNL A   1      44.326  25.869  28.989  1.00  0.00    -0.354 N 
ATOM     52  N   UNL A   1      44.946  28.504  30.099  1.00  0.00    -0.248 NA
ATOM     53  C   UNL A   1      46.480  30.015  31.007  1.00  0.00     0.031 C 
ATOM     54  C   UNL A   1      45.983  24.409  28.734  1.00  0.00     0.029 A 
ATOM     55  C   UNL A   1      45.687  25.691  29.170  1.00  0.00     0.049 A 
ATOM     56  H   UNL A   1      43.828  26.687  29.216  1.00  0.00     0.167 HD
ATOM     57  C   UNL A   1      46.208  27.923  30.112  1.00  0.00     0.074 A 
ATOM     58  C   UNL A   1      47.120  28.909  30.653  1.00  0.00     0.031 C 
ATOM     59  C   UNL A   1      46.578  26.681  29.713  1.00  0.00     0.031 A 
BRANCH  46  60
ATOM     60  C   UNL A   1      41.910  23.236  27.605  1.00  0.00    -0.014 A 
ATOM     61  C   UNL A   1      41.728  23.023  26.229  1.00  0.00     0.009 A 
ATOM     62  C   UNL A   1      41.668  22.176  28.492  1.00  0.00     0.009 A 
ATOM     63  C   UNL A   1      41.277  21.788  25.756  1.00  0.00     0.001 A 
ATOM     64  C   UNL A   1      41.244  20.935  28.015  1.00  0.00     0.001 A 
ATOM     65  C   UNL A   1      41.039  20.744  26.649  1.00  0.00     0.000 A 
ENDBRANCH  46  60
BRANCH  47  66
ATOM     66  C   UNL A   1      44.473  32.103  31.366  1.00  0.00    -0.014 A 
ATOM     67  C   UNL A   1      44.431  32.317  32.752  1.00  0.00     0.009 A 
ATOM     68  C   UNL A   1      44.889  33.149  30.528  1.00  0.00     0.009 A 
ATOM     69  C   UNL A   1      44.776  33.559  33.286  1.00  0.00     0.001 A 
ATOM     70  C   UNL A   1      45.258  34.383  31.068  1.00  0.00     0.001 A 
ATOM     71  C   UNL A   1      45.194  34.589  32.444  1.00  0.00     0.000 A 
ENDBRANCH  47  66
BRANCH  59  72
ATOM     72  C   UNL A   1      48.034  26.333  29.828  1.00  0.00    -0.014 A 
ATOM     73  C   UNL A   1      48.553  25.774  31.005  1.00  0.00     0.009 A 
ATOM     74  C   UNL A   1      48.887  26.537  28.733  1.00  0.00     0.009 A 
ATOM     75  C   UNL A   1      49.910  25.457  31.094  1.00  0.00     0.001 A 
ATOM     76  C   UNL A   1      50.238  26.196  28.817  1.00  0.00     0.001 A 
ATOM     77  C   UNL A   1      50.750  25.665  30.001  1.00  0.00     0.000 A 
ENDBRANCH  59  72
ENDBRANCH  33  34
ENDBRANCH  25  28
ENDBRANCH  23  24
ENDBRANCH  22  23
ENDBRANCH  21  22
ENDBRANCH   3  21
TORSDOF 16
ENDMDL
MODEL 3
REMARK VINA RESULT:      -9.9      2.884      4.242
REMARK SMILES COc1cc(OC)cc(C(=O)C[C@H](C)CC(=O)NCCCNC(=O)c2ccc(-c3c4nc(c(-c5ccccc5)c5ccc([nH]5)c(-c5ccccc5)c5nc(c(-c6ccccc6)c6ccc3[nH]6)C=C5)C=C4)cc2)c1
REMARK SMILES IDX 16 1 17 2 18 3 15 5 13 6 14 7 12 8 10 9 11 10 9 11 3 12 4 13
REMARK SMILES IDX 73 14 5 15 8 16 2 17 1 18 6 19 7 20 19 21 20 22 21 23 22 24
REMARK SMILES IDX 23 25 24 27 25 28 26 29 72 30 27 31 71 32 28 33 29 34 30 35
REMARK SMILES IDX 65 36 31 37 70 38 64 39 66 40 32 41 69 42 63 43 62 44 33 46
REMARK SMILES IDX 55 47 40 48 54 49 41 50 44 51 53 52 67 53 42 54 43 55 52 57
REMARK SMILES IDX 68 58 45 59 34 60 35 61 39 62 36 63 38 64 37 65 56 66 57 67
REMARK SMILES IDX 61 68 58 69 60 70 59 71 46 72 47 73 51 74 48 75 50 76 49 77
REMARK H PARENT 18 4 22 26 66 45 44 56
REMARK Flexibility Score: inf
ROOT
ATOM      1  C   UNL A   1      31.501  28.481  27.021  1.00  0.00     0.220 C 
ATOM      2  O   UNL A   1      31.495  27.850  28.081  1.00  0.00    -0.275 OA
ATOM      3  N   UNL A   1      31.526  29.840  27.072  1.00  0.00    -0.356 N 
ATOM      4  H   UNL A   1      31.631  30.223  27.974  1.00  0.00     0.163 HD
ENDROOT
BRANCH   1   5
ATOM      5  C   UNL A   1      31.462  27.749  25.691  1.00  0.00     0.103 C 
BRANCH   5   6
ATOM      6  C   UNL A   1      31.020  26.287  25.871  1.00  0.00     0.003 C 
ATOM      7  C   UNL A   1      30.212  25.776  24.673  1.00  0.00     0.008 C 
BRANCH   6   8
ATOM      8  C   UNL A   1      32.240  25.372  26.079  1.00  0.00     0.085 C 
BRANCH   8   9
ATOM      9  C   UNL A   1      31.814  23.957  26.420  1.00  0.00     0.163 C 
ATOM     10  O   UNL A   1      30.901  23.752  27.218  1.00  0.00    -0.294 OA
BRANCH   9  11
ATOM     11  C   UNL A   1      32.546  22.802  25.817  1.00  0.00     0.025 A 
ATOM     12  C   UNL A   1      32.647  20.516  25.025  1.00  0.00     0.123 A 
ATOM     13  C   UNL A   1      33.986  20.708  24.683  1.00  0.00     0.092 A 
ATOM     14  C   UNL A   1      31.932  21.559  25.608  1.00  0.00     0.058 A 
ATOM     15  C   UNL A   1      34.612  21.939  24.888  1.00  0.00     0.123 A 
ATOM     16  C   UNL A   1      33.886  22.990  25.446  1.00  0.00     0.058 A 
BRANCH  12  17
ATOM     17  O   UNL A   1      32.150  19.264  24.785  1.00  0.00    -0.497 OA
ATOM     18  C   UNL A   1      32.404  18.731  23.487  1.00  0.00     0.278 C 
ENDBRANCH  12  17
BRANCH  15  19
ATOM     19  O   UNL A   1      35.921  21.994  24.494  1.00  0.00    -0.497 OA
ATOM     20  C   UNL A   1      36.215  22.798  23.358  1.00  0.00     0.278 C 
ENDBRANCH  15  19
ENDBRANCH   9  11
ENDBRANCH   8   9
ENDBRANCH   6   8
ENDBRANCH   5   6
ENDBRANCH   1   5
BRANCH   3  21
ATOM     21  C   UNL A   1      31.419  30.812  25.998  1.00  0.00     0.117 C 
BRANCH  21  22
ATOM     22  C   UNL A   1      31.342  32.236  26.545  1.00  0.00     0.042 C 
BRANCH  22  23
ATOM     23  C   UNL A   1      32.674  32.777  27.043  1.00  0.00     0.118 C 
BRANCH  23  24
ATOM     24  N   UNL A   1      32.529  34.071  27.688  1.00  0.00    -0.352 N 
ATOM     25  C   UNL A   1      33.190  34.624  28.754  1.00  0.00     0.251 C 
ATOM     26  H   UNL A   1      31.837  34.649  27.293  1.00  0.00     0.163 HD
ATOM     27  O   UNL A   1      32.720  35.641  29.273  1.00  0.00    -0.269 OA
BRANCH  25  28
ATOM     28  C   UNL A   1      34.441  34.047  29.300  1.00  0.00     0.039 A 
ATOM     29  C   UNL A   1      35.657  34.417  28.710  1.00  0.00     0.014 A 
ATOM     30  C   UNL A   1      34.440  33.076  30.305  1.00  0.00     0.014 A 
ATOM     31  C   UNL A   1      36.854  33.832  29.134  1.00  0.00     0.010 A 
ATOM     32  C   UNL A   1      35.643  32.562  30.792  1.00  0.00     0.010 A 
ATOM     33  C   UNL A   1      36.859  32.905  30.187  1.00  0.00    -0.014 A 
BRANCH  33  34
ATOM     34  C   UNL A   1      38.116  32.233  30.608  1.00  0.00     0.031 A 
ATOM     35  C   UNL A   1      38.945  32.813  31.727  1.00  0.00     0.074 A 
ATOM     36  C   UNL A   1      38.530  31.117  29.978  1.00  0.00     0.049 A 
ATOM     37  N   UNL A   1      40.075  32.379  32.228  1.00  0.00    -0.248 NA
ATOM     38  C   UNL A   1      38.455  34.055  32.346  1.00  0.00     0.031 C 
ATOM     39  C   UNL A   1      37.845  30.472  28.856  1.00  0.00     0.029 A 
ATOM     40  N   UNL A   1      39.628  30.324  30.199  1.00  0.00    -0.354 N 
ATOM     41  C   UNL A   1      40.439  33.307  33.197  1.00  0.00     0.074 A 
ATOM     42  C   UNL A   1      39.439  34.350  33.182  1.00  0.00     0.031 C 
ATOM     43  C   UNL A   1      38.519  29.363  28.511  1.00  0.00     0.029 A 
ATOM     44  C   UNL A   1      39.695  29.234  29.365  1.00  0.00     0.049 A 
ATOM     45  H   UNL A   1      40.303  30.518  30.889  1.00  0.00     0.167 HD
ATOM     46  C   UNL A   1      41.497  33.286  34.043  1.00  0.00     0.031 A 
ATOM     47  C   UNL A   1      40.599  28.239  29.301  1.00  0.00     0.031 A 
ATOM     48  C   UNL A   1      42.476  32.235  34.090  1.00  0.00     0.049 A 
ATOM     49  C   UNL A   1      41.751  28.224  30.265  1.00  0.00     0.074 A 
ATOM     50  C   UNL A   1      43.547  32.090  34.955  1.00  0.00     0.029 A 
ATOM     51  N   UNL A   1      42.500  31.144  33.236  1.00  0.00    -0.354 N 
ATOM     52  N   UNL A   1      42.044  29.077  31.216  1.00  0.00    -0.248 NA
ATOM     53  C   UNL A   1      42.691  27.099  30.153  1.00  0.00     0.031 C 
ATOM     54  C   UNL A   1      44.240  30.927  34.601  1.00  0.00     0.029 A 
ATOM     55  C   UNL A   1      43.575  30.329  33.542  1.00  0.00     0.049 A 
ATOM     56  H   UNL A   1      41.847  30.974  32.518  1.00  0.00     0.167 HD
ATOM     57  C   UNL A   1      43.188  28.582  31.829  1.00  0.00     0.074 A 
ATOM     58  C   UNL A   1      43.525  27.346  31.154  1.00  0.00     0.031 C 
ATOM     59  C   UNL A   1      43.898  29.106  32.858  1.00  0.00     0.031 A 
BRANCH  46  60
ATOM     60  C   UNL A   1      41.643  34.441  34.993  1.00  0.00    -0.014 A 
ATOM     61  C   UNL A   1      42.348  35.599  34.627  1.00  0.00     0.009 A 
ATOM     62  C   UNL A   1      41.051  34.381  36.263  1.00  0.00     0.009 A 
ATOM     63  C   UNL A   1      42.490  36.656  35.529  1.00  0.00     0.001 A 
ATOM     64  C   UNL A   1      41.171  35.450  37.153  1.00  0.00     0.001 A 
ATOM     65  C   UNL A   1      41.898  36.582  36.789  1.00  0.00     0.000 A 
ENDBRANCH  46  60
BRANCH  47  66
ATOM     66  C   UNL A   1      40.434  27.151  28.304  1.00  0.00    -0.014 A 
ATOM     67  C   UNL A   1      41.022  27.258  27.035  1.00  0.00     0.009 A 
ATOM     68  C   UNL A   1      39.689  26.003  28.615  1.00  0.00     0.009 A 
ATOM     69  C   UNL A   1      40.847  26.247  26.087  1.00  0.00     0.001 A 
ATOM     70  C   UNL A   1      39.537  24.983  27.674  1.00  0.00     0.001 A 
ATOM     71  C   UNL A   1      40.109  25.109  26.410  1.00  0.00     0.000 A 
ENDBRANCH  47  66
BRANCH  59  72
ATOM     72  C   UNL A   1      45.094  28.329  33.327  1.00  0.00    -0.014 A 
ATOM     73  C   UNL A   1      44.972  27.336  34.310  1.00  0.00     0.009 A 
ATOM     74  C   UNL A   1      46.352  28.573  32.754  1.00  0.00     0.009 A 
ATOM     75  C   UNL A   1      46.095  26.624  34.735  1.00  0.00     0.001 A 
ATOM     76  C   UNL A   1      47.468  27.842  33.163  1.00  0.00     0.001 A 
ATOM     77  C   UNL A   1      47.340  26.875  34.160  1.00  0.00     0.000 A 
ENDBRANCH  59  72
ENDBRANCH  33  34
ENDBRANCH  25  28
ENDBRANCH  23  24
ENDBRANCH  22  23
ENDBRANCH  21  22
ENDBRANCH   3  21
TORSDOF 16
ENDMDL
