MODEL 1
REMARK VINA RESULT:     -11.8      0.000      0.000
REMARK SMILES O=C(NCCCNC(=O)c1cccc(Nc2ccnc3ccc(F)cc23)c1)c1ccc(-c2c3nc(c(-c4ccccc4)c4ccc([nH]4)c(-c4ccccc4)c4nc(c(-c5ccccc5)c5ccc2[nH]5)C=C4)C=C3)cc1
REMARK SMILES IDX 5 1 4 2 3 3 1 4 2 5 28 7 29 8 75 9 30 10 74 11 31 12 32 13
REMARK SMILES IDX 33 14 68 15 34 16 73 17 67 18 69 19 35 20 72 21 66 22 65 23
REMARK SMILES IDX 36 25 58 26 43 27 57 28 44 29 47 30 56 31 70 32 45 33 46 34
REMARK SMILES IDX 55 36 71 37 48 38 37 39 38 40 42 41 39 42 41 43 40 44 59 45
REMARK SMILES IDX 60 46 64 47 61 48 63 49 62 50 49 51 50 52 54 53 51 54 53 55
REMARK SMILES IDX 52 56 6 57 7 58 8 59 9 61 10 62 11 63 27 64 12 65 14 66
REMARK SMILES IDX 13 67 15 68 16 70 17 71 26 72 18 73 20 74 25 75 19 76 21 77
REMARK SMILES IDX 23 78 22 79 24 80
REMARK H PARENT 3 6 69 24 47 35 7 60 15 69
REMARK Flexibility Score: inf
ROOT
ATOM      1  C   UNL A   1      34.031  28.452  25.782  1.00  0.00     0.042 C 
ENDROOT
BRANCH   1   2
ATOM      2  C   UNL A   1      33.525  28.658  27.206  1.00  0.00     0.118 C 
BRANCH   2   3
ATOM      3  N   UNL A   1      33.568  30.053  27.627  1.00  0.00    -0.352 N 
ATOM      4  O   UNL A   1      34.270  31.894  28.705  1.00  0.00    -0.269 OA
ATOM      5  C   UNL A   1      34.540  30.771  28.273  1.00  0.00     0.251 C 
ATOM      6  H   UNL A   1      32.760  30.569  27.409  1.00  0.00     0.163 HD
BRANCH   5   7
ATOM      7  C   UNL A   1      35.900  30.226  28.474  1.00  0.00     0.039 A 
ATOM      8  C   UNL A   1      36.863  30.295  27.466  1.00  0.00     0.014 A 
ATOM      9  C   UNL A   1      36.247  29.708  29.727  1.00  0.00     0.014 A 
ATOM     10  C   UNL A   1      38.122  29.735  27.663  1.00  0.00     0.010 A 
ATOM     11  C   UNL A   1      37.538  29.223  29.953  1.00  0.00     0.010 A 
ATOM     12  C   UNL A   1      38.483  29.216  28.916  1.00  0.00    -0.014 A 
BRANCH  12  13
ATOM     13  C   UNL A   1      39.880  28.768  29.150  1.00  0.00     0.031 A 
ATOM     14  C   UNL A   1      40.901  29.682  29.764  1.00  0.00     0.074 A 
ATOM     15  C   UNL A   1      40.222  27.514  28.792  1.00  0.00     0.049 A 
ATOM     16  N   UNL A   1      42.163  29.448  30.021  1.00  0.00    -0.248 NA
ATOM     17  C   UNL A   1      40.456  31.035  30.133  1.00  0.00     0.031 C 
ATOM     18  C   UNL A   1      39.320  26.537  28.176  1.00  0.00     0.029 A 
ATOM     19  N   UNL A   1      41.414  26.843  28.896  1.00  0.00    -0.354 N 
ATOM     20  C   UNL A   1      42.669  30.624  30.559  1.00  0.00     0.074 A 
ATOM     21  C   UNL A   1      41.582  31.579  30.578  1.00  0.00     0.031 C 
ATOM     22  C   UNL A   1      39.981  25.387  27.984  1.00  0.00     0.029 A 
ATOM     23  C   UNL A   1      41.368  25.564  28.398  1.00  0.00     0.049 A 
ATOM     24  H   UNL A   1      42.224  27.241  29.288  1.00  0.00     0.167 HD
ATOM     25  C   UNL A   1      43.926  30.881  30.995  1.00  0.00     0.031 A 
ATOM     26  C   UNL A   1      42.338  24.641  28.258  1.00  0.00     0.031 A 
ATOM     27  C   UNL A   1      45.003  29.925  30.976  1.00  0.00     0.049 A 
ATOM     28  C   UNL A   1      43.730  24.974  28.707  1.00  0.00     0.074 A 
ATOM     29  C   UNL A   1      46.293  30.074  31.457  1.00  0.00     0.029 A 
ATOM     30  N   UNL A   1      44.922  28.651  30.437  1.00  0.00    -0.354 N 
ATOM     31  N   UNL A   1      44.172  26.067  29.281  1.00  0.00    -0.248 NA
ATOM     32  C   UNL A   1      44.759  23.949  28.486  1.00  0.00     0.031 C 
ATOM     33  C   UNL A   1      47.012  28.916  31.145  1.00  0.00     0.029 A 
ATOM     34  C   UNL A   1      46.153  28.021  30.529  1.00  0.00     0.049 A 
ATOM     35  H   UNL A   1      44.111  28.253  30.045  1.00  0.00     0.167 HD
ATOM     36  C   UNL A   1      45.525  25.857  29.500  1.00  0.00     0.074 A 
ATOM     37  C   UNL A   1      45.827  24.523  29.024  1.00  0.00     0.031 C 
ATOM     38  C   UNL A   1      46.439  26.697  30.043  1.00  0.00     0.031 A 
BRANCH  25  39
ATOM     39  C   UNL A   1      44.228  32.264  31.504  1.00  0.00    -0.014 A 
ATOM     40  C   UNL A   1      44.103  32.590  32.863  1.00  0.00     0.009 A 
ATOM     41  C   UNL A   1      44.725  33.232  30.616  1.00  0.00     0.009 A 
ATOM     42  C   UNL A   1      44.449  33.866  33.318  1.00  0.00     0.001 A 
ATOM     43  C   UNL A   1      45.094  34.497  31.078  1.00  0.00     0.001 A 
ATOM     44  C   UNL A   1      44.950  34.815  32.427  1.00  0.00     0.000 A 
ENDBRANCH  25  39
BRANCH  26  45
ATOM     45  C   UNL A   1      42.032  23.334  27.621  1.00  0.00    -0.014 A 
ATOM     46  C   UNL A   1      42.256  23.130  26.252  1.00  0.00     0.009 A 
ATOM     47  C   UNL A   1      41.504  22.280  28.386  1.00  0.00     0.009 A 
ATOM     48  C   UNL A   1      41.932  21.908  25.657  1.00  0.00     0.001 A 
ATOM     49  C   UNL A   1      41.214  21.050  27.797  1.00  0.00     0.001 A 
ATOM     50  C   UNL A   1      41.418  20.868  26.430  1.00  0.00     0.000 A 
ENDBRANCH  26  45
BRANCH  38  51
ATOM     51  C   UNL A   1      47.847  26.190  30.167  1.00  0.00    -0.014 A 
ATOM     52  C   UNL A   1      48.722  26.203  29.069  1.00  0.00     0.009 A 
ATOM     53  C   UNL A   1      48.318  25.733  31.408  1.00  0.00     0.009 A 
ATOM     54  C   UNL A   1      50.033  25.745  29.207  1.00  0.00     0.001 A 
ATOM     55  C   UNL A   1      49.637  25.304  31.550  1.00  0.00     0.001 A 
ATOM     56  C   UNL A   1      50.491  25.302  30.448  1.00  0.00     0.000 A 
ENDBRANCH  38  51
ENDBRANCH  12  13
ENDBRANCH   5   7
ENDBRANCH   2   3
ENDBRANCH   1   2
BRANCH   1  57
ATOM     57  C   UNL A   1      33.063  28.918  24.702  1.00  0.00     0.118 C 
BRANCH  57  58
ATOM     58  N   UNL A   1      33.443  28.487  23.370  1.00  0.00    -0.352 N 
ATOM     59  C   UNL A   1      33.348  27.282  22.727  1.00  0.00     0.251 C 
ATOM     60  H   UNL A   1      33.848  29.198  22.822  1.00  0.00     0.163 HD
ATOM     61  O   UNL A   1      33.880  27.173  21.622  1.00  0.00    -0.269 OA
BRANCH  59  62
ATOM     62  C   UNL A   1      32.658  26.106  23.308  1.00  0.00     0.041 A 
ATOM     63  C   UNL A   1      31.275  26.009  23.098  1.00  0.00     0.014 A 
ATOM     64  C   UNL A   1      33.282  25.211  24.187  1.00  0.00     0.039 A 
ATOM     65  C   UNL A   1      30.531  25.010  23.721  1.00  0.00     0.003 A 
ATOM     66  C   UNL A   1      32.539  24.200  24.819  1.00  0.00     0.039 A 
ATOM     67  C   UNL A   1      31.163  24.112  24.577  1.00  0.00     0.026 A 
BRANCH  66  68
ATOM     68  N   UNL A   1      33.096  23.465  25.901  1.00  0.00    -0.355 N 
ATOM     69  H   UNL A   1      33.020  23.798  26.824  1.00  0.00     0.167 HD
BRANCH  68  70
ATOM     70  C   UNL A   1      33.765  22.239  25.624  1.00  0.00     0.050 A 
ATOM     71  C   UNL A   1      32.987  21.091  25.446  1.00  0.00     0.047 A 
ATOM     72  C   UNL A   1      35.169  22.154  25.489  1.00  0.00     0.027 A 
ATOM     73  C   UNL A   1      33.603  19.937  25.022  1.00  0.00     0.114 A 
ATOM     74  C   UNL A   1      35.694  20.903  25.083  1.00  0.00     0.072 A 
ATOM     75  C   UNL A   1      36.059  23.227  25.722  1.00  0.00     0.051 A 
ATOM     76  N   UNL A   1      34.930  19.830  24.831  1.00  0.00    -0.256 NA
ATOM     77  C   UNL A   1      37.066  20.760  24.941  1.00  0.00     0.032 A 
ATOM     78  C   UNL A   1      37.431  23.038  25.594  1.00  0.00     0.124 A 
ATOM     79  C   UNL A   1      37.944  21.810  25.209  1.00  0.00     0.041 A 
ATOM     80  F   UNL A   1      38.268  24.049  25.854  1.00  0.00    -0.207 F 
ENDBRANCH  68  70
ENDBRANCH  66  68
ENDBRANCH  59  62
ENDBRANCH  57  58
ENDBRANCH   1  57
TORSDOF 12
ENDMDL
MODEL 2
REMARK VINA RESULT:     -11.5      3.333      7.572
REMARK SMILES O=C(NCCCNC(=O)c1cccc(Nc2ccnc3ccc(F)cc23)c1)c1ccc(-c2c3nc(c(-c4ccccc4)c4ccc([nH]4)c(-c4ccccc4)c4nc(c(-c5ccccc5)c5ccc2[nH]5)C=C4)C=C3)cc1
REMARK SMILES IDX 5 1 4 2 3 3 1 4 2 5 28 7 29 8 75 9 30 10 74 11 31 12 32 13
REMARK SMILES IDX 33 14 68 15 34 16 73 17 67 18 69 19 35 20 72 21 66 22 65 23
REMARK SMILES IDX 36 25 58 26 43 27 57 28 44 29 47 30 56 31 70 32 45 33 46 34
REMARK SMILES IDX 55 36 71 37 48 38 37 39 38 40 42 41 39 42 41 43 40 44 59 45
REMARK SMILES IDX 60 46 64 47 61 48 63 49 62 50 49 51 50 52 54 53 51 54 53 55
REMARK SMILES IDX 52 56 6 57 7 58 8 59 9 61 10 62 11 63 27 64 12 65 14 66
REMARK SMILES IDX 13 67 15 68 16 70 17 71 26 72 18 73 20 74 25 75 19 76 21 77
REMARK SMILES IDX 23 78 22 79 24 80
REMARK H PARENT 3 6 69 24 47 35 7 60 15 69
REMARK Flexibility Score: inf
ROOT
ATOM      1  C   UNL A   1      38.091  19.690  24.614  1.00  0.00     0.042 C 
ENDROOT
BRANCH   1   2
ATOM      2  C   UNL A   1      39.015  20.019  25.781  1.00  0.00     0.118 C 
BRANCH   2   3
ATOM      3  N   UNL A   1      40.132  19.088  25.900  1.00  0.00    -0.352 N 
ATOM      4  O   UNL A   1      42.257  18.367  25.976  1.00  0.00    -0.269 OA
ATOM      5  C   UNL A   1      41.468  19.305  26.112  1.00  0.00     0.251 C 
ATOM      6  H   UNL A   1      39.882  18.141  25.815  1.00  0.00     0.163 HD
BRANCH   5   7
ATOM      7  C   UNL A   1      41.986  20.638  26.488  1.00  0.00     0.039 A 
ATOM      8  C   UNL A   1      42.289  21.597  25.521  1.00  0.00     0.014 A 
ATOM      9  C   UNL A   1      42.092  20.967  27.845  1.00  0.00     0.014 A 
ATOM     10  C   UNL A   1      42.818  22.828  25.899  1.00  0.00     0.010 A 
ATOM     11  C   UNL A   1      42.541  22.234  28.227  1.00  0.00     0.010 A 
ATOM     12  C   UNL A   1      42.925  23.170  27.255  1.00  0.00    -0.014 A 
BRANCH  12  13
ATOM     13  C   UNL A   1      43.342  24.545  27.634  1.00  0.00     0.031 A 
ATOM     14  C   UNL A   1      42.333  25.591  28.014  1.00  0.00     0.074 A 
ATOM     15  C   UNL A   1      44.657  24.845  27.624  1.00  0.00     0.049 A 
ATOM     16  N   UNL A   1      42.534  26.839  28.356  1.00  0.00    -0.248 NA
ATOM     17  C   UNL A   1      40.917  25.192  28.006  1.00  0.00     0.031 C 
ATOM     18  C   UNL A   1      45.731  23.916  27.261  1.00  0.00     0.029 A 
ATOM     19  N   UNL A   1      45.316  26.008  27.930  1.00  0.00    -0.354 N 
ATOM     20  C   UNL A   1      41.275  27.380  28.581  1.00  0.00     0.074 A 
ATOM     21  C   UNL A   1      40.313  26.331  28.323  1.00  0.00     0.031 C 
ATOM     22  C   UNL A   1      46.912  24.535  27.394  1.00  0.00     0.029 A 
ATOM     23  C   UNL A   1      46.679  25.921  27.783  1.00  0.00     0.049 A 
ATOM     24  H   UNL A   1      44.856  26.827  28.226  1.00  0.00     0.167 HD
ATOM     25  C   UNL A   1      40.955  28.639  28.968  1.00  0.00     0.031 A 
ATOM     26  C   UNL A   1      47.637  26.857  27.913  1.00  0.00     0.031 A 
ATOM     27  C   UNL A   1      41.917  29.679  29.227  1.00  0.00     0.049 A 
ATOM     28  C   UNL A   1      47.244  28.253  28.295  1.00  0.00     0.074 A 
ATOM     29  C   UNL A   1      41.690  30.966  29.685  1.00  0.00     0.029 A 
ATOM     30  N   UNL A   1      43.285  29.558  29.036  1.00  0.00    -0.354 N 
ATOM     31  N   UNL A   1      46.055  28.727  28.575  1.00  0.00    -0.248 NA
ATOM     32  C   UNL A   1      48.325  29.246  28.376  1.00  0.00     0.031 C 
ATOM     33  C   UNL A   1      42.912  31.645  29.705  1.00  0.00     0.029 A 
ATOM     34  C   UNL A   1      43.908  30.762  29.321  1.00  0.00     0.049 A 
ATOM     35  H   UNL A   1      43.744  28.739  28.741  1.00  0.00     0.167 HD
ATOM     36  C   UNL A   1      46.245  30.068  28.877  1.00  0.00     0.074 A 
ATOM     37  C   UNL A   1      47.666  30.326  28.772  1.00  0.00     0.031 C 
ATOM     38  C   UNL A   1      45.322  31.004  29.205  1.00  0.00     0.031 A 
BRANCH  25  39
ATOM     39  C   UNL A   1      39.498  28.986  29.106  1.00  0.00    -0.014 A 
ATOM     40  C   UNL A   1      38.753  29.472  28.020  1.00  0.00     0.009 A 
ATOM     41  C   UNL A   1      38.843  28.745  30.325  1.00  0.00     0.009 A 
ATOM     42  C   UNL A   1      37.386  29.729  28.160  1.00  0.00     0.001 A 
ATOM     43  C   UNL A   1      37.472  28.978  30.453  1.00  0.00     0.001 A 
ATOM     44  C   UNL A   1      36.746  29.475  29.373  1.00  0.00     0.000 A 
ENDBRANCH  25  39
BRANCH  26  45
ATOM     45  C   UNL A   1      49.055  26.512  27.631  1.00  0.00    -0.014 A 
ATOM     46  C   UNL A   1      49.914  26.099  28.659  1.00  0.00     0.009 A 
ATOM     47  C   UNL A   1      49.558  26.603  26.322  1.00  0.00     0.009 A 
ATOM     48  C   UNL A   1      51.254  25.810  28.387  1.00  0.00     0.001 A 
ATOM     49  C   UNL A   1      50.888  26.281  26.048  1.00  0.00     0.001 A 
ATOM     50  C   UNL A   1      51.738  25.895  27.083  1.00  0.00     0.000 A 
ENDBRANCH  26  45
BRANCH  38  51
ATOM     51  C   UNL A   1      45.826  32.390  29.492  1.00  0.00    -0.014 A 
ATOM     52  C   UNL A   1      46.242  32.757  30.782  1.00  0.00     0.009 A 
ATOM     53  C   UNL A   1      45.926  33.326  28.451  1.00  0.00     0.009 A 
ATOM     54  C   UNL A   1      46.725  34.044  31.027  1.00  0.00     0.001 A 
ATOM     55  C   UNL A   1      46.437  34.601  28.693  1.00  0.00     0.001 A 
ATOM     56  C   UNL A   1      46.828  34.961  29.981  1.00  0.00     0.000 A 
ENDBRANCH  38  51
ENDBRANCH  12  13
ENDBRANCH   5   7
ENDBRANCH   2   3
ENDBRANCH   1   2
BRANCH   1  57
ATOM     57  C   UNL A   1      36.639  19.462  25.013  1.00  0.00     0.118 C 
BRANCH  57  58
ATOM     58  N   UNL A   1      36.267  18.060  25.039  1.00  0.00    -0.352 N 
ATOM     59  C   UNL A   1      35.114  17.403  24.702  1.00  0.00     0.251 C 
ATOM     60  H   UNL A   1      36.984  17.465  25.360  1.00  0.00     0.163 HD
ATOM     61  O   UNL A   1      35.040  16.200  24.954  1.00  0.00    -0.269 OA
BRANCH  59  62
ATOM     62  C   UNL A   1      33.952  18.077  24.076  1.00  0.00     0.041 A 
ATOM     63  C   UNL A   1      33.388  17.461  22.949  1.00  0.00     0.014 A 
ATOM     64  C   UNL A   1      33.522  19.358  24.443  1.00  0.00     0.039 A 
ATOM     65  C   UNL A   1      32.383  18.094  22.224  1.00  0.00     0.003 A 
ATOM     66  C   UNL A   1      32.508  20.004  23.718  1.00  0.00     0.039 A 
ATOM     67  C   UNL A   1      31.947  19.360  22.608  1.00  0.00     0.026 A 
BRANCH  66  68
ATOM     68  N   UNL A   1      32.252  21.388  23.910  1.00  0.00    -0.355 N 
ATOM     69  H   UNL A   1      31.638  21.873  23.313  1.00  0.00     0.167 HD
BRANCH  68  70
ATOM     70  C   UNL A   1      32.903  22.063  24.983  1.00  0.00     0.050 A 
ATOM     71  C   UNL A   1      32.202  22.220  26.183  1.00  0.00     0.047 A 
ATOM     72  C   UNL A   1      34.230  22.540  24.887  1.00  0.00     0.027 A 
ATOM     73  C   UNL A   1      32.869  22.723  27.274  1.00  0.00     0.114 A 
ATOM     74  C   UNL A   1      34.801  23.073  26.067  1.00  0.00     0.072 A 
ATOM     75  C   UNL A   1      35.005  22.507  23.705  1.00  0.00     0.051 A 
ATOM     76  N   UNL A   1      34.148  23.139  27.237  1.00  0.00    -0.256 NA
ATOM     77  C   UNL A   1      36.099  23.561  26.030  1.00  0.00     0.032 A 
ATOM     78  C   UNL A   1      36.293  23.030  23.700  1.00  0.00     0.124 A 
ATOM     79  C   UNL A   1      36.847  23.562  24.853  1.00  0.00     0.041 A 
ATOM     80  F   UNL A   1      37.007  23.029  22.568  1.00  0.00    -0.207 F 
ENDBRANCH  68  70
ENDBRANCH  66  68
ENDBRANCH  59  62
ENDBRANCH  57  58
ENDBRANCH   1  57
TORSDOF 12
ENDMDL
MODEL 3
REMARK VINA RESULT:     -11.5      2.986      7.805
REMARK SMILES O=C(NCCCNC(=O)c1cccc(Nc2ccnc3ccc(F)cc23)c1)c1ccc(-c2c3nc(c(-c4ccccc4)c4ccc([nH]4)c(-c4ccccc4)c4nc(c(-c5ccccc5)c5ccc2[nH]5)C=C4)C=C3)cc1
REMARK SMILES IDX 5 1 4 2 3 3 1 4 2 5 28 7 29 8 75 9 30 10 74 11 31 12 32 13
REMARK SMILES IDX 33 14 68 15 34 16 73 17 67 18 69 19 35 20 72 21 66 22 65 23
REMARK SMILES IDX 36 25 58 26 43 27 57 28 44 29 47 30 56 31 70 32 45 33 46 34
REMARK SMILES IDX 55 36 71 37 48 38 37 39 38 40 42 41 39 42 41 43 40 44 59 45
REMARK SMILES IDX 60 46 64 47 61 48 63 49 62 50 49 51 50 52 54 53 51 54 53 55
REMARK SMILES IDX 52 56 6 57 7 58 8 59 9 61 10 62 11 63 27 64 12 65 14 66
REMARK SMILES IDX 13 67 15 68 16 70 17 71 26 72 18 73 20 74 25 75 19 76 21 77
REMARK SMILES IDX 23 78 22 79 24 80
REMARK H PARENT 3 6 69 24 47 35 7 60 15 69
REMARK Flexibility Score: inf
ROOT
ATOM      1  C   UNL A   1      35.385  22.141  26.087  1.00  0.00     0.042 C 
ENDROOT
BRANCH   1   2
ATOM      2  C   UNL A   1      36.623  23.031  26.066  1.00  0.00     0.118 C 
BRANCH   2   3
ATOM      3  N   UNL A   1      37.868  22.272  26.058  1.00  0.00    -0.352 N 
ATOM      4  O   UNL A   1      40.078  21.875  26.038  1.00  0.00    -0.269 OA
ATOM      5  C   UNL A   1      39.161  22.656  26.301  1.00  0.00     0.251 C 
ATOM      6  H   UNL A   1      37.761  21.318  25.841  1.00  0.00     0.163 HD
BRANCH   5   7
ATOM      7  C   UNL A   1      39.480  23.986  26.860  1.00  0.00     0.039 A 
ATOM      8  C   UNL A   1      39.265  24.276  28.209  1.00  0.00     0.014 A 
ATOM      9  C   UNL A   1      40.088  24.942  26.036  1.00  0.00     0.014 A 
ATOM     10  C   UNL A   1      39.532  25.550  28.701  1.00  0.00     0.010 A 
ATOM     11  C   UNL A   1      40.436  26.194  26.552  1.00  0.00     0.010 A 
ATOM     12  C   UNL A   1      40.144  26.515  27.886  1.00  0.00    -0.014 A 
BRANCH  12  13
ATOM     13  C   UNL A   1      40.564  27.813  28.475  1.00  0.00     0.031 A 
ATOM     14  C   UNL A   1      39.575  28.919  28.710  1.00  0.00     0.074 A 
ATOM     15  C   UNL A   1      41.862  27.986  28.791  1.00  0.00     0.049 A 
ATOM     16  N   UNL A   1      39.784  30.115  29.203  1.00  0.00    -0.248 NA
ATOM     17  C   UNL A   1      38.175  28.658  28.344  1.00  0.00     0.031 C 
ATOM     18  C   UNL A   1      42.918  26.988  28.599  1.00  0.00     0.029 A 
ATOM     19  N   UNL A   1      42.517  29.056  29.346  1.00  0.00    -0.354 N 
ATOM     20  C   UNL A   1      38.552  30.756  29.185  1.00  0.00     0.074 A 
ATOM     21  C   UNL A   1      37.601  29.823  28.619  1.00  0.00     0.031 C 
ATOM     22  C   UNL A   1      44.079  27.481  29.052  1.00  0.00     0.029 A 
ATOM     23  C   UNL A   1      43.866  28.851  29.504  1.00  0.00     0.049 A 
ATOM     24  H   UNL A   1      42.065  29.891  29.604  1.00  0.00     0.167 HD
ATOM     25  C   UNL A   1      38.246  32.008  29.603  1.00  0.00     0.031 A 
ATOM     26  C   UNL A   1      44.835  29.680  29.935  1.00  0.00     0.031 A 
ATOM     27  C   UNL A   1      39.197  32.930  30.168  1.00  0.00     0.049 A 
ATOM     28  C   UNL A   1      44.471  31.076  30.345  1.00  0.00     0.074 A 
ATOM     29  C   UNL A   1      38.967  34.197  30.680  1.00  0.00     0.029 A 
ATOM     30  N   UNL A   1      40.558  32.694  30.283  1.00  0.00    -0.354 N 
ATOM     31  N   UNL A   1      43.288  31.640  30.389  1.00  0.00    -0.248 NA
ATOM     32  C   UNL A   1      45.574  31.953  30.760  1.00  0.00     0.031 C 
ATOM     33  C   UNL A   1      40.198  34.753  31.039  1.00  0.00     0.029 A 
ATOM     34  C   UNL A   1      41.187  33.809  30.812  1.00  0.00     0.049 A 
ATOM     35  H   UNL A   1      41.010  31.858  30.026  1.00  0.00     0.167 HD
ATOM     36  C   UNL A   1      43.503  32.931  30.848  1.00  0.00     0.074 A 
ATOM     37  C   UNL A   1      44.924  33.059  31.094  1.00  0.00     0.031 C 
ATOM     38  C   UNL A   1      42.603  33.924  31.043  1.00  0.00     0.031 A 
BRANCH  25  39
ATOM     39  C   UNL A   1      36.828  32.481  29.437  1.00  0.00    -0.014 A 
ATOM     40  C   UNL A   1      35.901  32.403  30.487  1.00  0.00     0.009 A 
ATOM     41  C   UNL A   1      36.440  33.089  28.232  1.00  0.00     0.009 A 
ATOM     42  C   UNL A   1      34.606  32.906  30.326  1.00  0.00     0.001 A 
ATOM     43  C   UNL A   1      35.154  33.614  28.083  1.00  0.00     0.001 A 
ATOM     44  C   UNL A   1      34.237  33.516  29.127  1.00  0.00     0.000 A 
ENDBRANCH  25  39
BRANCH  26  45
ATOM     45  C   UNL A   1      46.249  29.223  29.952  1.00  0.00    -0.014 A 
ATOM     46  C   UNL A   1      47.062  29.353  28.817  1.00  0.00     0.009 A 
ATOM     47  C   UNL A   1      46.791  28.642  31.111  1.00  0.00     0.009 A 
ATOM     48  C   UNL A   1      48.380  28.889  28.834  1.00  0.00     0.001 A 
ATOM     49  C   UNL A   1      48.117  28.210  31.137  1.00  0.00     0.001 A 
ATOM     50  C   UNL A   1      48.908  28.323  29.994  1.00  0.00     0.000 A 
ENDBRANCH  26  45
BRANCH  38  51
ATOM     51  C   UNL A   1      43.128  35.231  31.565  1.00  0.00    -0.014 A 
ATOM     52  C   UNL A   1      43.586  36.229  30.690  1.00  0.00     0.009 A 
ATOM     53  C   UNL A   1      43.123  35.484  32.946  1.00  0.00     0.009 A 
ATOM     54  C   UNL A   1      44.053  37.445  31.192  1.00  0.00     0.001 A 
ATOM     55  C   UNL A   1      43.563  36.711  33.441  1.00  0.00     0.001 A 
ATOM     56  C   UNL A   1      44.035  37.687  32.566  1.00  0.00     0.000 A 
ENDBRANCH  38  51
ENDBRANCH  12  13
ENDBRANCH   5   7
ENDBRANCH   2   3
ENDBRANCH   1   2
BRANCH   1  57
ATOM     57  C   UNL A   1      35.453  20.955  25.134  1.00  0.00     0.118 C 
BRANCH  57  58
ATOM     58  N   UNL A   1      34.457  19.938  25.416  1.00  0.00    -0.352 N 
ATOM     59  C   UNL A   1      33.093  19.922  25.293  1.00  0.00     0.251 C 
ATOM     60  H   UNL A   1      34.834  19.097  25.764  1.00  0.00     0.163 HD
ATOM     61  O   UNL A   1      32.485  18.948  25.738  1.00  0.00    -0.269 OA
BRANCH  59  62
ATOM     62  C   UNL A   1      32.323  21.026  24.673  1.00  0.00     0.041 A 
ATOM     63  C   UNL A   1      32.467  21.207  23.290  1.00  0.00     0.014 A 
ATOM     64  C   UNL A   1      31.621  21.981  25.419  1.00  0.00     0.039 A 
ATOM     65  C   UNL A   1      31.885  22.300  22.653  1.00  0.00     0.003 A 
ATOM     66  C   UNL A   1      31.030  23.085  24.785  1.00  0.00     0.039 A 
ATOM     67  C   UNL A   1      31.171  23.233  23.399  1.00  0.00     0.026 A 
BRANCH  66  68
ATOM     68  N   UNL A   1      30.551  24.185  25.548  1.00  0.00    -0.355 N 
ATOM     69  H   UNL A   1      29.745  24.095  26.105  1.00  0.00     0.167 HD
BRANCH  68  70
ATOM     70  C   UNL A   1      31.260  25.420  25.490  1.00  0.00     0.050 A 
ATOM     71  C   UNL A   1      32.497  25.498  26.134  1.00  0.00     0.047 A 
ATOM     72  C   UNL A   1      30.774  26.540  24.779  1.00  0.00     0.027 A 
ATOM     73  C   UNL A   1      33.263  26.626  25.954  1.00  0.00     0.114 A 
ATOM     74  C   UNL A   1      31.636  27.660  24.692  1.00  0.00     0.072 A 
ATOM     75  C   UNL A   1      29.507  26.602  24.157  1.00  0.00     0.051 A 
ATOM     76  N   UNL A   1      32.859  27.693  25.242  1.00  0.00    -0.256 NA
ATOM     77  C   UNL A   1      31.210  28.791  24.011  1.00  0.00     0.032 A 
ATOM     78  C   UNL A   1      29.103  27.763  23.506  1.00  0.00     0.124 A 
ATOM     79  C   UNL A   1      29.944  28.863  23.431  1.00  0.00     0.041 A 
ATOM     80  F   UNL A   1      27.887  27.826  22.952  1.00  0.00    -0.207 F 
ENDBRANCH  68  70
ENDBRANCH  66  68
ENDBRANCH  59  62
ENDBRANCH  57  58
ENDBRANCH   1  57
TORSDOF 12
ENDMDL
