MODEL 1
REMARK VINA RESULT:     -10.0      0.000      0.000
REMARK SMILES COc1cc([C@@H]2[NH2+][C@H](C(=O)NCCCNC(=O)c3ccc(-c4c5nc(c(-c6ccccc6)c6ccc([nH]6)c(-c6ccccc6)c6nc(c(-c7ccccc7)c7ccc4[nH]7)C=C6)C=C5)cc3)CS2)ccc1OCc1ccc(Cl)cc1
REMARK SMILES IDX 12 1 11 2 9 3 10 4 8 6 6 7 7 8 67 9 66 12 5 13 3 14 4 15
REMARK SMILES IDX 70 16 69 17 68 18 2 19 1 20 71 21 72 22 73 23 74 24 79 25
REMARK SMILES IDX 75 26 78 27 76 28 77 29 13 30 14 31 15 32 16 33 17 35 18 36
REMARK SMILES IDX 19 37 65 38 20 39 64 40 21 41 22 42 23 43 58 44 24 45 63 46
REMARK SMILES IDX 57 47 59 48 25 49 62 50 56 51 55 52 26 54 48 55 33 56 47 57
REMARK SMILES IDX 34 58 37 59 46 60 60 61 35 62 36 63 45 65 61 66 38 67 27 68
REMARK SMILES IDX 28 69 32 70 29 71 31 72 30 73 49 74 50 75 54 76 51 77 53 78
REMARK SMILES IDX 52 79 39 80 40 81 44 82 41 83 43 84 42 85
REMARK H PARENT 11 5 7 10 7 11 15 34 59 53 37 64
REMARK Flexibility Score: inf
ROOT
ATOM      1  C   UNL A   1      33.871  35.115  30.219  1.00  0.00     0.118 C 
ENDROOT
BRANCH   1   2
ATOM      2  N   UNL A   1      33.705  34.253  31.376  1.00  0.00    -0.351 N 
ATOM      3  C   UNL A   1      34.573  33.890  32.360  1.00  0.00     0.279 C 
ATOM      4  O   UNL A   1      34.143  33.104  33.213  1.00  0.00    -0.268 OA
ATOM      5  H   UNL A   1      32.806  33.861  31.465  1.00  0.00     0.163 HD
BRANCH   3   6
ATOM      6  C   UNL A   1      35.997  34.453  32.502  1.00  0.00     0.283 C 
ATOM      7  C   UNL A   1      37.980  34.258  33.885  1.00  0.00     0.274 C 
ATOM      8  N   UNL A   1      36.511  34.398  33.890  1.00  0.00    -0.321 N 
ATOM      9  S   UNL A   1      38.547  34.362  32.167  1.00  0.00    -0.088 SA
ATOM     10  H   UNL A   1      36.256  35.257  34.377  1.00  0.00     0.348 HD
ATOM     11  H   UNL A   1      36.104  33.593  34.364  1.00  0.00     0.348 HD
ATOM     12  C   UNL A   1      36.958  33.783  31.536  1.00  0.00     0.151 C 
BRANCH   7  13
ATOM     13  C   UNL A   1      38.328  32.962  34.613  1.00  0.00     0.024 A 
ATOM     14  C   UNL A   1      38.836  30.567  34.391  1.00  0.00     0.161 A 
ATOM     15  C   UNL A   1      38.233  31.742  33.907  1.00  0.00     0.061 A 
ATOM     16  C   UNL A   1      39.525  30.596  35.607  1.00  0.00     0.161 A 
ATOM     17  C   UNL A   1      39.540  31.778  36.352  1.00  0.00     0.051 A 
ATOM     18  C   UNL A   1      38.937  32.937  35.875  1.00  0.00     0.015 A 
BRANCH  14  19
ATOM     19  O   UNL A   1      38.909  29.464  33.583  1.00  0.00    -0.493 OA
ATOM     20  C   UNL A   1      37.639  29.056  33.078  1.00  0.00     0.278 C 
ENDBRANCH  14  19
BRANCH  16  21
ATOM     21  O   UNL A   1      40.229  29.598  36.219  1.00  0.00    -0.485 OA
BRANCH  21  22
ATOM     22  C   UNL A   1      41.590  29.369  35.864  1.00  0.00     0.265 C 
BRANCH  22  23
ATOM     23  C   UNL A   1      41.967  27.915  35.679  1.00  0.00    -0.011 A 
ATOM     24  C   UNL A   1      42.725  27.545  34.558  1.00  0.00     0.009 A 
ATOM     25  C   UNL A   1      41.577  26.923  36.592  1.00  0.00     0.009 A 
ATOM     26  C   UNL A   1      43.019  26.201  34.317  1.00  0.00     0.021 A 
ATOM     27  C   UNL A   1      41.853  25.579  36.342  1.00  0.00     0.021 A 
ATOM     28  C   UNL A   1      42.563  25.224  35.201  1.00  0.00     0.041 A 
ATOM     29  Cl  UNL A   1      42.874  23.565  34.874  1.00  0.00    -0.084 Cl
ENDBRANCH  22  23
ENDBRANCH  21  22
ENDBRANCH  16  21
ENDBRANCH   7  13
ENDBRANCH   3   6
ENDBRANCH   1   2
BRANCH   1  30
ATOM     30  C   UNL A   1      33.646  34.365  28.910  1.00  0.00     0.042 C 
BRANCH  30  31
ATOM     31  C   UNL A   1      34.493  33.121  28.662  1.00  0.00     0.118 C 
BRANCH  31  32
ATOM     32  N   UNL A   1      33.899  32.083  27.837  1.00  0.00    -0.352 N 
ATOM     33  C   UNL A   1      34.261  30.774  27.609  1.00  0.00     0.251 C 
ATOM     34  H   UNL A   1      33.091  32.367  27.352  1.00  0.00     0.163 HD
ATOM     35  O   UNL A   1      33.507  30.071  26.943  1.00  0.00    -0.269 OA
BRANCH  33  36
ATOM     36  C   UNL A   1      35.549  30.191  28.081  1.00  0.00     0.039 A 
ATOM     37  C   UNL A   1      36.617  30.163  27.168  1.00  0.00     0.014 A 
ATOM     38  C   UNL A   1      35.748  29.667  29.357  1.00  0.00     0.014 A 
ATOM     39  C   UNL A   1      37.885  29.723  27.557  1.00  0.00     0.010 A 
ATOM     40  C   UNL A   1      37.024  29.281  29.770  1.00  0.00     0.010 A 
ATOM     41  C   UNL A   1      38.101  29.308  28.874  1.00  0.00    -0.014 A 
BRANCH  41  42
ATOM     42  C   UNL A   1      39.426  28.812  29.314  1.00  0.00     0.031 A 
ATOM     43  C   UNL A   1      40.282  29.687  30.183  1.00  0.00     0.074 A 
ATOM     44  C   UNL A   1      39.876  27.615  28.896  1.00  0.00     0.049 A 
ATOM     45  N   UNL A   1      41.491  29.475  30.636  1.00  0.00    -0.248 NA
ATOM     46  C   UNL A   1      39.705  30.983  30.580  1.00  0.00     0.031 C 
ATOM     47  C   UNL A   1      39.146  26.685  28.033  1.00  0.00     0.029 A 
ATOM     48  N   UNL A   1      41.071  26.983  29.134  1.00  0.00    -0.354 N 
ATOM     49  C   UNL A   1      41.822  30.612  31.361  1.00  0.00     0.074 A 
ATOM     50  C   UNL A   1      40.708  31.529  31.250  1.00  0.00     0.031 C 
ATOM     51  C   UNL A   1      39.907  25.597  27.820  1.00  0.00     0.029 A 
ATOM     52  C   UNL A   1      41.183  25.765  28.510  1.00  0.00     0.049 A 
ATOM     53  H   UNL A   1      41.779  27.366  29.700  1.00  0.00     0.167 HD
ATOM     54  C   UNL A   1      42.944  30.865  32.072  1.00  0.00     0.031 A 
ATOM     55  C   UNL A   1      42.206  24.889  28.494  1.00  0.00     0.031 A 
ATOM     56  C   UNL A   1      44.053  29.959  32.180  1.00  0.00     0.049 A 
ATOM     57  C   UNL A   1      43.457  25.205  29.269  1.00  0.00     0.074 A 
ATOM     58  C   UNL A   1      45.225  30.106  32.901  1.00  0.00     0.029 A 
ATOM     59  N   UNL A   1      44.126  28.731  31.540  1.00  0.00    -0.354 N 
ATOM     60  N   UNL A   1      43.732  26.258  29.999  1.00  0.00    -0.248 NA
ATOM     61  C   UNL A   1      44.530  24.202  29.228  1.00  0.00     0.031 C 
ATOM     62  C   UNL A   1      46.024  28.981  32.665  1.00  0.00     0.029 A 
ATOM     63  C   UNL A   1      45.330  28.116  31.834  1.00  0.00     0.049 A 
ATOM     64  H   UNL A   1      43.424  28.352  30.962  1.00  0.00     0.167 HD
ATOM     65  C   UNL A   1      44.997  26.034  30.527  1.00  0.00     0.074 A 
ATOM     66  C   UNL A   1      45.430  24.739  30.042  1.00  0.00     0.031 C 
ATOM     67  C   UNL A   1      45.737  26.827  31.341  1.00  0.00     0.031 A 
BRANCH  54  68
ATOM     68  C   UNL A   1      43.018  32.191  32.775  1.00  0.00    -0.014 A 
ATOM     69  C   UNL A   1      43.653  33.292  32.177  1.00  0.00     0.009 A 
ATOM     70  C   UNL A   1      42.459  32.339  34.052  1.00  0.00     0.009 A 
ATOM     71  C   UNL A   1      43.763  34.503  32.862  1.00  0.00     0.001 A 
ATOM     72  C   UNL A   1      42.549  33.558  34.725  1.00  0.00     0.001 A 
ATOM     73  C   UNL A   1      43.210  34.635  34.136  1.00  0.00     0.000 A 
ENDBRANCH  54  68
BRANCH  55  74
ATOM     74  C   UNL A   1      42.091  23.619  27.733  1.00  0.00    -0.014 A 
ATOM     75  C   UNL A   1      42.525  23.549  26.400  1.00  0.00     0.009 A 
ATOM     76  C   UNL A   1      41.532  22.476  28.325  1.00  0.00     0.009 A 
ATOM     77  C   UNL A   1      42.377  22.369  25.667  1.00  0.00     0.001 A 
ATOM     78  C   UNL A   1      41.408  21.290  27.598  1.00  0.00     0.001 A 
ATOM     79  C   UNL A   1      41.823  21.240  26.267  1.00  0.00     0.000 A 
ENDBRANCH  55  74
BRANCH  67  80
ATOM     80  C   UNL A   1      47.071  26.299  31.782  1.00  0.00    -0.014 A 
ATOM     81  C   UNL A   1      48.222  26.488  31.001  1.00  0.00     0.009 A 
ATOM     82  C   UNL A   1      47.184  25.642  33.017  1.00  0.00     0.009 A 
ATOM     83  C   UNL A   1      49.456  26.002  31.438  1.00  0.00     0.001 A 
ATOM     84  C   UNL A   1      48.422  25.179  33.461  1.00  0.00     0.001 A 
ATOM     85  C   UNL A   1      49.555  25.352  32.668  1.00  0.00     0.000 A 
ENDBRANCH  67  80
ENDBRANCH  41  42
ENDBRANCH  33  36
ENDBRANCH  31  32
ENDBRANCH  30  31
ENDBRANCH   1  30
TORSDOF 15
ENDMDL
MODEL 2
REMARK VINA RESULT:      -9.9      5.234     11.246
REMARK SMILES COc1cc([C@@H]2[NH2+][C@H](C(=O)NCCCNC(=O)c3ccc(-c4c5nc(c(-c6ccccc6)c6ccc([nH]6)c(-c6ccccc6)c6nc(c(-c7ccccc7)c7ccc4[nH]7)C=C6)C=C5)cc3)CS2)ccc1OCc1ccc(Cl)cc1
REMARK SMILES IDX 12 1 11 2 9 3 10 4 8 6 6 7 7 8 67 9 66 12 5 13 3 14 4 15
REMARK SMILES IDX 70 16 69 17 68 18 2 19 1 20 71 21 72 22 73 23 74 24 79 25
REMARK SMILES IDX 75 26 78 27 76 28 77 29 13 30 14 31 15 32 16 33 17 35 18 36
REMARK SMILES IDX 19 37 65 38 20 39 64 40 21 41 22 42 23 43 58 44 24 45 63 46
REMARK SMILES IDX 57 47 59 48 25 49 62 50 56 51 55 52 26 54 48 55 33 56 47 57
REMARK SMILES IDX 34 58 37 59 46 60 60 61 35 62 36 63 45 65 61 66 38 67 27 68
REMARK SMILES IDX 28 69 32 70 29 71 31 72 30 73 49 74 50 75 54 76 51 77 53 78
REMARK SMILES IDX 52 79 39 80 40 81 44 82 41 83 43 84 42 85
REMARK H PARENT 11 5 7 10 7 11 15 34 59 53 37 64
REMARK Flexibility Score: inf
ROOT
ATOM      1  C   UNL A   1      38.783  22.128  26.114  1.00  0.00     0.118 C 
ENDROOT
BRANCH   1   2
ATOM      2  N   UNL A   1      37.964  23.135  25.462  1.00  0.00    -0.351 N 
ATOM      3  C   UNL A   1      36.615  23.240  25.312  1.00  0.00     0.279 C 
ATOM      4  O   UNL A   1      36.205  24.216  24.670  1.00  0.00    -0.268 OA
ATOM      5  H   UNL A   1      38.475  23.872  25.055  1.00  0.00     0.163 HD
BRANCH   3   6
ATOM      6  C   UNL A   1      35.601  22.275  25.948  1.00  0.00     0.283 C 
ATOM      7  C   UNL A   1      33.486  22.265  27.137  1.00  0.00     0.274 C 
ATOM      8  N   UNL A   1      34.820  22.889  27.047  1.00  0.00    -0.321 N 
ATOM      9  S   UNL A   1      33.427  20.898  25.947  1.00  0.00    -0.088 SA
ATOM     10  H   UNL A   1      35.315  22.754  27.928  1.00  0.00     0.348 HD
ATOM     11  H   UNL A   1      34.707  23.885  26.858  1.00  0.00     0.348 HD
ATOM     12  C   UNL A   1      34.686  21.662  24.904  1.00  0.00     0.151 C 
BRANCH   7  13
ATOM     13  C   UNL A   1      32.442  23.359  26.929  1.00  0.00     0.024 A 
ATOM     14  C   UNL A   1      31.998  25.627  26.091  1.00  0.00     0.161 A 
ATOM     15  C   UNL A   1      32.882  24.663  26.610  1.00  0.00     0.061 A 
ATOM     16  C   UNL A   1      30.651  25.300  25.910  1.00  0.00     0.161 A 
ATOM     17  C   UNL A   1      30.196  24.043  26.313  1.00  0.00     0.051 A 
ATOM     18  C   UNL A   1      31.070  23.093  26.832  1.00  0.00     0.015 A 
BRANCH  14  19
ATOM     19  O   UNL A   1      32.497  26.801  25.592  1.00  0.00    -0.493 OA
ATOM     20  C   UNL A   1      33.666  26.616  24.795  1.00  0.00     0.278 C 
ENDBRANCH  14  19
BRANCH  16  21
ATOM     21  O   UNL A   1      29.651  26.055  25.367  1.00  0.00    -0.485 OA
BRANCH  21  22
ATOM     22  C   UNL A   1      29.448  26.058  23.957  1.00  0.00     0.265 C 
BRANCH  22  23
ATOM     23  C   UNL A   1      29.248  27.427  23.341  1.00  0.00    -0.011 A 
ATOM     24  C   UNL A   1      30.365  28.127  22.860  1.00  0.00     0.009 A 
ATOM     25  C   UNL A   1      27.981  28.021  23.241  1.00  0.00     0.009 A 
ATOM     26  C   UNL A   1      30.224  29.424  22.362  1.00  0.00     0.021 A 
ATOM     27  C   UNL A   1      27.841  29.323  22.763  1.00  0.00     0.021 A 
ATOM     28  C   UNL A   1      28.964  30.022  22.335  1.00  0.00     0.041 A 
ATOM     29  Cl  UNL A   1      28.798  31.639  21.777  1.00  0.00    -0.084 Cl
ENDBRANCH  22  23
ENDBRANCH  21  22
ENDBRANCH  16  21
ENDBRANCH   7  13
ENDBRANCH   3   6
ENDBRANCH   1   2
BRANCH   1  30
ATOM     30  C   UNL A   1      38.836  20.829  25.317  1.00  0.00     0.042 C 
BRANCH  30  31
ATOM     31  C   UNL A   1      39.265  19.568  26.061  1.00  0.00     0.118 C 
BRANCH  31  32
ATOM     32  N   UNL A   1      40.561  19.014  25.709  1.00  0.00    -0.352 N 
ATOM     33  C   UNL A   1      41.843  19.451  25.958  1.00  0.00     0.251 C 
ATOM     34  H   UNL A   1      40.514  18.173  25.201  1.00  0.00     0.163 HD
ATOM     35  O   UNL A   1      42.777  18.720  25.640  1.00  0.00    -0.269 OA
BRANCH  33  36
ATOM     36  C   UNL A   1      42.150  20.789  26.538  1.00  0.00     0.039 A 
ATOM     37  C   UNL A   1      42.560  21.798  25.649  1.00  0.00     0.014 A 
ATOM     38  C   UNL A   1      42.065  21.090  27.896  1.00  0.00     0.014 A 
ATOM     39  C   UNL A   1      42.773  23.105  26.094  1.00  0.00     0.010 A 
ATOM     40  C   UNL A   1      42.220  22.404  28.339  1.00  0.00     0.010 A 
ATOM     41  C   UNL A   1      42.574  23.421  27.441  1.00  0.00    -0.014 A 
BRANCH  41  42
ATOM     42  C   UNL A   1      42.815  24.790  27.951  1.00  0.00     0.031 A 
ATOM     43  C   UNL A   1      44.204  25.183  28.364  1.00  0.00     0.074 A 
ATOM     44  C   UNL A   1      41.791  25.653  28.090  1.00  0.00     0.049 A 
ATOM     45  N   UNL A   1      44.626  26.306  28.886  1.00  0.00    -0.248 NA
ATOM     46  C   UNL A   1      45.254  24.167  28.182  1.00  0.00     0.031 C 
ATOM     47  C   UNL A   1      40.396  25.380  27.743  1.00  0.00     0.029 A 
ATOM     48  N   UNL A   1      41.771  26.936  28.577  1.00  0.00    -0.354 N 
ATOM     49  C   UNL A   1      45.985  26.128  29.102  1.00  0.00     0.074 A 
ATOM     50  C   UNL A   1      46.309  24.776  28.701  1.00  0.00     0.031 C 
ATOM     51  C   UNL A   1      39.655  26.467  28.022  1.00  0.00     0.029 A 
ATOM     52  C   UNL A   1      40.519  27.500  28.589  1.00  0.00     0.049 A 
ATOM     53  H   UNL A   1      42.578  27.407  28.888  1.00  0.00     0.167 HD
ATOM     54  C   UNL A   1      46.890  27.015  29.577  1.00  0.00     0.031 A 
ATOM     55  C   UNL A   1      40.118  28.713  29.016  1.00  0.00     0.031 A 
ATOM     56  C   UNL A   1      46.570  28.356  29.981  1.00  0.00     0.049 A 
ATOM     57  C   UNL A   1      41.137  29.673  29.567  1.00  0.00     0.074 A 
ATOM     58  C   UNL A   1      47.419  29.346  30.446  1.00  0.00     0.029 A 
ATOM     59  N   UNL A   1      45.293  28.894  29.970  1.00  0.00    -0.354 N 
ATOM     60  N   UNL A   1      42.430  29.512  29.711  1.00  0.00    -0.248 NA
ATOM     61  C   UNL A   1      40.641  30.987  29.999  1.00  0.00     0.031 C 
ATOM     62  C   UNL A   1      46.645  30.471  30.753  1.00  0.00     0.029 A 
ATOM     63  C   UNL A   1      45.325  30.196  30.438  1.00  0.00     0.049 A 
ATOM     64  H   UNL A   1      44.482  28.419  29.673  1.00  0.00     0.167 HD
ATOM     65  C   UNL A   1      42.907  30.711  30.224  1.00  0.00     0.074 A 
ATOM     66  C   UNL A   1      41.766  31.594  30.355  1.00  0.00     0.031 C 
ATOM     67  C   UNL A   1      44.176  31.054  30.557  1.00  0.00     0.031 A 
BRANCH  54  68
ATOM     68  C   UNL A   1      48.311  26.541  29.691  1.00  0.00    -0.014 A 
ATOM     69  C   UNL A   1      48.769  25.903  30.855  1.00  0.00     0.009 A 
ATOM     70  C   UNL A   1      49.204  26.743  28.630  1.00  0.00     0.009 A 
ATOM     71  C   UNL A   1      50.105  25.516  30.971  1.00  0.00     0.001 A 
ATOM     72  C   UNL A   1      50.534  26.333  28.738  1.00  0.00     0.001 A 
ATOM     73  C   UNL A   1      50.986  25.731  29.911  1.00  0.00     0.000 A 
ENDBRANCH  54  68
BRANCH  55  74
ATOM     74  C   UNL A   1      38.687  29.101  28.928  1.00  0.00    -0.014 A 
ATOM     75  C   UNL A   1      38.166  29.624  27.734  1.00  0.00     0.009 A 
ATOM     76  C   UNL A   1      37.839  28.970  30.039  1.00  0.00     0.009 A 
ATOM     77  C   UNL A   1      36.832  30.031  27.662  1.00  0.00     0.001 A 
ATOM     78  C   UNL A   1      36.498  29.356  29.956  1.00  0.00     0.001 A 
ATOM     79  C   UNL A   1      35.999  29.894  28.770  1.00  0.00     0.000 A 
ENDBRANCH  55  74
BRANCH  67  80
ATOM     80  C   UNL A   1      44.397  32.451  31.061  1.00  0.00    -0.014 A 
ATOM     81  C   UNL A   1      44.658  33.509  30.178  1.00  0.00     0.009 A 
ATOM     82  C   UNL A   1      44.301  32.716  32.436  1.00  0.00     0.009 A 
ATOM     83  C   UNL A   1      44.847  34.804  30.667  1.00  0.00     0.001 A 
ATOM     84  C   UNL A   1      44.465  34.014  32.919  1.00  0.00     0.001 A 
ATOM     85  C   UNL A   1      44.746  35.055  32.035  1.00  0.00     0.000 A 
ENDBRANCH  67  80
ENDBRANCH  41  42
ENDBRANCH  33  36
ENDBRANCH  31  32
ENDBRANCH  30  31
ENDBRANCH   1  30
TORSDOF 15
ENDMDL
MODEL 3
REMARK VINA RESULT:      -9.8      4.928      8.459
REMARK SMILES COc1cc([C@@H]2[NH2+][C@H](C(=O)NCCCNC(=O)c3ccc(-c4c5nc(c(-c6ccccc6)c6ccc([nH]6)c(-c6ccccc6)c6nc(c(-c7ccccc7)c7ccc4[nH]7)C=C6)C=C5)cc3)CS2)ccc1OCc1ccc(Cl)cc1
REMARK SMILES IDX 12 1 11 2 9 3 10 4 8 6 6 7 7 8 67 9 66 12 5 13 3 14 4 15
REMARK SMILES IDX 70 16 69 17 68 18 2 19 1 20 71 21 72 22 73 23 74 24 79 25
REMARK SMILES IDX 75 26 78 27 76 28 77 29 13 30 14 31 15 32 16 33 17 35 18 36
REMARK SMILES IDX 19 37 65 38 20 39 64 40 21 41 22 42 23 43 58 44 24 45 63 46
REMARK SMILES IDX 57 47 59 48 25 49 62 50 56 51 55 52 26 54 48 55 33 56 47 57
REMARK SMILES IDX 34 58 37 59 46 60 60 61 35 62 36 63 45 65 61 66 38 67 27 68
REMARK SMILES IDX 28 69 32 70 29 71 31 72 30 73 49 74 50 75 54 76 51 77 53 78
REMARK SMILES IDX 52 79 39 80 40 81 44 82 41 83 43 84 42 85
REMARK H PARENT 11 5 7 10 7 11 15 34 59 53 37 64
REMARK Flexibility Score: inf
ROOT
ATOM      1  C   UNL A   1      32.845  30.347  27.261  1.00  0.00     0.118 C 
ENDROOT
BRANCH   1   2
ATOM      2  N   UNL A   1      32.160  29.094  27.525  1.00  0.00    -0.351 N 
ATOM      3  C   UNL A   1      31.722  28.113  26.688  1.00  0.00     0.279 C 
ATOM      4  O   UNL A   1      31.136  27.159  27.215  1.00  0.00    -0.268 OA
ATOM      5  H   UNL A   1      31.979  28.923  28.478  1.00  0.00     0.163 HD
BRANCH   3   6
ATOM      6  C   UNL A   1      31.980  28.098  25.172  1.00  0.00     0.283 C 
ATOM      7  C   UNL A   1      33.184  26.857  23.471  1.00  0.00     0.274 C 
ATOM      8  N   UNL A   1      33.274  27.476  24.807  1.00  0.00    -0.321 N 
ATOM      9  S   UNL A   1      31.556  27.253  22.779  1.00  0.00    -0.088 SA
ATOM     10  H   UNL A   1      34.001  28.191  24.798  1.00  0.00     0.348 HD
ATOM     11  H   UNL A   1      33.501  26.755  25.491  1.00  0.00     0.348 HD
ATOM     12  C   UNL A   1      30.831  27.451  24.419  1.00  0.00     0.151 C 
BRANCH   7  13
ATOM     13  C   UNL A   1      33.485  25.368  23.624  1.00  0.00     0.024 A 
ATOM     14  C   UNL A   1      33.581  23.449  25.157  1.00  0.00     0.161 A 
ATOM     15  C   UNL A   1      33.629  24.836  24.924  1.00  0.00     0.061 A 
ATOM     16  C   UNL A   1      33.412  22.575  24.080  1.00  0.00     0.161 A 
ATOM     17  C   UNL A   1      33.364  23.093  22.784  1.00  0.00     0.051 A 
ATOM     18  C   UNL A   1      33.419  24.464  22.555  1.00  0.00     0.015 A 
BRANCH  14  19
ATOM     19  O   UNL A   1      33.505  22.983  26.443  1.00  0.00    -0.493 OA
ATOM     20  C   UNL A   1      32.185  23.042  26.981  1.00  0.00     0.278 C 
ENDBRANCH  14  19
BRANCH  16  21
ATOM     21  O   UNL A   1      33.274  21.216  24.091  1.00  0.00    -0.485 OA
BRANCH  21  22
ATOM     22  C   UNL A   1      34.342  20.397  24.558  1.00  0.00     0.265 C 
BRANCH  22  23
ATOM     23  C   UNL A   1      33.973  18.954  24.827  1.00  0.00    -0.011 A 
ATOM     24  C   UNL A   1      34.779  17.934  24.301  1.00  0.00     0.009 A 
ATOM     25  C   UNL A   1      32.844  18.603  25.583  1.00  0.00     0.009 A 
ATOM     26  C   UNL A   1      34.419  16.595  24.463  1.00  0.00     0.021 A 
ATOM     27  C   UNL A   1      32.472  17.267  25.729  1.00  0.00     0.021 A 
ATOM     28  C   UNL A   1      33.256  16.270  25.160  1.00  0.00     0.041 A 
ATOM     29  Cl  UNL A   1      32.781  14.625  25.310  1.00  0.00    -0.084 Cl
ENDBRANCH  22  23
ENDBRANCH  21  22
ENDBRANCH  16  21
ENDBRANCH   7  13
ENDBRANCH   3   6
ENDBRANCH   1   2
BRANCH   1  30
ATOM     30  C   UNL A   1      31.870  31.503  27.067  1.00  0.00     0.042 C 
BRANCH  30  31
ATOM     31  C   UNL A   1      32.449  32.838  26.611  1.00  0.00     0.118 C 
BRANCH  31  32
ATOM     32  N   UNL A   1      32.234  33.976  27.490  1.00  0.00    -0.352 N 
ATOM     33  C   UNL A   1      33.041  34.571  28.434  1.00  0.00     0.251 C 
ATOM     34  H   UNL A   1      31.350  34.397  27.393  1.00  0.00     0.163 HD
ATOM     35  O   UNL A   1      32.648  35.605  28.964  1.00  0.00    -0.269 OA
BRANCH  33  36
ATOM     36  C   UNL A   1      34.337  33.987  28.882  1.00  0.00     0.039 A 
ATOM     37  C   UNL A   1      34.330  33.244  30.075  1.00  0.00     0.014 A 
ATOM     38  C   UNL A   1      35.543  34.144  28.201  1.00  0.00     0.014 A 
ATOM     39  C   UNL A   1      35.479  32.582  30.516  1.00  0.00     0.010 A 
ATOM     40  C   UNL A   1      36.678  33.439  28.602  1.00  0.00     0.010 A 
ATOM     41  C   UNL A   1      36.653  32.652  29.762  1.00  0.00    -0.014 A 
BRANCH  41  42
ATOM     42  C   UNL A   1      37.895  31.983  30.213  1.00  0.00     0.031 A 
ATOM     43  C   UNL A   1      38.763  32.662  31.234  1.00  0.00     0.074 A 
ATOM     44  C   UNL A   1      38.266  30.806  29.676  1.00  0.00     0.049 A 
ATOM     45  N   UNL A   1      39.914  32.283  31.726  1.00  0.00    -0.248 NA
ATOM     46  C   UNL A   1      38.277  33.951  31.755  1.00  0.00     0.031 C 
ATOM     47  C   UNL A   1      37.518  30.060  28.663  1.00  0.00     0.029 A 
ATOM     48  N   UNL A   1      39.381  30.038  29.903  1.00  0.00    -0.354 N 
ATOM     49  C   UNL A   1      40.293  33.287  32.605  1.00  0.00     0.074 A 
ATOM     50  C   UNL A   1      39.275  34.314  32.545  1.00  0.00     0.031 C 
ATOM     51  C   UNL A   1      38.193  28.937  28.361  1.00  0.00     0.029 A 
ATOM     52  C   UNL A   1      39.428  28.898  29.139  1.00  0.00     0.049 A 
ATOM     53  H   UNL A   1      40.079  30.282  30.552  1.00  0.00     0.167 HD
ATOM     54  C   UNL A   1      41.381  33.346  33.406  1.00  0.00     0.031 A 
ATOM     55  C   UNL A   1      40.368  27.937  29.073  1.00  0.00     0.031 A 
ATOM     56  C   UNL A   1      42.396  32.330  33.464  1.00  0.00     0.049 A 
ATOM     57  C   UNL A   1      41.585  28.036  29.953  1.00  0.00     0.074 A 
ATOM     58  C   UNL A   1      43.523  32.277  34.265  1.00  0.00     0.029 A 
ATOM     59  N   UNL A   1      42.404  31.186  32.682  1.00  0.00    -0.354 N 
ATOM     60  N   UNL A   1      41.901  28.964  30.824  1.00  0.00    -0.248 NA
ATOM     61  C   UNL A   1      42.566  26.946  29.850  1.00  0.00     0.031 C 
ATOM     62  C   UNL A   1      44.234  31.117  33.938  1.00  0.00     0.029 A 
ATOM     63  C   UNL A   1      43.526  30.428  32.966  1.00  0.00     0.049 A 
ATOM     64  H   UNL A   1      41.713  30.948  32.021  1.00  0.00     0.167 HD
ATOM     65  C   UNL A   1      43.102  28.558  31.392  1.00  0.00     0.074 A 
ATOM     66  C   UNL A   1      43.451  27.294  30.775  1.00  0.00     0.031 C 
ATOM     67  C   UNL A   1      43.850  29.173  32.340  1.00  0.00     0.031 A 
BRANCH  54  68
ATOM     68  C   UNL A   1      41.523  34.565  34.272  1.00  0.00    -0.014 A 
ATOM     69  C   UNL A   1      40.960  34.608  35.557  1.00  0.00     0.009 A 
ATOM     70  C   UNL A   1      42.217  35.686  33.795  1.00  0.00     0.009 A 
ATOM     71  C   UNL A   1      41.051  35.767  36.331  1.00  0.00     0.001 A 
ATOM     72  C   UNL A   1      42.328  36.835  34.580  1.00  0.00     0.001 A 
ATOM     73  C   UNL A   1      41.736  36.879  35.841  1.00  0.00     0.000 A 
ENDBRANCH  54  68
BRANCH  55  74
ATOM     74  C   UNL A   1      40.195  26.783  28.154  1.00  0.00    -0.014 A 
ATOM     75  C   UNL A   1      39.499  25.638  28.574  1.00  0.00     0.009 A 
ATOM     76  C   UNL A   1      40.739  26.809  26.860  1.00  0.00     0.009 A 
ATOM     77  C   UNL A   1      39.374  24.535  27.728  1.00  0.00     0.001 A 
ATOM     78  C   UNL A   1      40.590  25.713  26.006  1.00  0.00     0.001 A 
ATOM     79  C   UNL A   1      39.915  24.574  26.444  1.00  0.00     0.000 A 
ENDBRANCH  55  74
BRANCH  67  80
ATOM     80  C   UNL A   1      45.099  28.471  32.789  1.00  0.00    -0.014 A 
ATOM     81  C   UNL A   1      46.321  28.668  32.128  1.00  0.00     0.009 A 
ATOM     82  C   UNL A   1      45.058  27.634  33.915  1.00  0.00     0.009 A 
ATOM     83  C   UNL A   1      47.474  28.016  32.572  1.00  0.00     0.001 A 
ATOM     84  C   UNL A   1      46.216  27.004  34.370  1.00  0.00     0.001 A 
ATOM     85  C   UNL A   1      47.421  27.189  33.693  1.00  0.00     0.000 A 
ENDBRANCH  67  80
ENDBRANCH  41  42
ENDBRANCH  33  36
ENDBRANCH  31  32
ENDBRANCH  30  31
ENDBRANCH   1  30
TORSDOF 15
ENDMDL
