MODEL 1
REMARK VINA RESULT:     -11.2      0.000      0.000
REMARK SMILES O=C(NCCCNC(=O)[C@H]1CCc2[nH]nc(C(F)(F)F)c2C1)c1ccc(-c2c3nc(c(-c4ccccc4)c4ccc([nH]4)c(-c4ccccc4)c4nc(c(-c5ccccc5)c5ccc2[nH]5)C=C4)C=C3)cc1
REMARK SMILES IDX 4 1 3 2 1 3 2 4 23 6 24 7 70 8 25 9 69 10 26 11 27 12 28 13
REMARK SMILES IDX 63 14 29 15 68 16 62 17 64 18 30 19 67 20 61 21 60 22 31 24
REMARK SMILES IDX 53 25 38 26 52 27 39 28 42 29 51 30 65 31 40 32 41 33 50 35
REMARK SMILES IDX 66 36 43 37 32 38 33 39 37 40 34 41 36 42 35 43 54 44 55 45
REMARK SMILES IDX 59 46 56 47 58 48 57 49 44 50 45 51 49 52 46 53 48 54 47 55
REMARK SMILES IDX 5 56 6 57 7 58 8 59 9 61 10 62 11 63 22 64 12 65 21 66 13 67
REMARK SMILES IDX 16 68 14 69 15 70 17 72 18 73 19 74 20 75
REMARK H PARENT 3 5 64 23 42 34 7 60 14 71
REMARK Flexibility Score: inf
ROOT
ATOM      1  C   UNL A   1      38.772  20.274  25.748  1.00  0.00     0.118 C 
ENDROOT
BRANCH   1   2
ATOM      2  N   UNL A   1      39.880  19.330  25.758  1.00  0.00    -0.352 N 
ATOM      3  O   UNL A   1      42.026  18.641  25.874  1.00  0.00    -0.269 OA
ATOM      4  C   UNL A   1      41.204  19.532  26.069  1.00  0.00     0.251 C 
ATOM      5  H   UNL A   1      39.646  18.408  25.503  1.00  0.00     0.163 HD
BRANCH   4   6
ATOM      6  C   UNL A   1      41.644  20.839  26.604  1.00  0.00     0.039 A 
ATOM      7  C   UNL A   1      41.643  21.081  27.978  1.00  0.00     0.014 A 
ATOM      8  C   UNL A   1      42.055  21.840  25.720  1.00  0.00     0.014 A 
ATOM      9  C   UNL A   1      41.850  22.368  28.451  1.00  0.00     0.010 A 
ATOM     10  C   UNL A   1      42.388  23.105  26.211  1.00  0.00     0.010 A 
ATOM     11  C   UNL A   1      42.249  23.392  27.577  1.00  0.00    -0.014 A 
BRANCH  11  12
ATOM     12  C   UNL A   1      42.587  24.724  28.138  1.00  0.00     0.031 A 
ATOM     13  C   UNL A   1      43.998  25.090  28.502  1.00  0.00     0.074 A 
ATOM     14  C   UNL A   1      41.595  25.624  28.289  1.00  0.00     0.049 A 
ATOM     15  N   UNL A   1      44.452  26.216  28.991  1.00  0.00    -0.248 NA
ATOM     16  C   UNL A   1      45.032  24.063  28.301  1.00  0.00     0.031 C 
ATOM     17  C   UNL A   1      40.182  25.380  27.980  1.00  0.00     0.029 A 
ATOM     18  N   UNL A   1      41.620  26.926  28.713  1.00  0.00    -0.354 N 
ATOM     19  C   UNL A   1      45.814  26.025  29.189  1.00  0.00     0.074 A 
ATOM     20  C   UNL A   1      46.112  24.668  28.780  1.00  0.00     0.031 C 
ATOM     21  C   UNL A   1      39.489  26.511  28.167  1.00  0.00     0.029 A 
ATOM     22  C   UNL A   1      40.390  27.534  28.682  1.00  0.00     0.049 A 
ATOM     23  H   UNL A   1      42.441  27.382  29.010  1.00  0.00     0.167 HD
ATOM     24  C   UNL A   1      46.730  26.899  29.671  1.00  0.00     0.031 A 
ATOM     25  C   UNL A   1      40.013  28.771  29.049  1.00  0.00     0.031 A 
ATOM     26  C   UNL A   1      46.431  28.251  30.068  1.00  0.00     0.049 A 
ATOM     27  C   UNL A   1      41.044  29.713  29.587  1.00  0.00     0.074 A 
ATOM     28  C   UNL A   1      47.298  29.227  30.530  1.00  0.00     0.029 A 
ATOM     29  N   UNL A   1      45.165  28.817  30.051  1.00  0.00    -0.354 N 
ATOM     30  N   UNL A   1      42.331  29.522  29.742  1.00  0.00    -0.248 NA
ATOM     31  C   UNL A   1      40.571  31.039  30.005  1.00  0.00     0.031 C 
ATOM     32  C   UNL A   1      46.549  30.368  30.838  1.00  0.00     0.029 A 
ATOM     33  C   UNL A   1      45.224  30.119  30.522  1.00  0.00     0.049 A 
ATOM     34  H   UNL A   1      44.346  28.362  29.750  1.00  0.00     0.167 HD
ATOM     35  C   UNL A   1      42.825  30.703  30.276  1.00  0.00     0.074 A 
ATOM     36  C   UNL A   1      41.702  31.613  30.390  1.00  0.00     0.031 C 
ATOM     37  C   UNL A   1      44.094  31.003  30.643  1.00  0.00     0.031 A 
BRANCH  24  38
ATOM     38  C   UNL A   1      48.142  26.408  29.832  1.00  0.00    -0.014 A 
ATOM     39  C   UNL A   1      49.087  26.541  28.803  1.00  0.00     0.009 A 
ATOM     40  C   UNL A   1      48.542  25.837  31.051  1.00  0.00     0.009 A 
ATOM     41  C   UNL A   1      50.395  26.082  28.980  1.00  0.00     0.001 A 
ATOM     42  C   UNL A   1      49.856  25.400  31.234  1.00  0.00     0.001 A 
ATOM     43  C   UNL A   1      50.779  25.516  30.196  1.00  0.00     0.000 A 
ENDBRANCH  24  38
BRANCH  25  44
ATOM     44  C   UNL A   1      38.585  29.159  28.943  1.00  0.00    -0.014 A 
ATOM     45  C   UNL A   1      37.729  29.053  30.049  1.00  0.00     0.009 A 
ATOM     46  C   UNL A   1      38.083  29.687  27.742  1.00  0.00     0.009 A 
ATOM     47  C   UNL A   1      36.396  29.460  29.950  1.00  0.00     0.001 A 
ATOM     48  C   UNL A   1      36.760  30.120  27.654  1.00  0.00     0.001 A 
ATOM     49  C   UNL A   1      35.916  30.000  28.757  1.00  0.00     0.000 A 
ENDBRANCH  25  44
BRANCH  37  50
ATOM     50  C   UNL A   1      44.328  32.379  31.194  1.00  0.00    -0.014 A 
ATOM     51  C   UNL A   1      44.251  32.628  32.572  1.00  0.00     0.009 A 
ATOM     52  C   UNL A   1      44.648  33.434  30.324  1.00  0.00     0.009 A 
ATOM     53  C   UNL A   1      44.462  33.916  33.068  1.00  0.00     0.001 A 
ATOM     54  C   UNL A   1      44.882  34.714  30.825  1.00  0.00     0.001 A 
ATOM     55  C   UNL A   1      44.780  34.956  32.195  1.00  0.00     0.000 A 
ENDBRANCH  37  50
ENDBRANCH  11  12
ENDBRANCH   4   6
ENDBRANCH   1   2
BRANCH   1  56
ATOM     56  C   UNL A   1      37.772  20.023  24.628  1.00  0.00     0.042 C 
BRANCH  56  57
ATOM     57  C   UNL A   1      36.317  20.161  25.039  1.00  0.00     0.117 C 
BRANCH  57  58
ATOM     58  N   UNL A   1      36.068  21.392  25.756  1.00  0.00    -0.356 N 
ATOM     59  C   UNL A   1      35.240  22.430  25.505  1.00  0.00     0.223 C 
ATOM     60  H   UNL A   1      36.600  21.493  26.578  1.00  0.00     0.163 HD
ATOM     61  O   UNL A   1      35.347  23.388  26.277  1.00  0.00    -0.275 OA
BRANCH  59  62
ATOM     62  C   UNL A   1      34.292  22.452  24.303  1.00  0.00     0.083 C 
ATOM     63  C   UNL A   1      33.275  21.281  24.218  1.00  0.00     0.020 C 
ATOM     64  C   UNL A   1      33.491  23.791  24.356  1.00  0.00     0.053 C 
ATOM     65  C   UNL A   1      32.398  21.153  25.478  1.00  0.00     0.057 C 
ATOM     66  C   UNL A   1      32.453  23.709  25.433  1.00  0.00     0.006 A 
ATOM     67  C   UNL A   1      31.979  22.506  25.907  1.00  0.00     0.039 A 
ATOM     68  C   UNL A   1      31.801  24.699  26.217  1.00  0.00     0.169 A 
ATOM     69  N   UNL A   1      31.115  22.796  26.913  1.00  0.00    -0.282 N 
ATOM     70  N   UNL A   1      30.967  24.116  27.110  1.00  0.00    -0.171 NA
ATOM     71  H   UNL A   1      30.647  22.112  27.443  1.00  0.00     0.190 HD
BRANCH  68  72
ATOM     72  C   UNL A   1      31.971  26.195  26.137  1.00  0.00     0.435 C 
ATOM     73  F   UNL A   1      31.075  26.859  26.918  1.00  0.00    -0.164 F 
ATOM     74  F   UNL A   1      33.209  26.604  26.523  1.00  0.00    -0.164 F 
ATOM     75  F   UNL A   1      31.786  26.671  24.873  1.00  0.00    -0.164 F 
ENDBRANCH  68  72
ENDBRANCH  59  62
ENDBRANCH  57  58
ENDBRANCH  56  57
ENDBRANCH   1  56
TORSDOF 11
ENDMDL
MODEL 2
REMARK VINA RESULT:     -11.1      2.059      2.543
REMARK SMILES O=C(NCCCNC(=O)[C@H]1CCc2[nH]nc(C(F)(F)F)c2C1)c1ccc(-c2c3nc(c(-c4ccccc4)c4ccc([nH]4)c(-c4ccccc4)c4nc(c(-c5ccccc5)c5ccc2[nH]5)C=C4)C=C3)cc1
REMARK SMILES IDX 4 1 3 2 1 3 2 4 23 6 24 7 70 8 25 9 69 10 26 11 27 12 28 13
REMARK SMILES IDX 63 14 29 15 68 16 62 17 64 18 30 19 67 20 61 21 60 22 31 24
REMARK SMILES IDX 53 25 38 26 52 27 39 28 42 29 51 30 65 31 40 32 41 33 50 35
REMARK SMILES IDX 66 36 43 37 32 38 33 39 37 40 34 41 36 42 35 43 54 44 55 45
REMARK SMILES IDX 59 46 56 47 58 48 57 49 44 50 45 51 49 52 46 53 48 54 47 55
REMARK SMILES IDX 5 56 6 57 7 58 8 59 9 61 10 62 11 63 22 64 12 65 21 66 13 67
REMARK SMILES IDX 16 68 14 69 15 70 17 72 18 73 19 74 20 75
REMARK H PARENT 3 5 64 23 42 34 7 60 14 71
REMARK Flexibility Score: inf
ROOT
ATOM      1  C   UNL A   1      39.080  20.205  25.911  1.00  0.00     0.118 C 
ENDROOT
BRANCH   1   2
ATOM      2  N   UNL A   1      40.215  19.295  25.885  1.00  0.00    -0.352 N 
ATOM      3  O   UNL A   1      42.384  18.671  25.906  1.00  0.00    -0.269 OA
ATOM      4  C   UNL A   1      41.547  19.542  26.122  1.00  0.00     0.251 C 
ATOM      5  H   UNL A   1      39.997  18.360  25.666  1.00  0.00     0.163 HD
BRANCH   4   6
ATOM      6  C   UNL A   1      41.974  20.875  26.601  1.00  0.00     0.039 A 
ATOM      7  C   UNL A   1      41.995  21.166  27.965  1.00  0.00     0.014 A 
ATOM      8  C   UNL A   1      42.350  21.851  25.674  1.00  0.00     0.014 A 
ATOM      9  C   UNL A   1      42.189  22.473  28.388  1.00  0.00     0.010 A 
ATOM     10  C   UNL A   1      42.670  23.138  26.113  1.00  0.00     0.010 A 
ATOM     11  C   UNL A   1      42.553  23.472  27.470  1.00  0.00    -0.014 A 
BRANCH  11  12
ATOM     12  C   UNL A   1      42.878  24.828  27.977  1.00  0.00     0.031 A 
ATOM     13  C   UNL A   1      44.297  25.259  28.218  1.00  0.00     0.074 A 
ATOM     14  C   UNL A   1      41.864  25.690  28.189  1.00  0.00     0.049 A 
ATOM     15  N   UNL A   1      44.741  26.414  28.647  1.00  0.00    -0.248 NA
ATOM     16  C   UNL A   1      45.354  24.271  27.954  1.00  0.00     0.031 C 
ATOM     17  C   UNL A   1      40.443  25.382  28.001  1.00  0.00     0.029 A 
ATOM     18  N   UNL A   1      41.868  27.002  28.585  1.00  0.00    -0.354 N 
ATOM     19  C   UNL A   1      46.121  26.282  28.738  1.00  0.00     0.074 A 
ATOM     20  C   UNL A   1      46.442  24.930  28.332  1.00  0.00     0.031 C 
ATOM     21  C   UNL A   1      39.720  26.489  28.222  1.00  0.00     0.029 A 
ATOM     22  C   UNL A   1      40.615  27.558  28.643  1.00  0.00     0.049 A 
ATOM     23  H   UNL A   1      42.690  27.497  28.806  1.00  0.00     0.167 HD
ATOM     24  C   UNL A   1      47.035  27.204  29.127  1.00  0.00     0.031 A 
ATOM     25  C   UNL A   1      40.217  28.787  29.015  1.00  0.00     0.031 A 
ATOM     26  C   UNL A   1      46.712  28.551  29.521  1.00  0.00     0.049 A 
ATOM     27  C   UNL A   1      41.247  29.783  29.450  1.00  0.00     0.074 A 
ATOM     28  C   UNL A   1      47.571  29.571  29.893  1.00  0.00     0.029 A 
ATOM     29  N   UNL A   1      45.426  29.065  29.596  1.00  0.00    -0.354 N 
ATOM     30  N   UNL A   1      42.549  29.647  29.504  1.00  0.00    -0.248 NA
ATOM     31  C   UNL A   1      40.753  31.097  29.879  1.00  0.00     0.031 C 
ATOM     32  C   UNL A   1      46.802  30.688  30.239  1.00  0.00     0.029 A 
ATOM     33  C   UNL A   1      45.467  30.378  30.035  1.00  0.00     0.049 A 
ATOM     34  H   UNL A   1      44.605  28.570  29.371  1.00  0.00     0.167 HD
ATOM     35  C   UNL A   1      43.034  30.858  29.973  1.00  0.00     0.074 A 
ATOM     36  C   UNL A   1      41.886  31.725  30.160  1.00  0.00     0.031 C 
ATOM     37  C   UNL A   1      44.314  31.219  30.231  1.00  0.00     0.031 A 
BRANCH  24  38
ATOM     38  C   UNL A   1      48.474  26.773  29.182  1.00  0.00    -0.014 A 
ATOM     39  C   UNL A   1      49.012  26.152  30.321  1.00  0.00     0.009 A 
ATOM     40  C   UNL A   1      49.296  26.958  28.058  1.00  0.00     0.009 A 
ATOM     41  C   UNL A   1      50.352  25.756  30.343  1.00  0.00     0.001 A 
ATOM     42  C   UNL A   1      50.628  26.539  28.075  1.00  0.00     0.001 A 
ATOM     43  C   UNL A   1      51.157  25.946  29.220  1.00  0.00     0.000 A 
ENDBRANCH  24  38
BRANCH  25  44
ATOM     44  C   UNL A   1      38.769  29.115  29.017  1.00  0.00    -0.014 A 
ATOM     45  C   UNL A   1      38.006  28.977  30.185  1.00  0.00     0.009 A 
ATOM     46  C   UNL A   1      38.156  29.616  27.857  1.00  0.00     0.009 A 
ATOM     47  C   UNL A   1      36.653  29.328  30.187  1.00  0.00     0.001 A 
ATOM     48  C   UNL A   1      36.813  29.993  27.870  1.00  0.00     0.001 A 
ATOM     49  C   UNL A   1      36.061  29.843  29.034  1.00  0.00     0.000 A 
ENDBRANCH  25  44
BRANCH  37  50
ATOM     50  C   UNL A   1      44.533  32.615  30.735  1.00  0.00    -0.014 A 
ATOM     51  C   UNL A   1      44.557  32.891  32.109  1.00  0.00     0.009 A 
ATOM     52  C   UNL A   1      44.737  33.661  29.822  1.00  0.00     0.009 A 
ATOM     53  C   UNL A   1      44.752  34.197  32.562  1.00  0.00     0.001 A 
ATOM     54  C   UNL A   1      44.956  34.961  30.277  1.00  0.00     0.001 A 
ATOM     55  C   UNL A   1      44.955  35.229  31.646  1.00  0.00     0.000 A 
ENDBRANCH  37  50
ENDBRANCH  11  12
ENDBRANCH   4   6
ENDBRANCH   1   2
BRANCH   1  56
ATOM     56  C   UNL A   1      37.938  19.775  25.001  1.00  0.00     0.042 C 
BRANCH  56  57
ATOM     57  C   UNL A   1      36.745  20.713  25.000  1.00  0.00     0.117 C 
BRANCH  57  58
ATOM     58  N   UNL A   1      36.857  21.737  23.986  1.00  0.00    -0.356 N 
ATOM     59  C   UNL A   1      36.183  22.892  23.790  1.00  0.00     0.223 C 
ATOM     60  H   UNL A   1      37.552  21.560  23.312  1.00  0.00     0.163 HD
ATOM     61  O   UNL A   1      36.463  23.496  22.751  1.00  0.00    -0.275 OA
BRANCH  59  62
ATOM     62  C   UNL A   1      35.093  23.378  24.750  1.00  0.00     0.083 C 
ATOM     63  C   UNL A   1      34.195  24.534  24.229  1.00  0.00     0.020 C 
ATOM     64  C   UNL A   1      34.176  22.158  25.080  1.00  0.00     0.053 C 
ATOM     65  C   UNL A   1      33.502  24.203  22.894  1.00  0.00     0.057 C 
ATOM     66  C   UNL A   1      33.296  21.864  23.904  1.00  0.00     0.006 A 
ATOM     67  C   UNL A   1      33.008  22.809  22.945  1.00  0.00     0.039 A 
ATOM     68  C   UNL A   1      32.653  20.676  23.459  1.00  0.00     0.169 A 
ATOM     69  N   UNL A   1      32.254  22.190  22.001  1.00  0.00    -0.282 N 
ATOM     70  N   UNL A   1      32.001  20.904  22.294  1.00  0.00    -0.171 NA
ATOM     71  H   UNL A   1      31.927  22.637  21.187  1.00  0.00     0.190 HD
BRANCH  68  72
ATOM     72  C   UNL A   1      32.660  19.321  24.120  1.00  0.00     0.435 C 
ATOM     73  F   UNL A   1      32.152  19.360  25.382  1.00  0.00    -0.164 F 
ATOM     74  F   UNL A   1      31.938  18.399  23.432  1.00  0.00    -0.164 F 
ATOM     75  F   UNL A   1      33.919  18.810  24.241  1.00  0.00    -0.164 F 
ENDBRANCH  68  72
ENDBRANCH  59  62
ENDBRANCH  57  58
ENDBRANCH  56  57
ENDBRANCH   1  56
TORSDOF 11
ENDMDL
MODEL 3
REMARK VINA RESULT:     -11.1      0.245      6.141
REMARK SMILES O=C(NCCCNC(=O)[C@H]1CCc2[nH]nc(C(F)(F)F)c2C1)c1ccc(-c2c3nc(c(-c4ccccc4)c4ccc([nH]4)c(-c4ccccc4)c4nc(c(-c5ccccc5)c5ccc2[nH]5)C=C4)C=C3)cc1
REMARK SMILES IDX 4 1 3 2 1 3 2 4 23 6 24 7 70 8 25 9 69 10 26 11 27 12 28 13
REMARK SMILES IDX 63 14 29 15 68 16 62 17 64 18 30 19 67 20 61 21 60 22 31 24
REMARK SMILES IDX 53 25 38 26 52 27 39 28 42 29 51 30 65 31 40 32 41 33 50 35
REMARK SMILES IDX 66 36 43 37 32 38 33 39 37 40 34 41 36 42 35 43 54 44 55 45
REMARK SMILES IDX 59 46 56 47 58 48 57 49 44 50 45 51 49 52 46 53 48 54 47 55
REMARK SMILES IDX 5 56 6 57 7 58 8 59 9 61 10 62 11 63 22 64 12 65 21 66 13 67
REMARK SMILES IDX 16 68 14 69 15 70 17 72 18 73 19 74 20 75
REMARK H PARENT 3 5 64 23 42 34 7 60 14 71
REMARK Flexibility Score: inf
ROOT
ATOM      1  C   UNL A   1      38.830  20.270  25.777  1.00  0.00     0.118 C 
ENDROOT
BRANCH   1   2
ATOM      2  N   UNL A   1      39.938  19.327  25.811  1.00  0.00    -0.352 N 
ATOM      3  O   UNL A   1      42.084  18.641  25.948  1.00  0.00    -0.269 OA
ATOM      4  C   UNL A   1      41.261  19.536  26.119  1.00  0.00     0.251 C 
ATOM      5  H   UNL A   1      39.704  18.399  25.578  1.00  0.00     0.163 HD
BRANCH   4   6
ATOM      6  C   UNL A   1      41.701  20.856  26.623  1.00  0.00     0.039 A 
ATOM      7  C   UNL A   1      41.667  21.142  27.988  1.00  0.00     0.014 A 
ATOM      8  C   UNL A   1      42.143  21.824  25.718  1.00  0.00     0.014 A 
ATOM      9  C   UNL A   1      41.874  22.442  28.424  1.00  0.00     0.010 A 
ATOM     10  C   UNL A   1      42.476  23.102  26.176  1.00  0.00     0.010 A 
ATOM     11  C   UNL A   1      42.306  23.434  27.528  1.00  0.00    -0.014 A 
BRANCH  11  12
ATOM     12  C   UNL A   1      42.642  24.780  28.054  1.00  0.00     0.031 A 
ATOM     13  C   UNL A   1      41.583  25.817  28.298  1.00  0.00     0.074 A 
ATOM     14  C   UNL A   1      43.931  25.049  28.344  1.00  0.00     0.049 A 
ATOM     15  N   UNL A   1      41.718  27.033  28.764  1.00  0.00    -0.248 NA
ATOM     16  C   UNL A   1      40.196  25.452  27.970  1.00  0.00     0.031 C 
ATOM     17  C   UNL A   1      45.051  24.125  28.139  1.00  0.00     0.029 A 
ATOM     18  N   UNL A   1      44.515  26.161  28.890  1.00  0.00    -0.354 N 
ATOM     19  C   UNL A   1      40.445  27.590  28.754  1.00  0.00     0.074 A 
ATOM     20  C   UNL A   1      39.550  26.583  28.223  1.00  0.00     0.031 C 
ATOM     21  C   UNL A   1      46.174  24.684  28.610  1.00  0.00     0.029 A 
ATOM     22  C   UNL A   1      45.869  26.030  29.075  1.00  0.00     0.049 A 
ATOM     23  H   UNL A   1      44.013  26.974  29.128  1.00  0.00     0.167 HD
ATOM     24  C   UNL A   1      40.060  28.828  29.149  1.00  0.00     0.031 A 
ATOM     25  C   UNL A   1      46.779  26.901  29.544  1.00  0.00     0.031 A 
ATOM     26  C   UNL A   1      40.952  29.822  29.686  1.00  0.00     0.049 A 
ATOM     27  C   UNL A   1      46.327  28.265  29.965  1.00  0.00     0.074 A 
ATOM     28  C   UNL A   1      40.650  31.091  30.153  1.00  0.00     0.029 A 
ATOM     29  N   UNL A   1      42.322  29.661  29.827  1.00  0.00    -0.354 N 
ATOM     30  N   UNL A   1      45.115  28.764  29.972  1.00  0.00    -0.248 NA
ATOM     31  C   UNL A   1      47.367  29.188  30.436  1.00  0.00     0.031 C 
ATOM     32  C   UNL A   1      41.845  31.714  30.531  1.00  0.00     0.029 A 
ATOM     33  C   UNL A   1      42.884  30.816  30.346  1.00  0.00     0.049 A 
ATOM     34  H   UNL A   1      42.823  28.846  29.593  1.00  0.00     0.167 HD
ATOM     35  C   UNL A   1      45.244  30.059  30.449  1.00  0.00     0.074 A 
ATOM     36  C   UNL A   1      46.649  30.258  30.746  1.00  0.00     0.031 C 
ATOM     37  C   UNL A   1      44.285  31.001  30.620  1.00  0.00     0.031 A 
BRANCH  24  38
ATOM     38  C   UNL A   1      38.611  29.190  28.980  1.00  0.00    -0.014 A 
ATOM     39  C   UNL A   1      37.694  29.061  30.035  1.00  0.00     0.009 A 
ATOM     40  C   UNL A   1      38.165  29.709  27.753  1.00  0.00     0.009 A 
ATOM     41  C   UNL A   1      36.353  29.412  29.853  1.00  0.00     0.001 A 
ATOM     42  C   UNL A   1      36.831  30.082  27.582  1.00  0.00     0.001 A 
ATOM     43  C   UNL A   1      35.923  29.925  28.629  1.00  0.00     0.000 A 
ENDBRANCH  24  38
BRANCH  25  44
ATOM     44  C   UNL A   1      48.207  26.503  29.603  1.00  0.00    -0.014 A 
ATOM     45  C   UNL A   1      48.719  25.835  30.724  1.00  0.00     0.009 A 
ATOM     46  C   UNL A   1      49.055  26.749  28.510  1.00  0.00     0.009 A 
ATOM     47  C   UNL A   1      50.055  25.428  30.752  1.00  0.00     0.001 A 
ATOM     48  C   UNL A   1      50.381  26.316  28.529  1.00  0.00     0.001 A 
ATOM     49  C   UNL A   1      50.881  25.660  29.653  1.00  0.00     0.000 A 
ENDBRANCH  25  44
BRANCH  37  50
ATOM     50  C   UNL A   1      44.731  32.327  31.162  1.00  0.00    -0.014 A 
ATOM     51  C   UNL A   1      45.107  33.370  30.302  1.00  0.00     0.009 A 
ATOM     52  C   UNL A   1      44.757  32.540  32.549  1.00  0.00     0.009 A 
ATOM     53  C   UNL A   1      45.530  34.594  30.822  1.00  0.00     0.001 A 
ATOM     54  C   UNL A   1      45.157  33.773  33.065  1.00  0.00     0.001 A 
ATOM     55  C   UNL A   1      45.551  34.795  32.202  1.00  0.00     0.000 A 
ENDBRANCH  37  50
ENDBRANCH  11  12
ENDBRANCH   4   6
ENDBRANCH   1   2
BRANCH   1  56
ATOM     56  C   UNL A   1      37.848  20.010  24.643  1.00  0.00     0.042 C 
BRANCH  56  57
ATOM     57  C   UNL A   1      36.386  20.101  25.041  1.00  0.00     0.117 C 
BRANCH  57  58
ATOM     58  N   UNL A   1      36.098  21.308  25.783  1.00  0.00    -0.356 N 
ATOM     59  C   UNL A   1      35.243  22.329  25.550  1.00  0.00     0.223 C 
ATOM     60  H   UNL A   1      36.620  21.404  26.612  1.00  0.00     0.163 HD
ATOM     61  O   UNL A   1      35.318  23.270  26.344  1.00  0.00    -0.275 OA
BRANCH  59  62
ATOM     62  C   UNL A   1      34.305  22.352  24.339  1.00  0.00     0.083 C 
ATOM     63  C   UNL A   1      33.270  21.197  24.259  1.00  0.00     0.020 C 
ATOM     64  C   UNL A   1      33.525  23.705  24.373  1.00  0.00     0.053 C 
ATOM     65  C   UNL A   1      32.382  21.095  25.513  1.00  0.00     0.057 C 
ATOM     66  C   UNL A   1      32.477  23.649  25.442  1.00  0.00     0.006 A 
ATOM     67  C   UNL A   1      31.981  22.459  25.925  1.00  0.00     0.039 A 
ATOM     68  C   UNL A   1      31.835  24.658  26.211  1.00  0.00     0.169 A 
ATOM     69  N   UNL A   1      31.114  22.774  26.922  1.00  0.00    -0.282 N 
ATOM     70  N   UNL A   1      30.985  24.098  27.104  1.00  0.00    -0.171 NA
ATOM     71  H   UNL A   1      30.631  22.102  27.455  1.00  0.00     0.190 HD
BRANCH  68  72
ATOM     72  C   UNL A   1      32.028  26.151  26.117  1.00  0.00     0.435 C 
ATOM     73  F   UNL A   1      31.164  26.835  26.915  1.00  0.00    -0.164 F 
ATOM     74  F   UNL A   1      33.283  26.540  26.470  1.00  0.00    -0.164 F 
ATOM     75  F   UNL A   1      31.822  26.621  24.854  1.00  0.00    -0.164 F 
ENDBRANCH  68  72
ENDBRANCH  59  62
ENDBRANCH  57  58
ENDBRANCH  56  57
ENDBRANCH   1  56
TORSDOF 11
ENDMDL
