MODEL 1
REMARK VINA RESULT:     -11.9      0.000      0.000
REMARK SMILES O=C(NCCCNC(=O)c1cccc([C@@H]2CCC[N@@H+](Cc3cccc(OCCO)c3)C2)c1)c1ccc(-c2c3nc(c(-c4ccccc4)c4ccc([nH]4)c(-c4ccccc4)c4nc(c(-c5ccccc5)c5ccc2[nH]5)C=C4)C=C3)cc1
REMARK SMILES IDX 10 1 11 2 12 3 13 4 14 5 32 6 8 7 7 8 9 10 6 11 5 12 4 13
REMARK SMILES IDX 3 14 1 15 2 16 33 18 34 19 80 20 35 21 79 22 36 23 37 24
REMARK SMILES IDX 38 25 73 26 39 27 78 28 72 29 74 30 40 31 77 32 71 33 70 34
REMARK SMILES IDX 41 36 63 37 48 38 62 39 49 40 52 41 61 42 75 43 50 44 51 45
REMARK SMILES IDX 60 47 76 48 53 49 42 50 43 51 47 52 44 53 46 54 45 55 64 56
REMARK SMILES IDX 65 57 69 58 66 59 68 60 67 61 54 62 55 63 59 64 56 65 58 66
REMARK SMILES IDX 57 67 15 68 16 69 31 70 17 71 19 72 18 73 20 75 21 76 22 77
REMARK SMILES IDX 30 78 23 79 25 80 24 81 26 82 27 83 28 84 29 85
REMARK H PARENT 7 9 3 17 74 35 52 46 19 74 29 86
REMARK Flexibility Score: inf
ROOT
ATOM      1  C   UNL A   1      40.029  22.599  27.182  1.00  0.00     0.040 A 
ATOM      2  C   UNL A   1      39.721  23.908  27.548  1.00  0.00     0.014 A 
ATOM      3  C   UNL A   1      38.608  24.529  26.981  1.00  0.00     0.001 A 
ATOM      4  C   UNL A   1      37.829  23.852  26.034  1.00  0.00     0.004 A 
ATOM      5  C   UNL A   1      38.119  22.525  25.680  1.00  0.00    -0.039 A 
ATOM      6  C   UNL A   1      39.183  21.897  26.323  1.00  0.00     0.018 A 
ENDROOT
BRANCH   1   7
ATOM      7  C   UNL A   1      41.264  21.955  27.677  1.00  0.00     0.251 C 
ATOM      8  N   UNL A   1      41.647  20.731  27.174  1.00  0.00    -0.352 N 
ATOM      9  H   UNL A   1      42.370  20.284  27.673  1.00  0.00     0.163 HD
ATOM     10  O   UNL A   1      41.949  22.510  28.529  1.00  0.00    -0.269 OA
BRANCH   8  11
ATOM     11  C   UNL A   1      41.146  19.996  26.016  1.00  0.00     0.118 C 
BRANCH  11  12
ATOM     12  C   UNL A   1      41.881  18.690  25.796  1.00  0.00     0.042 C 
BRANCH  12  13
ATOM     13  C   UNL A   1      43.357  18.771  26.130  1.00  0.00     0.118 C 
BRANCH  13  14
ATOM     14  N   UNL A   1      44.218  18.599  24.966  1.00  0.00    -0.352 N 
ATOM     15  O   UNL A   1      45.466  19.213  23.192  1.00  0.00    -0.269 OA
ATOM     16  C   UNL A   1      44.914  19.535  24.231  1.00  0.00     0.251 C 
ATOM     17  H   UNL A   1      44.318  17.670  24.657  1.00  0.00     0.163 HD
BRANCH  16  18
ATOM     18  C   UNL A   1      44.960  20.945  24.690  1.00  0.00     0.039 A 
ATOM     19  C   UNL A   1      44.565  21.978  23.846  1.00  0.00     0.014 A 
ATOM     20  C   UNL A   1      45.420  21.237  25.979  1.00  0.00     0.014 A 
ATOM     21  C   UNL A   1      44.837  23.291  24.194  1.00  0.00     0.010 A 
ATOM     22  C   UNL A   1      45.559  22.570  26.384  1.00  0.00     0.010 A 
ATOM     23  C   UNL A   1      45.312  23.610  25.477  1.00  0.00    -0.014 A 
BRANCH  23  24
ATOM     24  C   UNL A   1      45.461  25.046  25.832  1.00  0.00     0.031 A 
ATOM     25  C   UNL A   1      44.340  25.832  26.453  1.00  0.00     0.074 A 
ATOM     26  C   UNL A   1      46.674  25.614  25.668  1.00  0.00     0.049 A 
ATOM     27  N   UNL A   1      44.360  27.059  26.913  1.00  0.00    -0.248 NA
ATOM     28  C   UNL A   1      43.031  25.172  26.568  1.00  0.00     0.031 C 
ATOM     29  C   UNL A   1      47.836  24.958  25.061  1.00  0.00     0.029 A 
ATOM     30  N   UNL A   1      47.151  26.842  26.048  1.00  0.00    -0.354 N 
ATOM     31  C   UNL A   1      43.067  27.325  27.350  1.00  0.00     0.074 A 
ATOM     32  C   UNL A   1      42.281  26.140  27.081  1.00  0.00     0.031 C 
ATOM     33  C   UNL A   1      48.909  25.748  25.194  1.00  0.00     0.029 A 
ATOM     34  C   UNL A   1      48.497  26.996  25.823  1.00  0.00     0.049 A 
ATOM     35  H   UNL A   1      46.583  27.544  26.441  1.00  0.00     0.167 HD
ATOM     36  C   UNL A   1      42.582  28.452  27.926  1.00  0.00     0.031 A 
ATOM     37  C   UNL A   1      49.318  28.027  26.089  1.00  0.00     0.031 A 
ATOM     38  C   UNL A   1      43.365  29.629  28.199  1.00  0.00     0.049 A 
ATOM     39  C   UNL A   1      48.756  29.253  26.738  1.00  0.00     0.074 A 
ATOM     40  C   UNL A   1      42.961  30.821  28.778  1.00  0.00     0.029 A 
ATOM     41  N   UNL A   1      44.716  29.761  27.917  1.00  0.00    -0.354 N 
ATOM     42  N   UNL A   1      47.531  29.481  27.144  1.00  0.00    -0.248 NA
ATOM     43  C   UNL A   1      49.687  30.366  26.960  1.00  0.00     0.031 C 
ATOM     44  C   UNL A   1      44.060  31.685  28.815  1.00  0.00     0.029 A 
ATOM     45  C   UNL A   1      45.158  31.017  28.300  1.00  0.00     0.049 A 
ATOM     46  H   UNL A   1      45.278  29.066  27.505  1.00  0.00     0.167 HD
ATOM     47  C   UNL A   1      47.541  30.766  27.665  1.00  0.00     0.074 A 
ATOM     48  C   UNL A   1      48.903  31.250  27.561  1.00  0.00     0.031 C 
ATOM     49  C   UNL A   1      46.512  31.487  28.171  1.00  0.00     0.031 A 
BRANCH  36  50
ATOM     50  C   UNL A   1      41.122  28.476  28.286  1.00  0.00    -0.014 A 
ATOM     51  C   UNL A   1      40.676  28.037  29.542  1.00  0.00     0.009 A 
ATOM     52  C   UNL A   1      40.188  28.999  27.378  1.00  0.00     0.009 A 
ATOM     53  C   UNL A   1      39.320  28.101  29.873  1.00  0.00     0.001 A 
ATOM     54  C   UNL A   1      38.836  29.082  27.720  1.00  0.00     0.001 A 
ATOM     55  C   UNL A   1      38.402  28.627  28.964  1.00  0.00     0.000 A 
ENDBRANCH  36  50
BRANCH  37  56
ATOM     56  C   UNL A   1      50.753  27.941  25.717  1.00  0.00    -0.014 A 
ATOM     57  C   UNL A   1      51.706  27.470  26.631  1.00  0.00     0.009 A 
ATOM     58  C   UNL A   1      51.172  28.316  24.430  1.00  0.00     0.009 A 
ATOM     59  C   UNL A   1      53.052  27.393  26.268  1.00  0.00     0.001 A 
ATOM     60  C   UNL A   1      52.512  28.207  24.060  1.00  0.00     0.001 A 
ATOM     61  C   UNL A   1      53.453  27.754  24.983  1.00  0.00     0.000 A 
ENDBRANCH  37  56
BRANCH  49  62
ATOM     62  C   UNL A   1      46.835  32.874  28.645  1.00  0.00    -0.014 A 
ATOM     63  C   UNL A   1      46.742  33.972  27.777  1.00  0.00     0.009 A 
ATOM     64  C   UNL A   1      47.239  33.082  29.972  1.00  0.00     0.009 A 
ATOM     65  C   UNL A   1      47.088  35.250  28.219  1.00  0.00     0.001 A 
ATOM     66  C   UNL A   1      47.560  34.365  30.417  1.00  0.00     0.001 A 
ATOM     67  C   UNL A   1      47.495  35.445  29.539  1.00  0.00     0.000 A 
ENDBRANCH  49  62
ENDBRANCH  23  24
ENDBRANCH  16  18
ENDBRANCH  13  14
ENDBRANCH  12  13
ENDBRANCH  11  12
ENDBRANCH   8  11
ENDBRANCH   1   7
BRANCH   5  68
ATOM     68  C   UNL A   1      37.378  21.836  24.545  1.00  0.00     0.074 C 
ATOM     69  C   UNL A   1      36.958  22.759  23.390  1.00  0.00     0.020 C 
ATOM     70  C   UNL A   1      36.176  21.003  25.060  1.00  0.00     0.270 C 
ATOM     71  C   UNL A   1      35.621  23.467  23.605  1.00  0.00     0.062 C 
ATOM     72  N   UNL A   1      34.929  21.757  25.290  1.00  0.00    -0.331 N 
ATOM     73  C   UNL A   1      34.529  22.521  24.101  1.00  0.00     0.262 C 
ATOM     74  H   UNL A   1      35.128  22.433  26.028  1.00  0.00     0.348 HD
BRANCH  72  75
ATOM     75  C   UNL A   1      33.829  20.902  25.807  1.00  0.00     0.299 C 
BRANCH  75  76
ATOM     76  C   UNL A   1      33.238  19.909  24.821  1.00  0.00     0.010 A 
ATOM     77  C   UNL A   1      32.468  20.349  23.737  1.00  0.00     0.010 A 
ATOM     78  C   UNL A   1      33.548  18.543  24.920  1.00  0.00     0.056 A 
ATOM     79  C   UNL A   1      32.074  19.452  22.745  1.00  0.00     0.004 A 
ATOM     80  C   UNL A   1      33.237  17.659  23.889  1.00  0.00     0.119 A 
ATOM     81  C   UNL A   1      32.477  18.117  22.812  1.00  0.00     0.046 A 
BRANCH  80  82
ATOM     82  O   UNL A   1      33.654  16.360  23.795  1.00  0.00    -0.491 OA
BRANCH  82  83
ATOM     83  C   UNL A   1      33.940  15.630  24.995  1.00  0.00     0.257 C 
BRANCH  83  84
ATOM     84  C   UNL A   1      32.736  14.816  25.483  1.00  0.00     0.197 C 
BRANCH  84  85
ATOM     85  O   UNL A   1      33.060  13.458  25.756  1.00  0.00    -0.393 OA
ATOM     86  H   UNL A   1      32.258  12.918  25.706  1.00  0.00     0.210 HD
ENDBRANCH  84  85
ENDBRANCH  83  84
ENDBRANCH  82  83
ENDBRANCH  80  82
ENDBRANCH  75  76
ENDBRANCH  72  75
ENDBRANCH   5  68
TORSDOF 17
ENDMDL
MODEL 2
REMARK VINA RESULT:     -11.8      4.657      6.313
REMARK SMILES O=C(NCCCNC(=O)c1cccc([C@@H]2CCC[N@@H+](Cc3cccc(OCCO)c3)C2)c1)c1ccc(-c2c3nc(c(-c4ccccc4)c4ccc([nH]4)c(-c4ccccc4)c4nc(c(-c5ccccc5)c5ccc2[nH]5)C=C4)C=C3)cc1
REMARK SMILES IDX 10 1 11 2 12 3 13 4 14 5 32 6 8 7 7 8 9 10 6 11 5 12 4 13
REMARK SMILES IDX 3 14 1 15 2 16 33 18 34 19 80 20 35 21 79 22 36 23 37 24
REMARK SMILES IDX 38 25 73 26 39 27 78 28 72 29 74 30 40 31 77 32 71 33 70 34
REMARK SMILES IDX 41 36 63 37 48 38 62 39 49 40 52 41 61 42 75 43 50 44 51 45
REMARK SMILES IDX 60 47 76 48 53 49 42 50 43 51 47 52 44 53 46 54 45 55 64 56
REMARK SMILES IDX 65 57 69 58 66 59 68 60 67 61 54 62 55 63 59 64 56 65 58 66
REMARK SMILES IDX 57 67 15 68 16 69 31 70 17 71 19 72 18 73 20 75 21 76 22 77
REMARK SMILES IDX 30 78 23 79 25 80 24 81 26 82 27 83 28 84 29 85
REMARK H PARENT 7 9 3 17 74 35 52 46 19 74 29 86
REMARK Flexibility Score: inf
ROOT
ATOM      1  C   UNL A   1      34.963  22.848  25.800  1.00  0.00     0.040 A 
ATOM      2  C   UNL A   1      34.249  22.803  26.995  1.00  0.00     0.014 A 
ATOM      3  C   UNL A   1      32.855  22.749  26.953  1.00  0.00     0.001 A 
ATOM      4  C   UNL A   1      32.186  22.771  25.723  1.00  0.00     0.004 A 
ATOM      5  C   UNL A   1      32.901  22.791  24.515  1.00  0.00    -0.039 A 
ATOM      6  C   UNL A   1      34.291  22.756  24.581  1.00  0.00     0.018 A 
ENDROOT
BRANCH   1   7
ATOM      7  C   UNL A   1      36.431  23.020  25.813  1.00  0.00     0.251 C 
ATOM      8  N   UNL A   1      37.248  21.960  25.488  1.00  0.00    -0.352 N 
ATOM      9  H   UNL A   1      38.203  22.092  25.690  1.00  0.00     0.163 HD
ATOM     10  O   UNL A   1      36.922  24.104  26.108  1.00  0.00    -0.269 OA
BRANCH   8  11
ATOM     11  C   UNL A   1      36.914  20.670  24.887  1.00  0.00     0.118 C 
BRANCH  11  12
ATOM     12  C   UNL A   1      38.058  19.681  24.967  1.00  0.00     0.042 C 
BRANCH  12  13
ATOM     13  C   UNL A   1      39.175  20.130  25.887  1.00  0.00     0.118 C 
BRANCH  13  14
ATOM     14  N   UNL A   1      40.301  19.204  25.916  1.00  0.00    -0.352 N 
ATOM     15  O   UNL A   1      42.458  18.554  25.986  1.00  0.00    -0.269 OA
ATOM     16  C   UNL A   1      41.638  19.442  26.154  1.00  0.00     0.251 C 
ATOM     17  H   UNL A   1      40.071  18.265  25.736  1.00  0.00     0.163 HD
BRANCH  16  18
ATOM     18  C   UNL A   1      42.081  20.791  26.583  1.00  0.00     0.039 A 
ATOM     19  C   UNL A   1      42.084  21.141  27.930  1.00  0.00     0.014 A 
ATOM     20  C   UNL A   1      42.481  21.724  25.621  1.00  0.00     0.014 A 
ATOM     21  C   UNL A   1      42.266  22.465  28.295  1.00  0.00     0.010 A 
ATOM     22  C   UNL A   1      42.805  23.030  26.008  1.00  0.00     0.010 A 
ATOM     23  C   UNL A   1      42.657  23.424  27.345  1.00  0.00    -0.014 A 
BRANCH  23  24
ATOM     24  C   UNL A   1      42.960  24.799  27.823  1.00  0.00     0.031 A 
ATOM     25  C   UNL A   1      41.873  25.799  28.105  1.00  0.00     0.074 A 
ATOM     26  C   UNL A   1      44.246  25.106  28.091  1.00  0.00     0.049 A 
ATOM     27  N   UNL A   1      41.981  26.997  28.627  1.00  0.00    -0.248 NA
ATOM     28  C   UNL A   1      40.496  25.423  27.754  1.00  0.00     0.031 C 
ATOM     29  C   UNL A   1      45.391  24.224  27.842  1.00  0.00     0.029 A 
ATOM     30  N   UNL A   1      44.803  26.210  28.682  1.00  0.00    -0.354 N 
ATOM     31  C   UNL A   1      40.694  27.522  28.646  1.00  0.00     0.074 A 
ATOM     32  C   UNL A   1      39.823  26.524  28.065  1.00  0.00     0.031 C 
ATOM     33  C   UNL A   1      46.495  24.777  28.362  1.00  0.00     0.029 A 
ATOM     34  C   UNL A   1      46.151  26.084  28.908  1.00  0.00     0.049 A 
ATOM     35  H   UNL A   1      44.286  27.014  28.919  1.00  0.00     0.167 HD
ATOM     36  C   UNL A   1      40.277  28.726  29.111  1.00  0.00     0.031 A 
ATOM     37  C   UNL A   1      47.026  26.925  29.488  1.00  0.00     0.031 A 
ATOM     38  C   UNL A   1      41.143  29.717  29.695  1.00  0.00     0.049 A 
ATOM     39  C   UNL A   1      46.534  28.241  30.004  1.00  0.00     0.074 A 
ATOM     40  C   UNL A   1      40.812  30.967  30.193  1.00  0.00     0.029 A 
ATOM     41  N   UNL A   1      42.511  29.569  29.868  1.00  0.00    -0.354 N 
ATOM     42  N   UNL A   1      45.312  28.716  30.013  1.00  0.00    -0.248 NA
ATOM     43  C   UNL A   1      47.540  29.139  30.582  1.00  0.00     0.031 C 
ATOM     44  C   UNL A   1      41.986  31.588  30.634  1.00  0.00     0.029 A 
ATOM     45  C   UNL A   1      43.040  30.707  30.453  1.00  0.00     0.049 A 
ATOM     46  H   UNL A   1      43.029  28.773  29.611  1.00  0.00     0.167 HD
ATOM     47  C   UNL A   1      45.403  29.972  30.593  1.00  0.00     0.074 A 
ATOM     48  C   UNL A   1      46.792  30.166  30.960  1.00  0.00     0.031 C 
ATOM     49  C   UNL A   1      44.426  30.889  30.792  1.00  0.00     0.031 A 
BRANCH  36  50
ATOM     50  C   UNL A   1      38.814  29.050  28.989  1.00  0.00    -0.014 A 
ATOM     51  C   UNL A   1      37.949  28.932  30.088  1.00  0.00     0.009 A 
ATOM     52  C   UNL A   1      38.306  29.535  27.774  1.00  0.00     0.009 A 
ATOM     53  C   UNL A   1      36.600  29.272  29.966  1.00  0.00     0.001 A 
ATOM     54  C   UNL A   1      36.961  29.896  27.662  1.00  0.00     0.001 A 
ATOM     55  C   UNL A   1      36.108  29.758  28.755  1.00  0.00     0.000 A 
ENDBRANCH  36  50
BRANCH  37  56
ATOM     56  C   UNL A   1      48.458  26.545  29.587  1.00  0.00    -0.014 A 
ATOM     57  C   UNL A   1      49.381  26.960  28.615  1.00  0.00     0.009 A 
ATOM     58  C   UNL A   1      48.912  25.778  30.672  1.00  0.00     0.009 A 
ATOM     59  C   UNL A   1      50.725  26.598  28.720  1.00  0.00     0.001 A 
ATOM     60  C   UNL A   1      50.261  25.446  30.790  1.00  0.00     0.001 A 
ATOM     61  C   UNL A   1      51.165  25.848  29.809  1.00  0.00     0.000 A 
ENDBRANCH  37  56
BRANCH  49  62
ATOM     62  C   UNL A   1      44.841  32.180  31.434  1.00  0.00    -0.014 A 
ATOM     63  C   UNL A   1      45.259  33.271  30.656  1.00  0.00     0.009 A 
ATOM     64  C   UNL A   1      44.817  32.305  32.831  1.00  0.00     0.009 A 
ATOM     65  C   UNL A   1      45.684  34.451  31.268  1.00  0.00     0.001 A 
ATOM     66  C   UNL A   1      45.219  33.496  33.438  1.00  0.00     0.001 A 
ATOM     67  C   UNL A   1      45.662  34.562  32.658  1.00  0.00     0.000 A 
ENDBRANCH  49  62
ENDBRANCH  23  24
ENDBRANCH  16  18
ENDBRANCH  13  14
ENDBRANCH  12  13
ENDBRANCH  11  12
ENDBRANCH   8  11
ENDBRANCH   1   7
BRANCH   5  68
ATOM     68  C   UNL A   1      32.188  22.970  23.184  1.00  0.00     0.074 C 
ATOM     69  C   UNL A   1      33.039  23.601  22.071  1.00  0.00     0.020 C 
ATOM     70  C   UNL A   1      30.838  23.715  23.346  1.00  0.00     0.270 C 
ATOM     71  C   UNL A   1      33.048  25.129  22.076  1.00  0.00     0.062 C 
ATOM     72  N   UNL A   1      30.923  25.187  23.389  1.00  0.00    -0.331 N 
ATOM     73  C   UNL A   1      31.649  25.723  22.230  1.00  0.00     0.262 C 
ATOM     74  H   UNL A   1      31.466  25.424  24.220  1.00  0.00     0.348 HD
BRANCH  72  75
ATOM     75  C   UNL A   1      29.597  25.833  23.572  1.00  0.00     0.299 C 
BRANCH  75  76
ATOM     76  C   UNL A   1      29.607  27.347  23.701  1.00  0.00     0.010 A 
ATOM     77  C   UNL A   1      30.699  28.009  24.277  1.00  0.00     0.010 A 
ATOM     78  C   UNL A   1      28.569  28.112  23.145  1.00  0.00     0.056 A 
ATOM     79  C   UNL A   1      30.778  29.401  24.238  1.00  0.00     0.004 A 
ATOM     80  C   UNL A   1      28.683  29.495  23.020  1.00  0.00     0.119 A 
ATOM     81  C   UNL A   1      29.783  30.137  23.592  1.00  0.00     0.046 A 
BRANCH  80  82
ATOM     82  O   UNL A   1      27.828  30.311  22.332  1.00  0.00    -0.491 OA
BRANCH  82  83
ATOM     83  C   UNL A   1      28.219  30.805  21.044  1.00  0.00     0.257 C 
BRANCH  83  84
ATOM     84  C   UNL A   1      27.952  32.307  20.891  1.00  0.00     0.197 C 
BRANCH  84  85
ATOM     85  O   UNL A   1      27.922  32.993  22.137  1.00  0.00    -0.393 OA
ATOM     86  H   UNL A   1      27.003  33.177  22.383  1.00  0.00     0.210 HD
ENDBRANCH  84  85
ENDBRANCH  83  84
ENDBRANCH  82  83
ENDBRANCH  80  82
ENDBRANCH  75  76
ENDBRANCH  72  75
ENDBRANCH   5  68
TORSDOF 17
ENDMDL
MODEL 3
REMARK VINA RESULT:     -11.8      4.152      8.026
REMARK SMILES O=C(NCCCNC(=O)c1cccc([C@@H]2CCC[N@@H+](Cc3cccc(OCCO)c3)C2)c1)c1ccc(-c2c3nc(c(-c4ccccc4)c4ccc([nH]4)c(-c4ccccc4)c4nc(c(-c5ccccc5)c5ccc2[nH]5)C=C4)C=C3)cc1
REMARK SMILES IDX 10 1 11 2 12 3 13 4 14 5 32 6 8 7 7 8 9 10 6 11 5 12 4 13
REMARK SMILES IDX 3 14 1 15 2 16 33 18 34 19 80 20 35 21 79 22 36 23 37 24
REMARK SMILES IDX 38 25 73 26 39 27 78 28 72 29 74 30 40 31 77 32 71 33 70 34
REMARK SMILES IDX 41 36 63 37 48 38 62 39 49 40 52 41 61 42 75 43 50 44 51 45
REMARK SMILES IDX 60 47 76 48 53 49 42 50 43 51 47 52 44 53 46 54 45 55 64 56
REMARK SMILES IDX 65 57 69 58 66 59 68 60 67 61 54 62 55 63 59 64 56 65 58 66
REMARK SMILES IDX 57 67 15 68 16 69 31 70 17 71 19 72 18 73 20 75 21 76 22 77
REMARK SMILES IDX 30 78 23 79 25 80 24 81 26 82 27 83 28 84 29 85
REMARK H PARENT 7 9 3 17 74 35 52 46 19 74 29 86
REMARK Flexibility Score: inf
ROOT
ATOM      1  C   UNL A   1      35.099  22.665  26.060  1.00  0.00     0.040 A 
ATOM      2  C   UNL A   1      34.488  22.683  27.312  1.00  0.00     0.014 A 
ATOM      3  C   UNL A   1      33.097  22.605  27.391  1.00  0.00     0.001 A 
ATOM      4  C   UNL A   1      32.327  22.539  26.223  1.00  0.00     0.004 A 
ATOM      5  C   UNL A   1      32.938  22.496  24.960  1.00  0.00    -0.039 A 
ATOM      6  C   UNL A   1      34.329  22.487  24.910  1.00  0.00     0.018 A 
ENDROOT
BRANCH   1   7
ATOM      7  C   UNL A   1      36.558  22.861  25.938  1.00  0.00     0.251 C 
ATOM      8  N   UNL A   1      37.364  21.804  25.574  1.00  0.00    -0.352 N 
ATOM      9  H   UNL A   1      38.330  21.958  25.687  1.00  0.00     0.163 HD
ATOM     10  O   UNL A   1      37.053  23.962  26.155  1.00  0.00    -0.269 OA
BRANCH   8  11
ATOM     11  C   UNL A   1      37.003  20.491  25.045  1.00  0.00     0.118 C 
BRANCH  11  12
ATOM     12  C   UNL A   1      38.201  19.576  24.901  1.00  0.00     0.042 C 
BRANCH  12  13
ATOM     13  C   UNL A   1      39.364  19.968  25.789  1.00  0.00     0.118 C 
BRANCH  13  14
ATOM     14  N   UNL A   1      40.405  18.950  25.853  1.00  0.00    -0.352 N 
ATOM     15  O   UNL A   1      42.497  18.116  25.957  1.00  0.00    -0.269 OA
ATOM     16  C   UNL A   1      41.757  19.077  26.093  1.00  0.00     0.251 C 
ATOM     17  H   UNL A   1      40.095  18.028  25.700  1.00  0.00     0.163 HD
BRANCH  16  18
ATOM     18  C   UNL A   1      42.314  20.395  26.483  1.00  0.00     0.039 A 
ATOM     19  C   UNL A   1      42.265  20.821  27.807  1.00  0.00     0.014 A 
ATOM     20  C   UNL A   1      42.877  21.223  25.506  1.00  0.00     0.014 A 
ATOM     21  C   UNL A   1      42.565  22.137  28.117  1.00  0.00     0.010 A 
ATOM     22  C   UNL A   1      43.314  22.508  25.850  1.00  0.00     0.010 A 
ATOM     23  C   UNL A   1      43.120  22.993  27.150  1.00  0.00    -0.014 A 
BRANCH  23  24
ATOM     24  C   UNL A   1      43.538  24.355  27.578  1.00  0.00     0.031 A 
ATOM     25  C   UNL A   1      44.956  24.831  27.435  1.00  0.00     0.074 A 
ATOM     26  C   UNL A   1      42.583  25.200  28.017  1.00  0.00     0.049 A 
ATOM     27  N   UNL A   1      45.445  26.026  27.665  1.00  0.00    -0.248 NA
ATOM     28  C   UNL A   1      45.960  23.852  26.991  1.00  0.00     0.031 C 
ATOM     29  C   UNL A   1      41.173  24.848  28.214  1.00  0.00     0.029 A 
ATOM     30  N   UNL A   1      42.634  26.536  28.320  1.00  0.00    -0.354 N 
ATOM     31  C   UNL A   1      46.809  25.936  27.415  1.00  0.00     0.074 A 
ATOM     32  C   UNL A   1      47.078  24.566  27.037  1.00  0.00     0.031 C 
ATOM     33  C   UNL A   1      40.479  25.955  28.510  1.00  0.00     0.029 A 
ATOM     34  C   UNL A   1      41.404  27.077  28.601  1.00  0.00     0.049 A 
ATOM     35  H   UNL A   1      43.471  27.055  28.335  1.00  0.00     0.167 HD
ATOM     36  C   UNL A   1      47.750  26.910  27.490  1.00  0.00     0.031 A 
ATOM     37  C   UNL A   1      41.050  28.339  28.903  1.00  0.00     0.031 A 
ATOM     38  C   UNL A   1      47.481  28.275  27.861  1.00  0.00     0.049 A 
ATOM     39  C   UNL A   1      42.109  29.395  28.966  1.00  0.00     0.074 A 
ATOM     40  C   UNL A   1      48.370  29.333  27.966  1.00  0.00     0.029 A 
ATOM     41  N   UNL A   1      46.227  28.775  28.180  1.00  0.00    -0.354 N 
ATOM     42  N   UNL A   1      43.392  29.288  28.723  1.00  0.00    -0.248 NA
ATOM     43  C   UNL A   1      41.672  30.743  29.349  1.00  0.00     0.031 C 
ATOM     44  C   UNL A   1      47.659  30.463  28.383  1.00  0.00     0.029 A 
ATOM     45  C   UNL A   1      46.321  30.120  28.494  1.00  0.00     0.049 A 
ATOM     46  H   UNL A   1      45.395  28.250  28.184  1.00  0.00     0.167 HD
ATOM     47  C   UNL A   1      43.919  30.554  28.930  1.00  0.00     0.074 A 
ATOM     48  C   UNL A   1      42.810  31.419  29.276  1.00  0.00     0.031 C 
ATOM     49  C   UNL A   1      45.209  30.960  28.854  1.00  0.00     0.031 A 
BRANCH  36  50
ATOM     50  C   UNL A   1      49.171  26.529  27.182  1.00  0.00    -0.014 A 
ATOM     51  C   UNL A   1      50.051  26.123  28.197  1.00  0.00     0.009 A 
ATOM     52  C   UNL A   1      49.620  26.523  25.852  1.00  0.00     0.009 A 
ATOM     53  C   UNL A   1      51.358  25.739  27.888  1.00  0.00     0.001 A 
ATOM     54  C   UNL A   1      50.920  26.116  25.544  1.00  0.00     0.001 A 
ATOM     55  C   UNL A   1      51.790  25.731  26.562  1.00  0.00     0.000 A 
ENDBRANCH  36  50
BRANCH  37  56
ATOM     56  C   UNL A   1      39.627  28.656  29.191  1.00  0.00    -0.014 A 
ATOM     57  C   UNL A   1      39.109  28.525  30.487  1.00  0.00     0.009 A 
ATOM     58  C   UNL A   1      38.785  29.112  28.164  1.00  0.00     0.009 A 
ATOM     59  C   UNL A   1      37.771  28.828  30.744  1.00  0.00     0.001 A 
ATOM     60  C   UNL A   1      37.457  29.444  28.431  1.00  0.00     0.001 A 
ATOM     61  C   UNL A   1      36.948  29.293  29.719  1.00  0.00     0.000 A 
ENDBRANCH  37  56
BRANCH  49  62
ATOM     62  C   UNL A   1      45.474  32.406  29.155  1.00  0.00    -0.014 A 
ATOM     63  C   UNL A   1      45.810  32.823  30.452  1.00  0.00     0.009 A 
ATOM     64  C   UNL A   1      45.384  33.361  28.131  1.00  0.00     0.009 A 
ATOM     65  C   UNL A   1      46.011  34.176  30.727  1.00  0.00     0.001 A 
ATOM     66  C   UNL A   1      45.610  34.710  28.405  1.00  0.00     0.001 A 
ATOM     67  C   UNL A   1      45.912  35.118  29.703  1.00  0.00     0.000 A 
ENDBRANCH  49  62
ENDBRANCH  23  24
ENDBRANCH  16  18
ENDBRANCH  13  14
ENDBRANCH  12  13
ENDBRANCH  11  12
ENDBRANCH   8  11
ENDBRANCH   1   7
BRANCH   5  68
ATOM     68  C   UNL A   1      32.112  22.580  23.687  1.00  0.00     0.074 C 
ATOM     69  C   UNL A   1      32.904  22.953  22.423  1.00  0.00     0.020 C 
ATOM     70  C   UNL A   1      30.873  23.496  23.859  1.00  0.00     0.270 C 
ATOM     71  C   UNL A   1      33.074  24.456  22.207  1.00  0.00     0.062 C 
ATOM     72  N   UNL A   1      31.117  24.940  23.682  1.00  0.00    -0.331 N 
ATOM     73  C   UNL A   1      31.770  25.227  22.399  1.00  0.00     0.262 C 
ATOM     74  H   UNL A   1      31.766  25.219  24.419  1.00  0.00     0.348 HD
BRANCH  72  75
ATOM     75  C   UNL A   1      29.894  25.758  23.888  1.00  0.00     0.299 C 
BRANCH  75  76
ATOM     76  C   UNL A   1      30.104  27.260  23.980  1.00  0.00     0.010 A 
ATOM     77  C   UNL A   1      30.974  27.803  24.934  1.00  0.00     0.010 A 
ATOM     78  C   UNL A   1      29.515  28.117  23.037  1.00  0.00     0.056 A 
ATOM     79  C   UNL A   1      31.294  29.160  24.903  1.00  0.00     0.004 A 
ATOM     80  C   UNL A   1      29.898  29.453  22.941  1.00  0.00     0.119 A 
ATOM     81  C   UNL A   1      30.773  29.975  23.895  1.00  0.00     0.046 A 
BRANCH  80  82
ATOM     82  O   UNL A   1      29.534  30.322  21.950  1.00  0.00    -0.491 OA
BRANCH  82  83
ATOM     83  C   UNL A   1      28.187  30.811  21.912  1.00  0.00     0.257 C 
BRANCH  83  84
ATOM     84  C   UNL A   1      27.850  31.684  23.126  1.00  0.00     0.197 C 
BRANCH  84  85
ATOM     85  O   UNL A   1      26.972  31.042  24.043  1.00  0.00    -0.393 OA
ATOM     86  H   UNL A   1      27.261  30.127  24.181  1.00  0.00     0.210 HD
ENDBRANCH  84  85
ENDBRANCH  83  84
ENDBRANCH  82  83
ENDBRANCH  80  82
ENDBRANCH  75  76
ENDBRANCH  72  75
ENDBRANCH   5  68
TORSDOF 17
ENDMDL
