MODEL 1
REMARK VINA RESULT:     -12.7      0.000      0.000
REMARK SMILES N#CCC[NH+]1CCN(c2cc(C(=O)NCCCNC(=O)c3ccc(-c4c5nc(c(-c6ccccc6)c6ccc([nH]6)c(-c6ccccc6)c6nc(c(-c7ccccc7)c7ccc4[nH]7)C=C6)C=C5)cc3)c3cc(NS(=O)(=O)c4ccccc4Cl)ccc3n2)CC1
REMARK SMILES IDX 15 1 14 2 12 3 13 4 11 6 9 7 10 8 86 9 85 10 69 11 84 12
REMARK SMILES IDX 70 13 83 14 71 15 8 16 5 17 6 18 88 19 7 21 87 22 4 23 3 24
REMARK SMILES IDX 2 25 1 26 72 27 73 29 74 30 75 31 76 32 77 33 81 34 78 35
REMARK SMILES IDX 80 36 82 37 79 38 16 39 17 40 18 41 19 42 20 44 21 45 22 46
REMARK SMILES IDX 68 47 23 48 67 49 24 50 25 51 26 52 61 53 27 54 66 55 60 56
REMARK SMILES IDX 62 57 28 58 65 59 59 60 58 61 29 63 51 64 36 65 50 66 37 67
REMARK SMILES IDX 40 68 49 69 63 70 38 71 39 72 48 74 64 75 41 76 30 77 31 78
REMARK SMILES IDX 35 79 32 80 34 81 33 82 52 83 53 84 57 85 54 86 56 87 55 88
REMARK SMILES IDX 42 89 43 90 47 91 44 92 46 93 45 94
REMARK H PARENT 14 5 5 20 72 28 18 43 62 62 40 73
REMARK Flexibility Score: inf
ROOT
ATOM      1  C   UNL A   1      37.720  22.873  25.728  1.00  0.00     0.118 C 
ENDROOT
BRANCH   1   2
ATOM      2  N   UNL A   1      37.322  23.098  24.392  1.00  0.00    -0.352 N 
ATOM      3  C   UNL A   1      36.057  23.052  23.932  1.00  0.00     0.252 C 
ATOM      4  O   UNL A   1      35.917  23.433  22.767  1.00  0.00    -0.269 OA
ATOM      5  H   UNL A   1      38.031  23.306  23.742  1.00  0.00     0.163 HD
BRANCH   3   6
ATOM      6  C   UNL A   1      34.888  22.795  24.835  1.00  0.00     0.052 A 
ATOM      7  C   UNL A   1      33.289  21.073  25.135  1.00  0.00     0.130 A 
ATOM      8  C   UNL A   1      34.421  21.548  24.543  1.00  0.00     0.061 A 
ATOM      9  N   UNL A   1      32.463  21.882  25.832  1.00  0.00    -0.231 NA
ATOM     10  C   UNL A   1      32.812  23.186  25.999  1.00  0.00     0.074 A 
ATOM     11  C   UNL A   1      34.071  23.649  25.642  1.00  0.00     0.015 A 
ATOM     12  C   UNL A   1      31.926  24.175  26.450  1.00  0.00     0.031 A 
ATOM     13  C   UNL A   1      34.343  24.992  26.021  1.00  0.00     0.038 A 
ATOM     14  C   UNL A   1      32.190  25.568  26.226  1.00  0.00     0.029 A 
ATOM     15  C   UNL A   1      33.423  26.014  25.739  1.00  0.00     0.050 A 
BRANCH   7  16
ATOM     16  N   UNL A   1      33.072  19.735  24.910  1.00  0.00    -0.345 N 
ATOM     17  N   UNL A   1      33.644  17.490  23.276  1.00  0.00    -0.331 N 
ATOM     18  C   UNL A   1      32.924  18.634  22.718  1.00  0.00     0.284 C 
ATOM     19  C   UNL A   1      34.608  17.956  24.313  1.00  0.00     0.284 C 
ATOM     20  H   UNL A   1      34.176  17.029  22.539  1.00  0.00     0.348 HD
ATOM     21  C   UNL A   1      32.157  19.376  23.809  1.00  0.00     0.179 C 
ATOM     22  C   UNL A   1      33.955  18.732  25.461  1.00  0.00     0.179 C 
BRANCH  17  23
ATOM     23  C   UNL A   1      32.695  16.510  23.818  1.00  0.00     0.277 C 
BRANCH  23  24
ATOM     24  C   UNL A   1      33.487  15.682  24.772  1.00  0.00     0.181 C 
BRANCH  24  25
ATOM     25  C   UNL A   1      32.556  15.160  25.855  1.00  0.00     0.068 C 
ATOM     26  N   UNL A   1      31.784  14.728  26.753  1.00  0.00    -0.198 NA
ENDBRANCH  24  25
ENDBRANCH  23  24
ENDBRANCH  17  23
ENDBRANCH   7  16
BRANCH  15  27
ATOM     27  N   UNL A   1      33.296  26.814  24.349  1.00  0.00    -0.280 N 
ATOM     28  H   UNL A   1      33.782  26.326  23.646  1.00  0.00     0.180 HD
BRANCH  27  29
ATOM     29  S   UNL A   1      32.521  28.388  23.600  1.00  0.00     0.263 S 
ATOM     30  O   UNL A   1      32.870  29.300  24.687  1.00  0.00    -0.201 OA
ATOM     31  O   UNL A   1      33.192  28.547  22.338  1.00  0.00    -0.201 OA
BRANCH  29  32
ATOM     32  C   UNL A   1      30.426  28.777  23.427  1.00  0.00     0.106 A 
ATOM     33  C   UNL A   1      29.754  30.081  23.454  1.00  0.00     0.024 A 
ATOM     34  C   UNL A   1      29.498  27.754  23.340  1.00  0.00     0.061 A 
ATOM     35  C   UNL A   1      28.424  30.408  23.188  1.00  0.00     0.002 A 
ATOM     36  C   UNL A   1      28.103  28.074  23.112  1.00  0.00     0.022 A 
ATOM     37  Cl  UNL A   1      29.827  26.103  23.647  1.00  0.00    -0.083 Cl
ATOM     38  C   UNL A   1      27.580  29.372  22.977  1.00  0.00     0.002 A 
ENDBRANCH  29  32
ENDBRANCH  27  29
ENDBRANCH  15  27
ENDBRANCH   3   6
ENDBRANCH   1   2
BRANCH   1  39
ATOM     39  C   UNL A   1      38.927  21.752  25.999  1.00  0.00     0.042 C 
BRANCH  39  40
ATOM     40  C   UNL A   1      39.205  20.241  25.510  1.00  0.00     0.118 C 
BRANCH  40  41
ATOM     41  N   UNL A   1      40.269  19.412  26.115  1.00  0.00    -0.352 N 
ATOM     42  C   UNL A   1      41.626  19.552  26.168  1.00  0.00     0.251 C 
ATOM     43  H   UNL A   1      39.935  18.604  26.569  1.00  0.00     0.163 HD
ATOM     44  O   UNL A   1      42.385  18.597  26.335  1.00  0.00    -0.269 OA
BRANCH  42  45
ATOM     45  C   UNL A   1      42.097  20.892  26.436  1.00  0.00     0.039 A 
ATOM     46  C   UNL A   1      42.543  21.720  25.414  1.00  0.00     0.014 A 
ATOM     47  C   UNL A   1      42.166  21.245  27.790  1.00  0.00     0.014 A 
ATOM     48  C   UNL A   1      42.993  22.980  25.764  1.00  0.00     0.010 A 
ATOM     49  C   UNL A   1      42.527  22.515  28.128  1.00  0.00     0.010 A 
ATOM     50  C   UNL A   1      42.944  23.375  27.113  1.00  0.00    -0.014 A 
BRANCH  50  51
ATOM     51  C   UNL A   1      43.294  24.731  27.513  1.00  0.00     0.031 A 
ATOM     52  C   UNL A   1      44.734  25.112  27.576  1.00  0.00     0.074 A 
ATOM     53  C   UNL A   1      42.287  25.515  27.921  1.00  0.00     0.049 A 
ATOM     54  N   UNL A   1      45.260  26.242  27.953  1.00  0.00    -0.248 NA
ATOM     55  C   UNL A   1      45.720  24.074  27.211  1.00  0.00     0.031 C 
ATOM     56  C   UNL A   1      40.870  25.125  27.957  1.00  0.00     0.029 A 
ATOM     57  N   UNL A   1      42.292  26.796  28.379  1.00  0.00    -0.354 N 
ATOM     58  C   UNL A   1      46.631  26.053  27.873  1.00  0.00     0.074 A 
ATOM     59  C   UNL A   1      46.863  24.681  27.488  1.00  0.00     0.031 C 
ATOM     60  C   UNL A   1      40.138  26.173  28.357  1.00  0.00     0.029 A 
ATOM     61  C   UNL A   1      41.037  27.280  28.644  1.00  0.00     0.049 A 
ATOM     62  H   UNL A   1      43.114  27.322  28.509  1.00  0.00     0.167 HD
ATOM     63  C   UNL A   1      47.600  26.970  28.081  1.00  0.00     0.031 A 
ATOM     64  C   UNL A   1      40.674  28.503  29.062  1.00  0.00     0.031 A 
ATOM     65  C   UNL A   1      47.305  28.322  28.470  1.00  0.00     0.049 A 
ATOM     66  C   UNL A   1      41.771  29.507  29.257  1.00  0.00     0.074 A 
ATOM     67  C   UNL A   1      48.174  29.375  28.676  1.00  0.00     0.029 A 
ATOM     68  N   UNL A   1      46.022  28.801  28.708  1.00  0.00    -0.354 N 
ATOM     69  N   UNL A   1      43.067  29.353  29.105  1.00  0.00    -0.248 NA
ATOM     70  C   UNL A   1      41.359  30.854  29.657  1.00  0.00     0.031 C 
ATOM     71  C   UNL A   1      47.418  30.477  29.090  1.00  0.00     0.029 A 
ATOM     72  C   UNL A   1      46.073  30.130  29.077  1.00  0.00     0.049 A 
ATOM     73  H   UNL A   1      45.197  28.270  28.625  1.00  0.00     0.167 HD
ATOM     74  C   UNL A   1      43.630  30.592  29.367  1.00  0.00     0.074 A 
ATOM     75  C   UNL A   1      42.524  31.487  29.662  1.00  0.00     0.031 C 
ATOM     76  C   UNL A   1      44.934  30.965  29.370  1.00  0.00     0.031 A 
BRANCH  63  77
ATOM     77  C   UNL A   1      49.024  26.525  27.904  1.00  0.00    -0.014 A 
ATOM     78  C   UNL A   1      49.837  26.217  29.009  1.00  0.00     0.009 A 
ATOM     79  C   UNL A   1      49.569  26.421  26.617  1.00  0.00     0.009 A 
ATOM     80  C   UNL A   1      51.174  25.857  28.829  1.00  0.00     0.001 A 
ATOM     81  C   UNL A   1      50.898  26.029  26.438  1.00  0.00     0.001 A 
ATOM     82  C   UNL A   1      51.702  25.758  27.544  1.00  0.00     0.000 A 
ENDBRANCH  63  77
BRANCH  64  83
ATOM     83  C   UNL A   1      39.241  28.829  29.260  1.00  0.00    -0.014 A 
ATOM     84  C   UNL A   1      38.640  28.670  30.517  1.00  0.00     0.009 A 
ATOM     85  C   UNL A   1      38.472  29.341  28.202  1.00  0.00     0.009 A 
ATOM     86  C   UNL A   1      37.289  28.980  30.701  1.00  0.00     0.001 A 
ATOM     87  C   UNL A   1      37.132  29.681  28.397  1.00  0.00     0.001 A 
ATOM     88  C   UNL A   1      36.538  29.488  29.643  1.00  0.00     0.000 A 
ENDBRANCH  64  83
BRANCH  76  89
ATOM     89  C   UNL A   1      45.206  32.408  29.677  1.00  0.00    -0.014 A 
ATOM     90  C   UNL A   1      45.466  32.837  30.988  1.00  0.00     0.009 A 
ATOM     91  C   UNL A   1      45.225  33.342  28.630  1.00  0.00     0.009 A 
ATOM     92  C   UNL A   1      45.695  34.188  31.249  1.00  0.00     0.001 A 
ATOM     93  C   UNL A   1      45.493  34.684  28.891  1.00  0.00     0.001 A 
ATOM     94  C   UNL A   1      45.713  35.107  30.201  1.00  0.00     0.000 A 
ENDBRANCH  76  89
ENDBRANCH  50  51
ENDBRANCH  42  45
ENDBRANCH  40  41
ENDBRANCH  39  40
ENDBRANCH   1  39
TORSDOF 17
ENDMDL
MODEL 2
REMARK VINA RESULT:     -12.7      0.652      5.586
REMARK SMILES N#CCC[NH+]1CCN(c2cc(C(=O)NCCCNC(=O)c3ccc(-c4c5nc(c(-c6ccccc6)c6ccc([nH]6)c(-c6ccccc6)c6nc(c(-c7ccccc7)c7ccc4[nH]7)C=C6)C=C5)cc3)c3cc(NS(=O)(=O)c4ccccc4Cl)ccc3n2)CC1
REMARK SMILES IDX 15 1 14 2 12 3 13 4 11 6 9 7 10 8 86 9 85 10 69 11 84 12
REMARK SMILES IDX 70 13 83 14 71 15 8 16 5 17 6 18 88 19 7 21 87 22 4 23 3 24
REMARK SMILES IDX 2 25 1 26 72 27 73 29 74 30 75 31 76 32 77 33 81 34 78 35
REMARK SMILES IDX 80 36 82 37 79 38 16 39 17 40 18 41 19 42 20 44 21 45 22 46
REMARK SMILES IDX 68 47 23 48 67 49 24 50 25 51 26 52 61 53 27 54 66 55 60 56
REMARK SMILES IDX 62 57 28 58 65 59 59 60 58 61 29 63 51 64 36 65 50 66 37 67
REMARK SMILES IDX 40 68 49 69 63 70 38 71 39 72 48 74 64 75 41 76 30 77 31 78
REMARK SMILES IDX 35 79 32 80 34 81 33 82 52 83 53 84 57 85 54 86 56 87 55 88
REMARK SMILES IDX 42 89 43 90 47 91 44 92 46 93 45 94
REMARK H PARENT 14 5 5 20 72 28 18 43 62 62 40 73
REMARK Flexibility Score: inf
ROOT
ATOM      1  C   UNL A   1      37.755  23.014  25.746  1.00  0.00     0.118 C 
ENDROOT
BRANCH   1   2
ATOM      2  N   UNL A   1      37.397  23.173  24.390  1.00  0.00    -0.352 N 
ATOM      3  C   UNL A   1      36.143  23.142  23.900  1.00  0.00     0.252 C 
ATOM      4  O   UNL A   1      36.044  23.459  22.712  1.00  0.00    -0.269 OA
ATOM      5  H   UNL A   1      38.128  23.320  23.748  1.00  0.00     0.163 HD
BRANCH   3   6
ATOM      6  C   UNL A   1      34.944  22.976  24.786  1.00  0.00     0.052 A 
ATOM      7  C   UNL A   1      33.260  21.343  25.117  1.00  0.00     0.130 A 
ATOM      8  C   UNL A   1      34.425  21.741  24.532  1.00  0.00     0.061 A 
ATOM      9  N   UNL A   1      32.458  22.218  25.762  1.00  0.00    -0.231 NA
ATOM     10  C   UNL A   1      32.865  23.509  25.884  1.00  0.00     0.074 A 
ATOM     11  C   UNL A   1      34.151  23.899  25.539  1.00  0.00     0.015 A 
ATOM     12  C   UNL A   1      32.017  24.556  26.275  1.00  0.00     0.031 A 
ATOM     13  C   UNL A   1      34.478  25.243  25.870  1.00  0.00     0.038 A 
ATOM     14  C   UNL A   1      32.350  25.925  26.001  1.00  0.00     0.029 A 
ATOM     15  C   UNL A   1      33.613  26.294  25.526  1.00  0.00     0.050 A 
BRANCH   7  16
ATOM     16  N   UNL A   1      32.985  20.009  24.940  1.00  0.00    -0.345 N 
ATOM     17  N   UNL A   1      33.504  17.670  23.426  1.00  0.00    -0.331 N 
ATOM     18  C   UNL A   1      32.863  18.821  22.793  1.00  0.00     0.284 C 
ATOM     19  C   UNL A   1      34.452  18.134  24.479  1.00  0.00     0.284 C 
ATOM     20  H   UNL A   1      34.039  17.151  22.730  1.00  0.00     0.348 HD
ATOM     21  C   UNL A   1      32.094  19.646  23.821  1.00  0.00     0.179 C 
ATOM     22  C   UNL A   1      33.797  18.990  25.567  1.00  0.00     0.179 C 
BRANCH  17  23
ATOM     23  C   UNL A   1      32.489  16.760  23.972  1.00  0.00     0.277 C 
BRANCH  23  24
ATOM     24  C   UNL A   1      33.256  15.655  24.615  1.00  0.00     0.181 C 
BRANCH  24  25
ATOM     25  C   UNL A   1      32.486  15.170  25.832  1.00  0.00     0.068 C 
ATOM     26  N   UNL A   1      31.847  14.768  26.843  1.00  0.00    -0.198 NA
ENDBRANCH  24  25
ENDBRANCH  23  24
ENDBRANCH  17  23
ENDBRANCH   7  16
BRANCH  15  27
ATOM     27  N   UNL A   1      33.553  27.042  24.102  1.00  0.00    -0.280 N 
ATOM     28  H   UNL A   1      34.388  27.543  23.963  1.00  0.00     0.180 HD
BRANCH  27  29
ATOM     29  S   UNL A   1      32.412  27.285  22.594  1.00  0.00     0.263 S 
ATOM     30  O   UNL A   1      33.242  28.261  21.891  1.00  0.00    -0.201 OA
ATOM     31  O   UNL A   1      32.285  25.968  22.030  1.00  0.00    -0.201 OA
BRANCH  29  32
ATOM     32  C   UNL A   1      30.538  28.314  22.610  1.00  0.00     0.106 A 
ATOM     33  C   UNL A   1      30.260  29.671  22.128  1.00  0.00     0.024 A 
ATOM     34  C   UNL A   1      29.403  27.756  23.174  1.00  0.00     0.061 A 
ATOM     35  C   UNL A   1      29.040  30.331  21.966  1.00  0.00     0.002 A 
ATOM     36  C   UNL A   1      28.136  28.448  23.059  1.00  0.00     0.022 A 
ATOM     37  Cl  UNL A   1      29.386  26.363  24.166  1.00  0.00    -0.083 Cl
ATOM     38  C   UNL A   1      27.941  29.683  22.414  1.00  0.00     0.002 A 
ENDBRANCH  29  32
ENDBRANCH  27  29
ENDBRANCH  15  27
ENDBRANCH   3   6
ENDBRANCH   1   2
BRANCH   1  39
ATOM     39  C   UNL A   1      38.839  21.803  26.125  1.00  0.00     0.042 C 
BRANCH  39  40
ATOM     40  C   UNL A   1      39.187  20.355  25.507  1.00  0.00     0.118 C 
BRANCH  40  41
ATOM     41  N   UNL A   1      40.214  19.479  26.111  1.00  0.00    -0.352 N 
ATOM     42  C   UNL A   1      41.576  19.551  26.150  1.00  0.00     0.251 C 
ATOM     43  H   UNL A   1      39.844  18.693  26.575  1.00  0.00     0.163 HD
ATOM     44  O   UNL A   1      42.288  18.561  26.319  1.00  0.00    -0.269 OA
BRANCH  42  45
ATOM     45  C   UNL A   1      42.117  20.868  26.401  1.00  0.00     0.039 A 
ATOM     46  C   UNL A   1      42.537  21.689  25.362  1.00  0.00     0.014 A 
ATOM     47  C   UNL A   1      42.277  21.204  27.752  1.00  0.00     0.014 A 
ATOM     48  C   UNL A   1      43.057  22.925  25.696  1.00  0.00     0.010 A 
ATOM     49  C   UNL A   1      42.709  22.454  28.079  1.00  0.00     0.010 A 
ATOM     50  C   UNL A   1      43.102  23.308  27.049  1.00  0.00    -0.014 A 
BRANCH  50  51
ATOM     51  C   UNL A   1      43.530  24.644  27.439  1.00  0.00     0.031 A 
ATOM     52  C   UNL A   1      42.494  25.651  27.805  1.00  0.00     0.074 A 
ATOM     53  C   UNL A   1      44.838  24.914  27.320  1.00  0.00     0.049 A 
ATOM     54  N   UNL A   1      42.656  26.902  28.130  1.00  0.00    -0.248 NA
ATOM     55  C   UNL A   1      41.085  25.212  27.757  1.00  0.00     0.031 C 
ATOM     56  C   UNL A   1      45.863  23.961  26.869  1.00  0.00     0.029 A 
ATOM     57  N   UNL A   1      45.531  26.057  27.568  1.00  0.00    -0.354 N 
ATOM     58  C   UNL A   1      41.376  27.398  28.323  1.00  0.00     0.074 A 
ATOM     59  C   UNL A   1      40.443  26.343  28.006  1.00  0.00     0.031 C 
ATOM     60  C   UNL A   1      47.064  24.549  26.933  1.00  0.00     0.029 A 
ATOM     61  C   UNL A   1      46.883  25.921  27.383  1.00  0.00     0.049 A 
ATOM     62  H   UNL A   1      45.105  26.899  27.851  1.00  0.00     0.167 HD
ATOM     63  C   UNL A   1      41.029  28.630  28.757  1.00  0.00     0.031 A 
ATOM     64  C   UNL A   1      47.858  26.823  27.578  1.00  0.00     0.031 A 
ATOM     65  C   UNL A   1      42.006  29.642  29.052  1.00  0.00     0.049 A 
ATOM     66  C   UNL A   1      47.443  28.172  28.086  1.00  0.00     0.074 A 
ATOM     67  C   UNL A   1      41.813  30.919  29.539  1.00  0.00     0.029 A 
ATOM     68  N   UNL A   1      43.376  29.473  28.882  1.00  0.00    -0.354 N 
ATOM     69  N   UNL A   1      46.236  28.620  28.346  1.00  0.00    -0.248 NA
ATOM     70  C   UNL A   1      48.519  29.128  28.350  1.00  0.00     0.031 C 
ATOM     71  C   UNL A   1      43.064  31.540  29.614  1.00  0.00     0.029 A 
ATOM     72  C   UNL A   1      44.043  30.629  29.237  1.00  0.00     0.049 A 
ATOM     73  H   UNL A   1      43.807  28.651  28.556  1.00  0.00     0.167 HD
ATOM     74  C   UNL A   1      46.405  29.908  28.829  1.00  0.00     0.074 A 
ATOM     75  C   UNL A   1      47.837  30.151  28.847  1.00  0.00     0.031 C 
ATOM     76  C   UNL A   1      45.474  30.813  29.221  1.00  0.00     0.031 A 
BRANCH  63  77
ATOM     77  C   UNL A   1      39.564  28.921  28.914  1.00  0.00    -0.014 A 
ATOM     78  C   UNL A   1      38.896  28.678  30.128  1.00  0.00     0.009 A 
ATOM     79  C   UNL A   1      38.832  29.435  27.835  1.00  0.00     0.009 A 
ATOM     80  C   UNL A   1      37.523  28.903  30.242  1.00  0.00     0.001 A 
ATOM     81  C   UNL A   1      37.465  29.690  27.961  1.00  0.00     0.001 A 
ATOM     82  C   UNL A   1      36.809  29.414  29.160  1.00  0.00     0.000 A 
ENDBRANCH  63  77
BRANCH  64  83
ATOM     83  C   UNL A   1      49.274  26.453  27.342  1.00  0.00    -0.014 A 
ATOM     84  C   UNL A   1      49.857  26.628  26.078  1.00  0.00     0.009 A 
ATOM     85  C   UNL A   1      50.067  25.959  28.391  1.00  0.00     0.009 A 
ATOM     86  C   UNL A   1      51.193  26.280  25.860  1.00  0.00     0.001 A 
ATOM     87  C   UNL A   1      51.411  25.643  28.178  1.00  0.00     0.001 A 
ATOM     88  C   UNL A   1      51.969  25.792  26.910  1.00  0.00     0.000 A 
ENDBRANCH  64  83
BRANCH  76  89
ATOM     89  C   UNL A   1      45.999  32.126  29.721  1.00  0.00    -0.014 A 
ATOM     90  C   UNL A   1      46.185  33.213  28.854  1.00  0.00     0.009 A 
ATOM     91  C   UNL A   1      46.286  32.276  31.086  1.00  0.00     0.009 A 
ATOM     92  C   UNL A   1      46.695  34.416  29.340  1.00  0.00     0.001 A 
ATOM     93  C   UNL A   1      46.759  33.493  31.574  1.00  0.00     0.001 A 
ATOM     94  C   UNL A   1      46.976  34.555  30.699  1.00  0.00     0.000 A 
ENDBRANCH  76  89
ENDBRANCH  50  51
ENDBRANCH  42  45
ENDBRANCH  40  41
ENDBRANCH  39  40
ENDBRANCH   1  39
TORSDOF 17
ENDMDL
MODEL 3
REMARK VINA RESULT:     -11.9      4.265      5.986
REMARK SMILES N#CCC[NH+]1CCN(c2cc(C(=O)NCCCNC(=O)c3ccc(-c4c5nc(c(-c6ccccc6)c6ccc([nH]6)c(-c6ccccc6)c6nc(c(-c7ccccc7)c7ccc4[nH]7)C=C6)C=C5)cc3)c3cc(NS(=O)(=O)c4ccccc4Cl)ccc3n2)CC1
REMARK SMILES IDX 15 1 14 2 12 3 13 4 11 6 9 7 10 8 86 9 85 10 69 11 84 12
REMARK SMILES IDX 70 13 83 14 71 15 8 16 5 17 6 18 88 19 7 21 87 22 4 23 3 24
REMARK SMILES IDX 2 25 1 26 72 27 73 29 74 30 75 31 76 32 77 33 81 34 78 35
REMARK SMILES IDX 80 36 82 37 79 38 16 39 17 40 18 41 19 42 20 44 21 45 22 46
REMARK SMILES IDX 68 47 23 48 67 49 24 50 25 51 26 52 61 53 27 54 66 55 60 56
REMARK SMILES IDX 62 57 28 58 65 59 59 60 58 61 29 63 51 64 36 65 50 66 37 67
REMARK SMILES IDX 40 68 49 69 63 70 38 71 39 72 48 74 64 75 41 76 30 77 31 78
REMARK SMILES IDX 35 79 32 80 34 81 33 82 52 83 53 84 57 85 54 86 56 87 55 88
REMARK SMILES IDX 42 89 43 90 47 91 44 92 46 93 45 94
REMARK H PARENT 14 5 5 20 72 28 18 43 62 62 40 73
REMARK Flexibility Score: inf
ROOT
ATOM      1  C   UNL A   1      37.657  21.810  25.223  1.00  0.00     0.118 C 
ENDROOT
BRANCH   1   2
ATOM      2  N   UNL A   1      37.253  22.555  24.094  1.00  0.00    -0.352 N 
ATOM      3  C   UNL A   1      35.998  22.970  23.835  1.00  0.00     0.252 C 
ATOM      4  O   UNL A   1      35.895  23.739  22.876  1.00  0.00    -0.269 OA
ATOM      5  H   UNL A   1      37.949  22.793  23.441  1.00  0.00     0.163 HD
BRANCH   3   6
ATOM      6  C   UNL A   1      34.862  22.714  24.780  1.00  0.00     0.052 A 
ATOM      7  C   UNL A   1      33.280  20.988  25.143  1.00  0.00     0.130 A 
ATOM      8  C   UNL A   1      34.388  21.464  24.510  1.00  0.00     0.061 A 
ATOM      9  N   UNL A   1      32.476  21.799  25.866  1.00  0.00    -0.231 NA
ATOM     10  C   UNL A   1      32.828  23.104  26.015  1.00  0.00     0.074 A 
ATOM     11  C   UNL A   1      34.072  23.569  25.612  1.00  0.00     0.015 A 
ATOM     12  C   UNL A   1      31.956  24.093  26.493  1.00  0.00     0.031 A 
ATOM     13  C   UNL A   1      34.353  24.915  25.976  1.00  0.00     0.038 A 
ATOM     14  C   UNL A   1      32.207  25.486  26.253  1.00  0.00     0.029 A 
ATOM     15  C   UNL A   1      33.422  25.933  25.722  1.00  0.00     0.050 A 
BRANCH   7  16
ATOM     16  N   UNL A   1      33.058  19.650  24.932  1.00  0.00    -0.345 N 
ATOM     17  N   UNL A   1      33.653  17.378  23.344  1.00  0.00    -0.331 N 
ATOM     18  C   UNL A   1      32.955  18.519  22.753  1.00  0.00     0.284 C 
ATOM     19  C   UNL A   1      34.595  17.851  24.398  1.00  0.00     0.284 C 
ATOM     20  H   UNL A   1      34.199  16.903  22.626  1.00  0.00     0.348 HD
ATOM     21  C   UNL A   1      32.167  19.281  23.814  1.00  0.00     0.179 C 
ATOM     22  C   UNL A   1      33.920  18.649  25.519  1.00  0.00     0.179 C 
BRANCH  17  23
ATOM     23  C   UNL A   1      32.684  16.412  23.877  1.00  0.00     0.277 C 
BRANCH  23  24
ATOM     24  C   UNL A   1      33.470  15.524  24.781  1.00  0.00     0.181 C 
BRANCH  24  25
ATOM     25  C   UNL A   1      32.570  15.062  25.915  1.00  0.00     0.068 C 
ATOM     26  N   UNL A   1      31.823  14.678  26.856  1.00  0.00    -0.198 NA
ENDBRANCH  24  25
ENDBRANCH  23  24
ENDBRANCH  17  23
ENDBRANCH   7  16
BRANCH  15  27
ATOM     27  N   UNL A   1      33.243  26.727  24.333  1.00  0.00    -0.280 N 
ATOM     28  H   UNL A   1      33.644  26.201  23.604  1.00  0.00     0.180 HD
BRANCH  27  29
ATOM     29  S   UNL A   1      32.517  28.340  23.622  1.00  0.00     0.263 S 
ATOM     30  O   UNL A   1      32.877  29.212  24.738  1.00  0.00    -0.201 OA
ATOM     31  O   UNL A   1      33.205  28.516  22.371  1.00  0.00    -0.201 OA
BRANCH  29  32
ATOM     32  C   UNL A   1      30.434  28.787  23.438  1.00  0.00     0.106 A 
ATOM     33  C   UNL A   1      29.800  30.110  23.459  1.00  0.00     0.024 A 
ATOM     34  C   UNL A   1      29.478  27.791  23.348  1.00  0.00     0.061 A 
ATOM     35  C   UNL A   1      28.480  30.474  23.187  1.00  0.00     0.002 A 
ATOM     36  C   UNL A   1      28.094  28.150  23.114  1.00  0.00     0.022 A 
ATOM     37  Cl  UNL A   1      29.759  26.133  23.661  1.00  0.00    -0.083 Cl
ATOM     38  C   UNL A   1      27.609  29.462  22.974  1.00  0.00     0.002 A 
ENDBRANCH  29  32
ENDBRANCH  27  29
ENDBRANCH  15  27
ENDBRANCH   3   6
ENDBRANCH   1   2
BRANCH   1  39
ATOM     39  C   UNL A   1      38.931  22.399  26.125  1.00  0.00     0.042 C 
BRANCH  39  40
ATOM     40  C   UNL A   1      39.401  23.865  26.607  1.00  0.00     0.118 C 
BRANCH  40  41
ATOM     41  N   UNL A   1      40.553  24.554  25.988  1.00  0.00    -0.352 N 
ATOM     42  C   UNL A   1      40.861  25.875  25.837  1.00  0.00     0.251 C 
ATOM     43  H   UNL A   1      41.228  23.943  25.613  1.00  0.00     0.163 HD
ATOM     44  O   UNL A   1      41.621  26.283  24.957  1.00  0.00    -0.269 OA
BRANCH  42  45
ATOM     45  C   UNL A   1      40.597  26.705  26.991  1.00  0.00     0.039 A 
ATOM     46  C   UNL A   1      39.720  26.300  27.989  1.00  0.00     0.014 A 
ATOM     47  C   UNL A   1      41.202  27.969  26.973  1.00  0.00     0.014 A 
ATOM     48  C   UNL A   1      39.513  27.165  29.047  1.00  0.00     0.010 A 
ATOM     49  C   UNL A   1      41.067  28.786  28.055  1.00  0.00     0.010 A 
ATOM     50  C   UNL A   1      40.218  28.382  29.086  1.00  0.00    -0.014 A 
BRANCH  50  51
ATOM     51  C   UNL A   1      40.125  29.269  30.236  1.00  0.00     0.031 A 
ATOM     52  C   UNL A   1      41.031  29.039  31.397  1.00  0.00     0.074 A 
ATOM     53  C   UNL A   1      39.130  30.168  30.221  1.00  0.00     0.049 A 
ATOM     54  N   UNL A   1      41.076  29.676  32.532  1.00  0.00    -0.248 NA
ATOM     55  C   UNL A   1      41.984  27.915  31.291  1.00  0.00     0.031 C 
ATOM     56  C   UNL A   1      38.166  30.347  29.126  1.00  0.00     0.029 A 
ATOM     57  N   UNL A   1      38.764  31.099  31.143  1.00  0.00    -0.354 N 
ATOM     58  C   UNL A   1      42.056  29.034  33.273  1.00  0.00     0.074 A 
ATOM     59  C   UNL A   1      42.528  27.911  32.498  1.00  0.00     0.031 C 
ATOM     60  C   UNL A   1      37.356  31.373  29.420  1.00  0.00     0.029 A 
ATOM     61  C   UNL A   1      37.718  31.884  30.734  1.00  0.00     0.049 A 
ATOM     62  H   UNL A   1      39.206  31.197  32.018  1.00  0.00     0.167 HD
ATOM     63  C   UNL A   1      42.528  29.385  34.489  1.00  0.00     0.031 A 
ATOM     64  C   UNL A   1      37.138  32.916  31.366  1.00  0.00     0.031 A 
ATOM     65  C   UNL A   1      42.012  30.512  35.216  1.00  0.00     0.049 A 
ATOM     66  C   UNL A   1      37.703  33.299  32.701  1.00  0.00     0.074 A 
ATOM     67  C   UNL A   1      42.415  31.017  36.435  1.00  0.00     0.029 A 
ATOM     68  N   UNL A   1      40.967  31.313  34.769  1.00  0.00    -0.354 N 
ATOM     69  N   UNL A   1      38.685  32.741  33.372  1.00  0.00    -0.248 NA
ATOM     70  C   UNL A   1      37.100  34.461  33.356  1.00  0.00     0.031 C 
ATOM     71  C   UNL A   1      41.577  32.093  36.749  1.00  0.00     0.029 A 
ATOM     72  C   UNL A   1      40.696  32.300  35.696  1.00  0.00     0.049 A 
ATOM     73  H   UNL A   1      40.489  31.194  33.916  1.00  0.00     0.167 HD
ATOM     74  C   UNL A   1      38.838  33.498  34.522  1.00  0.00     0.074 A 
ATOM     75  C   UNL A   1      37.860  34.569  34.437  1.00  0.00     0.031 C 
ATOM     76  C   UNL A   1      39.698  33.333  35.557  1.00  0.00     0.031 A 
BRANCH  63  77
ATOM     77  C   UNL A   1      43.621  28.539  35.078  1.00  0.00    -0.014 A 
ATOM     78  C   UNL A   1      44.974  28.785  34.784  1.00  0.00     0.009 A 
ATOM     79  C   UNL A   1      43.300  27.473  35.929  1.00  0.00     0.009 A 
ATOM     80  C   UNL A   1      45.975  27.956  35.296  1.00  0.00     0.001 A 
ATOM     81  C   UNL A   1      44.305  26.665  36.466  1.00  0.00     0.001 A 
ATOM     82  C   UNL A   1      45.640  26.901  36.141  1.00  0.00     0.000 A 
ENDBRANCH  63  77
BRANCH  64  83
ATOM     83  C   UNL A   1      36.026  33.656  30.721  1.00  0.00    -0.014 A 
ATOM     84  C   UNL A   1      36.103  34.024  29.370  1.00  0.00     0.009 A 
ATOM     85  C   UNL A   1      34.860  33.965  31.441  1.00  0.00     0.009 A 
ATOM     86  C   UNL A   1      35.052  34.719  28.764  1.00  0.00     0.001 A 
ATOM     87  C   UNL A   1      33.799  34.630  30.825  1.00  0.00     0.001 A 
ATOM     88  C   UNL A   1      33.901  35.018  29.490  1.00  0.00     0.000 A 
ENDBRANCH  64  83
BRANCH  76  89
ATOM     89  C   UNL A   1      39.620  34.357  36.651  1.00  0.00    -0.014 A 
ATOM     90  C   UNL A   1      40.262  35.599  36.532  1.00  0.00     0.009 A 
ATOM     91  C   UNL A   1      38.870  34.076  37.803  1.00  0.00     0.009 A 
ATOM     92  C   UNL A   1      40.192  36.524  37.572  1.00  0.00     0.001 A 
ATOM     93  C   UNL A   1      38.770  35.021  38.823  1.00  0.00     0.001 A 
ATOM     94  C   UNL A   1      39.442  36.236  38.712  1.00  0.00     0.000 A 
ENDBRANCH  76  89
ENDBRANCH  50  51
ENDBRANCH  42  45
ENDBRANCH  40  41
ENDBRANCH  39  40
ENDBRANCH   1  39
TORSDOF 17
ENDMDL
