MODEL 1
REMARK VINA RESULT:     -12.0      0.000      0.000
REMARK SMILES O=C(NCCCNC(=O)c1cc(=O)[nH]c2ccc(C(F)(F)F)cc12)c1ccc(-c2c3nc(c(-c4ccccc4)c4ccc([nH]4)c(-c4ccccc4)c4nc(c(-c5ccccc5)c5ccc2[nH]5)C=C4)C=C3)cc1
REMARK SMILES IDX 4 1 3 2 1 3 2 4 25 6 26 7 72 8 27 9 71 10 28 11 29 12 30 13
REMARK SMILES IDX 65 14 31 15 70 16 64 17 66 18 32 19 69 20 63 21 62 22 33 24
REMARK SMILES IDX 55 25 40 26 54 27 41 28 44 29 53 30 67 31 42 32 43 33 52 35
REMARK SMILES IDX 68 36 45 37 34 38 35 39 39 40 36 41 38 42 37 43 56 44 57 45
REMARK SMILES IDX 61 46 58 47 60 48 59 49 46 50 47 51 51 52 48 53 50 54 49 55
REMARK SMILES IDX 5 56 6 57 7 58 8 59 9 61 10 62 11 63 24 64 12 65 15 66 23 67
REMARK SMILES IDX 13 68 14 69 16 70 18 71 17 73 19 74 20 75 21 76 22 77
REMARK H PARENT 3 5 66 23 44 34 7 60 14 72
REMARK Flexibility Score: inf
ROOT
ATOM      1  C   UNL A   1      38.785  20.123  26.037  1.00  0.00     0.118 C 
ENDROOT
BRANCH   1   2
ATOM      2  N   UNL A   1      39.958  19.273  25.897  1.00  0.00    -0.352 N 
ATOM      3  O   UNL A   1      42.132  18.737  25.696  1.00  0.00    -0.269 OA
ATOM      4  C   UNL A   1      41.292  19.565  26.034  1.00  0.00     0.251 C 
ATOM      5  H   UNL A   1      39.762  18.335  25.667  1.00  0.00     0.163 HD
BRANCH   4   6
ATOM      6  C   UNL A   1      41.728  20.876  26.562  1.00  0.00     0.039 A 
ATOM      7  C   UNL A   1      41.939  21.074  27.928  1.00  0.00     0.014 A 
ATOM      8  C   UNL A   1      41.977  21.913  25.658  1.00  0.00     0.014 A 
ATOM      9  C   UNL A   1      42.260  22.342  28.406  1.00  0.00     0.010 A 
ATOM     10  C   UNL A   1      42.383  23.162  26.131  1.00  0.00     0.010 A 
ATOM     11  C   UNL A   1      42.501  23.394  27.511  1.00  0.00    -0.014 A 
BRANCH  11  12
ATOM     12  C   UNL A   1      42.929  24.723  28.011  1.00  0.00     0.031 A 
ATOM     13  C   UNL A   1      41.916  25.779  28.348  1.00  0.00     0.074 A 
ATOM     14  C   UNL A   1      44.243  24.991  28.118  1.00  0.00     0.049 A 
ATOM     15  N   UNL A   1      42.109  27.025  28.701  1.00  0.00    -0.248 NA
ATOM     16  C   UNL A   1      40.501  25.388  28.264  1.00  0.00     0.031 C 
ATOM     17  C   UNL A   1      45.323  24.046  27.826  1.00  0.00     0.029 A 
ATOM     18  N   UNL A   1      44.894  26.141  28.485  1.00  0.00    -0.354 N 
ATOM     19  C   UNL A   1      40.843  27.575  28.854  1.00  0.00     0.074 A 
ATOM     20  C   UNL A   1      39.890  26.533  28.532  1.00  0.00     0.031 C 
ATOM     21  C   UNL A   1      46.501  24.652  28.031  1.00  0.00     0.029 A 
ATOM     22  C   UNL A   1      46.261  26.042  28.400  1.00  0.00     0.049 A 
ATOM     23  H   UNL A   1      44.429  26.957  28.780  1.00  0.00     0.167 HD
ATOM     24  C   UNL A   1      40.507  28.834  29.227  1.00  0.00     0.031 A 
ATOM     25  C   UNL A   1      47.219  26.974  28.558  1.00  0.00     0.031 A 
ATOM     26  C   UNL A   1      41.463  29.869  29.526  1.00  0.00     0.049 A 
ATOM     27  C   UNL A   1      46.827  28.378  28.911  1.00  0.00     0.074 A 
ATOM     28  C   UNL A   1      41.225  31.165  29.948  1.00  0.00     0.029 A 
ATOM     29  N   UNL A   1      42.838  29.730  29.419  1.00  0.00    -0.354 N 
ATOM     30  N   UNL A   1      45.627  28.874  29.095  1.00  0.00    -0.248 NA
ATOM     31  C   UNL A   1      47.916  29.348  29.087  1.00  0.00     0.031 C 
ATOM     32  C   UNL A   1      42.453  31.830  30.028  1.00  0.00     0.029 A 
ATOM     33  C   UNL A   1      43.461  30.926  29.731  1.00  0.00     0.049 A 
ATOM     34  H   UNL A   1      43.304  28.902  29.159  1.00  0.00     0.167 HD
ATOM     35  C   UNL A   1      45.817  30.207  29.435  1.00  0.00     0.074 A 
ATOM     36  C   UNL A   1      47.247  30.439  29.436  1.00  0.00     0.031 C 
ATOM     37  C   UNL A   1      44.886  31.147  29.730  1.00  0.00     0.031 A 
BRANCH  24  38
ATOM     38  C   UNL A   1      39.041  29.172  29.273  1.00  0.00    -0.014 A 
ATOM     39  C   UNL A   1      38.276  28.986  30.436  1.00  0.00     0.009 A 
ATOM     40  C   UNL A   1      38.414  29.695  28.130  1.00  0.00     0.009 A 
ATOM     41  C   UNL A   1      36.905  29.263  30.435  1.00  0.00     0.001 A 
ATOM     42  C   UNL A   1      37.053  30.004  28.142  1.00  0.00     0.001 A 
ATOM     43  C   UNL A   1      36.297  29.773  29.289  1.00  0.00     0.000 A 
ENDBRANCH  24  38
BRANCH  25  44
ATOM     44  C   UNL A   1      48.640  26.592  28.351  1.00  0.00    -0.014 A 
ATOM     45  C   UNL A   1      49.418  26.122  29.419  1.00  0.00     0.009 A 
ATOM     46  C   UNL A   1      49.206  26.638  27.066  1.00  0.00     0.009 A 
ATOM     47  C   UNL A   1      50.736  25.714  29.205  1.00  0.00     0.001 A 
ATOM     48  C   UNL A   1      50.513  26.200  26.849  1.00  0.00     0.001 A 
ATOM     49  C   UNL A   1      51.280  25.745  27.920  1.00  0.00     0.000 A 
ENDBRANCH  25  44
BRANCH  37  50
ATOM     50  C   UNL A   1      45.376  32.510  30.132  1.00  0.00    -0.014 A 
ATOM     51  C   UNL A   1      45.698  32.814  31.463  1.00  0.00     0.009 A 
ATOM     52  C   UNL A   1      45.596  33.480  29.140  1.00  0.00     0.009 A 
ATOM     53  C   UNL A   1      46.217  34.068  31.794  1.00  0.00     0.001 A 
ATOM     54  C   UNL A   1      46.142  34.721  29.468  1.00  0.00     0.001 A 
ATOM     55  C   UNL A   1      46.447  35.016  30.796  1.00  0.00     0.000 A 
ENDBRANCH  37  50
ENDBRANCH  11  12
ENDBRANCH   4   6
ENDBRANCH   1   2
BRANCH   1  56
ATOM     56  C   UNL A   1      37.888  20.103  24.805  1.00  0.00     0.042 C 
BRANCH  56  57
ATOM     57  C   UNL A   1      36.793  21.163  24.806  1.00  0.00     0.118 C 
BRANCH  57  58
ATOM     58  N   UNL A   1      36.075  21.225  26.072  1.00  0.00    -0.352 N 
ATOM     59  C   UNL A   1      34.757  21.445  26.346  1.00  0.00     0.252 C 
ATOM     60  H   UNL A   1      36.638  21.083  26.867  1.00  0.00     0.163 HD
ATOM     61  O   UNL A   1      34.406  21.550  27.518  1.00  0.00    -0.269 OA
BRANCH  59  62
ATOM     62  C   UNL A   1      33.775  21.576  25.237  1.00  0.00     0.054 A 
ATOM     63  C   UNL A   1      33.405  22.823  24.903  1.00  0.00     0.086 A 
ATOM     64  C   UNL A   1      33.332  20.437  24.405  1.00  0.00     0.012 A 
ATOM     65  C   UNL A   1      32.431  23.081  23.826  1.00  0.00     0.249 A 
ATOM     66  C   UNL A   1      32.453  20.693  23.340  1.00  0.00     0.049 A 
ATOM     67  C   UNL A   1      33.757  19.116  24.611  1.00  0.00     0.024 A 
ATOM     68  O   UNL A   1      32.023  24.214  23.614  1.00  0.00    -0.270 OA
ATOM     69  N   UNL A   1      32.015  22.000  23.104  1.00  0.00    -0.322 N 
ATOM     70  C   UNL A   1      32.014  19.670  22.501  1.00  0.00     0.027 A 
ATOM     71  C   UNL A   1      33.338  18.074  23.763  1.00  0.00     0.056 A 
ATOM     72  H   UNL A   1      31.369  22.149  22.375  1.00  0.00     0.170 HD
ATOM     73  C   UNL A   1      32.460  18.365  22.707  1.00  0.00     0.015 A 
BRANCH  71  74
ATOM     74  C   UNL A   1      33.840  16.667  23.991  1.00  0.00     0.416 C 
ATOM     75  F   UNL A   1      34.362  16.108  22.865  1.00  0.00    -0.166 F 
ATOM     76  F   UNL A   1      34.824  16.615  24.931  1.00  0.00    -0.166 F 
ATOM     77  F   UNL A   1      32.872  15.809  24.419  1.00  0.00    -0.166 F 
ENDBRANCH  71  74
ENDBRANCH  59  62
ENDBRANCH  57  58
ENDBRANCH  56  57
ENDBRANCH   1  56
TORSDOF 11
ENDMDL
MODEL 2
REMARK VINA RESULT:     -12.0      4.495      8.473
REMARK SMILES O=C(NCCCNC(=O)c1cc(=O)[nH]c2ccc(C(F)(F)F)cc12)c1ccc(-c2c3nc(c(-c4ccccc4)c4ccc([nH]4)c(-c4ccccc4)c4nc(c(-c5ccccc5)c5ccc2[nH]5)C=C4)C=C3)cc1
REMARK SMILES IDX 4 1 3 2 1 3 2 4 25 6 26 7 72 8 27 9 71 10 28 11 29 12 30 13
REMARK SMILES IDX 65 14 31 15 70 16 64 17 66 18 32 19 69 20 63 21 62 22 33 24
REMARK SMILES IDX 55 25 40 26 54 27 41 28 44 29 53 30 67 31 42 32 43 33 52 35
REMARK SMILES IDX 68 36 45 37 34 38 35 39 39 40 36 41 38 42 37 43 56 44 57 45
REMARK SMILES IDX 61 46 58 47 60 48 59 49 46 50 47 51 51 52 48 53 50 54 49 55
REMARK SMILES IDX 5 56 6 57 7 58 8 59 9 61 10 62 11 63 24 64 12 65 15 66 23 67
REMARK SMILES IDX 13 68 14 69 16 70 18 71 17 73 19 74 20 75 21 76 22 77
REMARK H PARENT 3 5 66 23 44 34 7 60 14 72
REMARK Flexibility Score: inf
ROOT
ATOM      1  C   UNL A   1      33.648  28.524  27.272  1.00  0.00     0.118 C 
ENDROOT
BRANCH   1   2
ATOM      2  N   UNL A   1      33.651  29.955  27.530  1.00  0.00    -0.352 N 
ATOM      3  O   UNL A   1      34.337  31.918  28.387  1.00  0.00    -0.269 OA
ATOM      4  C   UNL A   1      34.610  30.756  28.097  1.00  0.00     0.251 C 
ATOM      5  H   UNL A   1      32.831  30.426  27.253  1.00  0.00     0.163 HD
BRANCH   4   6
ATOM      6  C   UNL A   1      35.962  30.229  28.386  1.00  0.00     0.039 A 
ATOM      7  C   UNL A   1      36.276  29.679  29.630  1.00  0.00     0.014 A 
ATOM      8  C   UNL A   1      36.918  30.246  27.367  1.00  0.00     0.014 A 
ATOM      9  C   UNL A   1      37.580  29.275  29.903  1.00  0.00     0.010 A 
ATOM     10  C   UNL A   1      38.204  29.760  27.614  1.00  0.00     0.010 A 
ATOM     11  C   UNL A   1      38.552  29.297  28.893  1.00  0.00    -0.014 A 
BRANCH  11  12
ATOM     12  C   UNL A   1      39.920  28.786  29.155  1.00  0.00     0.031 A 
ATOM     13  C   UNL A   1      40.978  29.684  29.728  1.00  0.00     0.074 A 
ATOM     14  C   UNL A   1      40.217  27.514  28.832  1.00  0.00     0.049 A 
ATOM     15  N   UNL A   1      42.248  29.438  29.929  1.00  0.00    -0.248 NA
ATOM     16  C   UNL A   1      40.557  31.039  30.114  1.00  0.00     0.031 C 
ATOM     17  C   UNL A   1      39.274  26.543  28.274  1.00  0.00     0.029 A 
ATOM     18  N   UNL A   1      41.401  26.825  28.909  1.00  0.00    -0.354 N 
ATOM     19  C   UNL A   1      42.785  30.614  30.437  1.00  0.00     0.074 A 
ATOM     20  C   UNL A   1      41.707  31.579  30.490  1.00  0.00     0.031 C 
ATOM     21  C   UNL A   1      39.913  25.383  28.065  1.00  0.00     0.029 A 
ATOM     22  C   UNL A   1      41.321  25.550  28.408  1.00  0.00     0.049 A 
ATOM     23  H   UNL A   1      42.226  27.207  29.285  1.00  0.00     0.167 HD
ATOM     24  C   UNL A   1      44.060  30.866  30.820  1.00  0.00     0.031 A 
ATOM     25  C   UNL A   1      42.278  24.626  28.203  1.00  0.00     0.031 A 
ATOM     26  C   UNL A   1      45.130  29.904  30.745  1.00  0.00     0.049 A 
ATOM     27  C   UNL A   1      43.695  24.942  28.578  1.00  0.00     0.074 A 
ATOM     28  C   UNL A   1      46.448  30.049  31.143  1.00  0.00     0.029 A 
ATOM     29  N   UNL A   1      45.008  28.626  30.223  1.00  0.00    -0.354 N 
ATOM     30  N   UNL A   1      44.182  26.044  29.096  1.00  0.00    -0.248 NA
ATOM     31  C   UNL A   1      44.694  23.890  28.348  1.00  0.00     0.031 C 
ATOM     32  C   UNL A   1      47.138  28.883  30.796  1.00  0.00     0.029 A 
ATOM     33  C   UNL A   1      46.234  27.983  30.254  1.00  0.00     0.049 A 
ATOM     34  H   UNL A   1      44.173  28.232  29.880  1.00  0.00     0.167 HD
ATOM     35  C   UNL A   1      45.538  25.809  29.281  1.00  0.00     0.074 A 
ATOM     36  C   UNL A   1      45.794  24.459  28.822  1.00  0.00     0.031 C 
ATOM     37  C   UNL A   1      46.479  26.637  29.796  1.00  0.00     0.031 A 
BRANCH  24  38
ATOM     38  C   UNL A   1      44.375  32.257  31.301  1.00  0.00    -0.014 A 
ATOM     39  C   UNL A   1      44.775  33.272  30.417  1.00  0.00     0.009 A 
ATOM     40  C   UNL A   1      44.263  32.560  32.668  1.00  0.00     0.009 A 
ATOM     41  C   UNL A   1      45.110  34.541  30.899  1.00  0.00     0.001 A 
ATOM     42  C   UNL A   1      44.563  33.837  33.142  1.00  0.00     0.001 A 
ATOM     43  C   UNL A   1      45.002  34.822  32.260  1.00  0.00     0.000 A 
ENDBRANCH  24  38
BRANCH  25  44
ATOM     44  C   UNL A   1      41.907  23.326  27.587  1.00  0.00    -0.014 A 
ATOM     45  C   UNL A   1      42.118  23.095  26.220  1.00  0.00     0.009 A 
ATOM     46  C   UNL A   1      41.396  22.286  28.382  1.00  0.00     0.009 A 
ATOM     47  C   UNL A   1      41.816  21.851  25.661  1.00  0.00     0.001 A 
ATOM     48  C   UNL A   1      41.125  21.035  27.827  1.00  0.00     0.001 A 
ATOM     49  C   UNL A   1      41.329  20.820  26.465  1.00  0.00     0.000 A 
ENDBRANCH  25  44
BRANCH  37  50
ATOM     50  C   UNL A   1      47.874  26.099  29.943  1.00  0.00    -0.014 A 
ATOM     51  C   UNL A   1      48.784  26.108  28.875  1.00  0.00     0.009 A 
ATOM     52  C   UNL A   1      48.308  25.652  31.203  1.00  0.00     0.009 A 
ATOM     53  C   UNL A   1      50.095  25.665  29.063  1.00  0.00     0.001 A 
ATOM     54  C   UNL A   1      49.627  25.238  31.394  1.00  0.00     0.001 A 
ATOM     55  C   UNL A   1      50.518  25.241  30.323  1.00  0.00     0.000 A 
ENDBRANCH  37  50
ENDBRANCH  11  12
ENDBRANCH   4   6
ENDBRANCH   1   2
BRANCH   1  56
ATOM     56  C   UNL A   1      34.074  28.176  25.850  1.00  0.00     0.042 C 
BRANCH  56  57
ATOM     57  C   UNL A   1      33.318  28.929  24.763  1.00  0.00     0.118 C 
BRANCH  57  58
ATOM     58  N   UNL A   1      33.627  28.441  23.426  1.00  0.00    -0.352 N 
ATOM     59  C   UNL A   1      33.101  27.411  22.703  1.00  0.00     0.252 C 
ATOM     60  H   UNL A   1      34.338  28.941  22.964  1.00  0.00     0.163 HD
ATOM     61  O   UNL A   1      33.605  27.130  21.619  1.00  0.00    -0.269 OA
BRANCH  59  62
ATOM     62  C   UNL A   1      31.951  26.634  23.238  1.00  0.00     0.054 A 
ATOM     63  C   UNL A   1      32.243  25.493  23.885  1.00  0.00     0.086 A 
ATOM     64  C   UNL A   1      30.560  27.133  23.234  1.00  0.00     0.012 A 
ATOM     65  C   UNL A   1      31.189  24.631  24.451  1.00  0.00     0.249 A 
ATOM     66  C   UNL A   1      29.567  26.340  23.830  1.00  0.00     0.049 A 
ATOM     67  C   UNL A   1      30.182  28.366  22.682  1.00  0.00     0.024 A 
ATOM     68  O   UNL A   1      31.467  23.543  24.935  1.00  0.00    -0.270 OA
ATOM     69  N   UNL A   1      29.911  25.107  24.395  1.00  0.00    -0.322 N 
ATOM     70  C   UNL A   1      28.238  26.760  23.883  1.00  0.00     0.027 A 
ATOM     71  C   UNL A   1      28.848  28.814  22.742  1.00  0.00     0.056 A 
ATOM     72  H   UNL A   1      29.191  24.552  24.773  1.00  0.00     0.170 HD
ATOM     73  C   UNL A   1      27.881  27.997  23.346  1.00  0.00     0.015 A 
BRANCH  71  74
ATOM     74  C   UNL A   1      28.479  30.163  22.168  1.00  0.00     0.416 C 
ATOM     75  F   UNL A   1      28.026  30.081  20.888  1.00  0.00    -0.166 F 
ATOM     76  F   UNL A   1      27.492  30.775  22.880  1.00  0.00    -0.166 F 
ATOM     77  F   UNL A   1      29.519  31.043  22.141  1.00  0.00    -0.166 F 
ENDBRANCH  71  74
ENDBRANCH  59  62
ENDBRANCH  57  58
ENDBRANCH  56  57
ENDBRANCH   1  56
TORSDOF 11
ENDMDL
MODEL 3
REMARK VINA RESULT:     -11.9      6.140     10.386
REMARK SMILES O=C(NCCCNC(=O)c1cc(=O)[nH]c2ccc(C(F)(F)F)cc12)c1ccc(-c2c3nc(c(-c4ccccc4)c4ccc([nH]4)c(-c4ccccc4)c4nc(c(-c5ccccc5)c5ccc2[nH]5)C=C4)C=C3)cc1
REMARK SMILES IDX 4 1 3 2 1 3 2 4 25 6 26 7 72 8 27 9 71 10 28 11 29 12 30 13
REMARK SMILES IDX 65 14 31 15 70 16 64 17 66 18 32 19 69 20 63 21 62 22 33 24
REMARK SMILES IDX 55 25 40 26 54 27 41 28 44 29 53 30 67 31 42 32 43 33 52 35
REMARK SMILES IDX 68 36 45 37 34 38 35 39 39 40 36 41 38 42 37 43 56 44 57 45
REMARK SMILES IDX 61 46 58 47 60 48 59 49 46 50 47 51 51 52 48 53 50 54 49 55
REMARK SMILES IDX 5 56 6 57 7 58 8 59 9 61 10 62 11 63 24 64 12 65 15 66 23 67
REMARK SMILES IDX 13 68 14 69 16 70 18 71 17 73 19 74 20 75 21 76 22 77
REMARK H PARENT 3 5 66 23 44 34 7 60 14 72
REMARK Flexibility Score: inf
ROOT
ATOM      1  C   UNL A   1      32.686  32.532  26.865  1.00  0.00     0.118 C 
ENDROOT
BRANCH   1   2
ATOM      2  N   UNL A   1      32.414  33.830  27.462  1.00  0.00    -0.352 N 
ATOM      3  O   UNL A   1      32.528  35.500  28.963  1.00  0.00    -0.269 OA
ATOM      4  C   UNL A   1      33.033  34.483  28.498  1.00  0.00     0.251 C 
ATOM      5  H   UNL A   1      31.662  34.321  27.056  1.00  0.00     0.163 HD
BRANCH   4   6
ATOM      6  C   UNL A   1      34.290  33.960  29.077  1.00  0.00     0.039 A 
ATOM      7  C   UNL A   1      35.535  34.404  28.628  1.00  0.00     0.014 A 
ATOM      8  C   UNL A   1      34.213  33.040  30.126  1.00  0.00     0.014 A 
ATOM      9  C   UNL A   1      36.701  33.828  29.126  1.00  0.00     0.010 A 
ATOM     10  C   UNL A   1      35.384  32.525  30.686  1.00  0.00     0.010 A 
ATOM     11  C   UNL A   1      36.637  32.895  30.171  1.00  0.00    -0.014 A 
BRANCH  11  12
ATOM     12  C   UNL A   1      37.880  32.344  30.764  1.00  0.00     0.031 A 
ATOM     13  C   UNL A   1      38.558  31.152  30.154  1.00  0.00     0.074 A 
ATOM     14  C   UNL A   1      38.372  32.900  31.886  1.00  0.00     0.049 A 
ATOM     15  N   UNL A   1      39.591  30.477  30.592  1.00  0.00    -0.248 NA
ATOM     16  C   UNL A   1      37.995  30.643  28.895  1.00  0.00     0.031 C 
ATOM     17  C   UNL A   1      37.806  34.064  32.570  1.00  0.00     0.029 A 
ATOM     18  N   UNL A   1      39.449  32.548  32.659  1.00  0.00    -0.354 N 
ATOM     19  C   UNL A   1      39.785  29.448  29.680  1.00  0.00     0.074 A 
ATOM     20  C   UNL A   1      38.748  29.574  28.678  1.00  0.00     0.031 C 
ATOM     21  C   UNL A   1      38.543  34.335  33.656  1.00  0.00     0.029 A 
ATOM     22  C   UNL A   1      39.588  33.326  33.783  1.00  0.00     0.049 A 
ATOM     23  H   UNL A   1      40.062  31.812  32.432  1.00  0.00     0.167 HD
ATOM     24  C   UNL A   1      40.738  28.485  29.680  1.00  0.00     0.031 A 
ATOM     25  C   UNL A   1      40.433  33.218  34.825  1.00  0.00     0.031 A 
ATOM     26  C   UNL A   1      41.755  28.357  30.692  1.00  0.00     0.049 A 
ATOM     27  C   UNL A   1      41.444  32.110  34.839  1.00  0.00     0.074 A 
ATOM     28  C   UNL A   1      42.788  27.439  30.764  1.00  0.00     0.029 A 
ATOM     29  N   UNL A   1      41.854  29.159  31.819  1.00  0.00    -0.354 N 
ATOM     30  N   UNL A   1      41.643  31.168  33.948  1.00  0.00    -0.248 NA
ATOM     31  C   UNL A   1      42.350  32.052  35.993  1.00  0.00     0.031 C 
ATOM     32  C   UNL A   1      43.470  27.642  31.969  1.00  0.00     0.029 A 
ATOM     33  C   UNL A   1      42.909  28.736  32.610  1.00  0.00     0.049 A 
ATOM     34  H   UNL A   1      41.262  29.919  32.026  1.00  0.00     0.167 HD
ATOM     35  C   UNL A   1      42.715  30.422  34.420  1.00  0.00     0.074 A 
ATOM     36  C   UNL A   1      43.124  31.024  35.673  1.00  0.00     0.031 C 
ATOM     37  C   UNL A   1      43.310  29.343  33.855  1.00  0.00     0.031 A 
BRANCH  24  38
ATOM     38  C   UNL A   1      40.687  27.461  28.577  1.00  0.00    -0.014 A 
ATOM     39  C   UNL A   1      41.387  27.636  27.373  1.00  0.00     0.009 A 
ATOM     40  C   UNL A   1      39.926  26.293  28.751  1.00  0.00     0.009 A 
ATOM     41  C   UNL A   1      41.282  26.692  26.347  1.00  0.00     0.001 A 
ATOM     42  C   UNL A   1      39.851  25.335  27.740  1.00  0.00     0.001 A 
ATOM     43  C   UNL A   1      40.515  25.542  26.533  1.00  0.00     0.000 A 
ENDBRANCH  24  38
BRANCH  25  44
ATOM     44  C   UNL A   1      40.323  34.185  35.947  1.00  0.00    -0.014 A 
ATOM     45  C   UNL A   1      41.037  35.391  35.925  1.00  0.00     0.009 A 
ATOM     46  C   UNL A   1      39.451  33.930  37.019  1.00  0.00     0.009 A 
ATOM     47  C   UNL A   1      40.886  36.319  36.959  1.00  0.00     0.001 A 
ATOM     48  C   UNL A   1      39.278  34.871  38.034  1.00  0.00     0.001 A 
ATOM     49  C   UNL A   1      40.001  36.063  38.007  1.00  0.00     0.000 A 
ENDBRANCH  25  44
BRANCH  37  50
ATOM     50  C   UNL A   1      44.505  28.761  34.556  1.00  0.00    -0.014 A 
ATOM     51  C   UNL A   1      45.802  29.246  34.325  1.00  0.00     0.009 A 
ATOM     52  C   UNL A   1      44.314  27.764  35.526  1.00  0.00     0.009 A 
ATOM     53  C   UNL A   1      46.884  28.732  35.043  1.00  0.00     0.001 A 
ATOM     54  C   UNL A   1      45.393  27.273  36.263  1.00  0.00     0.001 A 
ATOM     55  C   UNL A   1      46.678  27.754  36.017  1.00  0.00     0.000 A 
ENDBRANCH  37  50
ENDBRANCH  11  12
ENDBRANCH   4   6
ENDBRANCH   1   2
BRANCH   1  56
ATOM     56  C   UNL A   1      31.453  31.638  26.798  1.00  0.00     0.042 C 
BRANCH  56  57
ATOM     57  C   UNL A   1      31.751  30.146  26.878  1.00  0.00     0.118 C 
BRANCH  57  58
ATOM     58  N   UNL A   1      32.813  29.738  25.969  1.00  0.00    -0.352 N 
ATOM     59  C   UNL A   1      32.982  28.598  25.240  1.00  0.00     0.252 C 
ATOM     60  H   UNL A   1      33.535  30.399  25.863  1.00  0.00     0.163 HD
ATOM     61  O   UNL A   1      34.028  28.445  24.615  1.00  0.00    -0.269 OA
BRANCH  59  62
ATOM     62  C   UNL A   1      31.921  27.556  25.227  1.00  0.00     0.054 A 
ATOM     63  C   UNL A   1      32.069  26.533  26.086  1.00  0.00     0.086 A 
ATOM     64  C   UNL A   1      30.668  27.681  24.452  1.00  0.00     0.012 A 
ATOM     65  C   UNL A   1      31.089  25.435  26.160  1.00  0.00     0.249 A 
ATOM     66  C   UNL A   1      29.707  26.664  24.573  1.00  0.00     0.049 A 
ATOM     67  C   UNL A   1      30.380  28.771  23.618  1.00  0.00     0.024 A 
ATOM     68  O   UNL A   1      31.299  24.458  26.866  1.00  0.00    -0.270 OA
ATOM     69  N   UNL A   1      29.962  25.566  25.402  1.00  0.00    -0.322 N 
ATOM     70  C   UNL A   1      28.493  26.729  23.890  1.00  0.00     0.027 A 
ATOM     71  C   UNL A   1      29.151  28.862  22.935  1.00  0.00     0.056 A 
ATOM     72  H   UNL A   1      29.289  24.847  25.440  1.00  0.00     0.170 HD
ATOM     73  C   UNL A   1      28.214  27.828  23.078  1.00  0.00     0.015 A 
BRANCH  71  74
ATOM     74  C   UNL A   1      28.857  30.065  22.070  1.00  0.00     0.416 C 
ATOM     75  F   UNL A   1      28.596  31.184  22.799  1.00  0.00    -0.166 F 
ATOM     76  F   UNL A   1      29.899  30.382  21.252  1.00  0.00    -0.166 F 
ATOM     77  F   UNL A   1      27.781  29.893  21.252  1.00  0.00    -0.166 F 
ENDBRANCH  71  74
ENDBRANCH  59  62
ENDBRANCH  57  58
ENDBRANCH  56  57
ENDBRANCH   1  56
TORSDOF 11
ENDMDL
