MODEL 1
REMARK VINA RESULT:     -11.9      0.000      0.000
REMARK SMILES CCc1c(C(=O)NCC(=O)NCCCNC(=O)c2ccc(-c3c4nc(c(-c5ccccc5)c5ccc([nH]5)c(-c5ccccc5)c5nc(c(-c6ccccc6)c6ccc3[nH]6)C=C5)C=C4)cc2)nnn1-c1ccc(Cl)cc1
REMARK SMILES IDX 12 1 11 2 9 3 10 4 8 6 7 7 5 8 6 9 4 11 3 12 68 13 66 14
REMARK SMILES IDX 67 15 2 16 1 17 69 18 70 19 75 20 71 21 74 22 72 23 73 24
REMARK SMILES IDX 13 25 14 26 15 27 16 28 17 30 18 31 19 32 65 33 20 34 64 35
REMARK SMILES IDX 21 36 22 37 23 38 58 39 24 40 63 41 57 42 59 43 25 44 62 45
REMARK SMILES IDX 56 46 55 47 26 49 48 50 33 51 47 52 34 53 37 54 46 55 60 56
REMARK SMILES IDX 35 57 36 58 45 60 61 61 38 62 27 63 28 64 32 65 29 66 31 67
REMARK SMILES IDX 30 68 49 69 50 70 54 71 51 72 53 73 52 74 39 75 40 76 44 77
REMARK SMILES IDX 41 78 43 79 42 80
REMARK H PARENT 11 5 7 10 15 29 59 48 37 59
REMARK Flexibility Score: inf
ROOT
ATOM      1  C   UNL A   1      31.829  30.540  25.807  1.00  0.00     0.117 C 
ENDROOT
BRANCH   1   2
ATOM      2  N   UNL A   1      30.791  30.548  24.794  1.00  0.00    -0.355 N 
ATOM      3  C   UNL A   1      30.475  29.636  23.834  1.00  0.00     0.239 C 
ATOM      4  O   UNL A   1      29.382  29.781  23.274  1.00  0.00    -0.273 OA
ATOM      5  H   UNL A   1      30.219  31.348  24.800  1.00  0.00     0.163 HD
BRANCH   3   6
ATOM      6  C   UNL A   1      31.296  28.368  23.570  1.00  0.00     0.216 C 
BRANCH   6   7
ATOM      7  N   UNL A   1      32.530  28.440  22.823  1.00  0.00    -0.342 N 
ATOM      8  C   UNL A   1      33.432  27.561  22.293  1.00  0.00     0.274 C 
ATOM      9  O   UNL A   1      34.328  28.122  21.651  1.00  0.00    -0.267 OA
ATOM     10  H   UNL A   1      32.792  29.373  22.649  1.00  0.00     0.164 HD
BRANCH   8  11
ATOM     11  C   UNL A   1      33.489  26.104  22.501  1.00  0.00     0.174 A 
ATOM     12  C   UNL A   1      33.684  25.205  23.557  1.00  0.00     0.077 A 
ATOM     13  N   UNL A   1      33.561  23.950  22.946  1.00  0.00    -0.217 N 
ATOM     14  N   UNL A   1      33.399  25.358  21.335  1.00  0.00    -0.124 NA
ATOM     15  N   UNL A   1      33.571  24.084  21.610  1.00  0.00    -0.061 NA
BRANCH  12  16
ATOM     16  C   UNL A   1      34.056  25.315  25.000  1.00  0.00     0.055 C 
ATOM     17  C   UNL A   1      32.826  25.301  25.905  1.00  0.00     0.011 C 
ENDBRANCH  12  16
BRANCH  13  18
ATOM     18  C   UNL A   1      33.530  22.659  23.526  1.00  0.00     0.067 A 
ATOM     19  C   UNL A   1      32.367  21.886  23.418  1.00  0.00     0.030 A 
ATOM     20  C   UNL A   1      34.650  22.150  24.197  1.00  0.00     0.030 A 
ATOM     21  C   UNL A   1      32.369  20.568  23.882  1.00  0.00     0.023 A 
ATOM     22  C   UNL A   1      34.643  20.836  24.666  1.00  0.00     0.023 A 
ATOM     23  C   UNL A   1      33.511  20.044  24.487  1.00  0.00     0.041 A 
ATOM     24  Cl  UNL A   1      33.528  18.409  25.017  1.00  0.00    -0.084 Cl
ENDBRANCH  13  18
ENDBRANCH   8  11
ENDBRANCH   6   7
ENDBRANCH   3   6
ENDBRANCH   1   2
BRANCH   1  25
ATOM     25  C   UNL A   1      31.579  31.530  26.939  1.00  0.00     0.042 C 
BRANCH  25  26
ATOM     26  C   UNL A   1      32.816  32.362  27.248  1.00  0.00     0.118 C 
BRANCH  26  27
ATOM     27  N   UNL A   1      32.483  33.729  27.656  1.00  0.00    -0.352 N 
ATOM     28  C   UNL A   1      33.064  34.493  28.652  1.00  0.00     0.251 C 
ATOM     29  H   UNL A   1      31.752  34.160  27.157  1.00  0.00     0.163 HD
ATOM     30  O   UNL A   1      32.503  35.464  29.120  1.00  0.00    -0.269 OA
BRANCH  28  31
ATOM     31  C   UNL A   1      34.391  34.085  29.144  1.00  0.00     0.039 A 
ATOM     32  C   UNL A   1      34.512  33.120  30.144  1.00  0.00     0.014 A 
ATOM     33  C   UNL A   1      35.512  34.619  28.515  1.00  0.00     0.014 A 
ATOM     34  C   UNL A   1      35.776  32.608  30.427  1.00  0.00     0.010 A 
ATOM     35  C   UNL A   1      36.735  34.020  28.701  1.00  0.00     0.010 A 
ATOM     36  C   UNL A   1      36.883  33.032  29.673  1.00  0.00    -0.014 A 
BRANCH  36  37
ATOM     37  C   UNL A   1      38.163  32.336  29.801  1.00  0.00     0.031 A 
ATOM     38  C   UNL A   1      38.148  30.904  29.390  1.00  0.00     0.074 A 
ATOM     39  C   UNL A   1      39.337  32.951  30.062  1.00  0.00     0.049 A 
ATOM     40  N   UNL A   1      38.296  29.869  30.149  1.00  0.00    -0.248 NA
ATOM     41  C   UNL A   1      37.822  30.576  27.991  1.00  0.00     0.031 C 
ATOM     42  C   UNL A   1      39.603  34.388  30.183  1.00  0.00     0.029 A 
ATOM     43  N   UNL A   1      40.583  32.408  30.155  1.00  0.00    -0.354 N 
ATOM     44  C   UNL A   1      38.292  28.765  29.301  1.00  0.00     0.074 A 
ATOM     45  C   UNL A   1      37.829  29.242  28.022  1.00  0.00     0.031 C 
ATOM     46  C   UNL A   1      40.930  34.613  30.078  1.00  0.00     0.029 A 
ATOM     47  C   UNL A   1      41.615  33.334  30.075  1.00  0.00     0.049 A 
ATOM     48  H   UNL A   1      40.738  31.442  30.269  1.00  0.00     0.167 HD
ATOM     49  C   UNL A   1      38.921  27.607  29.648  1.00  0.00     0.031 A 
ATOM     50  C   UNL A   1      42.940  33.073  29.994  1.00  0.00     0.031 A 
ATOM     51  C   UNL A   1      39.226  27.566  31.058  1.00  0.00     0.049 A 
ATOM     52  C   UNL A   1      43.153  31.703  30.506  1.00  0.00     0.074 A 
ATOM     53  C   UNL A   1      38.494  27.666  32.225  1.00  0.00     0.029 A 
ATOM     54  N   UNL A   1      40.533  27.792  31.417  1.00  0.00    -0.354 N 
ATOM     55  N   UNL A   1      42.985  31.368  31.750  1.00  0.00    -0.248 NA
ATOM     56  C   UNL A   1      43.167  30.603  29.557  1.00  0.00     0.031 C 
ATOM     57  C   UNL A   1      39.319  28.422  33.111  1.00  0.00     0.029 A 
ATOM     58  C   UNL A   1      40.529  28.676  32.463  1.00  0.00     0.049 A 
ATOM     59  H   UNL A   1      41.329  27.391  30.998  1.00  0.00     0.167 HD
ATOM     60  C   UNL A   1      42.414  30.106  31.696  1.00  0.00     0.074 A 
ATOM     61  C   UNL A   1      42.675  29.636  30.337  1.00  0.00     0.031 C 
ATOM     62  C   UNL A   1      41.542  29.689  32.661  1.00  0.00     0.031 A 
BRANCH  49  63
ATOM     63  C   UNL A   1      39.664  26.737  28.657  1.00  0.00    -0.014 A 
ATOM     64  C   UNL A   1      40.597  27.344  27.794  1.00  0.00     0.009 A 
ATOM     65  C   UNL A   1      39.265  25.427  28.329  1.00  0.00     0.009 A 
ATOM     66  C   UNL A   1      41.024  26.713  26.620  1.00  0.00     0.001 A 
ATOM     67  C   UNL A   1      39.725  24.777  27.181  1.00  0.00     0.001 A 
ATOM     68  C   UNL A   1      40.578  25.434  26.308  1.00  0.00     0.000 A 
ENDBRANCH  49  63
BRANCH  50  69
ATOM     69  C   UNL A   1      44.005  33.827  29.299  1.00  0.00    -0.014 A 
ATOM     70  C   UNL A   1      45.205  34.130  29.961  1.00  0.00     0.009 A 
ATOM     71  C   UNL A   1      43.965  33.989  27.903  1.00  0.00     0.009 A 
ATOM     72  C   UNL A   1      46.342  34.523  29.244  1.00  0.00     0.001 A 
ATOM     73  C   UNL A   1      45.099  34.388  27.188  1.00  0.00     0.001 A 
ATOM     74  C   UNL A   1      46.293  34.633  27.856  1.00  0.00     0.000 A 
ENDBRANCH  50  69
BRANCH  62  75
ATOM     75  C   UNL A   1      41.446  30.504  33.929  1.00  0.00    -0.014 A 
ATOM     76  C   UNL A   1      40.613  31.628  34.069  1.00  0.00     0.009 A 
ATOM     77  C   UNL A   1      42.132  30.043  35.063  1.00  0.00     0.009 A 
ATOM     78  C   UNL A   1      40.505  32.294  35.295  1.00  0.00     0.001 A 
ATOM     79  C   UNL A   1      42.006  30.692  36.293  1.00  0.00     0.001 A 
ATOM     80  C   UNL A   1      41.200  31.822  36.407  1.00  0.00     0.000 A 
ENDBRANCH  62  75
ENDBRANCH  36  37
ENDBRANCH  28  31
ENDBRANCH  26  27
ENDBRANCH  25  26
ENDBRANCH   1  25
TORSDOF 14
ENDMDL
MODEL 2
REMARK VINA RESULT:     -11.9      4.052      8.927
REMARK SMILES CCc1c(C(=O)NCC(=O)NCCCNC(=O)c2ccc(-c3c4nc(c(-c5ccccc5)c5ccc([nH]5)c(-c5ccccc5)c5nc(c(-c6ccccc6)c6ccc3[nH]6)C=C5)C=C4)cc2)nnn1-c1ccc(Cl)cc1
REMARK SMILES IDX 12 1 11 2 9 3 10 4 8 6 7 7 5 8 6 9 4 11 3 12 68 13 66 14
REMARK SMILES IDX 67 15 2 16 1 17 69 18 70 19 75 20 71 21 74 22 72 23 73 24
REMARK SMILES IDX 13 25 14 26 15 27 16 28 17 30 18 31 19 32 65 33 20 34 64 35
REMARK SMILES IDX 21 36 22 37 23 38 58 39 24 40 63 41 57 42 59 43 25 44 62 45
REMARK SMILES IDX 56 46 55 47 26 49 48 50 33 51 47 52 34 53 37 54 46 55 60 56
REMARK SMILES IDX 35 57 36 58 45 60 61 61 38 62 27 63 28 64 32 65 29 66 31 67
REMARK SMILES IDX 30 68 49 69 50 70 54 71 51 72 53 73 52 74 39 75 40 76 44 77
REMARK SMILES IDX 41 78 43 79 42 80
REMARK H PARENT 11 5 7 10 15 29 59 48 37 59
REMARK Flexibility Score: inf
ROOT
ATOM      1  C   UNL A   1      36.636  20.985  25.264  1.00  0.00     0.117 C 
ENDROOT
BRANCH   1   2
ATOM      2  N   UNL A   1      35.344  20.326  25.309  1.00  0.00    -0.355 N 
ATOM      3  C   UNL A   1      34.110  20.758  24.932  1.00  0.00     0.239 C 
ATOM      4  O   UNL A   1      33.227  19.896  24.843  1.00  0.00    -0.273 OA
ATOM      5  H   UNL A   1      35.363  19.414  25.675  1.00  0.00     0.163 HD
BRANCH   3   6
ATOM      6  C   UNL A   1      33.826  22.181  24.437  1.00  0.00     0.216 C 
BRANCH   6   7
ATOM      7  N   UNL A   1      33.615  22.437  23.032  1.00  0.00    -0.342 N 
ATOM      8  C   UNL A   1      33.440  23.529  22.229  1.00  0.00     0.274 C 
ATOM      9  O   UNL A   1      33.367  23.235  21.030  1.00  0.00    -0.267 OA
ATOM     10  H   UNL A   1      33.591  21.602  22.513  1.00  0.00     0.164 HD
BRANCH   8  11
ATOM     11  C   UNL A   1      33.229  24.925  22.651  1.00  0.00     0.174 A 
ATOM     12  C   UNL A   1      32.601  25.619  23.691  1.00  0.00     0.077 A 
ATOM     13  N   UNL A   1      32.878  26.962  23.402  1.00  0.00    -0.217 N 
ATOM     14  N   UNL A   1      33.712  25.868  21.755  1.00  0.00    -0.124 NA
ATOM     15  N   UNL A   1      33.380  27.074  22.162  1.00  0.00    -0.061 NA
BRANCH  12  16
ATOM     16  C   UNL A   1      31.719  25.255  24.841  1.00  0.00     0.055 C 
ATOM     17  C   UNL A   1      32.510  25.104  26.137  1.00  0.00     0.011 C 
ENDBRANCH  12  16
BRANCH  13  18
ATOM     18  C   UNL A   1      32.617  28.126  24.165  1.00  0.00     0.067 A 
ATOM     19  C   UNL A   1      31.405  28.806  23.985  1.00  0.00     0.030 A 
ATOM     20  C   UNL A   1      33.552  28.596  25.095  1.00  0.00     0.030 A 
ATOM     21  C   UNL A   1      31.089  29.885  24.816  1.00  0.00     0.023 A 
ATOM     22  C   UNL A   1      33.235  29.679  25.916  1.00  0.00     0.023 A 
ATOM     23  C   UNL A   1      31.997  30.304  25.788  1.00  0.00     0.041 A 
ATOM     24  Cl  UNL A   1      31.589  31.601  26.840  1.00  0.00    -0.084 Cl
ENDBRANCH  13  18
ENDBRANCH   8  11
ENDBRANCH   6   7
ENDBRANCH   3   6
ENDBRANCH   1   2
BRANCH   1  25
ATOM     25  C   UNL A   1      37.791  20.036  24.967  1.00  0.00     0.042 C 
BRANCH  25  26
ATOM     26  C   UNL A   1      39.052  20.422  25.728  1.00  0.00     0.118 C 
BRANCH  26  27
ATOM     27  N   UNL A   1      40.058  19.357  25.719  1.00  0.00    -0.352 N 
ATOM     28  C   UNL A   1      41.424  19.466  25.912  1.00  0.00     0.251 C 
ATOM     29  H   UNL A   1      39.719  18.448  25.555  1.00  0.00     0.163 HD
ATOM     30  O   UNL A   1      42.189  18.590  25.559  1.00  0.00    -0.269 OA
BRANCH  28  31
ATOM     31  C   UNL A   1      41.931  20.691  26.552  1.00  0.00     0.039 A 
ATOM     32  C   UNL A   1      42.337  21.781  25.781  1.00  0.00     0.014 A 
ATOM     33  C   UNL A   1      41.902  20.761  27.942  1.00  0.00     0.014 A 
ATOM     34  C   UNL A   1      42.604  22.988  26.421  1.00  0.00     0.010 A 
ATOM     35  C   UNL A   1      42.035  21.983  28.556  1.00  0.00     0.010 A 
ATOM     36  C   UNL A   1      42.411  23.097  27.808  1.00  0.00    -0.014 A 
BRANCH  36  37
ATOM     37  C   UNL A   1      42.460  24.410  28.451  1.00  0.00     0.031 A 
ATOM     38  C   UNL A   1      41.322  25.316  28.127  1.00  0.00     0.074 A 
ATOM     39  C   UNL A   1      43.330  24.743  29.429  1.00  0.00     0.049 A 
ATOM     40  N   UNL A   1      41.363  26.414  27.448  1.00  0.00    -0.248 NA
ATOM     41  C   UNL A   1      39.962  24.900  28.509  1.00  0.00     0.031 C 
ATOM     42  C   UNL A   1      44.314  23.887  30.100  1.00  0.00     0.029 A 
ATOM     43  N   UNL A   1      43.430  25.912  30.122  1.00  0.00    -0.354 N 
ATOM     44  C   UNL A   1      40.075  26.941  27.489  1.00  0.00     0.074 A 
ATOM     45  C   UNL A   1      39.228  25.893  28.001  1.00  0.00     0.031 C 
ATOM     46  C   UNL A   1      44.719  24.475  31.245  1.00  0.00     0.029 A 
ATOM     47  C   UNL A   1      44.175  25.819  31.290  1.00  0.00     0.049 A 
ATOM     48  H   UNL A   1      43.011  26.750  29.819  1.00  0.00     0.167 HD
ATOM     49  C   UNL A   1      39.856  28.279  27.349  1.00  0.00     0.031 A 
ATOM     50  C   UNL A   1      44.322  26.770  32.242  1.00  0.00     0.031 A 
ATOM     51  C   UNL A   1      41.010  28.956  26.809  1.00  0.00     0.049 A 
ATOM     52  C   UNL A   1      43.997  28.071  31.619  1.00  0.00     0.074 A 
ATOM     53  C   UNL A   1      41.775  28.834  25.666  1.00  0.00     0.029 A 
ATOM     54  N   UNL A   1      41.771  29.685  27.690  1.00  0.00    -0.354 N 
ATOM     55  N   UNL A   1      44.727  28.629  30.699  1.00  0.00    -0.248 NA
ATOM     56  C   UNL A   1      42.638  28.573  31.729  1.00  0.00     0.031 C 
ATOM     57  C   UNL A   1      43.117  29.062  26.097  1.00  0.00     0.029 A 
ATOM     58  C   UNL A   1      43.085  29.381  27.455  1.00  0.00     0.049 A 
ATOM     59  H   UNL A   1      41.433  30.313  28.369  1.00  0.00     0.167 HD
ATOM     60  C   UNL A   1      43.813  29.197  29.827  1.00  0.00     0.074 A 
ATOM     61  C   UNL A   1      42.560  29.248  30.579  1.00  0.00     0.031 C 
ATOM     62  C   UNL A   1      44.089  29.304  28.493  1.00  0.00     0.031 A 
BRANCH  49  63
ATOM     63  C   UNL A   1      38.792  29.030  28.120  1.00  0.00    -0.014 A 
ATOM     64  C   UNL A   1      38.732  28.868  29.518  1.00  0.00     0.009 A 
ATOM     65  C   UNL A   1      37.675  29.630  27.509  1.00  0.00     0.009 A 
ATOM     66  C   UNL A   1      37.579  29.195  30.242  1.00  0.00     0.001 A 
ATOM     67  C   UNL A   1      36.540  30.000  28.236  1.00  0.00     0.001 A 
ATOM     68  C   UNL A   1      36.479  29.750  29.598  1.00  0.00     0.000 A 
ENDBRANCH  49  63
BRANCH  50  69
ATOM     69  C   UNL A   1      44.499  26.620  33.701  1.00  0.00    -0.014 A 
ATOM     70  C   UNL A   1      45.494  27.348  34.372  1.00  0.00     0.009 A 
ATOM     71  C   UNL A   1      43.508  25.993  34.476  1.00  0.00     0.009 A 
ATOM     72  C   UNL A   1      45.462  27.494  35.764  1.00  0.00     0.001 A 
ATOM     73  C   UNL A   1      43.480  26.134  35.867  1.00  0.00     0.001 A 
ATOM     74  C   UNL A   1      44.444  26.903  36.509  1.00  0.00     0.000 A 
ENDBRANCH  50  69
BRANCH  62  75
ATOM     75  C   UNL A   1      45.512  29.069  28.044  1.00  0.00    -0.014 A 
ATOM     76  C   UNL A   1      46.474  30.091  27.946  1.00  0.00     0.009 A 
ATOM     77  C   UNL A   1      45.926  27.747  27.830  1.00  0.00     0.009 A 
ATOM     78  C   UNL A   1      47.799  29.798  27.603  1.00  0.00     0.001 A 
ATOM     79  C   UNL A   1      47.254  27.452  27.512  1.00  0.00     0.001 A 
ATOM     80  C   UNL A   1      48.187  28.478  27.389  1.00  0.00     0.000 A 
ENDBRANCH  62  75
ENDBRANCH  36  37
ENDBRANCH  28  31
ENDBRANCH  26  27
ENDBRANCH  25  26
ENDBRANCH   1  25
TORSDOF 14
ENDMDL
MODEL 3
REMARK VINA RESULT:     -11.8      3.540      8.012
REMARK SMILES CCc1c(C(=O)NCC(=O)NCCCNC(=O)c2ccc(-c3c4nc(c(-c5ccccc5)c5ccc([nH]5)c(-c5ccccc5)c5nc(c(-c6ccccc6)c6ccc3[nH]6)C=C5)C=C4)cc2)nnn1-c1ccc(Cl)cc1
REMARK SMILES IDX 12 1 11 2 9 3 10 4 8 6 7 7 5 8 6 9 4 11 3 12 68 13 66 14
REMARK SMILES IDX 67 15 2 16 1 17 69 18 70 19 75 20 71 21 74 22 72 23 73 24
REMARK SMILES IDX 13 25 14 26 15 27 16 28 17 30 18 31 19 32 65 33 20 34 64 35
REMARK SMILES IDX 21 36 22 37 23 38 58 39 24 40 63 41 57 42 59 43 25 44 62 45
REMARK SMILES IDX 56 46 55 47 26 49 48 50 33 51 47 52 34 53 37 54 46 55 60 56
REMARK SMILES IDX 35 57 36 58 45 60 61 61 38 62 27 63 28 64 32 65 29 66 31 67
REMARK SMILES IDX 30 68 49 69 50 70 54 71 51 72 53 73 52 74 39 75 40 76 44 77
REMARK SMILES IDX 41 78 43 79 42 80
REMARK H PARENT 11 5 7 10 15 29 59 48 37 59
REMARK Flexibility Score: inf
ROOT
ATOM      1  C   UNL A   1      36.967  21.394  25.347  1.00  0.00     0.117 C 
ENDROOT
BRANCH   1   2
ATOM      2  N   UNL A   1      36.049  20.303  25.081  1.00  0.00    -0.355 N 
ATOM      3  C   UNL A   1      34.690  20.279  25.009  1.00  0.00     0.239 C 
ATOM      4  O   UNL A   1      34.182  19.266  24.513  1.00  0.00    -0.273 OA
ATOM      5  H   UNL A   1      36.481  19.433  24.928  1.00  0.00     0.163 HD
BRANCH   3   6
ATOM      6  C   UNL A   1      33.806  21.492  25.319  1.00  0.00     0.216 C 
BRANCH   6   7
ATOM      7  N   UNL A   1      33.443  21.802  26.682  1.00  0.00    -0.342 N 
ATOM      8  C   UNL A   1      32.631  22.694  27.323  1.00  0.00     0.274 C 
ATOM      9  O   UNL A   1      32.595  22.516  28.547  1.00  0.00    -0.267 OA
ATOM     10  H   UNL A   1      33.904  21.212  27.321  1.00  0.00     0.164 HD
BRANCH   8  11
ATOM     11  C   UNL A   1      31.928  23.847  26.734  1.00  0.00     0.174 A 
ATOM     12  C   UNL A   1      32.236  24.983  25.975  1.00  0.00     0.077 A 
ATOM     13  N   UNL A   1      30.989  25.593  25.779  1.00  0.00    -0.217 N 
ATOM     14  N   UNL A   1      30.580  23.915  27.053  1.00  0.00    -0.124 NA
ATOM     15  N   UNL A   1      30.069  25.030  26.578  1.00  0.00    -0.061 NA
BRANCH  12  16
ATOM     16  C   UNL A   1      33.488  25.638  25.489  1.00  0.00     0.055 C 
ATOM     17  C   UNL A   1      33.986  25.013  24.188  1.00  0.00     0.011 C 
ENDBRANCH  12  16
BRANCH  13  18
ATOM     18  C   UNL A   1      30.641  26.706  24.976  1.00  0.00     0.067 A 
ATOM     19  C   UNL A   1      31.274  27.936  25.199  1.00  0.00     0.030 A 
ATOM     20  C   UNL A   1      29.679  26.586  23.965  1.00  0.00     0.030 A 
ATOM     21  C   UNL A   1      31.023  29.007  24.336  1.00  0.00     0.023 A 
ATOM     22  C   UNL A   1      29.426  27.660  23.113  1.00  0.00     0.023 A 
ATOM     23  C   UNL A   1      30.115  28.858  23.288  1.00  0.00     0.041 A 
ATOM     24  Cl  UNL A   1      29.841  30.161  22.200  1.00  0.00    -0.084 Cl
ENDBRANCH  13  18
ENDBRANCH   8  11
ENDBRANCH   6   7
ENDBRANCH   3   6
ENDBRANCH   1   2
BRANCH   1  25
ATOM     25  C   UNL A   1      38.431  20.969  25.349  1.00  0.00     0.042 C 
BRANCH  25  26
ATOM     26  C   UNL A   1      39.282  21.869  26.234  1.00  0.00     0.118 C 
BRANCH  26  27
ATOM     27  N   UNL A   1      40.699  21.842  25.863  1.00  0.00    -0.352 N 
ATOM     28  C   UNL A   1      41.634  22.854  25.972  1.00  0.00     0.251 C 
ATOM     29  H   UNL A   1      41.027  20.993  25.488  1.00  0.00     0.163 HD
ATOM     30  O   UNL A   1      42.672  22.835  25.339  1.00  0.00    -0.269 OA
BRANCH  28  31
ATOM     31  C   UNL A   1      41.330  23.976  26.876  1.00  0.00     0.039 A 
ATOM     32  C   UNL A   1      42.067  24.167  28.045  1.00  0.00     0.014 A 
ATOM     33  C   UNL A   1      40.354  24.887  26.480  1.00  0.00     0.014 A 
ATOM     34  C   UNL A   1      41.894  25.351  28.756  1.00  0.00     0.010 A 
ATOM     35  C   UNL A   1      40.282  26.108  27.107  1.00  0.00     0.010 A 
ATOM     36  C   UNL A   1      41.028  26.340  28.261  1.00  0.00    -0.014 A 
BRANCH  36  37
ATOM     37  C   UNL A   1      41.017  27.671  28.868  1.00  0.00     0.031 A 
ATOM     38  C   UNL A   1      41.986  28.641  28.284  1.00  0.00     0.074 A 
ATOM     39  C   UNL A   1      40.079  28.097  29.742  1.00  0.00     0.049 A 
ATOM     40  N   UNL A   1      43.029  29.147  28.855  1.00  0.00    -0.248 NA
ATOM     41  C   UNL A   1      41.843  29.011  26.865  1.00  0.00     0.031 C 
ATOM     42  C   UNL A   1      38.872  27.396  30.192  1.00  0.00     0.029 A 
ATOM     43  N   UNL A   1      39.950  29.321  30.326  1.00  0.00    -0.354 N 
ATOM     44  C   UNL A   1      43.562  30.057  27.947  1.00  0.00     0.074 A 
ATOM     45  C   UNL A   1      42.900  29.807  26.690  1.00  0.00     0.031 C 
ATOM     46  C   UNL A   1      38.023  28.279  30.761  1.00  0.00     0.029 A 
ATOM     47  C   UNL A   1      38.700  29.556  30.885  1.00  0.00     0.049 A 
ATOM     48  H   UNL A   1      40.680  29.982  30.350  1.00  0.00     0.167 HD
ATOM     49  C   UNL A   1      44.309  31.116  28.367  1.00  0.00     0.031 A 
ATOM     50  C   UNL A   1      38.242  30.721  31.398  1.00  0.00     0.031 A 
ATOM     51  C   UNL A   1      44.755  30.949  29.729  1.00  0.00     0.049 A 
ATOM     52  C   UNL A   1      39.420  31.549  31.733  1.00  0.00     0.074 A 
ATOM     53  C   UNL A   1      45.487  29.999  30.414  1.00  0.00     0.029 A 
ATOM     54  N   UNL A   1      44.099  31.678  30.691  1.00  0.00    -0.354 N 
ATOM     55  N   UNL A   1      40.257  31.255  32.684  1.00  0.00    -0.248 NA
ATOM     56  C   UNL A   1      39.902  32.501  30.747  1.00  0.00     0.031 C 
ATOM     57  C   UNL A   1      44.853  29.895  31.688  1.00  0.00     0.029 A 
ATOM     58  C   UNL A   1      43.821  30.835  31.734  1.00  0.00     0.049 A 
ATOM     59  H   UNL A   1      43.869  32.634  30.641  1.00  0.00     0.167 HD
ATOM     60  C   UNL A   1      41.497  31.604  32.174  1.00  0.00     0.074 A 
ATOM     61  C   UNL A   1      41.204  32.484  31.045  1.00  0.00     0.031 C 
ATOM     62  C   UNL A   1      42.623  30.920  32.538  1.00  0.00     0.031 A 
BRANCH  49  63
ATOM     63  C   UNL A   1      44.247  32.485  27.722  1.00  0.00    -0.014 A 
ATOM     64  C   UNL A   1      43.648  33.540  28.439  1.00  0.00     0.009 A 
ATOM     65  C   UNL A   1      44.462  32.701  26.349  1.00  0.00     0.009 A 
ATOM     66  C   UNL A   1      43.202  34.699  27.793  1.00  0.00     0.001 A 
ATOM     67  C   UNL A   1      44.059  33.877  25.710  1.00  0.00     0.001 A 
ATOM     68  C   UNL A   1      43.397  34.862  26.427  1.00  0.00     0.000 A 
ENDBRANCH  49  63
BRANCH  50  69
ATOM     69  C   UNL A   1      36.869  31.266  31.412  1.00  0.00    -0.014 A 
ATOM     70  C   UNL A   1      36.305  31.736  32.609  1.00  0.00     0.009 A 
ATOM     71  C   UNL A   1      36.224  31.597  30.207  1.00  0.00     0.009 A 
ATOM     72  C   UNL A   1      35.172  32.559  32.595  1.00  0.00     0.001 A 
ATOM     73  C   UNL A   1      35.089  32.414  30.194  1.00  0.00     0.001 A 
ATOM     74  C   UNL A   1      34.576  32.913  31.386  1.00  0.00     0.000 A 
ENDBRANCH  50  69
BRANCH  62  75
ATOM     75  C   UNL A   1      42.531  29.984  33.720  1.00  0.00    -0.014 A 
ATOM     76  C   UNL A   1      42.810  30.374  35.042  1.00  0.00     0.009 A 
ATOM     77  C   UNL A   1      42.024  28.695  33.502  1.00  0.00     0.009 A 
ATOM     78  C   UNL A   1      42.627  29.483  36.106  1.00  0.00     0.001 A 
ATOM     79  C   UNL A   1      41.818  27.814  34.566  1.00  0.00     0.001 A 
ATOM     80  C   UNL A   1      42.128  28.205  35.866  1.00  0.00     0.000 A 
ENDBRANCH  62  75
ENDBRANCH  36  37
ENDBRANCH  28  31
ENDBRANCH  26  27
ENDBRANCH  25  26
ENDBRANCH   1  25
TORSDOF 14
ENDMDL
