MODEL 1
REMARK VINA RESULT:     -10.8      0.000      0.000
REMARK SMILES O=C(NCCCNC(=O)c1ccncc1-c1ccc(F)cc1F)c1ccc(-c2c3nc(c(-c4ccccc4)c4ccc([nH]4)c(-c4ccccc4)c4nc(c(-c5ccccc5)c5ccc2[nH]5)C=C4)C=C3)cc1
REMARK SMILES IDX 4 1 3 2 1 3 2 4 24 6 25 7 71 8 26 9 70 10 27 11 28 12 29 13
REMARK SMILES IDX 64 14 30 15 69 16 63 17 65 18 31 19 68 20 62 21 61 22 32 24
REMARK SMILES IDX 54 25 39 26 53 27 40 28 43 29 52 30 66 31 41 32 42 33 51 35
REMARK SMILES IDX 67 36 44 37 33 38 34 39 38 40 35 41 37 42 36 43 55 44 56 45
REMARK SMILES IDX 60 46 57 47 59 48 58 49 45 50 46 51 50 52 47 53 49 54 48 55
REMARK SMILES IDX 5 56 6 57 7 58 8 59 9 61 10 62 11 63 15 64 12 65 14 66 13 67
REMARK SMILES IDX 16 68 17 69 22 70 18 71 21 72 23 73 19 74 20 75
REMARK H PARENT 3 5 65 23 43 34 7 60
REMARK Flexibility Score: inf
ROOT
ATOM      1  C   UNL A   1      33.739  28.450  27.265  1.00  0.00     0.118 C 
ENDROOT
BRANCH   1   2
ATOM      2  N   UNL A   1      33.634  29.863  27.610  1.00  0.00    -0.352 N 
ATOM      3  O   UNL A   1      34.187  31.828  28.560  1.00  0.00    -0.269 OA
ATOM      4  C   UNL A   1      34.540  30.705  28.209  1.00  0.00     0.251 C 
ATOM      5  H   UNL A   1      32.774  30.282  27.374  1.00  0.00     0.163 HD
BRANCH   4   6
ATOM      6  C   UNL A   1      35.928  30.261  28.460  1.00  0.00     0.039 A 
ATOM      7  C   UNL A   1      36.911  30.402  27.482  1.00  0.00     0.014 A 
ATOM      8  C   UNL A   1      36.259  29.715  29.704  1.00  0.00     0.014 A 
ATOM      9  C   UNL A   1      38.165  29.837  27.673  1.00  0.00     0.010 A 
ATOM     10  C   UNL A   1      37.557  29.251  29.939  1.00  0.00     0.010 A 
ATOM     11  C   UNL A   1      38.513  29.275  28.912  1.00  0.00    -0.014 A 
BRANCH  11  12
ATOM     12  C   UNL A   1      39.902  28.795  29.122  1.00  0.00     0.031 A 
ATOM     13  C   UNL A   1      40.329  27.419  28.695  1.00  0.00     0.074 A 
ATOM     14  C   UNL A   1      40.796  29.639  29.676  1.00  0.00     0.049 A 
ATOM     15  N   UNL A   1      41.512  26.864  28.781  1.00  0.00    -0.248 NA
ATOM     16  C   UNL A   1      39.302  26.550  28.100  1.00  0.00     0.031 C 
ATOM     17  C   UNL A   1      40.501  31.002  30.131  1.00  0.00     0.029 A 
ATOM     18  N   UNL A   1      42.135  29.490  29.927  1.00  0.00    -0.354 N 
ATOM     19  C   UNL A   1      41.370  25.580  28.268  1.00  0.00     0.074 A 
ATOM     20  C   UNL A   1      39.979  25.428  27.900  1.00  0.00     0.031 C 
ATOM     21  C   UNL A   1      41.634  31.580  30.553  1.00  0.00     0.029 A 
ATOM     22  C   UNL A   1      42.717  30.610  30.471  1.00  0.00     0.049 A 
ATOM     23  H   UNL A   1      42.632  28.661  29.737  1.00  0.00     0.167 HD
ATOM     24  C   UNL A   1      42.314  24.619  28.113  1.00  0.00     0.031 A 
ATOM     25  C   UNL A   1      43.979  30.830  30.881  1.00  0.00     0.031 A 
ATOM     26  C   UNL A   1      43.695  24.773  28.491  1.00  0.00     0.049 A 
ATOM     27  C   UNL A   1      44.987  29.728  30.749  1.00  0.00     0.074 A 
ATOM     28  C   UNL A   1      44.731  23.863  28.356  1.00  0.00     0.029 A 
ATOM     29  N   UNL A   1      44.233  25.903  29.086  1.00  0.00    -0.354 N 
ATOM     30  N   UNL A   1      44.842  28.532  30.230  1.00  0.00    -0.248 NA
ATOM     31  C   UNL A   1      46.336  30.007  31.258  1.00  0.00     0.031 C 
ATOM     32  C   UNL A   1      45.882  24.423  28.923  1.00  0.00     0.029 A 
ATOM     33  C   UNL A   1      45.580  25.705  29.349  1.00  0.00     0.049 A 
ATOM     34  H   UNL A   1      43.733  26.726  29.291  1.00  0.00     0.167 HD
ATOM     35  C   UNL A   1      46.084  27.923  30.332  1.00  0.00     0.074 A 
ATOM     36  C   UNL A   1      46.976  28.892  30.938  1.00  0.00     0.031 C 
ATOM     37  C   UNL A   1      46.453  26.675  29.958  1.00  0.00     0.031 A 
BRANCH  24  38
ATOM     38  C   UNL A   1      41.878  23.301  27.532  1.00  0.00    -0.014 A 
ATOM     39  C   UNL A   1      42.030  23.018  26.165  1.00  0.00     0.009 A 
ATOM     40  C   UNL A   1      41.353  22.308  28.374  1.00  0.00     0.009 A 
ATOM     41  C   UNL A   1      41.635  21.780  25.650  1.00  0.00     0.001 A 
ATOM     42  C   UNL A   1      40.986  21.062  27.862  1.00  0.00     0.001 A 
ATOM     43  C   UNL A   1      41.118  20.802  26.500  1.00  0.00     0.000 A 
ENDBRANCH  24  38
BRANCH  25  44
ATOM     44  C   UNL A   1      44.348  32.140  31.477  1.00  0.00    -0.014 A 
ATOM     45  C   UNL A   1      44.205  32.367  32.853  1.00  0.00     0.009 A 
ATOM     46  C   UNL A   1      44.846  33.173  30.666  1.00  0.00     0.009 A 
ATOM     47  C   UNL A   1      44.529  33.611  33.400  1.00  0.00     0.001 A 
ATOM     48  C   UNL A   1      45.202  34.403  31.221  1.00  0.00     0.001 A 
ATOM     49  C   UNL A   1      45.032  34.625  32.585  1.00  0.00     0.000 A 
ENDBRANCH  25  44
BRANCH  37  50
ATOM     50  C   UNL A   1      47.895  26.301  30.163  1.00  0.00    -0.014 A 
ATOM     51  C   UNL A   1      48.348  25.770  31.380  1.00  0.00     0.009 A 
ATOM     52  C   UNL A   1      48.809  26.464  29.111  1.00  0.00     0.009 A 
ATOM     53  C   UNL A   1      49.695  25.448  31.552  1.00  0.00     0.001 A 
ATOM     54  C   UNL A   1      50.148  26.111  29.274  1.00  0.00     0.001 A 
ATOM     55  C   UNL A   1      50.593  25.614  30.498  1.00  0.00     0.000 A 
ENDBRANCH  37  50
ENDBRANCH  11  12
ENDBRANCH   4   6
ENDBRANCH   1   2
BRANCH   1  56
ATOM     56  C   UNL A   1      34.201  28.218  25.835  1.00  0.00     0.042 C 
BRANCH  56  57
ATOM     57  C   UNL A   1      33.120  27.676  24.913  1.00  0.00     0.118 C 
BRANCH  57  58
ATOM     58  N   UNL A   1      33.620  27.376  23.577  1.00  0.00    -0.352 N 
ATOM     59  C   UNL A   1      33.448  26.268  22.784  1.00  0.00     0.252 C 
ATOM     60  H   UNL A   1      34.172  28.086  23.176  1.00  0.00     0.163 HD
ATOM     61  O   UNL A   1      34.043  26.199  21.713  1.00  0.00    -0.269 OA
BRANCH  59  62
ATOM     62  C   UNL A   1      32.547  25.176  23.216  1.00  0.00     0.050 A 
ATOM     63  C   UNL A   1      31.208  25.230  22.808  1.00  0.00     0.034 A 
ATOM     64  C   UNL A   1      33.025  24.074  23.945  1.00  0.00     0.016 A 
ATOM     65  C   UNL A   1      30.350  24.239  23.234  1.00  0.00     0.112 A 
ATOM     66  C   UNL A   1      32.061  23.130  24.302  1.00  0.00     0.120 A 
ATOM     67  N   UNL A   1      30.742  23.202  23.992  1.00  0.00    -0.264 NA
BRANCH  64  68
ATOM     68  C   UNL A   1      34.433  23.846  24.301  1.00  0.00     0.020 A 
ATOM     69  C   UNL A   1      35.337  23.243  23.412  1.00  0.00     0.015 A 
ATOM     70  C   UNL A   1      34.919  24.250  25.559  1.00  0.00     0.134 A 
ATOM     71  C   UNL A   1      36.674  23.052  23.780  1.00  0.00     0.040 A 
ATOM     72  C   UNL A   1      36.246  24.063  25.932  1.00  0.00     0.079 A 
ATOM     73  F   UNL A   1      34.093  24.843  26.434  1.00  0.00    -0.206 F 
ATOM     74  C   UNL A   1      37.113  23.464  25.035  1.00  0.00     0.126 A 
ATOM     75  F   UNL A   1      38.395  23.282  25.378  1.00  0.00    -0.207 F 
ENDBRANCH  64  68
ENDBRANCH  59  62
ENDBRANCH  57  58
ENDBRANCH  56  57
ENDBRANCH   1  56
TORSDOF 11
ENDMDL
MODEL 2
REMARK VINA RESULT:     -10.7      3.334      7.743
REMARK SMILES O=C(NCCCNC(=O)c1ccncc1-c1ccc(F)cc1F)c1ccc(-c2c3nc(c(-c4ccccc4)c4ccc([nH]4)c(-c4ccccc4)c4nc(c(-c5ccccc5)c5ccc2[nH]5)C=C4)C=C3)cc1
REMARK SMILES IDX 4 1 3 2 1 3 2 4 24 6 25 7 71 8 26 9 70 10 27 11 28 12 29 13
REMARK SMILES IDX 64 14 30 15 69 16 63 17 65 18 31 19 68 20 62 21 61 22 32 24
REMARK SMILES IDX 54 25 39 26 53 27 40 28 43 29 52 30 66 31 41 32 42 33 51 35
REMARK SMILES IDX 67 36 44 37 33 38 34 39 38 40 35 41 37 42 36 43 55 44 56 45
REMARK SMILES IDX 60 46 57 47 59 48 58 49 45 50 46 51 50 52 47 53 49 54 48 55
REMARK SMILES IDX 5 56 6 57 7 58 8 59 9 61 10 62 11 63 15 64 12 65 14 66 13 67
REMARK SMILES IDX 16 68 17 69 22 70 18 71 21 72 23 73 19 74 20 75
REMARK H PARENT 3 5 65 23 43 34 7 60
REMARK Flexibility Score: inf
ROOT
ATOM      1  C   UNL A   1      38.750  20.165  25.657  1.00  0.00     0.118 C 
ENDROOT
BRANCH   1   2
ATOM      2  N   UNL A   1      39.900  19.271  25.740  1.00  0.00    -0.352 N 
ATOM      3  O   UNL A   1      42.057  18.656  25.933  1.00  0.00    -0.269 OA
ATOM      4  C   UNL A   1      41.205  19.527  26.089  1.00  0.00     0.251 C 
ATOM      5  H   UNL A   1      39.710  18.333  25.509  1.00  0.00     0.163 HD
BRANCH   4   6
ATOM      6  C   UNL A   1      41.596  20.849  26.623  1.00  0.00     0.039 A 
ATOM      7  C   UNL A   1      41.554  21.107  27.992  1.00  0.00     0.014 A 
ATOM      8  C   UNL A   1      42.033  21.843  25.742  1.00  0.00     0.014 A 
ATOM      9  C   UNL A   1      41.770  22.396  28.462  1.00  0.00     0.010 A 
ATOM     10  C   UNL A   1      42.364  23.111  26.229  1.00  0.00     0.010 A 
ATOM     11  C   UNL A   1      42.201  23.409  27.590  1.00  0.00    -0.014 A 
BRANCH  11  12
ATOM     12  C   UNL A   1      42.543  24.742  28.148  1.00  0.00     0.031 A 
ATOM     13  C   UNL A   1      43.957  25.099  28.513  1.00  0.00     0.074 A 
ATOM     14  C   UNL A   1      41.558  25.652  28.290  1.00  0.00     0.049 A 
ATOM     15  N   UNL A   1      44.422  26.231  28.982  1.00  0.00    -0.248 NA
ATOM     16  C   UNL A   1      44.981  24.059  28.336  1.00  0.00     0.031 C 
ATOM     17  C   UNL A   1      40.145  25.422  27.969  1.00  0.00     0.029 A 
ATOM     18  N   UNL A   1      41.593  26.955  28.712  1.00  0.00    -0.354 N 
ATOM     19  C   UNL A   1      45.784  26.035  29.170  1.00  0.00     0.074 A 
ATOM     20  C   UNL A   1      46.067  24.667  28.793  1.00  0.00     0.031 C 
ATOM     21  C   UNL A   1      39.461  26.560  28.153  1.00  0.00     0.029 A 
ATOM     22  C   UNL A   1      40.367  27.575  28.676  1.00  0.00     0.049 A 
ATOM     23  H   UNL A   1      42.416  27.404  29.013  1.00  0.00     0.167 HD
ATOM     24  C   UNL A   1      46.715  26.917  29.611  1.00  0.00     0.031 A 
ATOM     25  C   UNL A   1      40.001  28.815  29.042  1.00  0.00     0.031 A 
ATOM     26  C   UNL A   1      46.426  28.275  29.996  1.00  0.00     0.049 A 
ATOM     27  C   UNL A   1      41.043  29.750  29.580  1.00  0.00     0.074 A 
ATOM     28  C   UNL A   1      47.305  29.250  30.438  1.00  0.00     0.029 A 
ATOM     29  N   UNL A   1      45.164  28.848  29.993  1.00  0.00    -0.354 N 
ATOM     30  N   UNL A   1      42.333  29.558  29.719  1.00  0.00    -0.248 NA
ATOM     31  C   UNL A   1      40.579  31.075  30.011  1.00  0.00     0.031 C 
ATOM     32  C   UNL A   1      46.564  30.394  30.758  1.00  0.00     0.029 A 
ATOM     33  C   UNL A   1      45.235  30.153  30.452  1.00  0.00     0.049 A 
ATOM     34  H   UNL A   1      44.338  28.393  29.708  1.00  0.00     0.167 HD
ATOM     35  C   UNL A   1      42.838  30.743  30.235  1.00  0.00     0.074 A 
ATOM     36  C   UNL A   1      41.719  31.655  30.358  1.00  0.00     0.031 C 
ATOM     37  C   UNL A   1      44.113  31.048  30.575  1.00  0.00     0.031 A 
BRANCH  24  38
ATOM     38  C   UNL A   1      48.135  26.431  29.730  1.00  0.00    -0.014 A 
ATOM     39  C   UNL A   1      48.603  25.819  30.903  1.00  0.00     0.009 A 
ATOM     40  C   UNL A   1      49.003  26.543  28.632  1.00  0.00     0.009 A 
ATOM     41  C   UNL A   1      49.920  25.358  30.985  1.00  0.00     0.001 A 
ATOM     42  C   UNL A   1      50.310  26.056  28.707  1.00  0.00     0.001 A 
ATOM     43  C   UNL A   1      50.771  25.473  29.885  1.00  0.00     0.000 A 
ENDBRANCH  24  38
BRANCH  25  44
ATOM     44  C   UNL A   1      38.579  29.233  28.934  1.00  0.00    -0.014 A 
ATOM     45  C   UNL A   1      37.705  29.090  30.022  1.00  0.00     0.009 A 
ATOM     46  C   UNL A   1      38.089  29.778  27.736  1.00  0.00     0.009 A 
ATOM     47  C   UNL A   1      36.364  29.460  29.902  1.00  0.00     0.001 A 
ATOM     48  C   UNL A   1      36.757  30.179  27.632  1.00  0.00     0.001 A 
ATOM     49  C   UNL A   1      35.892  30.009  28.710  1.00  0.00     0.000 A 
ENDBRANCH  25  44
BRANCH  37  50
ATOM     50  C   UNL A   1      44.368  32.441  31.080  1.00  0.00    -0.014 A 
ATOM     51  C   UNL A   1      44.662  33.495  30.202  1.00  0.00     0.009 A 
ATOM     52  C   UNL A   1      44.289  32.704  32.456  1.00  0.00     0.009 A 
ATOM     53  C   UNL A   1      44.912  34.776  30.696  1.00  0.00     0.001 A 
ATOM     54  C   UNL A   1      44.507  33.992  32.945  1.00  0.00     0.001 A 
ATOM     55  C   UNL A   1      44.830  35.025  32.066  1.00  0.00     0.000 A 
ENDBRANCH  37  50
ENDBRANCH  11  12
ENDBRANCH   4   6
ENDBRANCH   1   2
BRANCH   1  56
ATOM     56  C   UNL A   1      37.597  19.581  24.855  1.00  0.00     0.042 C 
BRANCH  56  57
ATOM     57  C   UNL A   1      36.454  20.552  24.610  1.00  0.00     0.118 C 
BRANCH  57  58
ATOM     58  N   UNL A   1      35.524  20.619  25.730  1.00  0.00    -0.352 N 
ATOM     59  C   UNL A   1      34.170  20.846  25.757  1.00  0.00     0.252 C 
ATOM     60  H   UNL A   1      35.935  20.479  26.614  1.00  0.00     0.163 HD
ATOM     61  O   UNL A   1      33.601  20.946  26.840  1.00  0.00    -0.269 OA
BRANCH  59  62
ATOM     62  C   UNL A   1      33.408  20.959  24.493  1.00  0.00     0.050 A 
ATOM     63  C   UNL A   1      33.346  22.214  23.874  1.00  0.00     0.034 A 
ATOM     64  C   UNL A   1      32.829  19.834  23.882  1.00  0.00     0.016 A 
ATOM     65  C   UNL A   1      32.608  22.340  22.716  1.00  0.00     0.112 A 
ATOM     66  C   UNL A   1      32.123  20.090  22.705  1.00  0.00     0.120 A 
ATOM     67  N   UNL A   1      31.976  21.310  22.130  1.00  0.00    -0.264 NA
BRANCH  64  68
ATOM     68  C   UNL A   1      32.955  18.453  24.369  1.00  0.00     0.020 A 
ATOM     69  C   UNL A   1      32.528  18.074  25.652  1.00  0.00     0.015 A 
ATOM     70  C   UNL A   1      33.503  17.457  23.539  1.00  0.00     0.134 A 
ATOM     71  C   UNL A   1      32.653  16.747  26.080  1.00  0.00     0.040 A 
ATOM     72  C   UNL A   1      33.631  16.136  23.957  1.00  0.00     0.079 A 
ATOM     73  F   UNL A   1      33.912  17.771  22.300  1.00  0.00    -0.206 F 
ATOM     74  C   UNL A   1      33.203  15.794  25.228  1.00  0.00     0.126 A 
ATOM     75  F   UNL A   1      33.314  14.525  25.642  1.00  0.00    -0.207 F 
ENDBRANCH  64  68
ENDBRANCH  59  62
ENDBRANCH  57  58
ENDBRANCH  56  57
ENDBRANCH   1  56
TORSDOF 11
ENDMDL
MODEL 3
REMARK VINA RESULT:     -10.6      2.622      7.546
REMARK SMILES O=C(NCCCNC(=O)c1ccncc1-c1ccc(F)cc1F)c1ccc(-c2c3nc(c(-c4ccccc4)c4ccc([nH]4)c(-c4ccccc4)c4nc(c(-c5ccccc5)c5ccc2[nH]5)C=C4)C=C3)cc1
REMARK SMILES IDX 4 1 3 2 1 3 2 4 24 6 25 7 71 8 26 9 70 10 27 11 28 12 29 13
REMARK SMILES IDX 64 14 30 15 69 16 63 17 65 18 31 19 68 20 62 21 61 22 32 24
REMARK SMILES IDX 54 25 39 26 53 27 40 28 43 29 52 30 66 31 41 32 42 33 51 35
REMARK SMILES IDX 67 36 44 37 33 38 34 39 38 40 35 41 37 42 36 43 55 44 56 45
REMARK SMILES IDX 60 46 57 47 59 48 58 49 45 50 46 51 50 52 47 53 49 54 48 55
REMARK SMILES IDX 5 56 6 57 7 58 8 59 9 61 10 62 11 63 15 64 12 65 14 66 13 67
REMARK SMILES IDX 16 68 17 69 22 70 18 71 21 72 23 73 19 74 20 75
REMARK H PARENT 3 5 65 23 43 34 7 60
REMARK Flexibility Score: inf
ROOT
ATOM      1  C   UNL A   1      37.080  23.679  25.101  1.00  0.00     0.118 C 
ENDROOT
BRANCH   1   2
ATOM      2  N   UNL A   1      38.167  22.753  25.398  1.00  0.00    -0.352 N 
ATOM      3  O   UNL A   1      40.209  22.073  26.058  1.00  0.00    -0.269 OA
ATOM      4  C   UNL A   1      39.354  22.955  26.061  1.00  0.00     0.251 C 
ATOM      5  H   UNL A   1      38.027  21.836  25.071  1.00  0.00     0.163 HD
BRANCH   4   6
ATOM      6  C   UNL A   1      39.621  24.234  26.755  1.00  0.00     0.039 A 
ATOM      7  C   UNL A   1      40.321  25.258  26.119  1.00  0.00     0.014 A 
ATOM      8  C   UNL A   1      39.143  24.422  28.055  1.00  0.00     0.014 A 
ATOM      9  C   UNL A   1      40.701  26.385  26.835  1.00  0.00     0.010 A 
ATOM     10  C   UNL A   1      39.426  25.609  28.737  1.00  0.00     0.010 A 
ATOM     11  C   UNL A   1      40.239  26.587  28.145  1.00  0.00    -0.014 A 
BRANCH  11  12
ATOM     12  C   UNL A   1      40.561  27.863  28.835  1.00  0.00     0.031 A 
ATOM     13  C   UNL A   1      39.547  28.964  28.957  1.00  0.00     0.074 A 
ATOM     14  C   UNL A   1      41.782  28.003  29.388  1.00  0.00     0.049 A 
ATOM     15  N   UNL A   1      39.665  30.125  29.555  1.00  0.00    -0.248 NA
ATOM     16  C   UNL A   1      38.236  28.746  28.329  1.00  0.00     0.031 C 
ATOM     17  C   UNL A   1      42.854  27.002  29.335  1.00  0.00     0.029 A 
ATOM     18  N   UNL A   1      42.323  29.025  30.123  1.00  0.00    -0.354 N 
ATOM     19  C   UNL A   1      38.453  30.778  29.362  1.00  0.00     0.074 A 
ATOM     20  C   UNL A   1      37.625  29.898  28.566  1.00  0.00     0.031 C 
ATOM     21  C   UNL A   1      43.898  27.436  30.054  1.00  0.00     0.029 A 
ATOM     22  C   UNL A   1      43.603  28.772  30.553  1.00  0.00     0.049 A 
ATOM     23  H   UNL A   1      41.841  29.861  30.323  1.00  0.00     0.167 HD
ATOM     24  C   UNL A   1      38.066  31.997  29.813  1.00  0.00     0.031 A 
ATOM     25  C   UNL A   1      44.460  29.537  31.253  1.00  0.00     0.031 A 
ATOM     26  C   UNL A   1      38.899  32.873  30.596  1.00  0.00     0.049 A 
ATOM     27  C   UNL A   1      44.023  30.904  31.688  1.00  0.00     0.074 A 
ATOM     28  C   UNL A   1      38.590  34.120  31.114  1.00  0.00     0.029 A 
ATOM     29  N   UNL A   1      40.207  32.602  30.966  1.00  0.00    -0.354 N 
ATOM     30  N   UNL A   1      42.862  31.491  31.525  1.00  0.00    -0.248 NA
ATOM     31  C   UNL A   1      45.016  31.713  32.406  1.00  0.00     0.031 C 
ATOM     32  C   UNL A   1      39.730  34.626  31.748  1.00  0.00     0.029 A 
ATOM     33  C   UNL A   1      40.728  33.668  31.682  1.00  0.00     0.049 A 
ATOM     34  H   UNL A   1      40.694  31.773  30.751  1.00  0.00     0.167 HD
ATOM     35  C   UNL A   1      42.977  32.731  32.137  1.00  0.00     0.074 A 
ATOM     36  C   UNL A   1      44.312  32.799  32.697  1.00  0.00     0.031 C 
ATOM     37  C   UNL A   1      42.060  33.724  32.227  1.00  0.00     0.031 A 
BRANCH  24  38
ATOM     38  C   UNL A   1      36.685  32.470  29.444  1.00  0.00    -0.014 A 
ATOM     39  C   UNL A   1      35.592  32.271  30.302  1.00  0.00     0.009 A 
ATOM     40  C   UNL A   1      36.486  33.169  28.243  1.00  0.00     0.009 A 
ATOM     41  C   UNL A   1      34.321  32.735  29.948  1.00  0.00     0.001 A 
ATOM     42  C   UNL A   1      35.222  33.657  27.906  1.00  0.00     0.001 A 
ATOM     43  C   UNL A   1      34.139  33.432  28.753  1.00  0.00     0.000 A 
ENDBRANCH  24  38
BRANCH  25  44
ATOM     44  C   UNL A   1      45.823  29.033  31.562  1.00  0.00    -0.014 A 
ATOM     45  C   UNL A   1      46.077  28.331  32.749  1.00  0.00     0.009 A 
ATOM     46  C   UNL A   1      46.881  29.254  30.665  1.00  0.00     0.009 A 
ATOM     47  C   UNL A   1      47.368  27.885  33.043  1.00  0.00     0.001 A 
ATOM     48  C   UNL A   1      48.161  28.776  30.944  1.00  0.00     0.001 A 
ATOM     49  C   UNL A   1      48.406  28.103  32.138  1.00  0.00     0.000 A 
ENDBRANCH  25  44
BRANCH  37  50
ATOM     50  C   UNL A   1      42.463  34.955  32.992  1.00  0.00    -0.014 A 
ATOM     51  C   UNL A   1      43.160  36.004  32.374  1.00  0.00     0.009 A 
ATOM     52  C   UNL A   1      42.117  35.072  34.346  1.00  0.00     0.009 A 
ATOM     53  C   UNL A   1      43.539  37.128  33.109  1.00  0.00     0.001 A 
ATOM     54  C   UNL A   1      42.468  36.211  35.071  1.00  0.00     0.001 A 
ATOM     55  C   UNL A   1      43.189  37.234  34.454  1.00  0.00     0.000 A 
ENDBRANCH  37  50
ENDBRANCH  11  12
ENDBRANCH   4   6
ENDBRANCH   1   2
BRANCH   1  56
ATOM     56  C   UNL A   1      35.985  23.673  26.157  1.00  0.00     0.042 C 
BRANCH  56  57
ATOM     57  C   UNL A   1      34.612  23.291  25.629  1.00  0.00     0.118 C 
BRANCH  57  58
ATOM     58  N   UNL A   1      33.575  23.373  26.648  1.00  0.00    -0.352 N 
ATOM     59  C   UNL A   1      32.294  23.865  26.585  1.00  0.00     0.252 C 
ATOM     60  H   UNL A   1      33.835  23.016  27.528  1.00  0.00     0.163 HD
ATOM     61  O   UNL A   1      31.618  23.910  27.608  1.00  0.00    -0.269 OA
BRANCH  59  62
ATOM     62  C   UNL A   1      31.735  24.324  25.293  1.00  0.00     0.050 A 
ATOM     63  C   UNL A   1      31.064  23.386  24.498  1.00  0.00     0.034 A 
ATOM     64  C   UNL A   1      31.799  25.672  24.903  1.00  0.00     0.016 A 
ATOM     65  C   UNL A   1      30.572  23.792  23.276  1.00  0.00     0.112 A 
ATOM     66  C   UNL A   1      31.251  25.959  23.652  1.00  0.00     0.120 A 
ATOM     67  N   UNL A   1      30.671  25.054  22.825  1.00  0.00    -0.264 NA
BRANCH  64  68
ATOM     68  C   UNL A   1      32.351  26.761  25.723  1.00  0.00     0.020 A 
ATOM     69  C   UNL A   1      31.564  27.472  26.643  1.00  0.00     0.015 A 
ATOM     70  C   UNL A   1      33.711  27.110  25.613  1.00  0.00     0.134 A 
ATOM     71  C   UNL A   1      32.125  28.496  27.415  1.00  0.00     0.040 A 
ATOM     72  C   UNL A   1      34.276  28.126  26.377  1.00  0.00     0.079 A 
ATOM     73  F   UNL A   1      34.503  26.448  24.757  1.00  0.00    -0.206 F 
ATOM     74  C   UNL A   1      33.473  28.811  27.274  1.00  0.00     0.126 A 
ATOM     75  F   UNL A   1      34.004  29.788  28.021  1.00  0.00    -0.207 F 
ENDBRANCH  64  68
ENDBRANCH  59  62
ENDBRANCH  57  58
ENDBRANCH  56  57
ENDBRANCH   1  56
TORSDOF 11
ENDMDL
