MODEL 1
REMARK VINA RESULT:     -11.0      0.000      0.000
REMARK SMILES O=C(NCCCNC(=O)c1oc2cccc3c2c1CCC3)c1ccc(-c2c3nc(c(-c4ccccc4)c4ccc([nH]4)c(-c4ccccc4)c4nc(c(-c5ccccc5)c5ccc2[nH]5)C=C4)C=C3)cc1
REMARK SMILES IDX 4 1 3 2 1 3 2 4 22 6 23 7 69 8 24 9 68 10 25 11 26 12 27 13
REMARK SMILES IDX 62 14 28 15 67 16 61 17 63 18 29 19 66 20 60 21 59 22 30 24
REMARK SMILES IDX 52 25 37 26 51 27 38 28 41 29 50 30 64 31 39 32 40 33 49 35
REMARK SMILES IDX 65 36 42 37 31 38 32 39 36 40 33 41 35 42 34 43 53 44 54 45
REMARK SMILES IDX 58 46 55 47 57 48 56 49 43 50 44 51 48 52 45 53 47 54 46 55
REMARK SMILES IDX 5 56 6 57 7 58 8 59 9 61 10 62 11 63 18 64 12 65 17 66 19 67
REMARK SMILES IDX 13 68 16 69 20 70 14 71 15 72 21 73
REMARK H PARENT 3 5 63 23 41 34 7 60
REMARK Flexibility Score: inf
ROOT
ATOM      1  C   UNL A   1      43.352  23.381  29.825  1.00  0.00     0.118 C 
ENDROOT
BRANCH   1   2
ATOM      2  N   UNL A   1      44.516  23.914  30.509  1.00  0.00    -0.352 N 
ATOM      3  O   UNL A   1      45.828  25.177  31.784  1.00  0.00    -0.269 OA
ATOM      4  C   UNL A   1      44.787  25.104  31.129  1.00  0.00     0.251 C 
ATOM      5  H   UNL A   1      45.272  23.284  30.533  1.00  0.00     0.163 HD
BRANCH   4   6
ATOM      6  C   UNL A   1      43.966  26.328  30.960  1.00  0.00     0.039 A 
ATOM      7  C   UNL A   1      43.577  27.181  31.993  1.00  0.00     0.014 A 
ATOM      8  C   UNL A   1      43.540  26.607  29.649  1.00  0.00     0.014 A 
ATOM      9  C   UNL A   1      42.670  28.204  31.746  1.00  0.00     0.010 A 
ATOM     10  C   UNL A   1      42.657  27.646  29.390  1.00  0.00     0.010 A 
ATOM     11  C   UNL A   1      42.188  28.415  30.450  1.00  0.00    -0.014 A 
BRANCH  11  12
ATOM     12  C   UNL A   1      41.327  29.571  30.227  1.00  0.00     0.031 A 
ATOM     13  C   UNL A   1      42.057  30.827  29.886  1.00  0.00     0.074 A 
ATOM     14  C   UNL A   1      39.982  29.520  30.199  1.00  0.00     0.049 A 
ATOM     15  N   UNL A   1      42.061  31.948  30.530  1.00  0.00    -0.248 NA
ATOM     16  C   UNL A   1      42.965  30.792  28.727  1.00  0.00     0.031 C 
ATOM     17  C   UNL A   1      39.111  28.343  30.220  1.00  0.00     0.029 A 
ATOM     18  N   UNL A   1      39.104  30.549  30.044  1.00  0.00    -0.354 N 
ATOM     19  C   UNL A   1      42.867  32.811  29.791  1.00  0.00     0.074 A 
ATOM     20  C   UNL A   1      43.477  32.021  28.751  1.00  0.00     0.031 C 
ATOM     21  C   UNL A   1      37.859  28.709  29.858  1.00  0.00     0.029 A 
ATOM     22  C   UNL A   1      37.811  30.156  29.721  1.00  0.00     0.049 A 
ATOM     23  H   UNL A   1      39.362  31.492  30.152  1.00  0.00     0.167 HD
ATOM     24  C   UNL A   1      42.860  34.160  29.964  1.00  0.00     0.031 A 
ATOM     25  C   UNL A   1      36.807  30.970  29.309  1.00  0.00     0.031 A 
ATOM     26  C   UNL A   1      42.264  34.559  31.204  1.00  0.00     0.049 A 
ATOM     27  C   UNL A   1      37.154  32.345  29.733  1.00  0.00     0.074 A 
ATOM     28  C   UNL A   1      42.578  34.377  32.535  1.00  0.00     0.029 A 
ATOM     29  N   UNL A   1      40.950  34.954  31.178  1.00  0.00    -0.354 N 
ATOM     30  N   UNL A   1      37.202  32.730  30.975  1.00  0.00    -0.248 NA
ATOM     31  C   UNL A   1      37.836  33.206  28.781  1.00  0.00     0.031 C 
ATOM     32  C   UNL A   1      41.323  34.194  33.185  1.00  0.00     0.029 A 
ATOM     33  C   UNL A   1      40.323  34.326  32.222  1.00  0.00     0.049 A 
ATOM     34  H   UNL A   1      40.537  35.572  30.531  1.00  0.00     0.167 HD
ATOM     35  C   UNL A   1      38.255  33.629  31.024  1.00  0.00     0.074 A 
ATOM     36  C   UNL A   1      38.540  33.958  29.630  1.00  0.00     0.031 C 
ATOM     37  C   UNL A   1      38.973  33.811  32.169  1.00  0.00     0.031 A 
BRANCH  24  38
ATOM     38  C   UNL A   1      43.110  35.122  28.839  1.00  0.00    -0.014 A 
ATOM     39  C   UNL A   1      44.202  36.002  28.892  1.00  0.00     0.009 A 
ATOM     40  C   UNL A   1      42.146  35.355  27.838  1.00  0.00     0.009 A 
ATOM     41  C   UNL A   1      44.314  37.068  27.990  1.00  0.00     0.001 A 
ATOM     42  C   UNL A   1      42.274  36.394  26.914  1.00  0.00     0.001 A 
ATOM     43  C   UNL A   1      43.352  37.262  27.001  1.00  0.00     0.000 A 
ENDBRANCH  24  38
BRANCH  25  44
ATOM     44  C   UNL A   1      35.752  30.723  28.298  1.00  0.00    -0.014 A 
ATOM     45  C   UNL A   1      35.696  29.489  27.624  1.00  0.00     0.009 A 
ATOM     46  C   UNL A   1      34.622  31.557  28.224  1.00  0.00     0.009 A 
ATOM     47  C   UNL A   1      34.530  29.076  26.966  1.00  0.00     0.001 A 
ATOM     48  C   UNL A   1      33.461  31.147  27.558  1.00  0.00     0.001 A 
ATOM     49  C   UNL A   1      33.407  29.897  26.949  1.00  0.00     0.000 A 
ENDBRANCH  25  44
BRANCH  37  50
ATOM     50  C   UNL A   1      38.454  33.178  33.436  1.00  0.00    -0.014 A 
ATOM     51  C   UNL A   1      38.769  31.859  33.811  1.00  0.00     0.009 A 
ATOM     52  C   UNL A   1      37.786  33.993  34.359  1.00  0.00     0.009 A 
ATOM     53  C   UNL A   1      38.423  31.374  35.077  1.00  0.00     0.001 A 
ATOM     54  C   UNL A   1      37.455  33.513  35.628  1.00  0.00     0.001 A 
ATOM     55  C   UNL A   1      37.776  32.206  35.988  1.00  0.00     0.000 A 
ENDBRANCH  37  50
ENDBRANCH  11  12
ENDBRANCH   4   6
ENDBRANCH   1   2
BRANCH   1  56
ATOM     56  C   UNL A   1      43.638  22.585  28.557  1.00  0.00     0.042 C 
BRANCH  56  57
ATOM     57  C   UNL A   1      44.642  23.231  27.605  1.00  0.00     0.118 C 
BRANCH  57  58
ATOM     58  N   UNL A   1      44.407  22.898  26.212  1.00  0.00    -0.349 N 
ATOM     59  C   UNL A   1      43.512  23.432  25.321  1.00  0.00     0.287 C 
ATOM     60  H   UNL A   1      44.977  22.182  25.851  1.00  0.00     0.163 HD
ATOM     61  O   UNL A   1      43.385  22.827  24.241  1.00  0.00    -0.266 OA
BRANCH  59  62
ATOM     62  C   UNL A   1      42.771  24.623  25.648  1.00  0.00     0.195 A 
ATOM     63  O   UNL A   1      43.280  25.833  25.203  1.00  0.00    -0.451 OA
ATOM     64  C   UNL A   1      41.615  24.863  26.379  1.00  0.00     0.012 A 
ATOM     65  C   UNL A   1      42.429  26.820  25.607  1.00  0.00     0.135 A 
ATOM     66  C   UNL A   1      41.403  26.252  26.317  1.00  0.00     0.028 A 
ATOM     67  C   UNL A   1      40.650  24.030  27.155  1.00  0.00     0.041 C 
ATOM     68  C   UNL A   1      42.513  28.186  25.381  1.00  0.00     0.048 A 
ATOM     69  C   UNL A   1      40.370  26.999  26.881  1.00  0.00    -0.037 A 
ATOM     70  C   UNL A   1      39.876  24.900  28.191  1.00  0.00     0.010 C 
ATOM     71  C   UNL A   1      41.461  28.955  25.919  1.00  0.00     0.004 A 
ATOM     72  C   UNL A   1      40.403  28.378  26.649  1.00  0.00     0.004 A 
ATOM     73  C   UNL A   1      39.306  26.236  27.620  1.00  0.00     0.036 C 
ENDBRANCH  59  62
ENDBRANCH  57  58
ENDBRANCH  56  57
ENDBRANCH   1  56
TORSDOF 10
ENDMDL
MODEL 2
REMARK VINA RESULT:     -10.9      3.328     10.049
REMARK SMILES O=C(NCCCNC(=O)c1oc2cccc3c2c1CCC3)c1ccc(-c2c3nc(c(-c4ccccc4)c4ccc([nH]4)c(-c4ccccc4)c4nc(c(-c5ccccc5)c5ccc2[nH]5)C=C4)C=C3)cc1
REMARK SMILES IDX 4 1 3 2 1 3 2 4 22 6 23 7 69 8 24 9 68 10 25 11 26 12 27 13
REMARK SMILES IDX 62 14 28 15 67 16 61 17 63 18 29 19 66 20 60 21 59 22 30 24
REMARK SMILES IDX 52 25 37 26 51 27 38 28 41 29 50 30 64 31 39 32 40 33 49 35
REMARK SMILES IDX 65 36 42 37 31 38 32 39 36 40 33 41 35 42 34 43 53 44 54 45
REMARK SMILES IDX 58 46 55 47 57 48 56 49 43 50 44 51 48 52 45 53 47 54 46 55
REMARK SMILES IDX 5 56 6 57 7 58 8 59 9 61 10 62 11 63 18 64 12 65 17 66 19 67
REMARK SMILES IDX 13 68 16 69 20 70 14 71 15 72 21 73
REMARK H PARENT 3 5 63 23 41 34 7 60
REMARK Flexibility Score: inf
ROOT
ATOM      1  C   UNL A   1      39.600  33.963  32.730  1.00  0.00     0.118 C 
ENDROOT
BRANCH   1   2
ATOM      2  N   UNL A   1      40.359  34.554  31.644  1.00  0.00    -0.352 N 
ATOM      3  O   UNL A   1      41.352  34.866  29.679  1.00  0.00    -0.269 OA
ATOM      4  C   UNL A   1      40.924  34.054  30.501  1.00  0.00     0.251 C 
ATOM      5  H   UNL A   1      40.496  35.523  31.752  1.00  0.00     0.163 HD
BRANCH   4   6
ATOM      6  C   UNL A   1      41.149  32.609  30.257  1.00  0.00     0.039 A 
ATOM      7  C   UNL A   1      40.163  31.624  30.309  1.00  0.00     0.014 A 
ATOM      8  C   UNL A   1      42.476  32.231  29.981  1.00  0.00     0.014 A 
ATOM      9  C   UNL A   1      40.515  30.282  30.229  1.00  0.00     0.010 A 
ATOM     10  C   UNL A   1      42.829  30.893  29.870  1.00  0.00     0.010 A 
ATOM     11  C   UNL A   1      41.852  29.919  30.040  1.00  0.00    -0.014 A 
BRANCH  11  12
ATOM     12  C   UNL A   1      42.150  28.503  29.850  1.00  0.00     0.031 A 
ATOM     13  C   UNL A   1      42.877  27.870  30.988  1.00  0.00     0.074 A 
ATOM     14  C   UNL A   1      41.714  27.770  28.808  1.00  0.00     0.049 A 
ATOM     15  N   UNL A   1      44.041  27.304  30.977  1.00  0.00    -0.248 NA
ATOM     16  C   UNL A   1      42.262  27.959  32.322  1.00  0.00     0.031 C 
ATOM     17  C   UNL A   1      40.759  28.143  27.764  1.00  0.00     0.029 A 
ATOM     18  N   UNL A   1      41.980  26.464  28.529  1.00  0.00    -0.354 N 
ATOM     19  C   UNL A   1      44.255  26.846  32.273  1.00  0.00     0.074 A 
ATOM     20  C   UNL A   1      43.179  27.363  33.081  1.00  0.00     0.031 C 
ATOM     21  C   UNL A   1      40.359  27.028  27.107  1.00  0.00     0.029 A 
ATOM     22  C   UNL A   1      41.131  25.894  27.588  1.00  0.00     0.049 A 
ATOM     23  H   UNL A   1      42.712  25.965  28.958  1.00  0.00     0.167 HD
ATOM     24  C   UNL A   1      45.209  25.926  32.585  1.00  0.00     0.031 A 
ATOM     25  C   UNL A   1      41.041  24.574  27.288  1.00  0.00     0.031 A 
ATOM     26  C   UNL A   1      46.196  25.779  31.557  1.00  0.00     0.049 A 
ATOM     27  C   UNL A   1      42.296  23.933  27.742  1.00  0.00     0.074 A 
ATOM     28  C   UNL A   1      47.155  26.605  31.006  1.00  0.00     0.029 A 
ATOM     29  N   UNL A   1      46.044  24.738  30.676  1.00  0.00    -0.354 N 
ATOM     30  N   UNL A   1      43.460  24.161  27.208  1.00  0.00    -0.248 NA
ATOM     31  C   UNL A   1      42.317  23.323  29.061  1.00  0.00     0.031 C 
ATOM     32  C   UNL A   1      47.162  26.280  29.619  1.00  0.00     0.029 A 
ATOM     33  C   UNL A   1      46.248  25.246  29.419  1.00  0.00     0.049 A 
ATOM     34  H   UNL A   1      45.828  23.804  30.904  1.00  0.00     0.167 HD
ATOM     35  C   UNL A   1      44.348  24.120  28.271  1.00  0.00     0.074 A 
ATOM     36  C   UNL A   1      43.605  23.502  29.365  1.00  0.00     0.031 C 
ATOM     37  C   UNL A   1      45.508  24.837  28.247  1.00  0.00     0.031 A 
BRANCH  24  38
ATOM     38  C   UNL A   1      45.042  24.930  33.697  1.00  0.00    -0.014 A 
ATOM     39  C   UNL A   1      46.093  24.693  34.595  1.00  0.00     0.009 A 
ATOM     40  C   UNL A   1      43.954  24.035  33.728  1.00  0.00     0.009 A 
ATOM     41  C   UNL A   1      46.058  23.604  35.475  1.00  0.00     0.001 A 
ATOM     42  C   UNL A   1      43.899  22.970  34.629  1.00  0.00     0.001 A 
ATOM     43  C   UNL A   1      44.960  22.746  35.494  1.00  0.00     0.000 A 
ENDBRANCH  24  38
BRANCH  25  44
ATOM     44  C   UNL A   1      39.844  23.766  26.958  1.00  0.00    -0.014 A 
ATOM     45  C   UNL A   1      38.615  24.400  26.697  1.00  0.00     0.009 A 
ATOM     46  C   UNL A   1      39.972  22.417  26.584  1.00  0.00     0.009 A 
ATOM     47  C   UNL A   1      37.584  23.732  26.024  1.00  0.00     0.001 A 
ATOM     48  C   UNL A   1      38.937  21.747  25.919  1.00  0.00     0.001 A 
ATOM     49  C   UNL A   1      37.752  22.411  25.619  1.00  0.00     0.000 A 
ENDBRANCH  25  44
BRANCH  37  50
ATOM     50  C   UNL A   1      45.904  25.495  26.949  1.00  0.00    -0.014 A 
ATOM     51  C   UNL A   1      45.411  26.752  26.553  1.00  0.00     0.009 A 
ATOM     52  C   UNL A   1      46.939  24.918  26.202  1.00  0.00     0.009 A 
ATOM     53  C   UNL A   1      45.943  27.409  25.437  1.00  0.00     0.001 A 
ATOM     54  C   UNL A   1      47.480  25.582  25.098  1.00  0.00     0.001 A 
ATOM     55  C   UNL A   1      46.985  26.827  24.718  1.00  0.00     0.000 A 
ENDBRANCH  37  50
ENDBRANCH  11  12
ENDBRANCH   4   6
ENDBRANCH   1   2
BRANCH   1  56
ATOM     56  C   UNL A   1      38.173  34.476  32.895  1.00  0.00     0.042 C 
BRANCH  56  57
ATOM     57  C   UNL A   1      37.257  34.222  31.701  1.00  0.00     0.118 C 
BRANCH  57  58
ATOM     58  N   UNL A   1      35.911  33.836  32.084  1.00  0.00    -0.349 N 
ATOM     59  C   UNL A   1      35.285  32.619  31.985  1.00  0.00     0.287 C 
ATOM     60  H   UNL A   1      35.363  34.555  32.473  1.00  0.00     0.163 HD
ATOM     61  O   UNL A   1      34.061  32.612  32.207  1.00  0.00    -0.266 OA
BRANCH  59  62
ATOM     62  C   UNL A   1      36.030  31.436  31.637  1.00  0.00     0.195 A 
ATOM     63  O   UNL A   1      36.606  30.718  32.674  1.00  0.00    -0.451 OA
ATOM     64  C   UNL A   1      36.358  30.829  30.432  1.00  0.00     0.012 A 
ATOM     65  C   UNL A   1      37.248  29.642  32.132  1.00  0.00     0.135 A 
ATOM     66  C   UNL A   1      37.102  29.684  30.769  1.00  0.00     0.028 A 
ATOM     67  C   UNL A   1      36.116  31.121  28.989  1.00  0.00     0.041 C 
ATOM     68  C   UNL A   1      37.949  28.634  32.776  1.00  0.00     0.048 A 
ATOM     69  C   UNL A   1      37.657  28.728  29.920  1.00  0.00    -0.037 A 
ATOM     70  C   UNL A   1      37.168  30.398  28.094  1.00  0.00     0.010 C 
ATOM     71  C   UNL A   1      38.493  27.641  31.936  1.00  0.00     0.004 A 
ATOM     72  C   UNL A   1      38.346  27.678  30.535  1.00  0.00     0.004 A 
ATOM     73  C   UNL A   1      37.401  28.896  28.449  1.00  0.00     0.036 C 
ENDBRANCH  59  62
ENDBRANCH  57  58
ENDBRANCH  56  57
ENDBRANCH   1  56
TORSDOF 10
ENDMDL
MODEL 3
REMARK VINA RESULT:     -10.3      2.800      4.876
REMARK SMILES O=C(NCCCNC(=O)c1oc2cccc3c2c1CCC3)c1ccc(-c2c3nc(c(-c4ccccc4)c4ccc([nH]4)c(-c4ccccc4)c4nc(c(-c5ccccc5)c5ccc2[nH]5)C=C4)C=C3)cc1
REMARK SMILES IDX 4 1 3 2 1 3 2 4 22 6 23 7 69 8 24 9 68 10 25 11 26 12 27 13
REMARK SMILES IDX 62 14 28 15 67 16 61 17 63 18 29 19 66 20 60 21 59 22 30 24
REMARK SMILES IDX 52 25 37 26 51 27 38 28 41 29 50 30 64 31 39 32 40 33 49 35
REMARK SMILES IDX 65 36 42 37 31 38 32 39 36 40 33 41 35 42 34 43 53 44 54 45
REMARK SMILES IDX 58 46 55 47 57 48 56 49 43 50 44 51 48 52 45 53 47 54 46 55
REMARK SMILES IDX 5 56 6 57 7 58 8 59 9 61 10 62 11 63 18 64 12 65 17 66 19 67
REMARK SMILES IDX 13 68 16 69 20 70 14 71 15 72 21 73
REMARK H PARENT 3 5 63 23 41 34 7 60
REMARK Flexibility Score: inf
ROOT
ATOM      1  C   UNL A   1      41.474  21.095  27.836  1.00  0.00     0.118 C 
ENDROOT
BRANCH   1   2
ATOM      2  N   UNL A   1      40.335  21.465  27.016  1.00  0.00    -0.352 N 
ATOM      3  O   UNL A   1      38.907  22.644  25.785  1.00  0.00    -0.269 OA
ATOM      4  C   UNL A   1      39.775  22.663  26.659  1.00  0.00     0.251 C 
ATOM      5  H   UNL A   1      39.866  20.689  26.634  1.00  0.00     0.163 HD
BRANCH   4   6
ATOM      6  C   UNL A   1      40.070  23.947  27.340  1.00  0.00     0.039 A 
ATOM      7  C   UNL A   1      41.251  24.239  28.024  1.00  0.00     0.014 A 
ATOM      8  C   UNL A   1      39.050  24.915  27.297  1.00  0.00     0.014 A 
ATOM      9  C   UNL A   1      41.353  25.409  28.766  1.00  0.00     0.010 A 
ATOM     10  C   UNL A   1      39.159  26.100  28.012  1.00  0.00     0.010 A 
ATOM     11  C   UNL A   1      40.295  26.323  28.782  1.00  0.00    -0.014 A 
BRANCH  11  12
ATOM     12  C   UNL A   1      40.500  27.585  29.485  1.00  0.00     0.031 A 
ATOM     13  C   UNL A   1      41.471  28.506  28.826  1.00  0.00     0.074 A 
ATOM     14  C   UNL A   1      39.800  27.972  30.569  1.00  0.00     0.049 A 
ATOM     15  N   UNL A   1      42.580  28.972  29.302  1.00  0.00    -0.248 NA
ATOM     16  C   UNL A   1      41.209  28.882  27.427  1.00  0.00     0.031 C 
ATOM     17  C   UNL A   1      38.625  27.339  31.171  1.00  0.00     0.029 A 
ATOM     18  N   UNL A   1      39.954  29.103  31.310  1.00  0.00    -0.354 N 
ATOM     19  C   UNL A   1      43.098  29.808  28.316  1.00  0.00     0.074 A 
ATOM     20  C   UNL A   1      42.271  29.636  27.148  1.00  0.00     0.031 C 
ATOM     21  C   UNL A   1      38.045  28.207  32.033  1.00  0.00     0.029 A 
ATOM     22  C   UNL A   1      38.883  29.390  32.147  1.00  0.00     0.049 A 
ATOM     23  H   UNL A   1      40.756  29.671  31.257  1.00  0.00     0.167 HD
ATOM     24  C   UNL A   1      44.074  30.723  28.561  1.00  0.00     0.031 A 
ATOM     25  C   UNL A   1      38.687  30.549  32.826  1.00  0.00     0.031 A 
ATOM     26  C   UNL A   1      44.771  30.479  29.788  1.00  0.00     0.049 A 
ATOM     27  C   UNL A   1      39.997  31.229  32.924  1.00  0.00     0.074 A 
ATOM     28  C   UNL A   1      45.584  29.468  30.260  1.00  0.00     0.029 A 
ATOM     29  N   UNL A   1      44.377  31.192  30.893  1.00  0.00    -0.354 N 
ATOM     30  N   UNL A   1      40.998  30.777  33.622  1.00  0.00    -0.248 NA
ATOM     31  C   UNL A   1      40.331  32.226  31.919  1.00  0.00     0.031 C 
ATOM     32  C   UNL A   1      45.238  29.332  31.635  1.00  0.00     0.029 A 
ATOM     33  C   UNL A   1      44.276  30.299  31.929  1.00  0.00     0.049 A 
ATOM     34  H   UNL A   1      44.201  32.160  30.934  1.00  0.00     0.167 HD
ATOM     35  C   UNL A   1      42.121  31.105  32.880  1.00  0.00     0.074 A 
ATOM     36  C   UNL A   1      41.658  32.081  31.897  1.00  0.00     0.031 C 
ATOM     37  C   UNL A   1      43.257  30.354  32.953  1.00  0.00     0.031 A 
BRANCH  24  38
ATOM     38  C   UNL A   1      44.163  32.029  27.824  1.00  0.00    -0.014 A 
ATOM     39  C   UNL A   1      43.613  33.193  28.383  1.00  0.00     0.009 A 
ATOM     40  C   UNL A   1      44.558  32.089  26.472  1.00  0.00     0.009 A 
ATOM     41  C   UNL A   1      43.460  34.357  27.619  1.00  0.00     0.001 A 
ATOM     42  C   UNL A   1      44.440  33.258  25.719  1.00  0.00     0.001 A 
ATOM     43  C   UNL A   1      43.875  34.390  26.289  1.00  0.00     0.000 A 
ENDBRANCH  24  38
BRANCH  25  44
ATOM     44  C   UNL A   1      37.424  31.275  33.098  1.00  0.00    -0.014 A 
ATOM     45  C   UNL A   1      37.350  32.186  34.168  1.00  0.00     0.009 A 
ATOM     46  C   UNL A   1      36.404  31.323  32.132  1.00  0.00     0.009 A 
ATOM     47  C   UNL A   1      36.338  33.152  34.228  1.00  0.00     0.001 A 
ATOM     48  C   UNL A   1      35.387  32.282  32.197  1.00  0.00     0.001 A 
ATOM     49  C   UNL A   1      35.367  33.212  33.233  1.00  0.00     0.000 A 
ENDBRANCH  25  44
BRANCH  37  50
ATOM     50  C   UNL A   1      43.335  29.295  34.024  1.00  0.00    -0.014 A 
ATOM     51  C   UNL A   1      43.888  29.538  35.294  1.00  0.00     0.009 A 
ATOM     52  C   UNL A   1      42.666  28.083  33.808  1.00  0.00     0.009 A 
ATOM     53  C   UNL A   1      43.773  28.591  36.318  1.00  0.00     0.001 A 
ATOM     54  C   UNL A   1      42.538  27.144  34.834  1.00  0.00     0.001 A 
ATOM     55  C   UNL A   1      43.088  27.399  36.089  1.00  0.00     0.000 A 
ENDBRANCH  37  50
ENDBRANCH  11  12
ENDBRANCH   4   6
ENDBRANCH   1   2
BRANCH   1  56
ATOM     56  C   UNL A   1      42.512  20.205  27.162  1.00  0.00     0.042 C 
BRANCH  56  57
ATOM     57  C   UNL A   1      42.933  20.653  25.765  1.00  0.00     0.118 C 
BRANCH  57  58
ATOM     58  N   UNL A   1      44.334  20.402  25.480  1.00  0.00    -0.349 N 
ATOM     59  C   UNL A   1      45.407  21.255  25.534  1.00  0.00     0.287 C 
ATOM     60  H   UNL A   1      44.548  19.481  25.208  1.00  0.00     0.163 HD
ATOM     61  O   UNL A   1      46.471  20.830  25.049  1.00  0.00    -0.266 OA
BRANCH  59  62
ATOM     62  C   UNL A   1      45.276  22.565  26.119  1.00  0.00     0.195 A 
ATOM     63  O   UNL A   1      45.949  22.802  27.309  1.00  0.00    -0.451 OA
ATOM     64  C   UNL A   1      44.561  23.704  25.771  1.00  0.00     0.012 A 
ATOM     65  C   UNL A   1      45.701  24.091  27.680  1.00  0.00     0.135 A 
ATOM     66  C   UNL A   1      44.866  24.663  26.754  1.00  0.00     0.028 A 
ATOM     67  C   UNL A   1      43.616  24.079  24.680  1.00  0.00     0.041 C 
ATOM     68  C   UNL A   1      46.172  24.782  28.786  1.00  0.00     0.048 A 
ATOM     69  C   UNL A   1      44.413  25.977  26.856  1.00  0.00    -0.037 A 
ATOM     70  C   UNL A   1      42.730  25.289  25.107  1.00  0.00     0.010 C 
ATOM     71  C   UNL A   1      45.748  26.123  28.891  1.00  0.00     0.004 A 
ATOM     72  C   UNL A   1      44.891  26.716  27.942  1.00  0.00     0.004 A 
ATOM     73  C   UNL A   1      43.513  26.471  25.757  1.00  0.00     0.036 C 
ENDBRANCH  59  62
ENDBRANCH  57  58
ENDBRANCH  56  57
ENDBRANCH   1  56
TORSDOF 10
ENDMDL
