MODEL 1
REMARK VINA RESULT:     -10.4      0.000      0.000
REMARK SMILES CC[C@@H](C(=O)NCCCNC(=O)c1ccc(-c2c3nc(c(-c4ccccc4)c4ccc([nH]4)c(-c4ccccc4)c4nc(c(-c5ccccc5)c5ccc2[nH]5)C=C4)C=C3)cc1)N(C)C(=O)c1cn(C2C[NH2+]C2)nn1
REMARK SMILES IDX 7 1 6 2 4 3 5 4 3 6 2 7 1 8 61 9 62 10 63 11 64 12 65 13
REMARK SMILES IDX 66 14 73 15 67 16 72 17 68 18 69 19 71 20 70 21 8 24 9 25
REMARK SMILES IDX 10 26 11 27 12 29 13 30 14 31 60 32 15 33 59 34 16 35 17 36
REMARK SMILES IDX 18 37 53 38 19 39 58 40 52 41 54 42 20 43 57 44 51 45 50 46
REMARK SMILES IDX 21 48 43 49 28 50 42 51 29 52 32 53 41 54 55 55 30 56 31 57
REMARK SMILES IDX 40 59 56 60 33 61 22 62 23 63 27 64 24 65 26 66 25 67 44 68
REMARK SMILES IDX 45 69 49 70 46 71 48 72 47 73 34 74 35 75 39 76 36 77 38 78
REMARK SMILES IDX 37 79
REMARK H PARENT 6 5 70 22 70 23 10 28 54 47 32 58
REMARK Flexibility Score: inf
ROOT
ATOM      1  C   UNL A   1      31.719  30.490  26.210  1.00  0.00     0.117 C 
ENDROOT
BRANCH   1   2
ATOM      2  N   UNL A   1      30.977  30.422  24.968  1.00  0.00    -0.354 N 
ATOM      3  C   UNL A   1      30.817  29.430  24.048  1.00  0.00     0.242 C 
ATOM      4  O   UNL A   1      29.949  29.653  23.196  1.00  0.00    -0.273 OA
ATOM      5  H   UNL A   1      30.495  31.252  24.746  1.00  0.00     0.163 HD
BRANCH   3   6
ATOM      6  C   UNL A   1      31.599  28.084  24.123  1.00  0.00     0.174 C 
BRANCH   6   7
ATOM      7  C   UNL A   1      32.126  27.471  22.807  1.00  0.00     0.032 C 
ATOM      8  C   UNL A   1      33.542  26.927  22.803  1.00  0.00     0.006 C 
ENDBRANCH   6   7
BRANCH   6   9
ATOM      9  N   UNL A   1      30.731  27.074  24.806  1.00  0.00    -0.328 N 
ATOM     10  C   UNL A   1      29.511  26.655  24.134  1.00  0.00     0.148 C 
BRANCH   9  11
ATOM     11  C   UNL A   1      31.099  26.640  26.096  1.00  0.00     0.276 C 
ATOM     12  O   UNL A   1      30.904  27.334  27.097  1.00  0.00    -0.267 OA
BRANCH  11  13
ATOM     13  C   UNL A   1      31.651  25.301  26.260  1.00  0.00     0.170 A 
ATOM     14  C   UNL A   1      32.735  24.702  25.645  1.00  0.00     0.145 A 
ATOM     15  N   UNL A   1      31.127  24.421  27.179  1.00  0.00    -0.125 NA
ATOM     16  N   UNL A   1      32.792  23.457  26.211  1.00  0.00    -0.237 N 
ATOM     17  N   UNL A   1      31.817  23.293  27.121  1.00  0.00    -0.066 NA
BRANCH  16  18
ATOM     18  C   UNL A   1      33.695  22.387  25.917  1.00  0.00     0.218 C 
ATOM     19  C   UNL A   1      35.183  22.772  26.069  1.00  0.00     0.294 C 
ATOM     20  C   UNL A   1      33.982  21.450  27.110  1.00  0.00     0.294 C 
ATOM     21  N   UNL A   1      35.417  21.477  26.744  1.00  0.00    -0.342 N 
ATOM     22  H   UNL A   1      36.053  21.525  27.540  1.00  0.00     0.346 HD
ATOM     23  H   UNL A   1      35.852  20.696  26.252  1.00  0.00     0.346 HD
ENDBRANCH  16  18
ENDBRANCH  11  13
ENDBRANCH   9  11
ENDBRANCH   6   9
ENDBRANCH   3   6
ENDBRANCH   1   2
BRANCH   1  24
ATOM     24  C   UNL A   1      31.495  31.814  26.933  1.00  0.00     0.042 C 
BRANCH  24  25
ATOM     25  C   UNL A   1      32.696  32.751  26.938  1.00  0.00     0.118 C 
BRANCH  25  26
ATOM     26  N   UNL A   1      32.462  33.967  27.697  1.00  0.00    -0.352 N 
ATOM     27  C   UNL A   1      33.168  34.498  28.750  1.00  0.00     0.251 C 
ATOM     28  H   UNL A   1      31.678  34.491  27.414  1.00  0.00     0.163 HD
ATOM     29  O   UNL A   1      32.702  35.455  29.362  1.00  0.00    -0.269 OA
BRANCH  27  30
ATOM     30  C   UNL A   1      34.471  33.926  29.174  1.00  0.00     0.039 A 
ATOM     31  C   UNL A   1      34.484  32.985  30.208  1.00  0.00     0.014 A 
ATOM     32  C   UNL A   1      35.680  34.343  28.610  1.00  0.00     0.014 A 
ATOM     33  C   UNL A   1      35.693  32.435  30.644  1.00  0.00     0.010 A 
ATOM     34  C   UNL A   1      36.877  33.732  28.984  1.00  0.00     0.010 A 
ATOM     35  C   UNL A   1      36.901  32.789  30.022  1.00  0.00    -0.014 A 
BRANCH  35  36
ATOM     36  C   UNL A   1      38.201  32.233  30.483  1.00  0.00     0.031 A 
ATOM     37  C   UNL A   1      38.715  30.942  29.899  1.00  0.00     0.074 A 
ATOM     38  C   UNL A   1      38.900  32.852  31.454  1.00  0.00     0.049 A 
ATOM     39  N   UNL A   1      39.789  30.261  30.213  1.00  0.00    -0.248 NA
ATOM     40  C   UNL A   1      37.902  30.321  28.840  1.00  0.00     0.031 C 
ATOM     41  C   UNL A   1      38.506  34.089  32.130  1.00  0.00     0.029 A 
ATOM     42  N   UNL A   1      40.095  32.518  32.043  1.00  0.00    -0.354 N 
ATOM     43  C   UNL A   1      39.761  29.123  29.416  1.00  0.00     0.074 A 
ATOM     44  C   UNL A   1      38.546  29.182  28.636  1.00  0.00     0.031 C 
ATOM     45  C   UNL A   1      39.453  34.421  33.024  1.00  0.00     0.029 A 
ATOM     46  C   UNL A   1      40.502  33.407  33.008  1.00  0.00     0.049 A 
ATOM     47  H   UNL A   1      40.611  31.716  31.798  1.00  0.00     0.167 HD
ATOM     48  C   UNL A   1      40.672  28.125  29.324  1.00  0.00     0.031 A 
ATOM     49  C   UNL A   1      41.596  33.406  33.793  1.00  0.00     0.031 A 
ATOM     50  C   UNL A   1      41.900  28.075  30.071  1.00  0.00     0.049 A 
ATOM     51  C   UNL A   1      42.603  32.297  33.658  1.00  0.00     0.074 A 
ATOM     52  C   UNL A   1      42.913  27.134  30.004  1.00  0.00     0.029 A 
ATOM     53  N   UNL A   1      42.285  29.013  31.015  1.00  0.00    -0.354 N 
ATOM     54  N   UNL A   1      42.586  31.258  32.861  1.00  0.00    -0.248 NA
ATOM     55  C   UNL A   1      43.790  32.373  34.524  1.00  0.00     0.031 C 
ATOM     56  C   UNL A   1      43.898  27.485  30.933  1.00  0.00     0.029 A 
ATOM     57  C   UNL A   1      43.517  28.668  31.545  1.00  0.00     0.049 A 
ATOM     58  H   UNL A   1      41.761  29.805  31.271  1.00  0.00     0.167 HD
ATOM     59  C   UNL A   1      43.769  30.573  33.106  1.00  0.00     0.074 A 
ATOM     60  C   UNL A   1      44.486  31.321  34.118  1.00  0.00     0.031 C 
ATOM     61  C   UNL A   1      44.222  29.428  32.541  1.00  0.00     0.031 A 
BRANCH  48  62
ATOM     62  C   UNL A   1      40.370  26.999  28.375  1.00  0.00    -0.014 A 
ATOM     63  C   UNL A   1      39.587  25.904  28.774  1.00  0.00     0.009 A 
ATOM     64  C   UNL A   1      40.850  27.049  27.057  1.00  0.00     0.009 A 
ATOM     65  C   UNL A   1      39.321  24.864  27.881  1.00  0.00     0.001 A 
ATOM     66  C   UNL A   1      40.560  26.020  26.159  1.00  0.00     0.001 A 
ATOM     67  C   UNL A   1      39.805  24.924  26.574  1.00  0.00     0.000 A 
ENDBRANCH  48  62
BRANCH  49  68
ATOM     68  C   UNL A   1      41.817  34.507  34.766  1.00  0.00    -0.014 A 
ATOM     69  C   UNL A   1      42.610  35.611  34.419  1.00  0.00     0.009 A 
ATOM     70  C   UNL A   1      41.249  34.453  36.048  1.00  0.00     0.009 A 
ATOM     71  C   UNL A   1      42.852  36.627  35.347  1.00  0.00     0.001 A 
ATOM     72  C   UNL A   1      41.472  35.483  36.964  1.00  0.00     0.001 A 
ATOM     73  C   UNL A   1      42.281  36.563  36.617  1.00  0.00     0.000 A 
ENDBRANCH  49  68
BRANCH  61  74
ATOM     74  C   UNL A   1      45.576  28.939  32.969  1.00  0.00    -0.014 A 
ATOM     75  C   UNL A   1      45.721  28.032  34.030  1.00  0.00     0.009 A 
ATOM     76  C   UNL A   1      46.717  29.360  32.269  1.00  0.00     0.009 A 
ATOM     77  C   UNL A   1      46.990  27.582  34.401  1.00  0.00     0.001 A 
ATOM     78  C   UNL A   1      47.980  28.889  32.626  1.00  0.00     0.001 A 
ATOM     79  C   UNL A   1      48.117  28.007  33.696  1.00  0.00     0.000 A 
ENDBRANCH  61  74
ENDBRANCH  35  36
ENDBRANCH  27  30
ENDBRANCH  25  26
ENDBRANCH  24  25
ENDBRANCH   1  24
TORSDOF 15
ENDMDL
MODEL 2
REMARK VINA RESULT:     -10.3      2.805      7.144
REMARK SMILES CC[C@@H](C(=O)NCCCNC(=O)c1ccc(-c2c3nc(c(-c4ccccc4)c4ccc([nH]4)c(-c4ccccc4)c4nc(c(-c5ccccc5)c5ccc2[nH]5)C=C4)C=C3)cc1)N(C)C(=O)c1cn(C2C[NH2+]C2)nn1
REMARK SMILES IDX 7 1 6 2 4 3 5 4 3 6 2 7 1 8 61 9 62 10 63 11 64 12 65 13
REMARK SMILES IDX 66 14 73 15 67 16 72 17 68 18 69 19 71 20 70 21 8 24 9 25
REMARK SMILES IDX 10 26 11 27 12 29 13 30 14 31 60 32 15 33 59 34 16 35 17 36
REMARK SMILES IDX 18 37 53 38 19 39 58 40 52 41 54 42 20 43 57 44 51 45 50 46
REMARK SMILES IDX 21 48 43 49 28 50 42 51 29 52 32 53 41 54 55 55 30 56 31 57
REMARK SMILES IDX 40 59 56 60 33 61 22 62 23 63 27 64 24 65 26 66 25 67 44 68
REMARK SMILES IDX 45 69 49 70 46 71 48 72 47 73 34 74 35 75 39 76 36 77 38 78
REMARK SMILES IDX 37 79
REMARK H PARENT 6 5 70 22 70 23 10 28 54 47 32 58
REMARK Flexibility Score: inf
ROOT
ATOM      1  C   UNL A   1      33.535  28.744  24.690  1.00  0.00     0.117 C 
ENDROOT
BRANCH   1   2
ATOM      2  N   UNL A   1      33.837  27.974  23.501  1.00  0.00    -0.354 N 
ATOM      3  C   UNL A   1      33.099  27.097  22.764  1.00  0.00     0.242 C 
ATOM      4  O   UNL A   1      33.612  26.769  21.688  1.00  0.00    -0.273 OA
ATOM      5  H   UNL A   1      34.749  28.112  23.158  1.00  0.00     0.163 HD
BRANCH   3   6
ATOM      6  C   UNL A   1      31.680  26.622  23.201  1.00  0.00     0.174 C 
BRANCH   6   7
ATOM      7  C   UNL A   1      30.721  27.662  23.823  1.00  0.00     0.032 C 
ATOM      8  C   UNL A   1      29.809  28.426  22.882  1.00  0.00     0.006 C 
ENDBRANCH   6   7
BRANCH   6   9
ATOM      9  N   UNL A   1      31.841  25.487  24.163  1.00  0.00    -0.328 N 
ATOM     10  C   UNL A   1      31.626  25.753  25.576  1.00  0.00     0.148 C 
BRANCH   9  11
ATOM     11  C   UNL A   1      32.265  24.240  23.660  1.00  0.00     0.276 C 
ATOM     12  O   UNL A   1      31.473  23.434  23.164  1.00  0.00    -0.267 OA
BRANCH  11  13
ATOM     13  C   UNL A   1      33.688  23.928  23.654  1.00  0.00     0.170 A 
ATOM     14  C   UNL A   1      34.627  24.028  24.664  1.00  0.00     0.145 A 
ATOM     15  N   UNL A   1      34.297  23.394  22.542  1.00  0.00    -0.125 NA
ATOM     16  N   UNL A   1      35.783  23.573  24.090  1.00  0.00    -0.237 N 
ATOM     17  N   UNL A   1      35.579  23.206  22.814  1.00  0.00    -0.066 NA
BRANCH  16  18
ATOM     18  C   UNL A   1      37.091  23.496  24.664  1.00  0.00     0.218 C 
ATOM     19  C   UNL A   1      37.109  23.687  26.196  1.00  0.00     0.294 C 
ATOM     20  C   UNL A   1      37.557  22.063  24.998  1.00  0.00     0.294 C 
ATOM     21  N   UNL A   1      38.070  22.566  26.294  1.00  0.00    -0.342 N 
ATOM     22  H   UNL A   1      37.908  21.940  27.083  1.00  0.00     0.346 HD
ATOM     23  H   UNL A   1      39.065  22.735  26.438  1.00  0.00     0.346 HD
ENDBRANCH  16  18
ENDBRANCH  11  13
ENDBRANCH   9  11
ENDBRANCH   6   9
ENDBRANCH   3   6
ENDBRANCH   1   2
BRANCH   1  24
ATOM     24  C   UNL A   1      34.205  28.159  25.930  1.00  0.00     0.042 C 
BRANCH  24  25
ATOM     25  C   UNL A   1      33.504  28.475  27.244  1.00  0.00     0.118 C 
BRANCH  25  26
ATOM     26  N   UNL A   1      33.473  29.897  27.541  1.00  0.00    -0.352 N 
ATOM     27  C   UNL A   1      34.438  30.700  28.102  1.00  0.00     0.251 C 
ATOM     28  H   UNL A   1      32.634  30.354  27.306  1.00  0.00     0.163 HD
ATOM     29  O   UNL A   1      34.147  31.849  28.425  1.00  0.00    -0.269 OA
BRANCH  27  30
ATOM     30  C   UNL A   1      35.815  30.202  28.343  1.00  0.00     0.039 A 
ATOM     31  C   UNL A   1      36.118  29.653  29.593  1.00  0.00     0.014 A 
ATOM     32  C   UNL A   1      36.822  30.318  27.381  1.00  0.00     0.014 A 
ATOM     33  C   UNL A   1      37.409  29.186  29.863  1.00  0.00     0.010 A 
ATOM     34  C   UNL A   1      38.085  29.774  27.619  1.00  0.00     0.010 A 
ATOM     35  C   UNL A   1      38.401  29.224  28.870  1.00  0.00    -0.014 A 
BRANCH  35  36
ATOM     36  C   UNL A   1      39.785  28.752  29.140  1.00  0.00     0.031 A 
ATOM     37  C   UNL A   1      40.767  29.661  29.834  1.00  0.00     0.074 A 
ATOM     38  C   UNL A   1      40.180  27.533  28.725  1.00  0.00     0.049 A 
ATOM     39  N   UNL A   1      42.033  29.461  30.100  1.00  0.00    -0.248 NA
ATOM     40  C   UNL A   1      40.265  30.977  30.261  1.00  0.00     0.031 C 
ATOM     41  C   UNL A   1      39.346  26.563  28.013  1.00  0.00     0.029 A 
ATOM     42  N   UNL A   1      41.395  26.902  28.843  1.00  0.00    -0.354 N 
ATOM     43  C   UNL A   1      42.484  30.634  30.695  1.00  0.00     0.074 A 
ATOM     44  C   UNL A   1      41.369  31.555  30.712  1.00  0.00     0.031 C 
ATOM     45  C   UNL A   1      40.066  25.453  27.779  1.00  0.00     0.029 A 
ATOM     46  C   UNL A   1      41.419  25.643  28.294  1.00  0.00     0.049 A 
ATOM     47  H   UNL A   1      42.176  27.315  29.278  1.00  0.00     0.167 HD
ATOM     48  C   UNL A   1      43.708  30.917  31.200  1.00  0.00     0.031 A 
ATOM     49  C   UNL A   1      42.417  24.744  28.211  1.00  0.00     0.031 A 
ATOM     50  C   UNL A   1      44.812  29.996  31.218  1.00  0.00     0.049 A 
ATOM     51  C   UNL A   1      43.762  25.074  28.797  1.00  0.00     0.074 A 
ATOM     52  C   UNL A   1      46.073  30.172  31.760  1.00  0.00     0.029 A 
ATOM     53  N   UNL A   1      44.781  28.721  30.678  1.00  0.00    -0.354 N 
ATOM     54  N   UNL A   1      44.153  26.167  29.404  1.00  0.00    -0.248 NA
ATOM     55  C   UNL A   1      44.799  24.035  28.700  1.00  0.00     0.031 C 
ATOM     56  C   UNL A   1      46.819  29.014  31.518  1.00  0.00     0.029 A 
ATOM     57  C   UNL A   1      46.005  28.102  30.865  1.00  0.00     0.049 A 
ATOM     58  H   UNL A   1      44.005  28.316  30.228  1.00  0.00     0.167 HD
ATOM     59  C   UNL A   1      45.468  25.938  29.787  1.00  0.00     0.074 A 
ATOM     60  C   UNL A   1      45.805  24.598  29.354  1.00  0.00     0.031 C 
ATOM     61  C   UNL A   1      46.320  26.764  30.440  1.00  0.00     0.031 A 
BRANCH  48  62
ATOM     62  C   UNL A   1      43.916  32.289  31.779  1.00  0.00    -0.014 A 
ATOM     63  C   UNL A   1      44.353  33.356  30.978  1.00  0.00     0.009 A 
ATOM     64  C   UNL A   1      43.642  32.524  33.135  1.00  0.00     0.009 A 
ATOM     65  C   UNL A   1      44.548  34.622  31.533  1.00  0.00     0.001 A 
ATOM     66  C   UNL A   1      43.811  33.798  33.680  1.00  0.00     0.001 A 
ATOM     67  C   UNL A   1      44.273  34.843  32.882  1.00  0.00     0.000 A 
ENDBRANCH  48  62
BRANCH  49  68
ATOM     68  C   UNL A   1      42.182  23.426  27.568  1.00  0.00    -0.014 A 
ATOM     69  C   UNL A   1      41.589  22.379  28.291  1.00  0.00     0.009 A 
ATOM     70  C   UNL A   1      42.560  23.202  26.236  1.00  0.00     0.009 A 
ATOM     71  C   UNL A   1      41.405  21.127  27.701  1.00  0.00     0.001 A 
ATOM     72  C   UNL A   1      42.351  21.956  25.640  1.00  0.00     0.001 A 
ATOM     73  C   UNL A   1      41.783  20.917  26.376  1.00  0.00     0.000 A 
ENDBRANCH  49  68
BRANCH  61  74
ATOM     74  C   UNL A   1      47.682  26.226  30.770  1.00  0.00    -0.014 A 
ATOM     75  C   UNL A   1      47.974  25.712  32.043  1.00  0.00     0.009 A 
ATOM     76  C   UNL A   1      48.673  26.194  29.778  1.00  0.00     0.009 A 
ATOM     77  C   UNL A   1      49.245  25.205  32.323  1.00  0.00     0.001 A 
ATOM     78  C   UNL A   1      49.934  25.665  30.053  1.00  0.00     0.001 A 
ATOM     79  C   UNL A   1      50.222  25.178  31.327  1.00  0.00     0.000 A 
ENDBRANCH  61  74
ENDBRANCH  35  36
ENDBRANCH  27  30
ENDBRANCH  25  26
ENDBRANCH  24  25
ENDBRANCH   1  24
TORSDOF 15
ENDMDL
MODEL 3
REMARK VINA RESULT:     -10.1      3.464      8.952
REMARK SMILES CC[C@@H](C(=O)NCCCNC(=O)c1ccc(-c2c3nc(c(-c4ccccc4)c4ccc([nH]4)c(-c4ccccc4)c4nc(c(-c5ccccc5)c5ccc2[nH]5)C=C4)C=C3)cc1)N(C)C(=O)c1cn(C2C[NH2+]C2)nn1
REMARK SMILES IDX 7 1 6 2 4 3 5 4 3 6 2 7 1 8 61 9 62 10 63 11 64 12 65 13
REMARK SMILES IDX 66 14 73 15 67 16 72 17 68 18 69 19 71 20 70 21 8 24 9 25
REMARK SMILES IDX 10 26 11 27 12 29 13 30 14 31 60 32 15 33 59 34 16 35 17 36
REMARK SMILES IDX 18 37 53 38 19 39 58 40 52 41 54 42 20 43 57 44 51 45 50 46
REMARK SMILES IDX 21 48 43 49 28 50 42 51 29 52 32 53 41 54 55 55 30 56 31 57
REMARK SMILES IDX 40 59 56 60 33 61 22 62 23 63 27 64 24 65 26 66 25 67 44 68
REMARK SMILES IDX 45 69 49 70 46 71 48 72 47 73 34 74 35 75 39 76 36 77 38 78
REMARK SMILES IDX 37 79
REMARK H PARENT 6 5 70 22 70 23 10 28 54 47 32 58
REMARK Flexibility Score: inf
ROOT
ATOM      1  C   UNL A   1      36.211  20.552  24.731  1.00  0.00     0.117 C 
ENDROOT
BRANCH   1   2
ATOM      2  N   UNL A   1      35.614  20.944  25.992  1.00  0.00    -0.354 N 
ATOM      3  C   UNL A   1      34.382  21.432  26.311  1.00  0.00     0.242 C 
ATOM      4  O   UNL A   1      34.145  21.475  27.524  1.00  0.00    -0.273 OA
ATOM      5  H   UNL A   1      36.213  20.837  26.766  1.00  0.00     0.163 HD
BRANCH   3   6
ATOM      6  C   UNL A   1      33.326  21.813  25.231  1.00  0.00     0.174 C 
BRANCH   6   7
ATOM      7  C   UNL A   1      32.918  20.739  24.197  1.00  0.00     0.032 C 
ATOM      8  C   UNL A   1      32.572  19.358  24.720  1.00  0.00     0.006 C 
ENDBRANCH   6   7
BRANCH   6   9
ATOM      9  N   UNL A   1      33.821  23.018  24.495  1.00  0.00    -0.328 N 
ATOM     10  C   UNL A   1      33.825  22.979  23.041  1.00  0.00     0.148 C 
BRANCH   9  11
ATOM     11  C   UNL A   1      34.329  24.098  25.246  1.00  0.00     0.276 C 
ATOM     12  O   UNL A   1      35.528  24.191  25.524  1.00  0.00    -0.267 OA
BRANCH  11  13
ATOM     13  C   UNL A   1      33.428  25.174  25.637  1.00  0.00     0.170 A 
ATOM     14  C   UNL A   1      33.404  26.502  25.254  1.00  0.00     0.145 A 
ATOM     15  N   UNL A   1      32.361  24.942  26.475  1.00  0.00    -0.125 NA
ATOM     16  N   UNL A   1      32.326  27.021  25.917  1.00  0.00    -0.237 N 
ATOM     17  N   UNL A   1      31.713  26.082  26.656  1.00  0.00    -0.066 NA
BRANCH  16  18
ATOM     18  C   UNL A   1      31.853  28.371  25.927  1.00  0.00     0.218 C 
ATOM     19  C   UNL A   1      31.752  28.982  27.342  1.00  0.00     0.294 C 
ATOM     20  C   UNL A   1      32.954  29.433  25.722  1.00  0.00     0.294 C 
ATOM     21  N   UNL A   1      32.344  30.230  26.812  1.00  0.00    -0.342 N 
ATOM     22  H   UNL A   1      33.017  30.676  27.435  1.00  0.00     0.346 HD
ATOM     23  H   UNL A   1      31.765  31.045  26.610  1.00  0.00     0.346 HD
ENDBRANCH  16  18
ENDBRANCH  11  13
ENDBRANCH   9  11
ENDBRANCH   6   9
ENDBRANCH   3   6
ENDBRANCH   1   2
BRANCH   1  24
ATOM     24  C   UNL A   1      37.401  19.620  24.932  1.00  0.00     0.042 C 
BRANCH  24  25
ATOM     25  C   UNL A   1      38.586  20.244  25.657  1.00  0.00     0.118 C 
BRANCH  25  26
ATOM     26  N   UNL A   1      39.743  19.366  25.710  1.00  0.00    -0.352 N 
ATOM     27  C   UNL A   1      41.043  19.644  26.056  1.00  0.00     0.251 C 
ATOM     28  H   UNL A   1      39.568  18.430  25.461  1.00  0.00     0.163 HD
ATOM     29  O   UNL A   1      41.908  18.790  25.871  1.00  0.00    -0.269 OA
BRANCH  27  30
ATOM     30  C   UNL A   1      41.428  20.959  26.627  1.00  0.00     0.039 A 
ATOM     31  C   UNL A   1      41.876  21.960  25.760  1.00  0.00     0.014 A 
ATOM     32  C   UNL A   1      41.408  21.201  28.004  1.00  0.00     0.014 A 
ATOM     33  C   UNL A   1      42.261  23.207  26.263  1.00  0.00     0.010 A 
ATOM     34  C   UNL A   1      41.709  22.471  28.497  1.00  0.00     0.010 A 
ATOM     35  C   UNL A   1      42.162  23.482  27.636  1.00  0.00    -0.014 A 
BRANCH  35  36
ATOM     36  C   UNL A   1      42.584  24.793  28.196  1.00  0.00     0.031 A 
ATOM     37  C   UNL A   1      41.564  25.880  28.416  1.00  0.00     0.074 A 
ATOM     38  C   UNL A   1      43.883  25.032  28.463  1.00  0.00     0.049 A 
ATOM     39  N   UNL A   1      41.740  27.109  28.831  1.00  0.00    -0.248 NA
ATOM     40  C   UNL A   1      40.163  25.549  28.105  1.00  0.00     0.031 C 
ATOM     41  C   UNL A   1      44.981  24.084  28.267  1.00  0.00     0.029 A 
ATOM     42  N   UNL A   1      44.499  26.156  28.957  1.00  0.00    -0.354 N 
ATOM     43  C   UNL A   1      40.484  27.703  28.800  1.00  0.00     0.074 A 
ATOM     44  C   UNL A   1      39.562  26.715  28.286  1.00  0.00     0.031 C 
ATOM     45  C   UNL A   1      46.131  24.657  28.659  1.00  0.00     0.029 A 
ATOM     46  C   UNL A   1      45.858  26.021  29.103  1.00  0.00     0.049 A 
ATOM     47  H   UNL A   1      44.012  26.981  29.185  1.00  0.00     0.167 HD
ATOM     48  C   UNL A   1      40.121  28.951  29.181  1.00  0.00     0.031 A 
ATOM     49  C   UNL A   1      46.782  26.897  29.541  1.00  0.00     0.031 A 
ATOM     50  C   UNL A   1      41.025  29.928  29.724  1.00  0.00     0.049 A 
ATOM     51  C   UNL A   1      46.352  28.270  29.977  1.00  0.00     0.074 A 
ATOM     52  C   UNL A   1      40.741  31.199  30.193  1.00  0.00     0.029 A 
ATOM     53  N   UNL A   1      42.388  29.737  29.881  1.00  0.00    -0.354 N 
ATOM     54  N   UNL A   1      45.152  28.794  29.992  1.00  0.00    -0.248 NA
ATOM     55  C   UNL A   1      47.407  29.166  30.474  1.00  0.00     0.031 C 
ATOM     56  C   UNL A   1      41.940  31.792  30.603  1.00  0.00     0.029 A 
ATOM     57  C   UNL A   1      42.961  30.872  30.431  1.00  0.00     0.049 A 
ATOM     58  H   UNL A   1      42.876  28.918  29.638  1.00  0.00     0.167 HD
ATOM     59  C   UNL A   1      45.301  30.068  30.525  1.00  0.00     0.074 A 
ATOM     60  C   UNL A   1      46.707  30.233  30.832  1.00  0.00     0.031 C 
ATOM     61  C   UNL A   1      44.358  31.016  30.742  1.00  0.00     0.031 A 
BRANCH  48  62
ATOM     62  C   UNL A   1      38.676  29.330  29.021  1.00  0.00    -0.014 A 
ATOM     63  C   UNL A   1      38.187  29.833  27.805  1.00  0.00     0.009 A 
ATOM     64  C   UNL A   1      37.785  29.152  30.091  1.00  0.00     0.009 A 
ATOM     65  C   UNL A   1      36.843  30.186  27.676  1.00  0.00     0.001 A 
ATOM     66  C   UNL A   1      36.435  29.481  29.950  1.00  0.00     0.001 A 
ATOM     67  C   UNL A   1      35.967  30.006  28.747  1.00  0.00     0.000 A 
ENDBRANCH  48  62
BRANCH  49  68
ATOM     68  C   UNL A   1      48.211  26.498  29.616  1.00  0.00    -0.014 A 
ATOM     69  C   UNL A   1      48.718  25.891  30.776  1.00  0.00     0.009 A 
ATOM     70  C   UNL A   1      49.077  26.734  28.538  1.00  0.00     0.009 A 
ATOM     71  C   UNL A   1      50.070  25.553  30.864  1.00  0.00     0.001 A 
ATOM     72  C   UNL A   1      50.423  26.371  28.619  1.00  0.00     0.001 A 
ATOM     73  C   UNL A   1      50.921  25.791  29.785  1.00  0.00     0.000 A 
ENDBRANCH  49  68
BRANCH  61  74
ATOM     74  C   UNL A   1      44.805  32.297  31.385  1.00  0.00    -0.014 A 
ATOM     75  C   UNL A   1      45.183  33.406  30.614  1.00  0.00     0.009 A 
ATOM     76  C   UNL A   1      44.805  32.406  32.784  1.00  0.00     0.009 A 
ATOM     77  C   UNL A   1      45.583  34.591  31.235  1.00  0.00     0.001 A 
ATOM     78  C   UNL A   1      45.181  33.599  33.401  1.00  0.00     0.001 A 
ATOM     79  C   UNL A   1      45.577  34.688  32.627  1.00  0.00     0.000 A 
ENDBRANCH  61  74
ENDBRANCH  35  36
ENDBRANCH  27  30
ENDBRANCH  25  26
ENDBRANCH  24  25
ENDBRANCH   1  24
TORSDOF 15
ENDMDL
