MODEL 1
REMARK VINA RESULT:     -12.1      0.000      0.000
REMARK SMILES O=C(NCCCNC(=O)c1ccc(Cn2ccc3ccc(Br)cc32)nc1)c1ccc(-c2c3nc(c(-c4ccccc4)c4ccc([nH]4)c(-c4ccccc4)c4nc(c(-c5ccccc5)c5ccc2[nH]5)C=C4)C=C3)cc1
REMARK SMILES IDX 5 1 4 2 3 3 1 4 2 5 27 7 28 8 74 9 29 10 73 11 30 12 31 13
REMARK SMILES IDX 32 14 67 15 33 16 72 17 66 18 68 19 34 20 71 21 65 22 64 23
REMARK SMILES IDX 35 25 57 26 42 27 56 28 43 29 46 30 55 31 69 32 44 33 45 34
REMARK SMILES IDX 54 36 70 37 47 38 36 39 37 40 41 41 38 42 40 43 39 44 58 45
REMARK SMILES IDX 59 46 63 47 60 48 62 49 61 50 48 51 49 52 53 53 50 54 52 55
REMARK SMILES IDX 51 56 6 57 7 58 8 59 9 61 10 62 11 63 26 64 12 65 25 66
REMARK SMILES IDX 13 67 14 68 15 69 16 70 24 71 17 72 18 73 23 74 19 75 21 76
REMARK SMILES IDX 20 77 22 78
REMARK H PARENT 3 6 68 24 46 35 7 60
REMARK Flexibility Score: inf
ROOT
ATOM      1  C   UNL A   1      31.422  32.002  26.307  1.00  0.00     0.042 C 
ENDROOT
BRANCH   1   2
ATOM      2  C   UNL A   1      32.522  32.504  27.214  1.00  0.00     0.118 C 
BRANCH   2   3
ATOM      3  N   UNL A   1      32.360  33.914  27.613  1.00  0.00    -0.352 N 
ATOM      4  O   UNL A   1      32.595  35.678  29.034  1.00  0.00    -0.269 OA
ATOM      5  C   UNL A   1      33.034  34.629  28.598  1.00  0.00     0.251 C 
ATOM      6  H   UNL A   1      31.681  34.421  27.111  1.00  0.00     0.163 HD
BRANCH   5   7
ATOM      7  C   UNL A   1      34.311  34.083  29.089  1.00  0.00     0.039 A 
ATOM      8  C   UNL A   1      34.479  33.450  30.321  1.00  0.00     0.014 A 
ATOM      9  C   UNL A   1      35.362  34.157  28.196  1.00  0.00     0.014 A 
ATOM     10  C   UNL A   1      35.730  32.898  30.594  1.00  0.00     0.010 A 
ATOM     11  C   UNL A   1      36.336  33.223  28.282  1.00  0.00     0.010 A 
ATOM     12  C   UNL A   1      36.664  32.816  29.550  1.00  0.00    -0.014 A 
BRANCH  12  13
ATOM     13  C   UNL A   1      38.010  32.293  29.685  1.00  0.00     0.031 A 
ATOM     14  C   UNL A   1      38.113  30.868  29.346  1.00  0.00     0.074 A 
ATOM     15  C   UNL A   1      39.095  33.077  29.885  1.00  0.00     0.049 A 
ATOM     16  N   UNL A   1      38.207  29.891  30.177  1.00  0.00    -0.248 NA
ATOM     17  C   UNL A   1      37.883  30.469  27.951  1.00  0.00     0.031 C 
ATOM     18  C   UNL A   1      39.193  34.548  29.898  1.00  0.00     0.029 A 
ATOM     19  N   UNL A   1      40.393  32.703  30.025  1.00  0.00    -0.354 N 
ATOM     20  C   UNL A   1      38.279  28.750  29.394  1.00  0.00     0.074 A 
ATOM     21  C   UNL A   1      37.847  29.141  28.076  1.00  0.00     0.031 C 
ATOM     22  C   UNL A   1      40.491  34.925  29.821  1.00  0.00     0.029 A 
ATOM     23  C   UNL A   1      41.316  33.741  29.946  1.00  0.00     0.049 A 
ATOM     24  H   UNL A   1      40.662  31.767  30.173  1.00  0.00     0.167 HD
ATOM     25  C   UNL A   1      38.958  27.656  29.833  1.00  0.00     0.031 A 
ATOM     26  C   UNL A   1      42.665  33.620  29.983  1.00  0.00     0.031 A 
ATOM     27  C   UNL A   1      39.279  27.773  31.236  1.00  0.00     0.049 A 
ATOM     28  C   UNL A   1      42.960  32.317  30.620  1.00  0.00     0.074 A 
ATOM     29  C   UNL A   1      38.538  27.871  32.396  1.00  0.00     0.029 A 
ATOM     30  N   UNL A   1      40.530  28.267  31.531  1.00  0.00    -0.354 N 
ATOM     31  N   UNL A   1      42.689  32.048  31.864  1.00  0.00    -0.248 NA
ATOM     32  C   UNL A   1      43.162  31.164  29.760  1.00  0.00     0.031 C 
ATOM     33  C   UNL A   1      39.245  28.800  33.214  1.00  0.00     0.029 A 
ATOM     34  C   UNL A   1      40.425  29.165  32.563  1.00  0.00     0.049 A 
ATOM     35  H   UNL A   1      41.366  28.014  31.075  1.00  0.00     0.167 HD
ATOM     36  C   UNL A   1      42.238  30.737  31.848  1.00  0.00     0.074 A 
ATOM     37  C   UNL A   1      42.678  30.207  30.558  1.00  0.00     0.031 C 
ATOM     38  C   UNL A   1      41.308  30.304  32.751  1.00  0.00     0.031 A 
BRANCH  25  39
ATOM     39  C   UNL A   1      39.686  26.706  28.919  1.00  0.00    -0.014 A 
ATOM     40  C   UNL A   1      39.252  25.396  28.636  1.00  0.00     0.009 A 
ATOM     41  C   UNL A   1      40.719  27.212  28.112  1.00  0.00     0.009 A 
ATOM     42  C   UNL A   1      39.804  24.634  27.604  1.00  0.00     0.001 A 
ATOM     43  C   UNL A   1      41.247  26.468  27.050  1.00  0.00     0.001 A 
ATOM     44  C   UNL A   1      40.787  25.181  26.794  1.00  0.00     0.000 A 
ENDBRANCH  25  39
BRANCH  26  45
ATOM     45  C   UNL A   1      43.693  34.355  29.213  1.00  0.00    -0.014 A 
ATOM     46  C   UNL A   1      44.601  35.195  29.880  1.00  0.00     0.009 A 
ATOM     47  C   UNL A   1      43.567  34.500  27.820  1.00  0.00     0.009 A 
ATOM     48  C   UNL A   1      45.303  36.194  29.194  1.00  0.00     0.001 A 
ATOM     49  C   UNL A   1      44.269  35.500  27.134  1.00  0.00     0.001 A 
ATOM     50  C   UNL A   1      45.119  36.361  27.825  1.00  0.00     0.000 A 
ENDBRANCH  26  45
BRANCH  38  51
ATOM     51  C   UNL A   1      41.004  31.195  33.939  1.00  0.00    -0.014 A 
ATOM     52  C   UNL A   1      41.629  30.896  35.160  1.00  0.00     0.009 A 
ATOM     53  C   UNL A   1      40.016  32.197  33.933  1.00  0.00     0.009 A 
ATOM     54  C   UNL A   1      41.268  31.554  36.338  1.00  0.00     0.001 A 
ATOM     55  C   UNL A   1      39.673  32.877  35.109  1.00  0.00     0.001 A 
ATOM     56  C   UNL A   1      40.291  32.545  36.313  1.00  0.00     0.000 A 
ENDBRANCH  38  51
ENDBRANCH  12  13
ENDBRANCH   5   7
ENDBRANCH   2   3
ENDBRANCH   1   2
BRANCH   1  57
ATOM     57  C   UNL A   1      31.564  30.510  26.005  1.00  0.00     0.118 C 
BRANCH  57  58
ATOM     58  N   UNL A   1      31.512  29.656  27.191  1.00  0.00    -0.352 N 
ATOM     59  C   UNL A   1      31.718  28.297  27.285  1.00  0.00     0.252 C 
ATOM     60  H   UNL A   1      31.303  30.114  28.037  1.00  0.00     0.163 HD
ATOM     61  O   UNL A   1      31.545  27.695  28.332  1.00  0.00    -0.269 OA
BRANCH  59  62
ATOM     62  C   UNL A   1      32.097  27.577  26.066  1.00  0.00     0.058 A 
ATOM     63  C   UNL A   1      31.143  27.108  25.164  1.00  0.00     0.017 A 
ATOM     64  C   UNL A   1      33.421  27.231  25.891  1.00  0.00     0.125 A 
ATOM     65  C   UNL A   1      31.538  26.222  24.170  1.00  0.00     0.026 A 
ATOM     66  N   UNL A   1      33.822  26.356  24.945  1.00  0.00    -0.259 NA
ATOM     67  C   UNL A   1      32.882  25.859  24.095  1.00  0.00     0.060 A 
BRANCH  67  68
ATOM     68  C   UNL A   1      33.365  24.939  23.003  1.00  0.00     0.178 C 
BRANCH  68  69
ATOM     69  N   UNL A   1      33.122  23.555  23.385  1.00  0.00    -0.341 N 
ATOM     70  C   UNL A   1      31.971  22.861  23.109  1.00  0.00     0.087 A 
ATOM     71  C   UNL A   1      34.042  22.728  24.001  1.00  0.00     0.049 A 
ATOM     72  C   UNL A   1      32.164  21.557  23.504  1.00  0.00     0.028 A 
ATOM     73  C   UNL A   1      33.472  21.454  24.051  1.00  0.00    -0.000 A 
ATOM     74  C   UNL A   1      35.342  22.982  24.473  1.00  0.00     0.042 A 
ATOM     75  C   UNL A   1      34.231  20.390  24.577  1.00  0.00     0.011 A 
ATOM     76  C   UNL A   1      36.078  21.907  24.972  1.00  0.00     0.020 A 
ATOM     77  C   UNL A   1      35.537  20.627  25.027  1.00  0.00     0.016 A 
ATOM     78  Br  UNL A   1      37.853  22.201  25.560  1.00  0.00    -0.051 Br
ENDBRANCH  68  69
ENDBRANCH  67  68
ENDBRANCH  59  62
ENDBRANCH  57  58
ENDBRANCH   1  57
TORSDOF 12
ENDMDL
MODEL 2
REMARK VINA RESULT:     -11.6      4.463      9.141
REMARK SMILES O=C(NCCCNC(=O)c1ccc(Cn2ccc3ccc(Br)cc32)nc1)c1ccc(-c2c3nc(c(-c4ccccc4)c4ccc([nH]4)c(-c4ccccc4)c4nc(c(-c5ccccc5)c5ccc2[nH]5)C=C4)C=C3)cc1
REMARK SMILES IDX 5 1 4 2 3 3 1 4 2 5 27 7 28 8 74 9 29 10 73 11 30 12 31 13
REMARK SMILES IDX 32 14 67 15 33 16 72 17 66 18 68 19 34 20 71 21 65 22 64 23
REMARK SMILES IDX 35 25 57 26 42 27 56 28 43 29 46 30 55 31 69 32 44 33 45 34
REMARK SMILES IDX 54 36 70 37 47 38 36 39 37 40 41 41 38 42 40 43 39 44 58 45
REMARK SMILES IDX 59 46 63 47 60 48 62 49 61 50 48 51 49 52 53 53 50 54 52 55
REMARK SMILES IDX 51 56 6 57 7 58 8 59 9 61 10 62 11 63 26 64 12 65 25 66
REMARK SMILES IDX 13 67 14 68 15 69 16 70 24 71 17 72 18 73 23 74 19 75 21 76
REMARK SMILES IDX 20 77 22 78
REMARK H PARENT 3 6 68 24 46 35 7 60
REMARK Flexibility Score: inf
ROOT
ATOM      1  C   UNL A   1      36.948  21.136  25.826  1.00  0.00     0.042 C 
ENDROOT
BRANCH   1   2
ATOM      2  C   UNL A   1      38.207  20.953  25.010  1.00  0.00     0.118 C 
BRANCH   2   3
ATOM      3  N   UNL A   1      38.976  19.747  25.372  1.00  0.00    -0.352 N 
ATOM      4  O   UNL A   1      40.894  18.589  25.776  1.00  0.00    -0.269 OA
ATOM      5  C   UNL A   1      40.291  19.647  25.813  1.00  0.00     0.251 C 
ATOM      6  H   UNL A   1      38.489  18.895  25.290  1.00  0.00     0.163 HD
BRANCH   5   7
ATOM      7  C   UNL A   1      40.930  20.861  26.346  1.00  0.00     0.039 A 
ATOM      8  C   UNL A   1      41.788  21.688  25.620  1.00  0.00     0.014 A 
ATOM      9  C   UNL A   1      40.557  21.205  27.631  1.00  0.00     0.014 A 
ATOM     10  C   UNL A   1      42.231  22.857  26.238  1.00  0.00     0.010 A 
ATOM     11  C   UNL A   1      40.593  22.512  27.976  1.00  0.00     0.010 A 
ATOM     12  C   UNL A   1      41.627  23.242  27.445  1.00  0.00    -0.014 A 
BRANCH  12  13
ATOM     13  C   UNL A   1      41.995  24.413  28.216  1.00  0.00     0.031 A 
ATOM     14  C   UNL A   1      41.033  25.515  28.087  1.00  0.00     0.074 A 
ATOM     15  C   UNL A   1      42.994  24.418  29.130  1.00  0.00     0.049 A 
ATOM     16  N   UNL A   1      41.179  26.577  27.376  1.00  0.00    -0.248 NA
ATOM     17  C   UNL A   1      39.686  25.328  28.641  1.00  0.00     0.031 C 
ATOM     18  C   UNL A   1      43.816  23.296  29.617  1.00  0.00     0.029 A 
ATOM     19  N   UNL A   1      43.425  25.447  29.905  1.00  0.00    -0.354 N 
ATOM     20  C   UNL A   1      40.022  27.313  27.574  1.00  0.00     0.074 A 
ATOM     21  C   UNL A   1      39.066  26.407  28.157  1.00  0.00     0.031 C 
ATOM     22  C   UNL A   1      44.480  23.663  30.738  1.00  0.00     0.029 A 
ATOM     23  C   UNL A   1      44.283  25.085  30.938  1.00  0.00     0.049 A 
ATOM     24  H   UNL A   1      43.152  26.379  29.747  1.00  0.00     0.167 HD
ATOM     25  C   UNL A   1      40.049  28.671  27.500  1.00  0.00     0.031 A 
ATOM     26  C   UNL A   1      44.791  25.909  31.886  1.00  0.00     0.031 A 
ATOM     27  C   UNL A   1      41.292  29.135  26.929  1.00  0.00     0.049 A 
ATOM     28  C   UNL A   1      44.702  27.285  31.348  1.00  0.00     0.074 A 
ATOM     29  C   UNL A   1      41.914  28.983  25.706  1.00  0.00     0.029 A 
ATOM     30  N   UNL A   1      42.275  29.487  27.825  1.00  0.00    -0.354 N 
ATOM     31  N   UNL A   1      45.383  27.699  30.319  1.00  0.00    -0.248 NA
ATOM     32  C   UNL A   1      43.532  28.078  31.684  1.00  0.00     0.031 C 
ATOM     33  C   UNL A   1      43.300  28.840  26.008  1.00  0.00     0.029 A 
ATOM     34  C   UNL A   1      43.479  28.997  27.384  1.00  0.00     0.049 A 
ATOM     35  H   UNL A   1      42.138  30.008  28.650  1.00  0.00     0.167 HD
ATOM     36  C   UNL A   1      44.500  28.505  29.617  1.00  0.00     0.074 A 
ATOM     37  C   UNL A   1      43.432  28.807  30.569  1.00  0.00     0.031 C 
ATOM     38  C   UNL A   1      44.574  28.606  28.256  1.00  0.00     0.031 A 
BRANCH  25  39
ATOM     39  C   UNL A   1      39.158  29.567  28.320  1.00  0.00    -0.014 A 
ATOM     40  C   UNL A   1      39.598  30.312  29.431  1.00  0.00     0.009 A 
ATOM     41  C   UNL A   1      37.881  29.876  27.824  1.00  0.00     0.009 A 
ATOM     42  C   UNL A   1      38.819  31.315  30.013  1.00  0.00     0.001 A 
ATOM     43  C   UNL A   1      37.113  30.908  28.377  1.00  0.00     0.001 A 
ATOM     44  C   UNL A   1      37.584  31.629  29.469  1.00  0.00     0.000 A 
ENDBRANCH  25  39
BRANCH  26  45
ATOM     45  C   UNL A   1      45.013  25.655  33.327  1.00  0.00    -0.014 A 
ATOM     46  C   UNL A   1      43.995  25.072  34.101  1.00  0.00     0.009 A 
ATOM     47  C   UNL A   1      46.072  26.285  34.004  1.00  0.00     0.009 A 
ATOM     48  C   UNL A   1      43.994  25.181  35.497  1.00  0.00     0.001 A 
ATOM     49  C   UNL A   1      46.070  26.393  35.400  1.00  0.00     0.001 A 
ATOM     50  C   UNL A   1      45.021  25.861  36.145  1.00  0.00     0.000 A 
ENDBRANCH  26  45
BRANCH  38  51
ATOM     51  C   UNL A   1      45.810  28.059  27.571  1.00  0.00    -0.014 A 
ATOM     52  C   UNL A   1      46.819  28.969  27.213  1.00  0.00     0.009 A 
ATOM     53  C   UNL A   1      45.936  26.730  27.128  1.00  0.00     0.009 A 
ATOM     54  C   UNL A   1      47.902  28.575  26.424  1.00  0.00     0.001 A 
ATOM     55  C   UNL A   1      47.036  26.326  26.359  1.00  0.00     0.001 A 
ATOM     56  C   UNL A   1      48.012  27.253  25.997  1.00  0.00     0.000 A 
ENDBRANCH  38  51
ENDBRANCH  12  13
ENDBRANCH   5   7
ENDBRANCH   2   3
ENDBRANCH   1   2
BRANCH   1  57
ATOM     57  C   UNL A   1      35.688  21.027  24.968  1.00  0.00     0.118 C 
BRANCH  57  58
ATOM     58  N   UNL A   1      34.938  19.788  25.167  1.00  0.00    -0.352 N 
ATOM     59  C   UNL A   1      33.590  19.559  25.000  1.00  0.00     0.252 C 
ATOM     60  H   UNL A   1      35.468  19.012  25.460  1.00  0.00     0.163 HD
ATOM     61  O   UNL A   1      33.081  18.491  25.301  1.00  0.00    -0.269 OA
BRANCH  59  62
ATOM     62  C   UNL A   1      32.766  20.664  24.503  1.00  0.00     0.058 A 
ATOM     63  C   UNL A   1      32.544  20.859  23.141  1.00  0.00     0.017 A 
ATOM     64  C   UNL A   1      32.327  21.613  25.403  1.00  0.00     0.125 A 
ATOM     65  C   UNL A   1      31.975  22.054  22.718  1.00  0.00     0.026 A 
ATOM     66  N   UNL A   1      31.791  22.789  25.012  1.00  0.00    -0.259 NA
ATOM     67  C   UNL A   1      31.620  23.000  23.678  1.00  0.00     0.060 A 
BRANCH  67  68
ATOM     68  C   UNL A   1      30.954  24.290  23.269  1.00  0.00     0.178 C 
BRANCH  68  69
ATOM     69  N   UNL A   1      31.968  25.304  23.011  1.00  0.00    -0.341 N 
ATOM     70  C   UNL A   1      32.664  25.427  21.835  1.00  0.00     0.087 A 
ATOM     71  C   UNL A   1      32.306  26.326  23.877  1.00  0.00     0.049 A 
ATOM     72  C   UNL A   1      33.427  26.570  21.918  1.00  0.00     0.028 A 
ATOM     73  C   UNL A   1      33.197  27.157  23.193  1.00  0.00    -0.000 A 
ATOM     74  C   UNL A   1      31.870  26.615  25.181  1.00  0.00     0.042 A 
ATOM     75  C   UNL A   1      33.657  28.328  23.827  1.00  0.00     0.011 A 
ATOM     76  C   UNL A   1      32.327  27.790  25.778  1.00  0.00     0.020 A 
ATOM     77  C   UNL A   1      33.208  28.639  25.118  1.00  0.00     0.016 A 
ATOM     78  Br  UNL A   1      31.712  28.241  27.511  1.00  0.00    -0.051 Br
ENDBRANCH  68  69
ENDBRANCH  67  68
ENDBRANCH  59  62
ENDBRANCH  57  58
ENDBRANCH   1  57
TORSDOF 12
ENDMDL
MODEL 3
REMARK VINA RESULT:     -11.6      2.783      6.513
REMARK SMILES O=C(NCCCNC(=O)c1ccc(Cn2ccc3ccc(Br)cc32)nc1)c1ccc(-c2c3nc(c(-c4ccccc4)c4ccc([nH]4)c(-c4ccccc4)c4nc(c(-c5ccccc5)c5ccc2[nH]5)C=C4)C=C3)cc1
REMARK SMILES IDX 5 1 4 2 3 3 1 4 2 5 27 7 28 8 74 9 29 10 73 11 30 12 31 13
REMARK SMILES IDX 32 14 67 15 33 16 72 17 66 18 68 19 34 20 71 21 65 22 64 23
REMARK SMILES IDX 35 25 57 26 42 27 56 28 43 29 46 30 55 31 69 32 44 33 45 34
REMARK SMILES IDX 54 36 70 37 47 38 36 39 37 40 41 41 38 42 40 43 39 44 58 45
REMARK SMILES IDX 59 46 63 47 60 48 62 49 61 50 48 51 49 52 53 53 50 54 52 55
REMARK SMILES IDX 51 56 6 57 7 58 8 59 9 61 10 62 11 63 26 64 12 65 25 66
REMARK SMILES IDX 13 67 14 68 15 69 16 70 24 71 17 72 18 73 23 74 19 75 21 76
REMARK SMILES IDX 20 77 22 78
REMARK H PARENT 3 6 68 24 46 35 7 60
REMARK Flexibility Score: inf
ROOT
ATOM      1  C   UNL A   1      33.385  29.822  27.289  1.00  0.00     0.042 C 
ENDROOT
BRANCH   1   2
ATOM      2  C   UNL A   1      34.472  30.868  27.391  1.00  0.00     0.118 C 
BRANCH   2   3
ATOM      3  N   UNL A   1      34.368  31.711  28.596  1.00  0.00    -0.352 N 
ATOM      4  O   UNL A   1      34.773  32.220  30.779  1.00  0.00    -0.269 OA
ATOM      5  C   UNL A   1      35.152  31.698  29.745  1.00  0.00     0.251 C 
ATOM      6  H   UNL A   1      33.642  32.377  28.586  1.00  0.00     0.163 HD
BRANCH   5   7
ATOM      7  C   UNL A   1      36.470  31.046  29.668  1.00  0.00     0.039 A 
ATOM      8  C   UNL A   1      37.683  31.724  29.548  1.00  0.00     0.014 A 
ATOM      9  C   UNL A   1      36.454  29.672  29.813  1.00  0.00     0.014 A 
ATOM     10  C   UNL A   1      38.852  30.965  29.591  1.00  0.00     0.010 A 
ATOM     11  C   UNL A   1      37.550  29.074  30.332  1.00  0.00     0.010 A 
ATOM     12  C   UNL A   1      38.757  29.617  29.968  1.00  0.00    -0.014 A 
BRANCH  12  13
ATOM     13  C   UNL A   1      39.874  28.696  30.034  1.00  0.00     0.031 A 
ATOM     14  C   UNL A   1      40.385  28.504  31.398  1.00  0.00     0.074 A 
ATOM     15  C   UNL A   1      40.266  27.926  28.992  1.00  0.00     0.049 A 
ATOM     16  N   UNL A   1      41.452  29.023  31.893  1.00  0.00    -0.248 NA
ATOM     17  C   UNL A   1      39.517  27.834  32.375  1.00  0.00     0.031 C 
ATOM     18  C   UNL A   1      39.635  27.755  27.671  1.00  0.00     0.029 A 
ATOM     19  N   UNL A   1      41.290  27.036  28.937  1.00  0.00    -0.354 N 
ATOM     20  C   UNL A   1      41.516  28.555  33.196  1.00  0.00     0.074 A 
ATOM     21  C   UNL A   1      40.208  28.034  33.499  1.00  0.00     0.031 C 
ATOM     22  C   UNL A   1      40.159  26.675  27.045  1.00  0.00     0.029 A 
ATOM     23  C   UNL A   1      41.282  26.197  27.827  1.00  0.00     0.049 A 
ATOM     24  H   UNL A   1      41.987  26.987  29.631  1.00  0.00     0.167 HD
ATOM     25  C   UNL A   1      42.719  28.383  33.807  1.00  0.00     0.031 A 
ATOM     26  C   UNL A   1      42.148  25.185  27.579  1.00  0.00     0.031 A 
ATOM     27  C   UNL A   1      43.779  29.008  33.051  1.00  0.00     0.049 A 
ATOM     28  C   UNL A   1      43.358  25.449  28.389  1.00  0.00     0.074 A 
ATOM     29  C   UNL A   1      44.071  30.305  32.679  1.00  0.00     0.029 A 
ATOM     30  N   UNL A   1      44.467  28.190  32.184  1.00  0.00    -0.354 N 
ATOM     31  N   UNL A   1      44.151  26.460  28.187  1.00  0.00    -0.248 NA
ATOM     32  C   UNL A   1      43.451  24.834  29.702  1.00  0.00     0.031 C 
ATOM     33  C   UNL A   1      44.583  30.206  31.351  1.00  0.00     0.029 A 
ATOM     34  C   UNL A   1      44.665  28.856  31.001  1.00  0.00     0.049 A 
ATOM     35  H   UNL A   1      44.771  27.274  32.382  1.00  0.00     0.167 HD
ATOM     36  C   UNL A   1      44.500  26.892  29.457  1.00  0.00     0.074 A 
ATOM     37  C   UNL A   1      44.152  25.778  30.338  1.00  0.00     0.031 C 
ATOM     38  C   UNL A   1      44.762  28.210  29.703  1.00  0.00     0.031 A 
BRANCH  25  39
ATOM     39  C   UNL A   1      42.987  27.312  34.831  1.00  0.00    -0.014 A 
ATOM     40  C   UNL A   1      42.860  27.500  36.221  1.00  0.00     0.009 A 
ATOM     41  C   UNL A   1      43.138  25.986  34.389  1.00  0.00     0.009 A 
ATOM     42  C   UNL A   1      42.871  26.434  37.122  1.00  0.00     0.001 A 
ATOM     43  C   UNL A   1      43.109  24.911  35.285  1.00  0.00     0.001 A 
ATOM     44  C   UNL A   1      42.973  25.135  36.651  1.00  0.00     0.000 A 
ENDBRANCH  25  39
BRANCH  26  45
ATOM     45  C   UNL A   1      41.886  23.853  26.991  1.00  0.00    -0.014 A 
ATOM     46  C   UNL A   1      40.987  22.973  27.619  1.00  0.00     0.009 A 
ATOM     47  C   UNL A   1      42.759  23.319  26.027  1.00  0.00     0.009 A 
ATOM     48  C   UNL A   1      41.009  21.600  27.348  1.00  0.00     0.001 A 
ATOM     49  C   UNL A   1      42.780  21.944  25.757  1.00  0.00     0.001 A 
ATOM     50  C   UNL A   1      41.921  21.083  26.434  1.00  0.00     0.000 A 
ENDBRANCH  26  45
BRANCH  38  51
ATOM     51  C   UNL A   1      44.951  29.129  28.512  1.00  0.00    -0.014 A 
ATOM     52  C   UNL A   1      46.263  29.399  28.093  1.00  0.00     0.009 A 
ATOM     53  C   UNL A   1      43.905  29.852  27.909  1.00  0.00     0.009 A 
ATOM     54  C   UNL A   1      46.528  30.370  27.124  1.00  0.00     0.001 A 
ATOM     55  C   UNL A   1      44.167  30.807  26.917  1.00  0.00     0.001 A 
ATOM     56  C   UNL A   1      45.480  31.074  26.535  1.00  0.00     0.000 A 
ENDBRANCH  38  51
ENDBRANCH  12  13
ENDBRANCH   5   7
ENDBRANCH   2   3
ENDBRANCH   1   2
BRANCH   1  57
ATOM     57  C   UNL A   1      33.265  29.256  25.874  1.00  0.00     0.118 C 
BRANCH  57  58
ATOM     58  N   UNL A   1      31.982  29.533  25.230  1.00  0.00    -0.352 N 
ATOM     59  C   UNL A   1      31.363  28.846  24.208  1.00  0.00     0.252 C 
ATOM     60  H   UNL A   1      31.493  30.315  25.574  1.00  0.00     0.163 HD
ATOM     61  O   UNL A   1      30.331  29.252  23.699  1.00  0.00    -0.269 OA
BRANCH  59  62
ATOM     62  C   UNL A   1      32.018  27.635  23.705  1.00  0.00     0.058 A 
ATOM     63  C   UNL A   1      33.026  27.692  22.744  1.00  0.00     0.017 A 
ATOM     64  C   UNL A   1      31.515  26.409  24.087  1.00  0.00     0.125 A 
ATOM     65  C   UNL A   1      33.428  26.515  22.124  1.00  0.00     0.026 A 
ATOM     66  N   UNL A   1      31.876  25.258  23.483  1.00  0.00    -0.259 NA
ATOM     67  C   UNL A   1      32.826  25.318  22.509  1.00  0.00     0.060 A 
BRANCH  67  68
ATOM     68  C   UNL A   1      33.265  24.012  21.898  1.00  0.00     0.178 C 
BRANCH  68  69
ATOM     69  N   UNL A   1      33.141  22.945  22.882  1.00  0.00    -0.341 N 
ATOM     70  C   UNL A   1      32.144  22.002  22.886  1.00  0.00     0.087 A 
ATOM     71  C   UNL A   1      34.050  22.685  23.890  1.00  0.00     0.049 A 
ATOM     72  C   UNL A   1      32.435  21.091  23.877  1.00  0.00     0.028 A 
ATOM     73  C   UNL A   1      33.643  21.499  24.505  1.00  0.00    -0.000 A 
ATOM     74  C   UNL A   1      35.217  23.364  24.280  1.00  0.00     0.042 A 
ATOM     75  C   UNL A   1      34.438  20.961  25.537  1.00  0.00     0.011 A 
ATOM     76  C   UNL A   1      35.994  22.801  25.292  1.00  0.00     0.020 A 
ATOM     77  C   UNL A   1      35.617  21.617  25.916  1.00  0.00     0.016 A 
ATOM     78  Br  UNL A   1      37.604  23.657  25.801  1.00  0.00    -0.051 Br
ENDBRANCH  68  69
ENDBRANCH  67  68
ENDBRANCH  59  62
ENDBRANCH  57  58
ENDBRANCH   1  57
TORSDOF 12
ENDMDL
