MODEL 1
REMARK VINA RESULT:     -10.7      0.000      0.000
REMARK SMILES CC(C)[C@H](NC(=O)OCc1ccccc1)C(=O)NCC(=O)NCCCNC(=O)c1ccc(-c2c3nc(c(-c4ccccc4)c4ccc([nH]4)c(-c4ccccc4)c4nc(c(-c5ccccc5)c5ccc2[nH]5)C=C4)C=C3)cc1
REMARK SMILES IDX 20 1 21 2 22 3 19 5 18 6 16 7 17 8 4 10 2 11 1 12 3 13 5 14
REMARK SMILES IDX 6 15 7 17 8 18 9 19 10 20 11 21 15 22 12 23 14 24 13 25
REMARK SMILES IDX 23 26 24 27 25 28 26 29 27 30 28 32 29 33 30 34 76 35 31 36
REMARK SMILES IDX 75 37 32 38 33 39 34 40 69 41 35 42 74 43 68 44 70 45 36 46
REMARK SMILES IDX 73 47 67 48 66 49 37 51 59 52 44 53 58 54 45 55 48 56 57 57
REMARK SMILES IDX 71 58 46 59 47 60 56 62 72 63 49 64 38 65 39 66 43 67 40 68
REMARK SMILES IDX 42 69 41 70 60 71 61 72 65 73 62 74 64 75 63 76 50 77 51 78
REMARK SMILES IDX 55 79 52 80 54 81 53 82
REMARK H PARENT 22 4 18 9 5 16 26 31 70 50 48 61
REMARK Flexibility Score: inf
ROOT
ATOM      1  C   UNL A   1      34.578  21.669  26.320  1.00  0.00     0.239 C 
ATOM      2  O   UNL A   1      33.956  21.356  27.340  1.00  0.00    -0.273 OA
ATOM      3  N   UNL A   1      35.775  21.046  26.107  1.00  0.00    -0.355 N 
ATOM      4  H   UNL A   1      36.154  20.584  26.890  1.00  0.00     0.163 HD
ENDROOT
BRANCH   1   5
ATOM      5  C   UNL A   1      33.931  22.588  25.268  1.00  0.00     0.216 C 
BRANCH   5   6
ATOM      6  N   UNL A   1      33.184  21.914  24.224  1.00  0.00    -0.345 N 
ATOM      7  C   UNL A   1      32.345  22.379  23.263  1.00  0.00     0.243 C 
ATOM      8  O   UNL A   1      31.777  21.514  22.584  1.00  0.00    -0.273 OA
ATOM      9  H   UNL A   1      33.309  20.938  24.210  1.00  0.00     0.164 HD
BRANCH   7  10
ATOM     10  C   UNL A   1      32.009  23.879  23.031  1.00  0.00     0.177 C 
BRANCH  10  11
ATOM     11  C   UNL A   1      30.702  24.403  23.656  1.00  0.00     0.015 C 
ATOM     12  C   UNL A   1      30.762  24.372  25.188  1.00  0.00     0.010 C 
ATOM     13  C   UNL A   1      30.448  25.850  23.205  1.00  0.00     0.010 C 
ENDBRANCH  10  11
BRANCH  10  14
ATOM     14  N   UNL A   1      32.314  24.279  21.652  1.00  0.00    -0.309 N 
ATOM     15  C   UNL A   1      33.048  25.307  21.147  1.00  0.00     0.408 C 
ATOM     16  H   UNL A   1      31.913  23.696  20.966  1.00  0.00     0.167 HD
ATOM     17  O   UNL A   1      32.868  25.674  19.992  1.00  0.00    -0.225 OA
BRANCH  15  18
ATOM     18  O   UNL A   1      33.887  25.884  22.032  1.00  0.00    -0.445 OA
BRANCH  18  19
ATOM     19  C   UNL A   1      33.698  27.290  22.255  1.00  0.00     0.270 C 
BRANCH  19  20
ATOM     20  C   UNL A   1      33.591  27.634  23.717  1.00  0.00    -0.011 A 
ATOM     21  C   UNL A   1      33.819  26.667  24.703  1.00  0.00     0.007 A 
ATOM     22  C   UNL A   1      33.284  28.945  24.108  1.00  0.00     0.007 A 
ATOM     23  C   UNL A   1      33.737  27.008  26.055  1.00  0.00     0.000 A 
ATOM     24  C   UNL A   1      33.209  29.286  25.457  1.00  0.00     0.000 A 
ATOM     25  C   UNL A   1      33.435  28.316  26.430  1.00  0.00     0.000 A 
ENDBRANCH  19  20
ENDBRANCH  18  19
ENDBRANCH  15  18
ENDBRANCH  10  14
ENDBRANCH   7  10
ENDBRANCH   5   6
ENDBRANCH   1   5
BRANCH   3  26
ATOM     26  C   UNL A   1      36.565  20.965  24.898  1.00  0.00     0.117 C 
BRANCH  26  27
ATOM     27  C   UNL A   1      37.690  19.948  24.967  1.00  0.00     0.042 C 
BRANCH  27  28
ATOM     28  C   UNL A   1      38.903  20.445  25.740  1.00  0.00     0.118 C 
BRANCH  28  29
ATOM     29  N   UNL A   1      39.990  19.471  25.784  1.00  0.00    -0.352 N 
ATOM     30  C   UNL A   1      41.315  19.623  26.114  1.00  0.00     0.251 C 
ATOM     31  H   UNL A   1      39.731  18.554  25.537  1.00  0.00     0.163 HD
ATOM     32  O   UNL A   1      42.095  18.690  25.952  1.00  0.00    -0.269 OA
BRANCH  30  33
ATOM     33  C   UNL A   1      41.817  20.914  26.630  1.00  0.00     0.039 A 
ATOM     34  C   UNL A   1      42.339  21.844  25.725  1.00  0.00     0.014 A 
ATOM     35  C   UNL A   1      41.774  21.214  27.991  1.00  0.00     0.014 A 
ATOM     36  C   UNL A   1      42.727  23.108  26.175  1.00  0.00     0.010 A 
ATOM     37  C   UNL A   1      42.076  22.500  28.426  1.00  0.00     0.010 A 
ATOM     38  C   UNL A   1      42.548  23.462  27.521  1.00  0.00    -0.014 A 
BRANCH  38  39
ATOM     39  C   UNL A   1      42.821  24.838  28.006  1.00  0.00     0.031 A 
ATOM     40  C   UNL A   1      44.205  25.224  28.447  1.00  0.00     0.074 A 
ATOM     41  C   UNL A   1      41.800  25.706  28.145  1.00  0.00     0.049 A 
ATOM     42  N   UNL A   1      44.612  26.334  29.008  1.00  0.00    -0.248 NA
ATOM     43  C   UNL A   1      45.263  24.218  28.266  1.00  0.00     0.031 C 
ATOM     44  C   UNL A   1      40.400  25.437  27.805  1.00  0.00     0.029 A 
ATOM     45  N   UNL A   1      41.782  26.991  28.627  1.00  0.00    -0.354 N 
ATOM     46  C   UNL A   1      45.962  26.148  29.275  1.00  0.00     0.074 A 
ATOM     47  C   UNL A   1      46.296  24.805  28.852  1.00  0.00     0.031 C 
ATOM     48  C   UNL A   1      39.666  26.529  28.067  1.00  0.00     0.029 A 
ATOM     49  C   UNL A   1      40.532  27.559  28.630  1.00  0.00     0.049 A 
ATOM     50  H   UNL A   1      42.589  27.461  28.940  1.00  0.00     0.167 HD
ATOM     51  C   UNL A   1      46.848  27.020  29.811  1.00  0.00     0.031 A 
ATOM     52  C   UNL A   1      40.123  28.771  29.051  1.00  0.00     0.031 A 
ATOM     53  C   UNL A   1      46.523  28.364  30.204  1.00  0.00     0.049 A 
ATOM     54  C   UNL A   1      41.128  29.726  29.626  1.00  0.00     0.074 A 
ATOM     55  C   UNL A   1      47.369  29.351  30.680  1.00  0.00     0.029 A 
ATOM     56  N   UNL A   1      45.250  28.909  30.167  1.00  0.00    -0.354 N 
ATOM     57  N   UNL A   1      42.415  29.557  29.808  1.00  0.00    -0.248 NA
ATOM     58  C   UNL A   1      40.624  31.040  30.048  1.00  0.00     0.031 C 
ATOM     59  C   UNL A   1      46.598  30.483  30.969  1.00  0.00     0.029 A 
ATOM     60  C   UNL A   1      45.282  30.213  30.634  1.00  0.00     0.049 A 
ATOM     61  H   UNL A   1      44.443  28.440  29.855  1.00  0.00     0.167 HD
ATOM     62  C   UNL A   1      42.877  30.749  30.352  1.00  0.00     0.074 A 
ATOM     63  C   UNL A   1      41.737  31.636  30.452  1.00  0.00     0.031 C 
ATOM     64  C   UNL A   1      44.135  31.076  30.735  1.00  0.00     0.031 A 
BRANCH  51  65
ATOM     65  C   UNL A   1      48.257  26.537  30.005  1.00  0.00    -0.014 A 
ATOM     66  C   UNL A   1      48.648  25.889  31.188  1.00  0.00     0.009 A 
ATOM     67  C   UNL A   1      49.202  26.714  28.983  1.00  0.00     0.009 A 
ATOM     68  C   UNL A   1      49.967  25.463  31.358  1.00  0.00     0.001 A 
ATOM     69  C   UNL A   1      50.514  26.263  29.145  1.00  0.00     0.001 A 
ATOM     70  C   UNL A   1      50.897  25.647  30.336  1.00  0.00     0.000 A 
ENDBRANCH  51  65
BRANCH  52  71
ATOM     71  C   UNL A   1      38.693  29.151  28.931  1.00  0.00    -0.014 A 
ATOM     72  C   UNL A   1      37.827  29.000  30.024  1.00  0.00     0.009 A 
ATOM     73  C   UNL A   1      38.190  29.675  27.730  1.00  0.00     0.009 A 
ATOM     74  C   UNL A   1      36.479  29.350  29.911  1.00  0.00     0.001 A 
ATOM     75  C   UNL A   1      36.848  30.045  27.627  1.00  0.00     0.001 A 
ATOM     76  C   UNL A   1      35.993  29.876  28.715  1.00  0.00     0.000 A 
ENDBRANCH  52  71
BRANCH  64  77
ATOM     77  C   UNL A   1      44.341  32.458  31.284  1.00  0.00    -0.014 A 
ATOM     78  C   UNL A   1      44.259  32.708  32.662  1.00  0.00     0.009 A 
ATOM     79  C   UNL A   1      44.655  33.514  30.414  1.00  0.00     0.009 A 
ATOM     80  C   UNL A   1      44.461  33.998  33.157  1.00  0.00     0.001 A 
ATOM     81  C   UNL A   1      44.879  34.797  30.915  1.00  0.00     0.001 A 
ATOM     82  C   UNL A   1      44.776  35.039  32.284  1.00  0.00     0.000 A 
ENDBRANCH  64  77
ENDBRANCH  38  39
ENDBRANCH  30  33
ENDBRANCH  28  29
ENDBRANCH  27  28
ENDBRANCH  26  27
ENDBRANCH   3  26
TORSDOF 17
ENDMDL
MODEL 2
REMARK VINA RESULT:     -10.5      2.046      7.647
REMARK SMILES CC(C)[C@H](NC(=O)OCc1ccccc1)C(=O)NCC(=O)NCCCNC(=O)c1ccc(-c2c3nc(c(-c4ccccc4)c4ccc([nH]4)c(-c4ccccc4)c4nc(c(-c5ccccc5)c5ccc2[nH]5)C=C4)C=C3)cc1
REMARK SMILES IDX 20 1 21 2 22 3 19 5 18 6 16 7 17 8 4 10 2 11 1 12 3 13 5 14
REMARK SMILES IDX 6 15 7 17 8 18 9 19 10 20 11 21 15 22 12 23 14 24 13 25
REMARK SMILES IDX 23 26 24 27 25 28 26 29 27 30 28 32 29 33 30 34 76 35 31 36
REMARK SMILES IDX 75 37 32 38 33 39 34 40 69 41 35 42 74 43 68 44 70 45 36 46
REMARK SMILES IDX 73 47 67 48 66 49 37 51 59 52 44 53 58 54 45 55 48 56 57 57
REMARK SMILES IDX 71 58 46 59 47 60 56 62 72 63 49 64 38 65 39 66 43 67 40 68
REMARK SMILES IDX 42 69 41 70 60 71 61 72 65 73 62 74 64 75 63 76 50 77 51 78
REMARK SMILES IDX 55 79 52 80 54 81 53 82
REMARK H PARENT 22 4 18 9 5 16 26 31 70 50 48 61
REMARK Flexibility Score: inf
ROOT
ATOM      1  C   UNL A   1      30.842  28.942  22.682  1.00  0.00     0.239 C 
ATOM      2  O   UNL A   1      30.279  29.659  21.849  1.00  0.00    -0.273 OA
ATOM      3  N   UNL A   1      31.409  29.565  23.756  1.00  0.00    -0.355 N 
ATOM      4  H   UNL A   1      31.533  30.538  23.662  1.00  0.00     0.163 HD
ENDROOT
BRANCH   1   5
ATOM      5  C   UNL A   1      30.741  27.409  22.580  1.00  0.00     0.216 C 
BRANCH   5   6
ATOM      6  N   UNL A   1      31.608  26.789  21.597  1.00  0.00    -0.345 N 
ATOM      7  C   UNL A   1      32.455  25.731  21.671  1.00  0.00     0.243 C 
ATOM      8  O   UNL A   1      33.141  25.521  20.662  1.00  0.00    -0.273 OA
ATOM      9  H   UNL A   1      31.576  27.215  20.710  1.00  0.00     0.164 HD
BRANCH   7  10
ATOM     10  C   UNL A   1      32.663  24.850  22.936  1.00  0.00     0.177 C 
BRANCH  10  11
ATOM     11  C   UNL A   1      31.585  23.789  23.228  1.00  0.00     0.015 C 
ATOM     12  C   UNL A   1      32.087  22.376  22.908  1.00  0.00     0.010 C 
ATOM     13  C   UNL A   1      31.184  23.842  24.712  1.00  0.00     0.010 C 
ENDBRANCH  10  11
BRANCH  10  14
ATOM     14  N   UNL A   1      33.151  25.654  24.062  1.00  0.00    -0.309 N 
ATOM     15  C   UNL A   1      34.177  25.462  24.935  1.00  0.00     0.408 C 
ATOM     16  H   UNL A   1      32.645  26.485  24.213  1.00  0.00     0.167 HD
ATOM     17  O   UNL A   1      34.179  26.051  26.011  1.00  0.00    -0.225 OA
BRANCH  15  18
ATOM     18  O   UNL A   1      35.090  24.552  24.537  1.00  0.00    -0.445 OA
BRANCH  18  19
ATOM     19  C   UNL A   1      35.575  23.660  25.553  1.00  0.00     0.270 C 
BRANCH  19  20
ATOM     20  C   UNL A   1      34.845  22.343  25.563  1.00  0.00    -0.011 A 
ATOM     21  C   UNL A   1      35.157  21.341  24.636  1.00  0.00     0.007 A 
ATOM     22  C   UNL A   1      33.855  22.098  26.524  1.00  0.00     0.007 A 
ATOM     23  C   UNL A   1      34.485  20.117  24.672  1.00  0.00     0.000 A 
ATOM     24  C   UNL A   1      33.190  20.874  26.564  1.00  0.00     0.000 A 
ATOM     25  C   UNL A   1      33.505  19.884  25.637  1.00  0.00     0.000 A 
ENDBRANCH  19  20
ENDBRANCH  18  19
ENDBRANCH  15  18
ENDBRANCH  10  14
ENDBRANCH   7  10
ENDBRANCH   5   6
ENDBRANCH   1   5
BRANCH   3  26
ATOM     26  C   UNL A   1      31.853  29.005  25.014  1.00  0.00     0.117 C 
BRANCH  26  27
ATOM     27  C   UNL A   1      33.271  29.393  25.392  1.00  0.00     0.042 C 
BRANCH  27  28
ATOM     28  C   UNL A   1      33.553  29.260  26.882  1.00  0.00     0.118 C 
BRANCH  28  29
ATOM     29  N   UNL A   1      33.615  30.548  27.567  1.00  0.00    -0.352 N 
ATOM     30  C   UNL A   1      34.591  31.087  28.371  1.00  0.00     0.251 C 
ATOM     31  H   UNL A   1      32.830  31.126  27.430  1.00  0.00     0.163 HD
ATOM     32  O   UNL A   1      34.380  32.142  28.962  1.00  0.00    -0.269 OA
BRANCH  30  33
ATOM     33  C   UNL A   1      35.880  30.389  28.559  1.00  0.00     0.039 A 
ATOM     34  C   UNL A   1      36.796  30.370  27.503  1.00  0.00     0.014 A 
ATOM     35  C   UNL A   1      36.192  29.760  29.764  1.00  0.00     0.014 A 
ATOM     36  C   UNL A   1      38.059  29.804  27.688  1.00  0.00     0.010 A 
ATOM     37  C   UNL A   1      37.478  29.276  29.978  1.00  0.00     0.010 A 
ATOM     38  C   UNL A   1      38.427  29.301  28.946  1.00  0.00    -0.014 A 
BRANCH  38  39
ATOM     39  C   UNL A   1      39.803  28.817  29.217  1.00  0.00     0.031 A 
ATOM     40  C   UNL A   1      40.820  29.737  29.833  1.00  0.00     0.074 A 
ATOM     41  C   UNL A   1      40.164  27.583  28.815  1.00  0.00     0.049 A 
ATOM     42  N   UNL A   1      42.098  29.537  30.036  1.00  0.00    -0.248 NA
ATOM     43  C   UNL A   1      40.349  31.069  30.241  1.00  0.00     0.031 C 
ATOM     44  C   UNL A   1      39.286  26.612  28.156  1.00  0.00     0.029 A 
ATOM     45  N   UNL A   1      41.374  26.940  28.888  1.00  0.00    -0.354 N 
ATOM     46  C   UNL A   1      42.586  30.725  30.563  1.00  0.00     0.074 A 
ATOM     47  C   UNL A   1      41.478  31.653  30.613  1.00  0.00     0.031 C 
ATOM     48  C   UNL A   1      39.980  25.491  27.907  1.00  0.00     0.029 A 
ATOM     49  C   UNL A   1      41.358  25.677  28.349  1.00  0.00     0.049 A 
ATOM     50  H   UNL A   1      42.177  27.345  29.289  1.00  0.00     0.167 HD
ATOM     51  C   UNL A   1      43.840  31.012  30.984  1.00  0.00     0.031 A 
ATOM     52  C   UNL A   1      42.345  24.771  28.213  1.00  0.00     0.031 A 
ATOM     53  C   UNL A   1      44.935  30.080  30.962  1.00  0.00     0.049 A 
ATOM     54  C   UNL A   1      43.723  25.108  28.702  1.00  0.00     0.074 A 
ATOM     55  C   UNL A   1      46.222  30.251  31.443  1.00  0.00     0.029 A 
ATOM     56  N   UNL A   1      44.870  28.802  30.433  1.00  0.00    -0.354 N 
ATOM     57  N   UNL A   1      44.151  26.214  29.262  1.00  0.00    -0.248 NA
ATOM     58  C   UNL A   1      44.751  24.071  28.545  1.00  0.00     0.031 C 
ATOM     59  C   UNL A   1      46.948  29.087  31.166  1.00  0.00     0.029 A 
ATOM     60  C   UNL A   1      46.101  28.179  30.552  1.00  0.00     0.049 A 
ATOM     61  H   UNL A   1      44.068  28.396  30.031  1.00  0.00     0.167 HD
ATOM     62  C   UNL A   1      45.495  25.999  29.538  1.00  0.00     0.074 A 
ATOM     63  C   UNL A   1      45.805  24.653  29.101  1.00  0.00     0.031 C 
ATOM     64  C   UNL A   1      46.392  26.843  30.102  1.00  0.00     0.031 A 
BRANCH  51  65
ATOM     65  C   UNL A   1      44.092  32.401  31.499  1.00  0.00    -0.014 A 
ATOM     66  C   UNL A   1      44.500  33.433  30.640  1.00  0.00     0.009 A 
ATOM     67  C   UNL A   1      43.897  32.686  32.860  1.00  0.00     0.009 A 
ATOM     68  C   UNL A   1      44.747  34.713  31.139  1.00  0.00     0.001 A 
ATOM     69  C   UNL A   1      44.118  33.974  33.351  1.00  0.00     0.001 A 
ATOM     70  C   UNL A   1      44.552  34.984  32.493  1.00  0.00     0.000 A 
ENDBRANCH  51  65
BRANCH  52  71
ATOM     71  C   UNL A   1      42.057  23.452  27.596  1.00  0.00    -0.014 A 
ATOM     72  C   UNL A   1      42.351  23.224  26.244  1.00  0.00     0.009 A 
ATOM     73  C   UNL A   1      41.499  22.413  28.357  1.00  0.00     0.009 A 
ATOM     74  C   UNL A   1      42.074  21.987  25.659  1.00  0.00     0.001 A 
ATOM     75  C   UNL A   1      41.245  21.169  27.775  1.00  0.00     0.001 A 
ATOM     76  C   UNL A   1      41.526  20.959  26.426  1.00  0.00     0.000 A 
ENDBRANCH  52  71
BRANCH  64  77
ATOM     77  C   UNL A   1      47.789  26.327  30.289  1.00  0.00    -0.014 A 
ATOM     78  C   UNL A   1      48.741  26.427  29.263  1.00  0.00     0.009 A 
ATOM     79  C   UNL A   1      48.166  25.766  31.519  1.00  0.00     0.009 A 
ATOM     80  C   UNL A   1      50.038  25.948  29.456  1.00  0.00     0.001 A 
ATOM     81  C   UNL A   1      49.470  25.310  31.717  1.00  0.00     0.001 A 
ATOM     82  C   UNL A   1      50.402  25.395  30.684  1.00  0.00     0.000 A 
ENDBRANCH  64  77
ENDBRANCH  38  39
ENDBRANCH  30  33
ENDBRANCH  28  29
ENDBRANCH  27  28
ENDBRANCH  26  27
ENDBRANCH   3  26
TORSDOF 17
ENDMDL
MODEL 3
REMARK VINA RESULT:     -10.4      2.025      6.176
REMARK SMILES CC(C)[C@H](NC(=O)OCc1ccccc1)C(=O)NCC(=O)NCCCNC(=O)c1ccc(-c2c3nc(c(-c4ccccc4)c4ccc([nH]4)c(-c4ccccc4)c4nc(c(-c5ccccc5)c5ccc2[nH]5)C=C4)C=C3)cc1
REMARK SMILES IDX 20 1 21 2 22 3 19 5 18 6 16 7 17 8 4 10 2 11 1 12 3 13 5 14
REMARK SMILES IDX 6 15 7 17 8 18 9 19 10 20 11 21 15 22 12 23 14 24 13 25
REMARK SMILES IDX 23 26 24 27 25 28 26 29 27 30 28 32 29 33 30 34 76 35 31 36
REMARK SMILES IDX 75 37 32 38 33 39 34 40 69 41 35 42 74 43 68 44 70 45 36 46
REMARK SMILES IDX 73 47 67 48 66 49 37 51 59 52 44 53 58 54 45 55 48 56 57 57
REMARK SMILES IDX 71 58 46 59 47 60 56 62 72 63 49 64 38 65 39 66 43 67 40 68
REMARK SMILES IDX 42 69 41 70 60 71 61 72 65 73 62 74 64 75 63 76 50 77 51 78
REMARK SMILES IDX 55 79 52 80 54 81 53 82
REMARK H PARENT 22 4 18 9 5 16 26 31 70 50 48 61
REMARK Flexibility Score: inf
ROOT
ATOM      1  C   UNL A   1      37.153  23.643  25.493  1.00  0.00     0.239 C 
ATOM      2  O   UNL A   1      37.845  24.442  26.131  1.00  0.00    -0.273 OA
ATOM      3  N   UNL A   1      37.751  22.481  25.099  1.00  0.00    -0.355 N 
ATOM      4  H   UNL A   1      38.735  22.477  25.144  1.00  0.00     0.163 HD
ENDROOT
BRANCH   1   5
ATOM      5  C   UNL A   1      35.644  23.892  25.316  1.00  0.00     0.216 C 
BRANCH   5   6
ATOM      6  N   UNL A   1      35.149  23.796  23.957  1.00  0.00    -0.345 N 
ATOM      7  C   UNL A   1      34.033  24.284  23.359  1.00  0.00     0.243 C 
ATOM      8  O   UNL A   1      33.850  23.926  22.189  1.00  0.00    -0.273 OA
ATOM      9  H   UNL A   1      35.732  23.279  23.354  1.00  0.00     0.164 HD
BRANCH   7  10
ATOM     10  C   UNL A   1      32.967  25.170  24.065  1.00  0.00     0.177 C 
BRANCH  10  11
ATOM     11  C   UNL A   1      32.429  24.666  25.418  1.00  0.00     0.015 C 
ATOM     12  C   UNL A   1      31.449  25.668  26.040  1.00  0.00     0.010 C 
ATOM     13  C   UNL A   1      31.703  23.325  25.227  1.00  0.00     0.010 C 
ENDBRANCH  10  11
BRANCH  10  14
ATOM     14  N   UNL A   1      31.995  25.695  23.097  1.00  0.00    -0.309 N 
ATOM     15  C   UNL A   1      31.902  26.897  22.468  1.00  0.00     0.408 C 
ATOM     16  H   UNL A   1      31.281  25.060  22.860  1.00  0.00     0.167 HD
ATOM     17  O   UNL A   1      30.828  27.257  21.999  1.00  0.00    -0.225 OA
BRANCH  15  18
ATOM     18  O   UNL A   1      33.035  27.630  22.486  1.00  0.00    -0.445 OA
BRANCH  18  19
ATOM     19  C   UNL A   1      32.922  28.953  23.033  1.00  0.00     0.270 C 
BRANCH  19  20
ATOM     20  C   UNL A   1      32.915  28.957  24.539  1.00  0.00    -0.011 A 
ATOM     21  C   UNL A   1      31.799  29.411  25.253  1.00  0.00     0.007 A 
ATOM     22  C   UNL A   1      34.028  28.479  25.245  1.00  0.00     0.007 A 
ATOM     23  C   UNL A   1      31.802  29.389  26.649  1.00  0.00     0.000 A 
ATOM     24  C   UNL A   1      34.026  28.451  26.638  1.00  0.00     0.000 A 
ATOM     25  C   UNL A   1      32.914  28.907  27.340  1.00  0.00     0.000 A 
ENDBRANCH  19  20
ENDBRANCH  18  19
ENDBRANCH  15  18
ENDBRANCH  10  14
ENDBRANCH   7  10
ENDBRANCH   5   6
ENDBRANCH   1   5
BRANCH   3  26
ATOM     26  C   UNL A   1      37.149  21.253  24.627  1.00  0.00     0.117 C 
BRANCH  26  27
ATOM     27  C   UNL A   1      37.973  20.012  24.920  1.00  0.00     0.042 C 
BRANCH  27  28
ATOM     28  C   UNL A   1      39.129  20.271  25.876  1.00  0.00     0.118 C 
BRANCH  28  29
ATOM     29  N   UNL A   1      40.120  19.199  25.876  1.00  0.00    -0.352 N 
ATOM     30  C   UNL A   1      41.482  19.239  26.046  1.00  0.00     0.251 C 
ATOM     31  H   UNL A   1      39.751  18.297  25.732  1.00  0.00     0.163 HD
ATOM     32  O   UNL A   1      42.149  18.224  25.874  1.00  0.00    -0.269 OA
BRANCH  30  33
ATOM     33  C   UNL A   1      42.158  20.506  26.401  1.00  0.00     0.039 A 
ATOM     34  C   UNL A   1      42.677  21.303  25.376  1.00  0.00     0.014 A 
ATOM     35  C   UNL A   1      42.278  20.912  27.730  1.00  0.00     0.014 A 
ATOM     36  C   UNL A   1      43.230  22.549  25.678  1.00  0.00     0.010 A 
ATOM     37  C   UNL A   1      42.747  22.188  28.023  1.00  0.00     0.010 A 
ATOM     38  C   UNL A   1      43.220  23.022  26.999  1.00  0.00    -0.014 A 
BRANCH  38  39
ATOM     39  C   UNL A   1      43.673  24.395  27.337  1.00  0.00     0.031 A 
ATOM     40  C   UNL A   1      42.677  25.439  27.756  1.00  0.00     0.074 A 
ATOM     41  C   UNL A   1      44.968  24.726  27.167  1.00  0.00     0.049 A 
ATOM     42  N   UNL A   1      42.863  26.716  27.975  1.00  0.00    -0.248 NA
ATOM     43  C   UNL A   1      41.282  24.999  27.915  1.00  0.00     0.031 C 
ATOM     44  C   UNL A   1      46.026  23.818  26.713  1.00  0.00     0.029 A 
ATOM     45  N   UNL A   1      45.612  25.924  27.341  1.00  0.00    -0.354 N 
ATOM     46  C   UNL A   1      41.608  27.235  28.265  1.00  0.00     0.074 A 
ATOM     47  C   UNL A   1      40.663  26.145  28.156  1.00  0.00     0.031 C 
ATOM     48  C   UNL A   1      47.189  24.487  26.667  1.00  0.00     0.029 A 
ATOM     49  C   UNL A   1      46.953  25.876  27.048  1.00  0.00     0.049 A 
ATOM     50  H   UNL A   1      45.156  26.742  27.648  1.00  0.00     0.167 HD
ATOM     51  C   UNL A   1      41.274  28.502  28.607  1.00  0.00     0.031 A 
ATOM     52  C   UNL A   1      47.888  26.844  27.069  1.00  0.00     0.031 A 
ATOM     53  C   UNL A   1      42.216  29.578  28.744  1.00  0.00     0.049 A 
ATOM     54  C   UNL A   1      47.495  28.236  27.467  1.00  0.00     0.074 A 
ATOM     55  C   UNL A   1      41.986  30.877  29.166  1.00  0.00     0.029 A 
ATOM     56  N   UNL A   1      43.569  29.481  28.463  1.00  0.00    -0.354 N 
ATOM     57  N   UNL A   1      46.315  28.695  27.805  1.00  0.00    -0.248 NA
ATOM     58  C   UNL A   1      48.565  29.243  27.492  1.00  0.00     0.031 C 
ATOM     59  C   UNL A   1      43.197  31.576  29.100  1.00  0.00     0.029 A 
ATOM     60  C   UNL A   1      44.185  30.703  28.679  1.00  0.00     0.049 A 
ATOM     61  H   UNL A   1      44.025  28.665  28.155  1.00  0.00     0.167 HD
ATOM     62  C   UNL A   1      46.502  30.039  28.098  1.00  0.00     0.074 A 
ATOM     63  C   UNL A   1      47.912  30.317  27.915  1.00  0.00     0.031 C 
ATOM     64  C   UNL A   1      45.587  30.961  28.482  1.00  0.00     0.031 A 
BRANCH  51  65
ATOM     65  C   UNL A   1      39.819  28.787  28.850  1.00  0.00    -0.014 A 
ATOM     66  C   UNL A   1      39.237  28.575  30.110  1.00  0.00     0.009 A 
ATOM     67  C   UNL A   1      39.025  29.297  27.811  1.00  0.00     0.009 A 
ATOM     68  C   UNL A   1      37.879  28.830  30.313  1.00  0.00     0.001 A 
ATOM     69  C   UNL A   1      37.673  29.576  28.025  1.00  0.00     0.001 A 
ATOM     70  C   UNL A   1      37.099  29.333  29.273  1.00  0.00     0.000 A 
ENDBRANCH  51  65
BRANCH  52  71
ATOM     71  C   UNL A   1      49.293  26.521  26.713  1.00  0.00    -0.014 A 
ATOM     72  C   UNL A   1      50.188  26.077  27.697  1.00  0.00     0.009 A 
ATOM     73  C   UNL A   1      49.742  26.645  25.389  1.00  0.00     0.009 A 
ATOM     74  C   UNL A   1      51.513  25.781  27.367  1.00  0.00     0.001 A 
ATOM     75  C   UNL A   1      51.060  26.326  25.057  1.00  0.00     0.001 A 
ATOM     76  C   UNL A   1      51.946  25.901  26.047  1.00  0.00     0.000 A 
ENDBRANCH  52  71
BRANCH  64  77
ATOM     77  C   UNL A   1      46.089  32.352  28.742  1.00  0.00    -0.014 A 
ATOM     78  C   UNL A   1      46.494  32.746  30.026  1.00  0.00     0.009 A 
ATOM     79  C   UNL A   1      46.189  33.266  27.682  1.00  0.00     0.009 A 
ATOM     80  C   UNL A   1      46.964  34.042  30.249  1.00  0.00     0.001 A 
ATOM     81  C   UNL A   1      46.683  34.552  27.904  1.00  0.00     0.001 A 
ATOM     82  C   UNL A   1      47.063  34.941  29.188  1.00  0.00     0.000 A 
ENDBRANCH  64  77
ENDBRANCH  38  39
ENDBRANCH  30  33
ENDBRANCH  28  29
ENDBRANCH  27  28
ENDBRANCH  26  27
ENDBRANCH   3  26
TORSDOF 17
ENDMDL
