MODEL 1
REMARK VINA RESULT:     -12.8      0.000      0.000
REMARK SMILES COc1ccc(-c2c(C(=O)NCCCNC(=O)c3ccc(-c4c5nc(c(-c6ccccc6)c6ccc([nH]6)c(-c6ccccc6)c6nc(c(-c7ccccc7)c7ccc4[nH]7)C=C6)C=C5)cc3)sc3c2N=C(O)C[C@H]3c2ccc(OC)c(OC)c2)cc1
REMARK SMILES IDX 13 1 12 2 11 3 9 4 10 5 8 7 7 8 68 9 66 10 67 11 69 12 73 13
REMARK SMILES IDX 70 14 72 15 6 16 3 17 4 18 85 19 5 20 84 21 2 22 1 23 74 24
REMARK SMILES IDX 75 25 83 26 76 27 80 28 77 29 81 30 82 31 78 32 79 33 71 34
REMARK SMILES IDX 14 36 15 37 16 38 17 40 18 41 19 42 65 43 20 44 64 45 21 46
REMARK SMILES IDX 22 47 23 48 58 49 24 50 63 51 57 52 59 53 25 54 62 55 56 56
REMARK SMILES IDX 55 57 26 59 48 60 33 61 47 62 34 63 37 64 46 65 60 66 35 67
REMARK SMILES IDX 36 68 45 70 61 71 38 72 27 73 28 74 32 75 29 76 31 77 30 78
REMARK SMILES IDX 49 79 50 80 54 81 51 82 53 83 52 84 39 85 40 86 44 87 41 88
REMARK SMILES IDX 43 89 42 90
REMARK H PARENT 11 6 71 35 15 39 59 58 37 69
REMARK Flexibility Score: inf
ROOT
ATOM      1  C   UNL A   1      38.030  20.900  25.431  1.00  0.00     0.042 C 
ENDROOT
BRANCH   1   2
ATOM      2  C   UNL A   1      37.387  22.274  25.314  1.00  0.00     0.118 C 
BRANCH   2   3
ATOM      3  N   UNL A   1      36.372  22.459  26.310  1.00  0.00    -0.351 N 
ATOM      4  C   UNL A   1      35.144  23.042  26.361  1.00  0.00     0.262 C 
ATOM      5  O   UNL A   1      34.673  22.927  27.505  1.00  0.00    -0.268 OA
ATOM      6  H   UNL A   1      36.629  22.063  27.174  1.00  0.00     0.163 HD
BRANCH   4   7
ATOM      7  C   UNL A   1      34.415  23.720  25.278  1.00  0.00     0.102 A 
ATOM      8  C   UNL A   1      33.516  23.462  24.228  1.00  0.00     0.031 A 
ATOM      9  C   UNL A   1      33.200  24.662  23.499  1.00  0.00     0.090 A 
ATOM     10  S   UNL A   1      34.835  25.434  25.253  1.00  0.00    -0.131 S 
ATOM     11  C   UNL A   1      33.865  25.768  23.925  1.00  0.00     0.040 A 
ATOM     12  N   UNL A   1      32.312  24.674  22.416  1.00  0.00    -0.216 NA
ATOM     13  C   UNL A   1      33.785  27.114  23.304  1.00  0.00     0.071 C 
ATOM     14  C   UNL A   1      32.260  25.779  21.753  1.00  0.00     0.186 C 
ATOM     15  C   UNL A   1      33.062  27.041  21.955  1.00  0.00     0.111 C 
BRANCH   8  16
ATOM     16  C   UNL A   1      33.025  22.176  23.746  1.00  0.00    -0.014 A 
ATOM     17  C   UNL A   1      32.162  19.725  22.692  1.00  0.00     0.118 A 
ATOM     18  C   UNL A   1      32.490  19.832  24.047  1.00  0.00     0.047 A 
ATOM     19  C   UNL A   1      32.096  20.873  21.906  1.00  0.00     0.047 A 
ATOM     20  C   UNL A   1      32.894  21.063  24.582  1.00  0.00     0.012 A 
ATOM     21  C   UNL A   1      32.532  22.094  22.432  1.00  0.00     0.012 A 
BRANCH  17  22
ATOM     22  O   UNL A   1      31.948  18.460  22.215  1.00  0.00    -0.497 OA
ATOM     23  C   UNL A   1      32.892  17.488  22.670  1.00  0.00     0.278 C 
ENDBRANCH  17  22
ENDBRANCH   8  16
BRANCH  13  24
ATOM     24  C   UNL A   1      33.170  28.153  24.230  1.00  0.00    -0.035 A 
ATOM     25  C   UNL A   1      33.799  28.557  25.408  1.00  0.00     0.008 A 
ATOM     26  C   UNL A   1      31.938  28.734  23.884  1.00  0.00     0.054 A 
ATOM     27  C   UNL A   1      33.192  29.508  26.225  1.00  0.00     0.051 A 
ATOM     28  C   UNL A   1      31.311  29.686  24.704  1.00  0.00     0.161 A 
ATOM     29  C   UNL A   1      31.952  30.075  25.892  1.00  0.00     0.160 A 
BRANCH  28  30
ATOM     30  O   UNL A   1      30.096  30.237  24.397  1.00  0.00    -0.493 OA
ATOM     31  C   UNL A   1      29.576  30.047  23.087  1.00  0.00     0.278 C 
ENDBRANCH  28  30
BRANCH  29  32
ATOM     32  O   UNL A   1      31.527  30.967  26.843  1.00  0.00    -0.493 OA
ATOM     33  C   UNL A   1      31.425  32.339  26.497  1.00  0.00     0.278 C 
ENDBRANCH  29  32
ENDBRANCH  13  24
BRANCH  14  34
ATOM     34  O   UNL A   1      31.436  25.831  20.686  1.00  0.00    -0.496 OA
ATOM     35  H   UNL A   1      31.716  26.255  19.898  1.00  0.00     0.294 HD
ENDBRANCH  14  34
ENDBRANCH   4   7
ENDBRANCH   2   3
ENDBRANCH   1   2
BRANCH   1  36
ATOM     36  C   UNL A   1      39.369  20.942  26.129  1.00  0.00     0.118 C 
BRANCH  36  37
ATOM     37  N   UNL A   1      40.209  19.750  25.937  1.00  0.00    -0.352 N 
ATOM     38  C   UNL A   1      41.604  19.680  25.887  1.00  0.00     0.251 C 
ATOM     39  H   UNL A   1      39.730  18.897  25.833  1.00  0.00     0.163 HD
ATOM     40  O   UNL A   1      42.193  18.746  25.405  1.00  0.00    -0.269 OA
BRANCH  38  41
ATOM     41  C   UNL A   1      42.334  20.829  26.457  1.00  0.00     0.039 A 
ATOM     42  C   UNL A   1      42.743  21.916  25.680  1.00  0.00     0.014 A 
ATOM     43  C   UNL A   1      42.314  20.894  27.836  1.00  0.00     0.014 A 
ATOM     44  C   UNL A   1      42.965  23.139  26.315  1.00  0.00     0.010 A 
ATOM     45  C   UNL A   1      42.217  22.141  28.380  1.00  0.00     0.010 A 
ATOM     46  C   UNL A   1      42.630  23.262  27.671  1.00  0.00    -0.014 A 
BRANCH  46  47
ATOM     47  C   UNL A   1      42.585  24.538  28.381  1.00  0.00     0.031 A 
ATOM     48  C   UNL A   1      41.418  25.417  28.098  1.00  0.00     0.074 A 
ATOM     49  C   UNL A   1      43.409  24.804  29.421  1.00  0.00     0.049 A 
ATOM     50  N   UNL A   1      41.435  26.547  27.476  1.00  0.00    -0.248 NA
ATOM     51  C   UNL A   1      40.066  24.961  28.459  1.00  0.00     0.031 C 
ATOM     52  C   UNL A   1      44.426  23.937  30.041  1.00  0.00     0.029 A 
ATOM     53  N   UNL A   1      43.402  25.875  30.255  1.00  0.00    -0.354 N 
ATOM     54  C   UNL A   1      40.140  27.052  27.537  1.00  0.00     0.074 A 
ATOM     55  C   UNL A   1      39.312  25.962  27.992  1.00  0.00     0.031 C 
ATOM     56  C   UNL A   1      44.714  24.382  31.280  1.00  0.00     0.029 A 
ATOM     57  C   UNL A   1      44.089  25.677  31.447  1.00  0.00     0.049 A 
ATOM     58  H   UNL A   1      42.949  26.720  30.035  1.00  0.00     0.167 HD
ATOM     59  C   UNL A   1      39.897  28.390  27.438  1.00  0.00     0.031 A 
ATOM     60  C   UNL A   1      44.155  26.519  32.502  1.00  0.00     0.031 A 
ATOM     61  C   UNL A   1      41.079  29.110  27.028  1.00  0.00     0.049 A 
ATOM     62  C   UNL A   1      43.818  27.868  31.994  1.00  0.00     0.074 A 
ATOM     63  C   UNL A   1      41.921  29.057  25.936  1.00  0.00     0.029 A 
ATOM     64  N   UNL A   1      41.784  29.761  28.016  1.00  0.00    -0.354 N 
ATOM     65  N   UNL A   1      44.576  28.520  31.159  1.00  0.00    -0.248 NA
ATOM     66  C   UNL A   1      42.426  28.292  32.030  1.00  0.00     0.031 C 
ATOM     67  C   UNL A   1      43.231  29.209  26.481  1.00  0.00     0.029 A 
ATOM     68  C   UNL A   1      43.106  29.438  27.853  1.00  0.00     0.049 A 
ATOM     69  H   UNL A   1      41.409  30.350  28.709  1.00  0.00     0.167 HD
ATOM     70  C   UNL A   1      43.692  29.089  30.252  1.00  0.00     0.074 A 
ATOM     71  C   UNL A   1      42.386  29.020  30.910  1.00  0.00     0.031 C 
ATOM     72  C   UNL A   1      44.045  29.286  28.946  1.00  0.00     0.031 A 
BRANCH  59  73
ATOM     73  C   UNL A   1      38.740  29.110  28.087  1.00  0.00    -0.014 A 
ATOM     74  C   UNL A   1      38.560  28.976  29.478  1.00  0.00     0.009 A 
ATOM     75  C   UNL A   1      37.674  29.675  27.365  1.00  0.00     0.009 A 
ATOM     76  C   UNL A   1      37.347  29.306  30.094  1.00  0.00     0.001 A 
ATOM     77  C   UNL A   1      36.475  30.046  27.985  1.00  0.00     0.001 A 
ATOM     78  C   UNL A   1      36.302  29.831  29.345  1.00  0.00     0.000 A 
ENDBRANCH  59  73
BRANCH  60  79
ATOM     79  C   UNL A   1      44.320  26.200  33.933  1.00  0.00    -0.014 A 
ATOM     80  C   UNL A   1      43.267  25.642  34.671  1.00  0.00     0.009 A 
ATOM     81  C   UNL A   1      45.600  26.210  34.521  1.00  0.00     0.009 A 
ATOM     82  C   UNL A   1      43.495  25.071  35.930  1.00  0.00     0.001 A 
ATOM     83  C   UNL A   1      45.826  25.645  35.780  1.00  0.00     0.001 A 
ATOM     84  C   UNL A   1      44.776  25.058  36.477  1.00  0.00     0.000 A 
ENDBRANCH  60  79
BRANCH  72  85
ATOM     85  C   UNL A   1      45.489  29.060  28.555  1.00  0.00    -0.014 A 
ATOM     86  C   UNL A   1      46.453  30.085  28.553  1.00  0.00     0.009 A 
ATOM     87  C   UNL A   1      45.928  27.744  28.351  1.00  0.00     0.009 A 
ATOM     88  C   UNL A   1      47.805  29.805  28.326  1.00  0.00     0.001 A 
ATOM     89  C   UNL A   1      47.281  27.460  28.146  1.00  0.00     0.001 A 
ATOM     90  C   UNL A   1      48.218  28.490  28.128  1.00  0.00     0.000 A 
ENDBRANCH  72  85
ENDBRANCH  46  47
ENDBRANCH  38  41
ENDBRANCH  36  37
ENDBRANCH   1  36
TORSDOF 16
ENDMDL
MODEL 2
REMARK VINA RESULT:     -12.3      2.391      8.095
REMARK SMILES COc1ccc(-c2c(C(=O)NCCCNC(=O)c3ccc(-c4c5nc(c(-c6ccccc6)c6ccc([nH]6)c(-c6ccccc6)c6nc(c(-c7ccccc7)c7ccc4[nH]7)C=C6)C=C5)cc3)sc3c2N=C(O)C[C@H]3c2ccc(OC)c(OC)c2)cc1
REMARK SMILES IDX 13 1 12 2 11 3 9 4 10 5 8 7 7 8 68 9 66 10 67 11 69 12 73 13
REMARK SMILES IDX 70 14 72 15 6 16 3 17 4 18 85 19 5 20 84 21 2 22 1 23 74 24
REMARK SMILES IDX 75 25 83 26 76 27 80 28 77 29 81 30 82 31 78 32 79 33 71 34
REMARK SMILES IDX 14 36 15 37 16 38 17 40 18 41 19 42 65 43 20 44 64 45 21 46
REMARK SMILES IDX 22 47 23 48 58 49 24 50 63 51 57 52 59 53 25 54 62 55 56 56
REMARK SMILES IDX 55 57 26 59 48 60 33 61 47 62 34 63 37 64 46 65 60 66 35 67
REMARK SMILES IDX 36 68 45 70 61 71 38 72 27 73 28 74 32 75 29 76 31 77 30 78
REMARK SMILES IDX 49 79 50 80 54 81 51 82 53 83 52 84 39 85 40 86 44 87 41 88
REMARK SMILES IDX 43 89 42 90
REMARK H PARENT 11 6 71 35 15 39 59 58 37 69
REMARK Flexibility Score: inf
ROOT
ATOM      1  C   UNL A   1      34.723  29.377  27.465  1.00  0.00     0.042 C 
ENDROOT
BRANCH   1   2
ATOM      2  C   UNL A   1      33.651  29.698  26.434  1.00  0.00     0.118 C 
BRANCH   2   3
ATOM      3  N   UNL A   1      34.033  29.245  25.129  1.00  0.00    -0.351 N 
ATOM      4  C   UNL A   1      33.885  28.102  24.406  1.00  0.00     0.262 C 
ATOM      5  O   UNL A   1      34.430  28.234  23.297  1.00  0.00    -0.268 OA
ATOM      6  H   UNL A   1      34.527  29.935  24.630  1.00  0.00     0.163 HD
BRANCH   4   7
ATOM      7  C   UNL A   1      33.198  26.862  24.800  1.00  0.00     0.102 A 
ATOM      8  C   UNL A   1      31.950  26.221  24.713  1.00  0.00     0.031 A 
ATOM      9  C   UNL A   1      31.969  24.941  25.372  1.00  0.00     0.090 A 
ATOM     10  S   UNL A   1      34.294  25.840  25.734  1.00  0.00    -0.131 S 
ATOM     11  C   UNL A   1      33.145  24.642  25.982  1.00  0.00     0.040 A 
ATOM     12  N   UNL A   1      30.851  24.098  25.411  1.00  0.00    -0.216 NA
ATOM     13  C   UNL A   1      33.411  23.427  26.793  1.00  0.00     0.071 C 
ATOM     14  C   UNL A   1      30.959  23.068  26.180  1.00  0.00     0.186 C 
ATOM     15  C   UNL A   1      32.105  22.678  27.080  1.00  0.00     0.111 C 
BRANCH   8  16
ATOM     16  C   UNL A   1      30.692  26.746  24.195  1.00  0.00    -0.014 A 
ATOM     17  C   UNL A   1      28.216  27.746  23.338  1.00  0.00     0.118 A 
ATOM     18  C   UNL A   1      29.404  28.285  22.837  1.00  0.00     0.047 A 
ATOM     19  C   UNL A   1      28.258  26.599  24.127  1.00  0.00     0.047 A 
ATOM     20  C   UNL A   1      30.643  27.768  23.242  1.00  0.00     0.012 A 
ATOM     21  C   UNL A   1      29.495  26.104  24.557  1.00  0.00     0.012 A 
BRANCH  17  22
ATOM     22  O   UNL A   1      27.064  28.418  23.030  1.00  0.00    -0.497 OA
ATOM     23  C   UNL A   1      27.204  29.840  22.979  1.00  0.00     0.278 C 
ENDBRANCH  17  22
ENDBRANCH   8  16
BRANCH  13  24
ATOM     24  C   UNL A   1      34.466  22.525  26.173  1.00  0.00    -0.035 A 
ATOM     25  C   UNL A   1      35.809  22.899  26.105  1.00  0.00     0.008 A 
ATOM     26  C   UNL A   1      34.083  21.272  25.664  1.00  0.00     0.054 A 
ATOM     27  C   UNL A   1      36.738  22.039  25.522  1.00  0.00     0.051 A 
ATOM     28  C   UNL A   1      35.008  20.401  25.065  1.00  0.00     0.161 A 
ATOM     29  C   UNL A   1      36.354  20.795  24.994  1.00  0.00     0.160 A 
BRANCH  28  30
ATOM     30  O   UNL A   1      34.644  19.192  24.536  1.00  0.00    -0.493 OA
ATOM     31  C   UNL A   1      33.271  18.824  24.565  1.00  0.00     0.278 C 
ENDBRANCH  28  30
BRANCH  29  32
ATOM     32  O   UNL A   1      37.417  20.124  24.448  1.00  0.00    -0.493 OA
ATOM     33  C   UNL A   1      38.379  19.545  25.316  1.00  0.00     0.278 C 
ENDBRANCH  29  32
ENDBRANCH  13  24
BRANCH  14  34
ATOM     34  O   UNL A   1      29.899  22.239  26.270  1.00  0.00    -0.496 OA
ATOM     35  H   UNL A   1      29.264  22.213  25.581  1.00  0.00     0.294 HD
ENDBRANCH  14  34
ENDBRANCH   4   7
ENDBRANCH   2   3
ENDBRANCH   1   2
BRANCH   1  36
ATOM     36  C   UNL A   1      35.737  30.488  27.615  1.00  0.00     0.118 C 
BRANCH  36  37
ATOM     37  N   UNL A   1      35.256  31.679  28.330  1.00  0.00    -0.352 N 
ATOM     38  C   UNL A   1      35.430  32.003  29.678  1.00  0.00     0.251 C 
ATOM     39  H   UNL A   1      34.750  32.330  27.791  1.00  0.00     0.163 HD
ATOM     40  O   UNL A   1      34.740  32.807  30.250  1.00  0.00    -0.269 OA
BRANCH  38  41
ATOM     41  C   UNL A   1      36.517  31.293  30.382  1.00  0.00     0.039 A 
ATOM     42  C   UNL A   1      36.379  29.980  30.840  1.00  0.00     0.014 A 
ATOM     43  C   UNL A   1      37.753  31.898  30.284  1.00  0.00     0.014 A 
ATOM     44  C   UNL A   1      37.534  29.220  31.033  1.00  0.00     0.010 A 
ATOM     45  C   UNL A   1      38.826  31.064  30.165  1.00  0.00     0.010 A 
ATOM     46  C   UNL A   1      38.764  29.754  30.623  1.00  0.00    -0.014 A 
BRANCH  46  47
ATOM     47  C   UNL A   1      39.998  28.976  30.546  1.00  0.00     0.031 A 
ATOM     48  C   UNL A   1      40.706  28.719  31.828  1.00  0.00     0.074 A 
ATOM     49  C   UNL A   1      40.350  28.309  29.422  1.00  0.00     0.049 A 
ATOM     50  N   UNL A   1      41.845  29.204  32.193  1.00  0.00    -0.248 NA
ATOM     51  C   UNL A   1      40.048  27.911  32.868  1.00  0.00     0.031 C 
ATOM     52  C   UNL A   1      39.622  28.197  28.146  1.00  0.00     0.029 A 
ATOM     53  N   UNL A   1      41.383  27.447  29.235  1.00  0.00    -0.354 N 
ATOM     54  C   UNL A   1      42.155  28.613  33.414  1.00  0.00     0.074 A 
ATOM     55  C   UNL A   1      40.943  27.971  33.860  1.00  0.00     0.031 C 
ATOM     56  C   UNL A   1      40.067  27.128  27.456  1.00  0.00     0.029 A 
ATOM     57  C   UNL A   1      41.251  26.628  28.122  1.00  0.00     0.049 A 
ATOM     58  H   UNL A   1      42.160  27.407  29.838  1.00  0.00     0.167 HD
ATOM     59  C   UNL A   1      43.446  28.500  33.838  1.00  0.00     0.031 A 
ATOM     60  C   UNL A   1      42.062  25.610  27.755  1.00  0.00     0.031 A 
ATOM     61  C   UNL A   1      44.342  29.266  33.006  1.00  0.00     0.049 A 
ATOM     62  C   UNL A   1      43.362  25.837  28.425  1.00  0.00     0.074 A 
ATOM     63  C   UNL A   1      44.444  30.597  32.654  1.00  0.00     0.029 A 
ATOM     64  N   UNL A   1      45.059  28.570  32.058  1.00  0.00    -0.354 N 
ATOM     65  N   UNL A   1      44.142  26.840  28.136  1.00  0.00    -0.248 NA
ATOM     66  C   UNL A   1      43.578  25.239  29.734  1.00  0.00     0.031 C 
ATOM     67  C   UNL A   1      44.769  30.579  31.265  1.00  0.00     0.029 A 
ATOM     68  C   UNL A   1      44.936  29.249  30.874  1.00  0.00     0.049 A 
ATOM     69  H   UNL A   1      45.565  27.739  32.204  1.00  0.00     0.167 HD
ATOM     70  C   UNL A   1      44.604  27.291  29.365  1.00  0.00     0.074 A 
ATOM     71  C   UNL A   1      44.326  26.195  30.295  1.00  0.00     0.031 C 
ATOM     72  C   UNL A   1      44.889  28.612  29.573  1.00  0.00     0.031 A 
BRANCH  59  73
ATOM     73  C   UNL A   1      43.970  27.402  34.732  1.00  0.00    -0.014 A 
ATOM     74  C   UNL A   1      43.875  26.069  34.285  1.00  0.00     0.009 A 
ATOM     75  C   UNL A   1      44.291  27.590  36.088  1.00  0.00     0.009 A 
ATOM     76  C   UNL A   1      44.005  24.990  35.167  1.00  0.00     0.001 A 
ATOM     77  C   UNL A   1      44.463  26.514  36.963  1.00  0.00     0.001 A 
ATOM     78  C   UNL A   1      44.288  25.214  36.509  1.00  0.00     0.000 A 
ENDBRANCH  59  73
BRANCH  60  79
ATOM     79  C   UNL A   1      41.727  24.381  27.009  1.00  0.00    -0.014 A 
ATOM     80  C   UNL A   1      42.652  23.797  26.134  1.00  0.00     0.009 A 
ATOM     81  C   UNL A   1      40.582  23.634  27.348  1.00  0.00     0.009 A 
ATOM     82  C   UNL A   1      42.464  22.494  25.654  1.00  0.00     0.001 A 
ATOM     83  C   UNL A   1      40.391  22.336  26.864  1.00  0.00     0.001 A 
ATOM     84  C   UNL A   1      41.342  21.759  26.031  1.00  0.00     0.000 A 
ENDBRANCH  60  79
BRANCH  72  85
ATOM     85  C   UNL A   1      44.887  29.540  28.379  1.00  0.00    -0.014 A 
ATOM     86  C   UNL A   1      43.717  30.124  27.860  1.00  0.00     0.009 A 
ATOM     87  C   UNL A   1      46.120  29.975  27.870  1.00  0.00     0.009 A 
ATOM     88  C   UNL A   1      43.777  31.088  26.848  1.00  0.00     0.001 A 
ATOM     89  C   UNL A   1      46.183  30.953  26.874  1.00  0.00     0.001 A 
ATOM     90  C   UNL A   1      45.012  31.505  26.360  1.00  0.00     0.000 A 
ENDBRANCH  72  85
ENDBRANCH  46  47
ENDBRANCH  38  41
ENDBRANCH  36  37
ENDBRANCH   1  36
TORSDOF 16
ENDMDL
MODEL 3
REMARK VINA RESULT:     -12.1      3.481      8.983
REMARK SMILES COc1ccc(-c2c(C(=O)NCCCNC(=O)c3ccc(-c4c5nc(c(-c6ccccc6)c6ccc([nH]6)c(-c6ccccc6)c6nc(c(-c7ccccc7)c7ccc4[nH]7)C=C6)C=C5)cc3)sc3c2N=C(O)C[C@H]3c2ccc(OC)c(OC)c2)cc1
REMARK SMILES IDX 13 1 12 2 11 3 9 4 10 5 8 7 7 8 68 9 66 10 67 11 69 12 73 13
REMARK SMILES IDX 70 14 72 15 6 16 3 17 4 18 85 19 5 20 84 21 2 22 1 23 74 24
REMARK SMILES IDX 75 25 83 26 76 27 80 28 77 29 81 30 82 31 78 32 79 33 71 34
REMARK SMILES IDX 14 36 15 37 16 38 17 40 18 41 19 42 65 43 20 44 64 45 21 46
REMARK SMILES IDX 22 47 23 48 58 49 24 50 63 51 57 52 59 53 25 54 62 55 56 56
REMARK SMILES IDX 55 57 26 59 48 60 33 61 47 62 34 63 37 64 46 65 60 66 35 67
REMARK SMILES IDX 36 68 45 70 61 71 38 72 27 73 28 74 32 75 29 76 31 77 30 78
REMARK SMILES IDX 49 79 50 80 54 81 51 82 53 83 52 84 39 85 40 86 44 87 41 88
REMARK SMILES IDX 43 89 42 90
REMARK H PARENT 11 6 71 35 15 39 59 58 37 69
REMARK Flexibility Score: inf
ROOT
ATOM      1  C   UNL A   1      32.550  30.093  26.953  1.00  0.00     0.042 C 
ENDROOT
BRANCH   1   2
ATOM      2  C   UNL A   1      32.313  30.196  25.454  1.00  0.00     0.118 C 
BRANCH   2   3
ATOM      3  N   UNL A   1      33.361  29.553  24.717  1.00  0.00    -0.351 N 
ATOM      4  C   UNL A   1      33.715  28.270  24.434  1.00  0.00     0.262 C 
ATOM      5  O   UNL A   1      34.747  28.263  23.741  1.00  0.00    -0.268 OA
ATOM      6  H   UNL A   1      33.980  30.204  24.314  1.00  0.00     0.163 HD
BRANCH   4   7
ATOM      7  C   UNL A   1      33.036  27.030  24.842  1.00  0.00     0.102 A 
ATOM      8  C   UNL A   1      31.794  26.377  24.757  1.00  0.00     0.031 A 
ATOM      9  C   UNL A   1      31.819  25.108  25.435  1.00  0.00     0.090 A 
ATOM     10  S   UNL A   1      34.135  26.031  25.798  1.00  0.00    -0.131 S 
ATOM     11  C   UNL A   1      32.994  24.827  26.056  1.00  0.00     0.040 A 
ATOM     12  N   UNL A   1      30.709  24.256  25.479  1.00  0.00    -0.216 NA
ATOM     13  C   UNL A   1      33.265  23.627  26.887  1.00  0.00     0.071 C 
ATOM     14  C   UNL A   1      30.820  23.238  26.264  1.00  0.00     0.186 C 
ATOM     15  C   UNL A   1      31.963  22.871  27.177  1.00  0.00     0.111 C 
BRANCH   8  16
ATOM     16  C   UNL A   1      30.535  26.884  24.222  1.00  0.00    -0.014 A 
ATOM     17  C   UNL A   1      28.056  27.849  23.335  1.00  0.00     0.118 A 
ATOM     18  C   UNL A   1      29.243  28.402  22.845  1.00  0.00     0.047 A 
ATOM     19  C   UNL A   1      28.105  26.705  24.128  1.00  0.00     0.047 A 
ATOM     20  C   UNL A   1      30.483  27.902  23.265  1.00  0.00     0.012 A 
ATOM     21  C   UNL A   1      29.343  26.228  24.574  1.00  0.00     0.012 A 
BRANCH  17  22
ATOM     22  O   UNL A   1      26.899  28.504  23.011  1.00  0.00    -0.497 OA
ATOM     23  C   UNL A   1      27.032  29.924  22.908  1.00  0.00     0.278 C 
ENDBRANCH  17  22
ENDBRANCH   8  16
BRANCH  13  24
ATOM     24  C   UNL A   1      34.332  22.725  26.287  1.00  0.00    -0.035 A 
ATOM     25  C   UNL A   1      35.685  23.066  26.309  1.00  0.00     0.008 A 
ATOM     26  C   UNL A   1      33.948  21.505  25.704  1.00  0.00     0.054 A 
ATOM     27  C   UNL A   1      36.624  22.207  25.742  1.00  0.00     0.051 A 
ATOM     28  C   UNL A   1      34.884  20.636  25.119  1.00  0.00     0.161 A 
ATOM     29  C   UNL A   1      36.241  20.998  25.139  1.00  0.00     0.160 A 
BRANCH  28  30
ATOM     30  O   UNL A   1      34.522  19.461  24.518  1.00  0.00    -0.493 OA
ATOM     31  C   UNL A   1      33.328  18.819  24.947  1.00  0.00     0.278 C 
ENDBRANCH  28  30
BRANCH  29  32
ATOM     32  O   UNL A   1      37.317  20.322  24.624  1.00  0.00    -0.493 OA
ATOM     33  C   UNL A   1      38.578  20.456  25.261  1.00  0.00     0.278 C 
ENDBRANCH  29  32
ENDBRANCH  13  24
BRANCH  14  34
ATOM     34  O   UNL A   1      29.766  22.402  26.359  1.00  0.00    -0.496 OA
ATOM     35  H   UNL A   1      29.602  21.944  27.160  1.00  0.00     0.294 HD
ENDBRANCH  14  34
ENDBRANCH   4   7
ENDBRANCH   2   3
ENDBRANCH   1   2
BRANCH   1  36
ATOM     36  C   UNL A   1      33.406  31.218  27.485  1.00  0.00     0.118 C 
BRANCH  36  37
ATOM     37  N   UNL A   1      32.805  32.557  27.390  1.00  0.00    -0.352 N 
ATOM     38  C   UNL A   1      33.101  33.690  28.153  1.00  0.00     0.251 C 
ATOM     39  H   UNL A   1      32.109  32.669  26.703  1.00  0.00     0.163 HD
ATOM     40  O   UNL A   1      32.354  34.630  28.241  1.00  0.00    -0.269 OA
BRANCH  38  41
ATOM     41  C   UNL A   1      34.396  33.675  28.863  1.00  0.00     0.039 A 
ATOM     42  C   UNL A   1      34.551  33.088  30.122  1.00  0.00     0.014 A 
ATOM     43  C   UNL A   1      35.483  34.004  28.080  1.00  0.00     0.014 A 
ATOM     44  C   UNL A   1      35.828  32.672  30.505  1.00  0.00     0.010 A 
ATOM     45  C   UNL A   1      36.634  33.314  28.324  1.00  0.00     0.010 A 
ATOM     46  C   UNL A   1      36.863  32.727  29.562  1.00  0.00    -0.014 A 
BRANCH  46  47
ATOM     47  C   UNL A   1      38.170  32.103  29.757  1.00  0.00     0.031 A 
ATOM     48  C   UNL A   1      38.292  30.675  29.360  1.00  0.00     0.074 A 
ATOM     49  C   UNL A   1      39.273  32.833  30.040  1.00  0.00     0.049 A 
ATOM     50  N   UNL A   1      38.457  29.666  30.147  1.00  0.00    -0.248 NA
ATOM     51  C   UNL A   1      38.122  30.301  27.947  1.00  0.00     0.031 C 
ATOM     52  C   UNL A   1      39.407  34.295  30.173  1.00  0.00     0.029 A 
ATOM     53  N   UNL A   1      40.565  32.423  30.120  1.00  0.00    -0.354 N 
ATOM     54  C   UNL A   1      38.617  28.549  29.331  1.00  0.00     0.074 A 
ATOM     55  C   UNL A   1      38.227  28.969  28.007  1.00  0.00     0.031 C 
ATOM     56  C   UNL A   1      40.698  34.653  30.026  1.00  0.00     0.029 A 
ATOM     57  C   UNL A   1      41.499  33.447  30.026  1.00  0.00     0.049 A 
ATOM     58  H   UNL A   1      40.818  31.479  30.234  1.00  0.00     0.167 HD
ATOM     59  C   UNL A   1      39.286  27.444  29.768  1.00  0.00     0.031 A 
ATOM     60  C   UNL A   1      42.843  33.324  29.962  1.00  0.00     0.031 A 
ATOM     61  C   UNL A   1      39.546  27.513  31.186  1.00  0.00     0.049 A 
ATOM     62  C   UNL A   1      43.178  31.993  30.516  1.00  0.00     0.074 A 
ATOM     63  C   UNL A   1      38.761  27.637  32.315  1.00  0.00     0.029 A 
ATOM     64  N   UNL A   1      40.816  27.887  31.567  1.00  0.00    -0.354 N 
ATOM     65  N   UNL A   1      42.998  31.682  31.769  1.00  0.00    -0.248 NA
ATOM     66  C   UNL A   1      43.257  30.864  29.602  1.00  0.00     0.031 C 
ATOM     67  C   UNL A   1      39.472  28.548  33.151  1.00  0.00     0.029 A 
ATOM     68  C   UNL A   1      40.685  28.854  32.529  1.00  0.00     0.049 A 
ATOM     69  H   UNL A   1      41.661  27.525  31.215  1.00  0.00     0.167 HD
ATOM     70  C   UNL A   1      42.481  30.394  31.741  1.00  0.00     0.074 A 
ATOM     71  C   UNL A   1      42.781  29.900  30.396  1.00  0.00     0.031 C 
ATOM     72  C   UNL A   1      41.602  29.963  32.695  1.00  0.00     0.031 A 
BRANCH  59  73
ATOM     73  C   UNL A   1      40.061  26.496  28.885  1.00  0.00    -0.014 A 
ATOM     74  C   UNL A   1      39.372  25.426  28.279  1.00  0.00     0.009 A 
ATOM     75  C   UNL A   1      41.465  26.442  28.849  1.00  0.00     0.009 A 
ATOM     76  C   UNL A   1      40.053  24.325  27.748  1.00  0.00     0.001 A 
ATOM     77  C   UNL A   1      42.149  25.362  28.281  1.00  0.00     0.001 A 
ATOM     78  C   UNL A   1      41.442  24.289  27.759  1.00  0.00     0.000 A 
ENDBRANCH  59  73
BRANCH  60  79
ATOM     79  C   UNL A   1      43.824  34.207  29.300  1.00  0.00    -0.014 A 
ATOM     80  C   UNL A   1      43.731  34.483  27.929  1.00  0.00     0.009 A 
ATOM     81  C   UNL A   1      44.712  34.985  30.068  1.00  0.00     0.009 A 
ATOM     82  C   UNL A   1      44.463  35.531  27.356  1.00  0.00     0.001 A 
ATOM     83  C   UNL A   1      45.447  36.027  29.495  1.00  0.00     0.001 A 
ATOM     84  C   UNL A   1      45.309  36.312  28.141  1.00  0.00     0.000 A 
ENDBRANCH  60  79
BRANCH  72  85
ATOM     85  C   UNL A   1      41.363  30.848  33.898  1.00  0.00    -0.014 A 
ATOM     86  C   UNL A   1      40.391  31.866  33.923  1.00  0.00     0.009 A 
ATOM     87  C   UNL A   1      42.015  30.533  35.099  1.00  0.00     0.009 A 
ATOM     88  C   UNL A   1      40.104  32.563  35.101  1.00  0.00     0.001 A 
ATOM     89  C   UNL A   1      41.713  31.214  36.282  1.00  0.00     0.001 A 
ATOM     90  C   UNL A   1      40.762  32.232  36.282  1.00  0.00     0.000 A 
ENDBRANCH  72  85
ENDBRANCH  46  47
ENDBRANCH  38  41
ENDBRANCH  36  37
ENDBRANCH   1  36
TORSDOF 16
ENDMDL
