MODEL 1
REMARK VINA RESULT:     -12.2      0.000      0.000
REMARK SMILES COc1cccc(C(=O)/C=C(/Nc2cc(C)c(C)cc2[N+](=O)[O-])C(=O)NCCCNC(=O)c2ccc(-c3c4nc(c(-c5ccccc5)c5ccc([nH]5)c(-c5ccccc5)c5nc(c(-c6ccccc6)c6ccc3[nH]6)C=C5)C=C4)cc2)c1
REMARK SMILES IDX 27 1 26 2 24 3 25 4 11 6 10 7 8 8 9 9 7 10 3 11 4 12 81 13
REMARK SMILES IDX 5 14 6 15 2 16 1 17 12 18 13 20 14 21 20 22 15 23 19 24
REMARK SMILES IDX 16 25 17 26 18 27 21 28 22 29 23 30 28 31 29 32 30 33 31 34
REMARK SMILES IDX 32 36 33 37 34 38 80 39 35 40 79 41 36 42 37 43 38 44 73 45
REMARK SMILES IDX 39 46 78 47 72 48 74 49 40 50 77 51 71 52 70 53 41 55 63 56
REMARK SMILES IDX 48 57 62 58 49 59 52 60 61 61 75 62 50 63 51 64 60 66 76 67
REMARK SMILES IDX 53 68 42 69 43 70 47 71 44 72 46 73 45 74 64 75 65 76 69 77
REMARK SMILES IDX 66 78 68 79 67 80 54 81 55 82 59 83 56 84 58 85 57 86
REMARK H PARENT 26 5 12 19 30 35 74 54 52 65
REMARK Flexibility Score: inf
ROOT
ATOM      1  C   UNL A   1      36.380  20.942  24.840  1.00  0.00     0.118 C 
ENDROOT
BRANCH   1   2
ATOM      2  N   UNL A   1      35.900  21.484  26.088  1.00  0.00    -0.351 N 
ATOM      3  C   UNL A   1      34.766  22.241  26.266  1.00  0.00     0.267 C 
ATOM      4  O   UNL A   1      34.351  22.477  27.395  1.00  0.00    -0.268 OA
ATOM      5  H   UNL A   1      36.436  21.292  26.892  1.00  0.00     0.163 HD
BRANCH   3   6
ATOM      6  C   UNL A   1      34.076  22.799  25.058  1.00  0.00     0.108 C 
ATOM      7  C   UNL A   1      33.021  22.107  24.583  1.00  0.00     0.084 C 
BRANCH   7   8
ATOM      8  C   UNL A   1      32.300  20.832  24.909  1.00  0.00     0.188 C 
ATOM      9  O   UNL A   1      31.247  20.931  25.545  1.00  0.00    -0.289 OA
BRANCH   8  10
ATOM     10  C   UNL A   1      32.713  19.474  24.499  1.00  0.00     0.026 A 
ATOM     11  C   UNL A   1      33.623  17.270  24.942  1.00  0.00     0.119 A 
ATOM     12  C   UNL A   1      33.410  16.932  23.602  1.00  0.00     0.046 A 
ATOM     13  C   UNL A   1      33.226  18.530  25.400  1.00  0.00     0.058 A 
ATOM     14  C   UNL A   1      32.800  17.826  22.727  1.00  0.00     0.005 A 
ATOM     15  C   UNL A   1      32.453  19.098  23.175  1.00  0.00     0.012 A 
BRANCH  11  16
ATOM     16  O   UNL A   1      34.197  16.260  25.656  1.00  0.00    -0.497 OA
ATOM     17  C   UNL A   1      35.436  15.709  25.259  1.00  0.00     0.278 C 
ENDBRANCH  11  16
ENDBRANCH   8  10
ENDBRANCH   7   8
BRANCH   6  18
ATOM     18  N   UNL A   1      34.491  24.020  24.487  1.00  0.00    -0.345 N 
ATOM     19  H   UNL A   1      35.383  24.020  24.070  1.00  0.00     0.167 HD
BRANCH  18  20
ATOM     20  C   UNL A   1      33.785  25.250  24.436  1.00  0.00     0.118 A 
ATOM     21  C   UNL A   1      33.627  25.935  25.663  1.00  0.00     0.037 A 
ATOM     22  C   UNL A   1      33.490  25.969  23.269  1.00  0.00     0.292 A 
ATOM     23  C   UNL A   1      33.394  27.329  25.721  1.00  0.00    -0.046 A 
ATOM     24  C   UNL A   1      33.235  27.353  23.305  1.00  0.00     0.091 A 
ATOM     25  C   UNL A   1      33.456  27.998  27.070  1.00  0.00     0.045 C 
ATOM     26  C   UNL A   1      33.264  28.053  24.522  1.00  0.00    -0.041 A 
ATOM     27  C   UNL A   1      33.229  29.559  24.493  1.00  0.00     0.045 C 
BRANCH  22  28
ATOM     28  N   UNL A   1      33.415  25.299  21.975  1.00  0.00     0.064 N 
ATOM     29  O   UNL A   1      33.272  24.067  21.984  1.00  0.00    -0.258 OA
ATOM     30  O   UNL A   1      33.570  25.995  20.961  1.00  0.00    -0.258 OA
ENDBRANCH  22  28
ENDBRANCH  18  20
ENDBRANCH   6  18
ENDBRANCH   3   6
ENDBRANCH   1   2
BRANCH   1  31
ATOM     31  C   UNL A   1      37.491  19.929  24.888  1.00  0.00     0.042 C 
BRANCH  31  32
ATOM     32  C   UNL A   1      38.716  20.274  25.716  1.00  0.00     0.118 C 
BRANCH  32  33
ATOM     33  N   UNL A   1      39.864  19.386  25.638  1.00  0.00    -0.352 N 
ATOM     34  C   UNL A   1      41.164  19.590  26.055  1.00  0.00     0.251 C 
ATOM     35  H   UNL A   1      39.688  18.509  25.228  1.00  0.00     0.163 HD
ATOM     36  O   UNL A   1      41.991  18.701  25.924  1.00  0.00    -0.269 OA
BRANCH  34  37
ATOM     37  C   UNL A   1      41.576  20.910  26.593  1.00  0.00     0.039 A 
ATOM     38  C   UNL A   1      41.996  21.900  25.700  1.00  0.00     0.014 A 
ATOM     39  C   UNL A   1      41.513  21.193  27.956  1.00  0.00     0.014 A 
ATOM     40  C   UNL A   1      42.270  23.189  26.169  1.00  0.00     0.010 A 
ATOM     41  C   UNL A   1      41.641  22.502  28.398  1.00  0.00     0.010 A 
ATOM     42  C   UNL A   1      42.057  23.509  27.518  1.00  0.00    -0.014 A 
BRANCH  42  43
ATOM     43  C   UNL A   1      42.348  24.856  28.068  1.00  0.00     0.031 A 
ATOM     44  C   UNL A   1      43.756  25.179  28.500  1.00  0.00     0.074 A 
ATOM     45  C   UNL A   1      41.360  25.750  28.256  1.00  0.00     0.049 A 
ATOM     46  N   UNL A   1      44.211  26.238  29.121  1.00  0.00    -0.248 NA
ATOM     47  C   UNL A   1      44.781  24.151  28.246  1.00  0.00     0.031 C 
ATOM     48  C   UNL A   1      39.946  25.545  27.931  1.00  0.00     0.029 A 
ATOM     49  N   UNL A   1      41.399  27.020  28.777  1.00  0.00    -0.354 N 
ATOM     50  C   UNL A   1      45.554  25.977  29.370  1.00  0.00     0.074 A 
ATOM     51  C   UNL A   1      45.824  24.638  28.898  1.00  0.00     0.031 C 
ATOM     52  C   UNL A   1      39.262  26.664  28.224  1.00  0.00     0.029 A 
ATOM     53  C   UNL A   1      40.178  27.649  28.789  1.00  0.00     0.049 A 
ATOM     54  H   UNL A   1      42.225  27.438  29.111  1.00  0.00     0.167 HD
ATOM     55  C   UNL A   1      46.493  26.788  29.909  1.00  0.00     0.031 A 
ATOM     56  C   UNL A   1      39.842  28.885  29.201  1.00  0.00     0.031 A 
ATOM     57  C   UNL A   1      46.241  28.140  30.319  1.00  0.00     0.049 A 
ATOM     58  C   UNL A   1      40.914  29.792  29.741  1.00  0.00     0.074 A 
ATOM     59  C   UNL A   1      47.133  29.073  30.817  1.00  0.00     0.029 A 
ATOM     60  N   UNL A   1      45.003  28.759  30.256  1.00  0.00    -0.354 N 
ATOM     61  N   UNL A   1      42.189  29.548  29.925  1.00  0.00    -0.248 NA
ATOM     62  C   UNL A   1      40.501  31.154  30.109  1.00  0.00     0.031 C 
ATOM     63  C   UNL A   1      46.426  30.252  31.078  1.00  0.00     0.029 A 
ATOM     64  C   UNL A   1      45.106  30.064  30.700  1.00  0.00     0.049 A 
ATOM     65  H   UNL A   1      44.173  28.332  29.940  1.00  0.00     0.167 HD
ATOM     66  C   UNL A   1      42.738  30.737  30.391  1.00  0.00     0.074 A 
ATOM     67  C   UNL A   1      41.659  31.702  30.452  1.00  0.00     0.031 C 
ATOM     68  C   UNL A   1      44.021  31.009  30.734  1.00  0.00     0.031 A 
BRANCH  55  69
ATOM     69  C   UNL A   1      47.880  26.226  30.062  1.00  0.00    -0.014 A 
ATOM     70  C   UNL A   1      48.754  26.132  28.966  1.00  0.00     0.009 A 
ATOM     71  C   UNL A   1      48.318  25.780  31.319  1.00  0.00     0.009 A 
ATOM     72  C   UNL A   1      50.017  25.557  29.114  1.00  0.00     0.001 A 
ATOM     73  C   UNL A   1      49.595  25.238  31.472  1.00  0.00     0.001 A 
ATOM     74  C   UNL A   1      50.438  25.114  30.367  1.00  0.00     0.000 A 
ENDBRANCH  55  69
BRANCH  56  75
ATOM     75  C   UNL A   1      38.441  29.364  29.069  1.00  0.00    -0.014 A 
ATOM     76  C   UNL A   1      37.974  29.850  27.838  1.00  0.00     0.009 A 
ATOM     77  C   UNL A   1      37.570  29.352  30.169  1.00  0.00     0.009 A 
ATOM     78  C   UNL A   1      36.673  30.345  27.718  1.00  0.00     0.001 A 
ATOM     79  C   UNL A   1      36.261  29.822  30.039  1.00  0.00     0.001 A 
ATOM     80  C   UNL A   1      35.817  30.328  28.817  1.00  0.00     0.000 A 
ENDBRANCH  56  75
BRANCH  68  81
ATOM     81  C   UNL A   1      44.336  32.417  31.144  1.00  0.00    -0.014 A 
ATOM     82  C   UNL A   1      44.260  32.826  32.484  1.00  0.00     0.009 A 
ATOM     83  C   UNL A   1      44.753  33.340  30.171  1.00  0.00     0.009 A 
ATOM     84  C   UNL A   1      44.557  34.143  32.836  1.00  0.00     0.001 A 
ATOM     85  C   UNL A   1      45.076  34.649  30.530  1.00  0.00     0.001 A 
ATOM     86  C   UNL A   1      44.968  35.052  31.860  1.00  0.00     0.000 A 
ENDBRANCH  68  81
ENDBRANCH  42  43
ENDBRANCH  34  37
ENDBRANCH  32  33
ENDBRANCH  31  32
ENDBRANCH   1  31
TORSDOF 16
ENDMDL
MODEL 2
REMARK VINA RESULT:     -12.1      0.491      5.682
REMARK SMILES COc1cccc(C(=O)/C=C(/Nc2cc(C)c(C)cc2[N+](=O)[O-])C(=O)NCCCNC(=O)c2ccc(-c3c4nc(c(-c5ccccc5)c5ccc([nH]5)c(-c5ccccc5)c5nc(c(-c6ccccc6)c6ccc3[nH]6)C=C5)C=C4)cc2)c1
REMARK SMILES IDX 27 1 26 2 24 3 25 4 11 6 10 7 8 8 9 9 7 10 3 11 4 12 81 13
REMARK SMILES IDX 5 14 6 15 2 16 1 17 12 18 13 20 14 21 20 22 15 23 19 24
REMARK SMILES IDX 16 25 17 26 18 27 21 28 22 29 23 30 28 31 29 32 30 33 31 34
REMARK SMILES IDX 32 36 33 37 34 38 80 39 35 40 79 41 36 42 37 43 38 44 73 45
REMARK SMILES IDX 39 46 78 47 72 48 74 49 40 50 77 51 71 52 70 53 41 55 63 56
REMARK SMILES IDX 48 57 62 58 49 59 52 60 61 61 75 62 50 63 51 64 60 66 76 67
REMARK SMILES IDX 53 68 42 69 43 70 47 71 44 72 46 73 45 74 64 75 65 76 69 77
REMARK SMILES IDX 66 78 68 79 67 80 54 81 55 82 59 83 56 84 58 85 57 86
REMARK H PARENT 26 5 12 19 30 35 74 54 52 65
REMARK Flexibility Score: inf
ROOT
ATOM      1  C   UNL A   1      36.297  20.745  25.014  1.00  0.00     0.118 C 
ENDROOT
BRANCH   1   2
ATOM      2  N   UNL A   1      35.858  21.421  26.211  1.00  0.00    -0.351 N 
ATOM      3  C   UNL A   1      34.773  22.257  26.325  1.00  0.00     0.267 C 
ATOM      4  O   UNL A   1      34.380  22.615  27.430  1.00  0.00    -0.268 OA
ATOM      5  H   UNL A   1      36.388  21.269  27.027  1.00  0.00     0.163 HD
BRANCH   3   6
ATOM      6  C   UNL A   1      34.109  22.748  25.074  1.00  0.00     0.108 C 
ATOM      7  C   UNL A   1      33.093  22.003  24.589  1.00  0.00     0.084 C 
BRANCH   7   8
ATOM      8  C   UNL A   1      32.402  20.718  24.938  1.00  0.00     0.188 C 
ATOM      9  O   UNL A   1      31.462  20.787  25.735  1.00  0.00    -0.289 OA
BRANCH   8  10
ATOM     10  C   UNL A   1      32.717  19.386  24.381  1.00  0.00     0.026 A 
ATOM     11  C   UNL A   1      33.521  17.106  24.565  1.00  0.00     0.119 A 
ATOM     12  C   UNL A   1      33.222  16.911  23.213  1.00  0.00     0.046 A 
ATOM     13  C   UNL A   1      33.219  18.334  25.159  1.00  0.00     0.058 A 
ATOM     14  C   UNL A   1      32.622  17.916  22.460  1.00  0.00     0.005 A 
ATOM     15  C   UNL A   1      32.370  19.154  23.044  1.00  0.00     0.012 A 
BRANCH  11  16
ATOM     16  O   UNL A   1      34.072  16.003  25.148  1.00  0.00    -0.497 OA
ATOM     17  C   UNL A   1      35.452  15.958  25.446  1.00  0.00     0.278 C 
ENDBRANCH  11  16
ENDBRANCH   8  10
ENDBRANCH   7   8
BRANCH   6  18
ATOM     18  N   UNL A   1      34.504  23.960  24.472  1.00  0.00    -0.345 N 
ATOM     19  H   UNL A   1      35.393  23.961  24.047  1.00  0.00     0.167 HD
BRANCH  18  20
ATOM     20  C   UNL A   1      33.783  25.180  24.398  1.00  0.00     0.118 A 
ATOM     21  C   UNL A   1      33.591  25.870  25.618  1.00  0.00     0.037 A 
ATOM     22  C   UNL A   1      33.502  25.888  23.222  1.00  0.00     0.292 A 
ATOM     23  C   UNL A   1      33.338  27.261  25.663  1.00  0.00    -0.046 A 
ATOM     24  C   UNL A   1      33.228  27.268  23.244  1.00  0.00     0.091 A 
ATOM     25  C   UNL A   1      33.364  27.939  27.009  1.00  0.00     0.045 C 
ATOM     26  C   UNL A   1      33.223  27.976  24.457  1.00  0.00    -0.041 A 
ATOM     27  C   UNL A   1      33.168  29.482  24.418  1.00  0.00     0.045 C 
BRANCH  22  28
ATOM     28  N   UNL A   1      33.461  25.210  21.931  1.00  0.00     0.064 N 
ATOM     29  O   UNL A   1      33.268  25.914  20.928  1.00  0.00    -0.258 OA
ATOM     30  O   UNL A   1      33.550  23.974  21.931  1.00  0.00    -0.258 OA
ENDBRANCH  22  28
ENDBRANCH  18  20
ENDBRANCH   6  18
ENDBRANCH   3   6
ENDBRANCH   1   2
BRANCH   1  31
ATOM     31  C   UNL A   1      37.773  20.705  24.724  1.00  0.00     0.042 C 
BRANCH  31  32
ATOM     32  C   UNL A   1      38.711  20.499  25.899  1.00  0.00     0.118 C 
BRANCH  32  33
ATOM     33  N   UNL A   1      39.786  19.532  25.752  1.00  0.00    -0.352 N 
ATOM     34  C   UNL A   1      41.115  19.633  26.109  1.00  0.00     0.251 C 
ATOM     35  H   UNL A   1      39.527  18.677  25.337  1.00  0.00     0.163 HD
ATOM     36  O   UNL A   1      41.868  18.688  25.926  1.00  0.00    -0.269 OA
BRANCH  34  37
ATOM     37  C   UNL A   1      41.648  20.909  26.648  1.00  0.00     0.039 A 
ATOM     38  C   UNL A   1      42.055  21.901  25.750  1.00  0.00     0.014 A 
ATOM     39  C   UNL A   1      41.710  21.153  28.018  1.00  0.00     0.014 A 
ATOM     40  C   UNL A   1      42.443  23.157  26.229  1.00  0.00     0.010 A 
ATOM     41  C   UNL A   1      41.952  22.437  28.483  1.00  0.00     0.010 A 
ATOM     42  C   UNL A   1      42.356  23.445  27.599  1.00  0.00    -0.014 A 
BRANCH  42  43
ATOM     43  C   UNL A   1      42.772  24.755  28.161  1.00  0.00     0.031 A 
ATOM     44  C   UNL A   1      41.724  25.813  28.398  1.00  0.00     0.074 A 
ATOM     45  C   UNL A   1      44.072  25.027  28.380  1.00  0.00     0.049 A 
ATOM     46  N   UNL A   1      41.873  27.063  28.757  1.00  0.00    -0.248 NA
ATOM     47  C   UNL A   1      40.324  25.429  28.146  1.00  0.00     0.031 C 
ATOM     48  C   UNL A   1      45.191  24.112  28.144  1.00  0.00     0.029 A 
ATOM     49  N   UNL A   1      44.671  26.168  28.852  1.00  0.00    -0.354 N 
ATOM     50  C   UNL A   1      40.598  27.616  28.726  1.00  0.00     0.074 A 
ATOM     51  C   UNL A   1      39.700  26.590  28.246  1.00  0.00     0.031 C 
ATOM     52  C   UNL A   1      46.335  24.714  28.508  1.00  0.00     0.029 A 
ATOM     53  C   UNL A   1      46.036  26.066  28.968  1.00  0.00     0.049 A 
ATOM     54  H   UNL A   1      44.170  26.983  29.084  1.00  0.00     0.167 HD
ATOM     55  C   UNL A   1      40.198  28.853  29.095  1.00  0.00     0.031 A 
ATOM     56  C   UNL A   1      46.940  26.962  29.407  1.00  0.00     0.031 A 
ATOM     57  C   UNL A   1      41.079  29.852  29.631  1.00  0.00     0.049 A 
ATOM     58  C   UNL A   1      46.465  28.312  29.871  1.00  0.00     0.074 A 
ATOM     59  C   UNL A   1      40.771  31.117  30.100  1.00  0.00     0.029 A 
ATOM     60  N   UNL A   1      42.446  29.685  29.791  1.00  0.00    -0.354 N 
ATOM     61  N   UNL A   1      45.250  28.804  29.881  1.00  0.00    -0.248 NA
ATOM     62  C   UNL A   1      47.488  29.222  30.406  1.00  0.00     0.031 C 
ATOM     63  C   UNL A   1      41.959  31.724  30.521  1.00  0.00     0.029 A 
ATOM     64  C   UNL A   1      42.995  30.820  30.356  1.00  0.00     0.049 A 
ATOM     65  H   UNL A   1      42.949  28.876  29.539  1.00  0.00     0.167 HD
ATOM     66  C   UNL A   1      45.356  30.063  30.459  1.00  0.00     0.074 A 
ATOM     67  C   UNL A   1      46.752  30.254  30.794  1.00  0.00     0.031 C 
ATOM     68  C   UNL A   1      44.385  30.978  30.696  1.00  0.00     0.031 A 
BRANCH  55  69
ATOM     69  C   UNL A   1      38.737  29.177  28.944  1.00  0.00    -0.014 A 
ATOM     70  C   UNL A   1      38.218  29.654  27.729  1.00  0.00     0.009 A 
ATOM     71  C   UNL A   1      37.867  29.007  30.033  1.00  0.00     0.009 A 
ATOM     72  C   UNL A   1      36.870  30.002  27.622  1.00  0.00     0.001 A 
ATOM     73  C   UNL A   1      36.512  29.322  29.912  1.00  0.00     0.001 A 
ATOM     74  C   UNL A   1      36.018  29.833  28.712  1.00  0.00     0.000 A 
ENDBRANCH  55  69
BRANCH  56  75
ATOM     75  C   UNL A   1      48.379  26.598  29.485  1.00  0.00    -0.014 A 
ATOM     76  C   UNL A   1      49.227  26.832  28.390  1.00  0.00     0.009 A 
ATOM     77  C   UNL A   1      48.911  26.006  30.640  1.00  0.00     0.009 A 
ATOM     78  C   UNL A   1      50.569  26.451  28.438  1.00  0.00     0.001 A 
ATOM     79  C   UNL A   1      50.261  25.651  30.695  1.00  0.00     0.001 A 
ATOM     80  C   UNL A   1      51.086  25.864  29.591  1.00  0.00     0.000 A 
ENDBRANCH  56  75
BRANCH  68  81
ATOM     81  C   UNL A   1      44.790  32.238  31.403  1.00  0.00    -0.014 A 
ATOM     82  C   UNL A   1      44.777  32.330  32.803  1.00  0.00     0.009 A 
ATOM     83  C   UNL A   1      45.227  33.340  30.650  1.00  0.00     0.009 A 
ATOM     84  C   UNL A   1      45.158  33.516  33.434  1.00  0.00     0.001 A 
ATOM     85  C   UNL A   1      45.633  34.514  31.284  1.00  0.00     0.001 A 
ATOM     86  C   UNL A   1      45.589  34.604  32.674  1.00  0.00     0.000 A 
ENDBRANCH  68  81
ENDBRANCH  42  43
ENDBRANCH  34  37
ENDBRANCH  32  33
ENDBRANCH  31  32
ENDBRANCH   1  31
TORSDOF 16
ENDMDL
MODEL 3
REMARK VINA RESULT:     -12.0      3.607      9.378
REMARK SMILES COc1cccc(C(=O)/C=C(/Nc2cc(C)c(C)cc2[N+](=O)[O-])C(=O)NCCCNC(=O)c2ccc(-c3c4nc(c(-c5ccccc5)c5ccc([nH]5)c(-c5ccccc5)c5nc(c(-c6ccccc6)c6ccc3[nH]6)C=C5)C=C4)cc2)c1
REMARK SMILES IDX 27 1 26 2 24 3 25 4 11 6 10 7 8 8 9 9 7 10 3 11 4 12 81 13
REMARK SMILES IDX 5 14 6 15 2 16 1 17 12 18 13 20 14 21 20 22 15 23 19 24
REMARK SMILES IDX 16 25 17 26 18 27 21 28 22 29 23 30 28 31 29 32 30 33 31 34
REMARK SMILES IDX 32 36 33 37 34 38 80 39 35 40 79 41 36 42 37 43 38 44 73 45
REMARK SMILES IDX 39 46 78 47 72 48 74 49 40 50 77 51 71 52 70 53 41 55 63 56
REMARK SMILES IDX 48 57 62 58 49 59 52 60 61 61 75 62 50 63 51 64 60 66 76 67
REMARK SMILES IDX 53 68 42 69 43 70 47 71 44 72 46 73 45 74 64 75 65 76 69 77
REMARK SMILES IDX 66 78 68 79 67 80 54 81 55 82 59 83 56 84 58 85 57 86
REMARK H PARENT 26 5 12 19 30 35 74 54 52 65
REMARK Flexibility Score: inf
ROOT
ATOM      1  C   UNL A   1      31.807  29.895  25.743  1.00  0.00     0.118 C 
ENDROOT
BRANCH   1   2
ATOM      2  N   UNL A   1      32.938  29.768  24.856  1.00  0.00    -0.351 N 
ATOM      3  C   UNL A   1      33.275  28.660  24.117  1.00  0.00     0.267 C 
ATOM      4  O   UNL A   1      34.139  28.732  23.250  1.00  0.00    -0.268 OA
ATOM      5  H   UNL A   1      33.528  30.553  24.773  1.00  0.00     0.163 HD
BRANCH   3   6
ATOM      6  C   UNL A   1      32.592  27.359  24.418  1.00  0.00     0.108 C 
ATOM      7  C   UNL A   1      31.549  27.020  23.631  1.00  0.00     0.084 C 
BRANCH   7   8
ATOM      8  C   UNL A   1      30.794  27.619  22.481  1.00  0.00     0.188 C 
ATOM      9  O   UNL A   1      31.067  27.199  21.354  1.00  0.00    -0.289 OA
BRANCH   8  10
ATOM     10  C   UNL A   1      29.723  28.632  22.582  1.00  0.00     0.026 A 
ATOM     11  C   UNL A   1      28.807  30.847  22.213  1.00  0.00     0.119 A 
ATOM     12  C   UNL A   1      27.607  30.428  22.798  1.00  0.00     0.046 A 
ATOM     13  C   UNL A   1      29.848  29.927  22.061  1.00  0.00     0.058 A 
ATOM     14  C   UNL A   1      27.437  29.112  23.218  1.00  0.00     0.005 A 
ATOM     15  C   UNL A   1      28.495  28.214  23.111  1.00  0.00     0.012 A 
BRANCH  11  16
ATOM     16  O   UNL A   1      28.780  32.156  21.832  1.00  0.00    -0.497 OA
ATOM     17  C   UNL A   1      28.010  32.568  20.721  1.00  0.00     0.278 C 
ENDBRANCH  11  16
ENDBRANCH   8  10
ENDBRANCH   7   8
BRANCH   6  18
ATOM     18  N   UNL A   1      33.061  26.515  25.445  1.00  0.00    -0.345 N 
ATOM     19  H   UNL A   1      33.150  26.928  26.335  1.00  0.00     0.167 HD
BRANCH  18  20
ATOM     20  C   UNL A   1      33.422  25.146  25.361  1.00  0.00     0.118 A 
ATOM     21  C   UNL A   1      34.571  24.845  24.592  1.00  0.00     0.037 A 
ATOM     22  C   UNL A   1      32.926  24.123  26.181  1.00  0.00     0.292 A 
ATOM     23  C   UNL A   1      35.317  23.659  24.789  1.00  0.00    -0.046 A 
ATOM     24  C   UNL A   1      33.642  22.927  26.376  1.00  0.00     0.091 A 
ATOM     25  C   UNL A   1      36.640  23.533  24.077  1.00  0.00     0.045 C 
ATOM     26  C   UNL A   1      34.879  22.723  25.743  1.00  0.00    -0.041 A 
ATOM     27  C   UNL A   1      35.724  21.548  26.163  1.00  0.00     0.045 C 
BRANCH  22  28
ATOM     28  N   UNL A   1      31.634  24.256  26.846  1.00  0.00     0.064 N 
ATOM     29  O   UNL A   1      31.306  23.352  27.629  1.00  0.00    -0.258 OA
ATOM     30  O   UNL A   1      30.926  25.223  26.532  1.00  0.00    -0.258 OA
ENDBRANCH  22  28
ENDBRANCH  18  20
ENDBRANCH   6  18
ENDBRANCH   3   6
ENDBRANCH   1   2
BRANCH   1  31
ATOM     31  C   UNL A   1      31.518  31.249  26.333  1.00  0.00     0.042 C 
BRANCH  31  32
ATOM     32  C   UNL A   1      32.698  32.053  26.847  1.00  0.00     0.118 C 
BRANCH  32  33
ATOM     33  N   UNL A   1      32.433  33.362  27.421  1.00  0.00    -0.352 N 
ATOM     34  C   UNL A   1      33.208  34.122  28.273  1.00  0.00     0.251 C 
ATOM     35  H   UNL A   1      31.573  33.766  27.162  1.00  0.00     0.163 HD
ATOM     36  O   UNL A   1      32.818  35.224  28.629  1.00  0.00    -0.269 OA
BRANCH  34  37
ATOM     37  C   UNL A   1      34.476  33.575  28.815  1.00  0.00     0.039 A 
ATOM     38  C   UNL A   1      34.428  32.767  29.955  1.00  0.00     0.014 A 
ATOM     39  C   UNL A   1      35.699  33.815  28.191  1.00  0.00     0.014 A 
ATOM     40  C   UNL A   1      35.592  32.139  30.412  1.00  0.00     0.010 A 
ATOM     41  C   UNL A   1      36.818  33.080  28.554  1.00  0.00     0.010 A 
ATOM     42  C   UNL A   1      36.789  32.261  29.690  1.00  0.00    -0.014 A 
BRANCH  42  43
ATOM     43  C   UNL A   1      38.054  31.630  30.141  1.00  0.00     0.031 A 
ATOM     44  C   UNL A   1      38.867  32.309  31.214  1.00  0.00     0.074 A 
ATOM     45  C   UNL A   1      38.513  30.511  29.549  1.00  0.00     0.049 A 
ATOM     46  N   UNL A   1      40.057  32.008  31.669  1.00  0.00    -0.248 NA
ATOM     47  C   UNL A   1      38.287  33.520  31.820  1.00  0.00     0.031 C 
ATOM     48  C   UNL A   1      37.851  29.783  28.464  1.00  0.00     0.029 A 
ATOM     49  N   UNL A   1      39.659  29.792  29.780  1.00  0.00    -0.354 N 
ATOM     50  C   UNL A   1      40.378  33.015  32.571  1.00  0.00     0.074 A 
ATOM     51  C   UNL A   1      39.294  33.971  32.548  1.00  0.00     0.031 C 
ATOM     52  C   UNL A   1      38.582  28.700  28.151  1.00  0.00     0.029 A 
ATOM     53  C   UNL A   1      39.779  28.677  28.986  1.00  0.00     0.049 A 
ATOM     54  H   UNL A   1      40.330  30.051  30.451  1.00  0.00     0.167 HD
ATOM     55  C   UNL A   1      41.460  33.124  33.376  1.00  0.00     0.031 A 
ATOM     56  C   UNL A   1      40.744  27.740  28.946  1.00  0.00     0.031 A 
ATOM     57  C   UNL A   1      42.506  32.144  33.445  1.00  0.00     0.049 A 
ATOM     58  C   UNL A   1      41.908  27.847  29.893  1.00  0.00     0.074 A 
ATOM     59  C   UNL A   1      43.615  32.119  34.272  1.00  0.00     0.029 A 
ATOM     60  N   UNL A   1      42.557  30.998  32.668  1.00  0.00    -0.354 N 
ATOM     61  N   UNL A   1      42.174  28.781  30.775  1.00  0.00    -0.248 NA
ATOM     62  C   UNL A   1      42.893  26.757  29.853  1.00  0.00     0.031 C 
ATOM     63  C   UNL A   1      44.351  30.967  33.976  1.00  0.00     0.029 A 
ATOM     64  C   UNL A   1      43.676  30.256  32.998  1.00  0.00     0.049 A 
ATOM     65  H   UNL A   1      41.895  30.750  31.983  1.00  0.00     0.167 HD
ATOM     66  C   UNL A   1      43.333  28.371  31.422  1.00  0.00     0.074 A 
ATOM     67  C   UNL A   1      43.713  27.101  30.836  1.00  0.00     0.031 C 
ATOM     68  C   UNL A   1      44.021  28.987  32.414  1.00  0.00     0.031 A 
BRANCH  55  69
ATOM     69  C   UNL A   1      41.543  34.342  34.254  1.00  0.00    -0.014 A 
ATOM     70  C   UNL A   1      41.045  34.329  35.568  1.00  0.00     0.009 A 
ATOM     71  C   UNL A   1      42.123  35.522  33.761  1.00  0.00     0.009 A 
ATOM     72  C   UNL A   1      41.080  35.484  36.351  1.00  0.00     0.001 A 
ATOM     73  C   UNL A   1      42.188  36.665  34.558  1.00  0.00     0.001 A 
ATOM     74  C   UNL A   1      41.654  36.650  35.847  1.00  0.00     0.000 A 
ENDBRANCH  55  69
BRANCH  56  75
ATOM     75  C   UNL A   1      40.629  26.585  28.017  1.00  0.00    -0.014 A 
ATOM     76  C   UNL A   1      39.967  25.415  28.424  1.00  0.00     0.009 A 
ATOM     77  C   UNL A   1      41.186  26.636  26.730  1.00  0.00     0.009 A 
ATOM     78  C   UNL A   1      39.895  24.309  27.574  1.00  0.00     0.001 A 
ATOM     79  C   UNL A   1      41.088  25.538  25.873  1.00  0.00     0.001 A 
ATOM     80  C   UNL A   1      40.452  24.372  26.299  1.00  0.00     0.000 A 
ENDBRANCH  56  75
BRANCH  68  81
ATOM     81  C   UNL A   1      45.215  28.265  32.969  1.00  0.00    -0.014 A 
ATOM     82  C   UNL A   1      45.093  27.351  34.026  1.00  0.00     0.009 A 
ATOM     83  C   UNL A   1      46.478  28.482  32.395  1.00  0.00     0.009 A 
ATOM     84  C   UNL A   1      46.221  26.696  34.523  1.00  0.00     0.001 A 
ATOM     85  C   UNL A   1      47.598  27.805  32.876  1.00  0.00     0.001 A 
ATOM     86  C   UNL A   1      47.471  26.921  33.946  1.00  0.00     0.000 A 
ENDBRANCH  68  81
ENDBRANCH  42  43
ENDBRANCH  34  37
ENDBRANCH  32  33
ENDBRANCH  31  32
ENDBRANCH   1  31
TORSDOF 16
ENDMDL
