MODEL 1
REMARK VINA RESULT:      -8.8      0.000      0.000
REMARK SMILES COc1ccc(/C=C/c2cc(OC)cc(OC)c2/C=C/C(=O)NCCCNC(=O)c2ccc(-c3c4nc(c(-c5ccccc5)c5ccc([nH]5)c(-c5ccccc5)c5nc(c(-c6ccccc6)c6ccc3[nH]6)C=C5)C=C4)cc2)cc1
REMARK SMILES IDX 24 1 23 2 21 3 22 4 20 6 19 7 18 8 9 9 10 10 11 11 15 12
REMARK SMILES IDX 14 13 8 14 7 15 6 16 3 17 4 18 79 19 5 20 78 21 2 22 1 23
REMARK SMILES IDX 12 24 13 25 16 26 17 27 25 28 26 29 27 30 28 31 29 33 30 34
REMARK SMILES IDX 31 35 77 36 32 37 76 38 33 39 34 40 35 41 70 42 36 43 75 44
REMARK SMILES IDX 69 45 71 46 37 47 74 48 68 49 67 50 38 52 60 53 45 54 59 55
REMARK SMILES IDX 46 56 49 57 58 58 72 59 47 60 48 61 57 63 73 64 50 65 39 66
REMARK SMILES IDX 40 67 44 68 41 69 43 70 42 71 61 72 62 73 66 74 63 75 65 76
REMARK SMILES IDX 64 77 51 78 52 79 56 80 53 81 55 82 54 83
REMARK H PARENT 23 5 27 32 71 51 49 62
REMARK Flexibility Score: inf
ROOT
ATOM      1  C   UNL A   1      43.656  22.323  25.730  1.00  0.00     0.118 C 
ENDROOT
BRANCH   1   2
ATOM      2  N   UNL A   1      43.178  23.635  25.355  1.00  0.00    -0.352 N 
ATOM      3  C   UNL A   1      43.925  24.753  25.159  1.00  0.00     0.244 C 
ATOM      4  O   UNL A   1      43.414  25.810  24.810  1.00  0.00    -0.270 OA
ATOM      5  H   UNL A   1      42.207  23.728  25.227  1.00  0.00     0.163 HD
BRANCH   3   6
ATOM      6  C   UNL A   1      45.385  24.642  25.326  1.00  0.00     0.072 C 
ATOM      7  C   UNL A   1      46.098  25.707  25.722  1.00  0.00     0.018 C 
BRANCH   7   8
ATOM      8  C   UNL A   1      47.567  25.701  25.755  1.00  0.00     0.024 A 
ATOM      9  C   UNL A   1      48.219  25.263  26.949  1.00  0.00    -0.011 A 
ATOM     10  C   UNL A   1      49.622  25.315  27.042  1.00  0.00     0.055 A 
ATOM     11  C   UNL A   1      50.391  25.810  25.994  1.00  0.00     0.123 A 
ATOM     12  C   UNL A   1      48.359  26.177  24.687  1.00  0.00     0.130 A 
ATOM     13  C   UNL A   1      49.758  26.207  24.824  1.00  0.00     0.093 A 
BRANCH   9  14
ATOM     14  C   UNL A   1      47.522  24.824  28.182  1.00  0.00     0.009 C 
ATOM     15  C   UNL A   1      46.661  25.583  28.882  1.00  0.00     0.009 C 
BRANCH  15  16
ATOM     16  C   UNL A   1      45.968  25.166  30.123  1.00  0.00    -0.025 A 
ATOM     17  C   UNL A   1      44.522  24.363  32.425  1.00  0.00     0.118 A 
ATOM     18  C   UNL A   1      45.591  25.250  32.532  1.00  0.00     0.047 A 
ATOM     19  C   UNL A   1      44.160  23.883  31.169  1.00  0.00     0.047 A 
ATOM     20  C   UNL A   1      46.316  25.640  31.396  1.00  0.00     0.012 A 
ATOM     21  C   UNL A   1      44.892  24.266  30.034  1.00  0.00     0.012 A 
BRANCH  17  22
ATOM     22  O   UNL A   1      43.873  24.066  33.591  1.00  0.00    -0.497 OA
ATOM     23  C   UNL A   1      44.039  22.723  34.039  1.00  0.00     0.278 C 
ENDBRANCH  17  22
ENDBRANCH  15  16
ENDBRANCH   9  14
BRANCH  11  24
ATOM     24  O   UNL A   1      51.739  25.874  26.221  1.00  0.00    -0.497 OA
ATOM     25  C   UNL A   1      52.232  27.130  26.680  1.00  0.00     0.278 C 
ENDBRANCH  11  24
BRANCH  12  26
ATOM     26  O   UNL A   1      48.022  26.699  23.466  1.00  0.00    -0.496 OA
ATOM     27  C   UNL A   1      48.929  26.846  22.393  1.00  0.00     0.278 C 
ENDBRANCH  12  26
ENDBRANCH   7   8
ENDBRANCH   3   6
ENDBRANCH   1   2
BRANCH   1  28
ATOM     28  C   UNL A   1      42.505  21.350  25.913  1.00  0.00     0.042 C 
BRANCH  28  29
ATOM     29  C   UNL A   1      41.472  21.865  26.898  1.00  0.00     0.118 C 
BRANCH  29  30
ATOM     30  N   UNL A   1      40.133  21.896  26.318  1.00  0.00    -0.352 N 
ATOM     31  C   UNL A   1      39.164  22.859  26.414  1.00  0.00     0.251 C 
ATOM     32  H   UNL A   1      39.891  21.109  25.779  1.00  0.00     0.163 HD
ATOM     33  O   UNL A   1      38.010  22.605  26.085  1.00  0.00    -0.269 OA
BRANCH  31  34
ATOM     34  C   UNL A   1      39.530  24.206  26.886  1.00  0.00     0.039 A 
ATOM     35  C   UNL A   1      40.070  25.125  25.985  1.00  0.00     0.014 A 
ATOM     36  C   UNL A   1      39.372  24.545  28.234  1.00  0.00     0.014 A 
ATOM     37  C   UNL A   1      40.440  26.389  26.440  1.00  0.00     0.010 A 
ATOM     38  C   UNL A   1      39.627  25.838  28.657  1.00  0.00     0.010 A 
ATOM     39  C   UNL A   1      40.211  26.757  27.778  1.00  0.00    -0.014 A 
BRANCH  39  40
ATOM     40  C   UNL A   1      40.647  28.070  28.304  1.00  0.00     0.031 A 
ATOM     41  C   UNL A   1      42.117  28.359  28.452  1.00  0.00     0.074 A 
ATOM     42  C   UNL A   1      39.728  28.975  28.688  1.00  0.00     0.049 A 
ATOM     43  N   UNL A   1      42.706  29.428  28.924  1.00  0.00    -0.248 NA
ATOM     44  C   UNL A   1      43.051  27.291  28.051  1.00  0.00     0.031 C 
ATOM     45  C   UNL A   1      38.276  28.787  28.635  1.00  0.00     0.029 A 
ATOM     46  N   UNL A   1      39.884  30.237  29.197  1.00  0.00    -0.354 N 
ATOM     47  C   UNL A   1      44.069  29.149  28.896  1.00  0.00     0.074 A 
ATOM     48  C   UNL A   1      44.216  27.789  28.432  1.00  0.00     0.031 C 
ATOM     49  C   UNL A   1      37.674  29.913  29.053  1.00  0.00     0.029 A 
ATOM     50  C   UNL A   1      38.696  30.881  29.438  1.00  0.00     0.049 A 
ATOM     51  H   UNL A   1      40.763  30.643  29.372  1.00  0.00     0.167 HD
ATOM     52  C   UNL A   1      45.108  29.961  29.199  1.00  0.00     0.031 A 
ATOM     53  C   UNL A   1      38.461  32.118  29.912  1.00  0.00     0.031 A 
ATOM     54  C   UNL A   1      44.954  31.320  29.643  1.00  0.00     0.049 A 
ATOM     55  C   UNL A   1      39.630  33.006  30.233  1.00  0.00     0.074 A 
ATOM     56  C   UNL A   1      45.936  32.251  29.929  1.00  0.00     0.029 A 
ATOM     57  N   UNL A   1      43.734  31.941  29.858  1.00  0.00    -0.354 N 
ATOM     58  N   UNL A   1      40.914  32.752  30.141  1.00  0.00    -0.248 NA
ATOM     59  C   UNL A   1      39.315  34.361  30.703  1.00  0.00     0.031 C 
ATOM     60  C   UNL A   1      45.308  33.422  30.368  1.00  0.00     0.029 A 
ATOM     61  C   UNL A   1      43.936  33.242  30.288  1.00  0.00     0.049 A 
ATOM     62  H   UNL A   1      42.853  31.521  29.725  1.00  0.00     0.167 HD
ATOM     63  C   UNL A   1      41.560  33.928  30.501  1.00  0.00     0.074 A 
ATOM     64  C   UNL A   1      40.524  34.898  30.798  1.00  0.00     0.031 C 
ATOM     65  C   UNL A   1      42.889  34.188  30.574  1.00  0.00     0.031 A 
BRANCH  52  66
ATOM     66  C   UNL A   1      46.494  29.392  29.059  1.00  0.00    -0.014 A 
ATOM     67  C   UNL A   1      47.197  28.896  30.169  1.00  0.00     0.009 A 
ATOM     68  C   UNL A   1      47.105  29.343  27.796  1.00  0.00     0.009 A 
ATOM     69  C   UNL A   1      48.498  28.406  30.026  1.00  0.00     0.001 A 
ATOM     70  C   UNL A   1      48.391  28.821  27.650  1.00  0.00     0.001 A 
ATOM     71  C   UNL A   1      49.091  28.364  28.766  1.00  0.00     0.000 A 
ENDBRANCH  52  66
BRANCH  53  72
ATOM     72  C   UNL A   1      37.065  32.605  30.069  1.00  0.00    -0.014 A 
ATOM     73  C   UNL A   1      36.337  32.315  31.233  1.00  0.00     0.009 A 
ATOM     74  C   UNL A   1      36.450  33.355  29.054  1.00  0.00     0.009 A 
ATOM     75  C   UNL A   1      35.012  32.736  31.364  1.00  0.00     0.001 A 
ATOM     76  C   UNL A   1      35.135  33.802  29.201  1.00  0.00     0.001 A 
ATOM     77  C   UNL A   1      34.414  33.482  30.350  1.00  0.00     0.000 A 
ENDBRANCH  53  72
BRANCH  65  78
ATOM     78  C   UNL A   1      43.291  35.591  30.932  1.00  0.00    -0.014 A 
ATOM     79  C   UNL A   1      43.510  36.570  29.950  1.00  0.00     0.009 A 
ATOM     80  C   UNL A   1      43.430  35.942  32.285  1.00  0.00     0.009 A 
ATOM     81  C   UNL A   1      43.914  37.856  30.315  1.00  0.00     0.001 A 
ATOM     82  C   UNL A   1      43.797  37.237  32.649  1.00  0.00     0.001 A 
ATOM     83  C   UNL A   1      44.054  38.189  31.663  1.00  0.00     0.000 A 
ENDBRANCH  65  78
ENDBRANCH  39  40
ENDBRANCH  31  34
ENDBRANCH  29  30
ENDBRANCH  28  29
ENDBRANCH   1  28
TORSDOF 16
ENDMDL
MODEL 2
REMARK VINA RESULT:      -8.7      5.299     10.572
REMARK SMILES COc1ccc(/C=C/c2cc(OC)cc(OC)c2/C=C/C(=O)NCCCNC(=O)c2ccc(-c3c4nc(c(-c5ccccc5)c5ccc([nH]5)c(-c5ccccc5)c5nc(c(-c6ccccc6)c6ccc3[nH]6)C=C5)C=C4)cc2)cc1
REMARK SMILES IDX 24 1 23 2 21 3 22 4 20 6 19 7 18 8 9 9 10 10 11 11 15 12
REMARK SMILES IDX 14 13 8 14 7 15 6 16 3 17 4 18 79 19 5 20 78 21 2 22 1 23
REMARK SMILES IDX 12 24 13 25 16 26 17 27 25 28 26 29 27 30 28 31 29 33 30 34
REMARK SMILES IDX 31 35 77 36 32 37 76 38 33 39 34 40 35 41 70 42 36 43 75 44
REMARK SMILES IDX 69 45 71 46 37 47 74 48 68 49 67 50 38 52 60 53 45 54 59 55
REMARK SMILES IDX 46 56 49 57 58 58 72 59 47 60 48 61 57 63 73 64 50 65 39 66
REMARK SMILES IDX 40 67 44 68 41 69 43 70 42 71 61 72 62 73 66 74 63 75 65 76
REMARK SMILES IDX 64 77 51 78 52 79 56 80 53 81 55 82 54 83
REMARK H PARENT 23 5 27 32 71 51 49 62
REMARK Flexibility Score: inf
ROOT
ATOM      1  C   UNL A   1      38.734  23.965  27.036  1.00  0.00     0.118 C 
ENDROOT
BRANCH   1   2
ATOM      2  N   UNL A   1      38.675  23.119  25.865  1.00  0.00    -0.352 N 
ATOM      3  C   UNL A   1      37.559  22.625  25.269  1.00  0.00     0.244 C 
ATOM      4  O   UNL A   1      37.625  21.939  24.256  1.00  0.00    -0.270 OA
ATOM      5  H   UNL A   1      39.536  22.875  25.456  1.00  0.00     0.163 HD
BRANCH   3   6
ATOM      6  C   UNL A   1      36.252  22.986  25.848  1.00  0.00     0.072 C 
ATOM      7  C   UNL A   1      35.182  23.130  25.053  1.00  0.00     0.018 C 
BRANCH   7   8
ATOM      8  C   UNL A   1      33.896  23.639  25.550  1.00  0.00     0.024 A 
ATOM      9  C   UNL A   1      32.956  22.705  26.083  1.00  0.00    -0.011 A 
ATOM     10  C   UNL A   1      31.686  23.147  26.499  1.00  0.00     0.055 A 
ATOM     11  C   UNL A   1      31.318  24.483  26.378  1.00  0.00     0.123 A 
ATOM     12  C   UNL A   1      33.522  24.998  25.455  1.00  0.00     0.130 A 
ATOM     13  C   UNL A   1      32.243  25.393  25.886  1.00  0.00     0.093 A 
BRANCH   9  14
ATOM     14  C   UNL A   1      33.168  21.240  26.162  1.00  0.00     0.009 C 
ATOM     15  C   UNL A   1      33.211  20.418  25.099  1.00  0.00     0.009 C 
BRANCH  15  16
ATOM     16  C   UNL A   1      33.408  18.950  25.160  1.00  0.00    -0.025 A 
ATOM     17  C   UNL A   1      33.825  16.147  25.143  1.00  0.00     0.118 A 
ATOM     18  C   UNL A   1      32.789  16.707  25.889  1.00  0.00     0.047 A 
ATOM     19  C   UNL A   1      34.648  16.981  24.391  1.00  0.00     0.047 A 
ATOM     20  C   UNL A   1      32.588  18.094  25.909  1.00  0.00     0.012 A 
ATOM     21  C   UNL A   1      34.452  18.371  24.419  1.00  0.00     0.012 A 
BRANCH  17  22
ATOM     22  O   UNL A   1      33.918  14.784  25.179  1.00  0.00    -0.497 OA
ATOM     23  C   UNL A   1      32.710  14.113  25.528  1.00  0.00     0.278 C 
ENDBRANCH  17  22
ENDBRANCH  15  16
ENDBRANCH   9  14
BRANCH  11  24
ATOM     24  O   UNL A   1      30.037  24.785  26.753  1.00  0.00    -0.497 OA
ATOM     25  C   UNL A   1      29.384  25.789  25.979  1.00  0.00     0.278 C 
ENDBRANCH  11  24
BRANCH  12  26
ATOM     26  O   UNL A   1      34.177  26.089  24.951  1.00  0.00    -0.496 OA
ATOM     27  C   UNL A   1      33.893  26.670  23.695  1.00  0.00     0.278 C 
ENDBRANCH  12  26
ENDBRANCH   7   8
ENDBRANCH   3   6
ENDBRANCH   1   2
BRANCH   1  28
ATOM     28  C   UNL A   1      39.597  25.190  26.786  1.00  0.00     0.042 C 
BRANCH  28  29
ATOM     29  C   UNL A   1      40.908  25.130  27.549  1.00  0.00     0.118 C 
BRANCH  29  30
ATOM     30  N   UNL A   1      41.644  23.900  27.275  1.00  0.00    -0.352 N 
ATOM     31  C   UNL A   1      42.891  23.732  26.736  1.00  0.00     0.251 C 
ATOM     32  H   UNL A   1      41.173  23.069  27.512  1.00  0.00     0.163 HD
ATOM     33  O   UNL A   1      43.244  22.629  26.335  1.00  0.00    -0.269 OA
BRANCH  31  34
ATOM     34  C   UNL A   1      43.810  24.884  26.673  1.00  0.00     0.039 A 
ATOM     35  C   UNL A   1      44.460  25.306  27.833  1.00  0.00     0.014 A 
ATOM     36  C   UNL A   1      43.996  25.567  25.467  1.00  0.00     0.014 A 
ATOM     37  C   UNL A   1      45.308  26.411  27.776  1.00  0.00     0.010 A 
ATOM     38  C   UNL A   1      44.929  26.588  25.387  1.00  0.00     0.010 A 
ATOM     39  C   UNL A   1      45.555  27.052  26.549  1.00  0.00    -0.014 A 
BRANCH  39  40
ATOM     40  C   UNL A   1      46.403  28.263  26.467  1.00  0.00     0.031 A 
ATOM     41  C   UNL A   1      47.892  28.116  26.301  1.00  0.00     0.074 A 
ATOM     42  C   UNL A   1      45.843  29.481  26.589  1.00  0.00     0.049 A 
ATOM     43  N   UNL A   1      48.813  29.044  26.244  1.00  0.00    -0.248 NA
ATOM     44  C   UNL A   1      48.423  26.743  26.224  1.00  0.00     0.031 C 
ATOM     45  C   UNL A   1      44.418  29.744  26.801  1.00  0.00     0.029 A 
ATOM     46  N   UNL A   1      46.410  30.727  26.547  1.00  0.00    -0.354 N 
ATOM     47  C   UNL A   1      50.024  28.366  26.150  1.00  0.00     0.074 A 
ATOM     48  C   UNL A   1      49.729  26.954  26.230  1.00  0.00     0.031 C 
ATOM     49  C   UNL A   1      44.217  31.071  26.826  1.00  0.00     0.029 A 
ATOM     50  C   UNL A   1      45.501  31.747  26.673  1.00  0.00     0.049 A 
ATOM     51  H   UNL A   1      47.377  30.876  26.437  1.00  0.00     0.167 HD
ATOM     52  C   UNL A   1      51.268  28.870  25.978  1.00  0.00     0.031 A 
ATOM     53  C   UNL A   1      45.686  33.080  26.660  1.00  0.00     0.031 A 
ATOM     54  C   UNL A   1      51.552  30.276  25.880  1.00  0.00     0.049 A 
ATOM     55  C   UNL A   1      47.076  33.617  26.460  1.00  0.00     0.074 A 
ATOM     56  C   UNL A   1      52.767  30.899  25.657  1.00  0.00     0.029 A 
ATOM     57  N   UNL A   1      50.600  31.278  25.996  1.00  0.00    -0.354 N 
ATOM     58  N   UNL A   1      48.203  32.964  26.307  1.00  0.00    -0.248 NA
ATOM     59  C   UNL A   1      47.212  35.078  26.408  1.00  0.00     0.031 C 
ATOM     60  C   UNL A   1      52.558  32.282  25.688  1.00  0.00     0.029 A 
ATOM     61  C   UNL A   1      51.202  32.517  25.861  1.00  0.00     0.049 A 
ATOM     62  H   UNL A   1      49.639  31.130  26.150  1.00  0.00     0.167 HD
ATOM     63  C   UNL A   1      49.177  33.933  26.100  1.00  0.00     0.074 A 
ATOM     64  C   UNL A   1      48.502  35.215  26.132  1.00  0.00     0.031 C 
ATOM     65  C   UNL A   1      50.509  33.779  25.895  1.00  0.00     0.031 A 
BRANCH  52  66
ATOM     66  C   UNL A   1      52.406  27.889  25.890  1.00  0.00    -0.014 A 
ATOM     67  C   UNL A   1      52.859  27.403  24.653  1.00  0.00     0.009 A 
ATOM     68  C   UNL A   1      53.042  27.449  27.062  1.00  0.00     0.009 A 
ATOM     69  C   UNL A   1      53.892  26.464  24.593  1.00  0.00     0.001 A 
ATOM     70  C   UNL A   1      54.097  26.537  26.998  1.00  0.00     0.001 A 
ATOM     71  C   UNL A   1      54.513  26.036  25.765  1.00  0.00     0.000 A 
ENDBRANCH  52  66
BRANCH  53  72
ATOM     72  C   UNL A   1      44.524  33.996  26.796  1.00  0.00    -0.014 A 
ATOM     73  C   UNL A   1      43.833  34.445  25.660  1.00  0.00     0.009 A 
ATOM     74  C   UNL A   1      44.102  34.432  28.062  1.00  0.00     0.009 A 
ATOM     75  C   UNL A   1      42.768  35.339  25.785  1.00  0.00     0.001 A 
ATOM     76  C   UNL A   1      43.015  35.301  28.186  1.00  0.00     0.001 A 
ATOM     77  C   UNL A   1      42.357  35.762  27.047  1.00  0.00     0.000 A 
ENDBRANCH  53  72
BRANCH  65  78
ATOM     78  C   UNL A   1      51.306  35.025  25.629  1.00  0.00    -0.014 A 
ATOM     79  C   UNL A   1      51.929  35.739  26.665  1.00  0.00     0.009 A 
ATOM     80  C   UNL A   1      51.452  35.479  24.308  1.00  0.00     0.009 A 
ATOM     81  C   UNL A   1      52.635  36.911  26.388  1.00  0.00     0.001 A 
ATOM     82  C   UNL A   1      52.189  36.629  24.029  1.00  0.00     0.001 A 
ATOM     83  C   UNL A   1      52.767  37.353  25.071  1.00  0.00     0.000 A 
ENDBRANCH  65  78
ENDBRANCH  39  40
ENDBRANCH  31  34
ENDBRANCH  29  30
ENDBRANCH  28  29
ENDBRANCH   1  28
TORSDOF 16
ENDMDL
MODEL 3
REMARK VINA RESULT:      -8.6      3.272      7.843
REMARK SMILES COc1ccc(/C=C/c2cc(OC)cc(OC)c2/C=C/C(=O)NCCCNC(=O)c2ccc(-c3c4nc(c(-c5ccccc5)c5ccc([nH]5)c(-c5ccccc5)c5nc(c(-c6ccccc6)c6ccc3[nH]6)C=C5)C=C4)cc2)cc1
REMARK SMILES IDX 24 1 23 2 21 3 22 4 20 6 19 7 18 8 9 9 10 10 11 11 15 12
REMARK SMILES IDX 14 13 8 14 7 15 6 16 3 17 4 18 79 19 5 20 78 21 2 22 1 23
REMARK SMILES IDX 12 24 13 25 16 26 17 27 25 28 26 29 27 30 28 31 29 33 30 34
REMARK SMILES IDX 31 35 77 36 32 37 76 38 33 39 34 40 35 41 70 42 36 43 75 44
REMARK SMILES IDX 69 45 71 46 37 47 74 48 68 49 67 50 38 52 60 53 45 54 59 55
REMARK SMILES IDX 46 56 49 57 58 58 72 59 47 60 48 61 57 63 73 64 50 65 39 66
REMARK SMILES IDX 40 67 44 68 41 69 43 70 42 71 61 72 62 73 66 74 63 75 65 76
REMARK SMILES IDX 64 77 51 78 52 79 56 80 53 81 55 82 54 83
REMARK H PARENT 23 5 27 32 71 51 49 62
REMARK Flexibility Score: inf
ROOT
ATOM      1  C   UNL A   1      45.601  25.023  27.948  1.00  0.00     0.118 C 
ENDROOT
BRANCH   1   2
ATOM      2  N   UNL A   1      45.394  24.095  29.038  1.00  0.00    -0.352 N 
ATOM      3  C   UNL A   1      44.279  23.360  29.286  1.00  0.00     0.244 C 
ATOM      4  O   UNL A   1      44.225  22.576  30.226  1.00  0.00    -0.270 OA
ATOM      5  H   UNL A   1      46.142  23.983  29.668  1.00  0.00     0.163 HD
BRANCH   3   6
ATOM      6  C   UNL A   1      43.147  23.491  28.352  1.00  0.00     0.072 C 
ATOM      7  C   UNL A   1      41.948  22.985  28.675  1.00  0.00     0.018 C 
BRANCH   7   8
ATOM      8  C   UNL A   1      40.828  22.948  27.723  1.00  0.00     0.024 A 
ATOM      9  C   UNL A   1      39.981  24.094  27.625  1.00  0.00    -0.011 A 
ATOM     10  C   UNL A   1      38.857  24.064  26.780  1.00  0.00     0.055 A 
ATOM     11  C   UNL A   1      38.538  22.924  26.050  1.00  0.00     0.123 A 
ATOM     12  C   UNL A   1      40.511  21.803  26.958  1.00  0.00     0.130 A 
ATOM     13  C   UNL A   1      39.379  21.822  26.125  1.00  0.00     0.093 A 
BRANCH   9  14
ATOM     14  C   UNL A   1      40.132  25.330  28.429  1.00  0.00     0.009 C 
ATOM     15  C   UNL A   1      39.441  26.465  28.219  1.00  0.00     0.009 C 
BRANCH  15  16
ATOM     16  C   UNL A   1      39.589  27.714  29.003  1.00  0.00    -0.025 A 
ATOM     17  C   UNL A   1      39.777  30.053  30.591  1.00  0.00     0.118 A 
ATOM     18  C   UNL A   1      39.904  30.124  29.205  1.00  0.00     0.047 A 
ATOM     19  C   UNL A   1      39.542  28.818  31.190  1.00  0.00     0.047 A 
ATOM     20  C   UNL A   1      39.823  28.966  28.418  1.00  0.00     0.012 A 
ATOM     21  C   UNL A   1      39.471  27.658  30.402  1.00  0.00     0.012 A 
BRANCH  17  22
ATOM     22  O   UNL A   1      39.851  31.243  31.260  1.00  0.00    -0.497 OA
ATOM     23  C   UNL A   1      38.667  31.604  31.967  1.00  0.00     0.278 C 
ENDBRANCH  17  22
ENDBRANCH  15  16
ENDBRANCH   9  14
BRANCH  11  24
ATOM     24  O   UNL A   1      37.387  22.988  25.313  1.00  0.00    -0.497 OA
ATOM     25  C   UNL A   1      36.317  23.728  25.896  1.00  0.00     0.278 C 
ENDBRANCH  11  24
BRANCH  12  26
ATOM     26  O   UNL A   1      41.095  20.567  26.885  1.00  0.00    -0.496 OA
ATOM     27  C   UNL A   1      42.271  20.291  26.152  1.00  0.00     0.278 C 
ENDBRANCH  12  26
ENDBRANCH   7   8
ENDBRANCH   3   6
ENDBRANCH   1   2
BRANCH   1  28
ATOM     28  C   UNL A   1      46.276  24.344  26.769  1.00  0.00     0.042 C 
BRANCH  28  29
ATOM     29  C   UNL A   1      45.544  24.603  25.465  1.00  0.00     0.118 C 
BRANCH  29  30
ATOM     30  N   UNL A   1      46.191  25.645  24.674  1.00  0.00    -0.352 N 
ATOM     31  C   UNL A   1      46.073  27.006  24.762  1.00  0.00     0.251 C 
ATOM     32  H   UNL A   1      46.801  25.321  23.973  1.00  0.00     0.163 HD
ATOM     33  O   UNL A   1      46.482  27.719  23.853  1.00  0.00    -0.269 OA
BRANCH  31  34
ATOM     34  C   UNL A   1      45.478  27.602  25.973  1.00  0.00     0.039 A 
ATOM     35  C   UNL A   1      44.092  27.591  26.132  1.00  0.00     0.014 A 
ATOM     36  C   UNL A   1      46.297  28.206  26.933  1.00  0.00     0.014 A 
ATOM     37  C   UNL A   1      43.531  28.178  27.264  1.00  0.00     0.010 A 
ATOM     38  C   UNL A   1      45.747  28.681  28.112  1.00  0.00     0.010 A 
ATOM     39  C   UNL A   1      44.356  28.718  28.267  1.00  0.00    -0.014 A 
BRANCH  39  40
ATOM     40  C   UNL A   1      43.788  29.400  29.451  1.00  0.00     0.031 A 
ATOM     41  C   UNL A   1      43.522  30.881  29.397  1.00  0.00     0.074 A 
ATOM     42  C   UNL A   1      43.559  28.702  30.578  1.00  0.00     0.049 A 
ATOM     43  N   UNL A   1      43.063  31.673  30.332  1.00  0.00    -0.248 NA
ATOM     44  C   UNL A   1      43.848  31.573  28.136  1.00  0.00     0.031 C 
ATOM     45  C   UNL A   1      43.823  27.273  30.763  1.00  0.00     0.029 A 
ATOM     46  N   UNL A   1      43.047  29.105  31.783  1.00  0.00    -0.354 N 
ATOM     47  C   UNL A   1      43.069  32.949  29.780  1.00  0.00     0.074 A 
ATOM     48  C   UNL A   1      43.643  32.839  28.459  1.00  0.00     0.031 C 
ATOM     49  C   UNL A   1      43.429  26.911  31.994  1.00  0.00     0.029 A 
ATOM     50  C   UNL A   1      42.924  28.087  32.695  1.00  0.00     0.049 A 
ATOM     51  H   UNL A   1      42.791  30.036  31.976  1.00  0.00     0.167 HD
ATOM     52  C   UNL A   1      42.609  34.106  30.311  1.00  0.00     0.031 A 
ATOM     53  C   UNL A   1      42.451  28.103  33.954  1.00  0.00     0.031 A 
ATOM     54  C   UNL A   1      42.021  34.205  31.618  1.00  0.00     0.049 A 
ATOM     55  C   UNL A   1      41.938  29.397  34.520  1.00  0.00     0.074 A 
ATOM     56  C   UNL A   1      41.475  35.314  32.239  1.00  0.00     0.029 A 
ATOM     57  N   UNL A   1      41.899  33.146  32.505  1.00  0.00    -0.354 N 
ATOM     58  N   UNL A   1      41.890  30.585  33.963  1.00  0.00    -0.248 NA
ATOM     59  C   UNL A   1      41.390  29.347  35.882  1.00  0.00     0.031 C 
ATOM     60  C   UNL A   1      41.069  34.937  33.524  1.00  0.00     0.029 A 
ATOM     61  C   UNL A   1      41.299  33.578  33.676  1.00  0.00     0.049 A 
ATOM     62  H   UNL A   1      42.196  32.223  32.330  1.00  0.00     0.167 HD
ATOM     63  C   UNL A   1      41.270  31.413  34.890  1.00  0.00     0.074 A 
ATOM     64  C   UNL A   1      40.948  30.587  36.037  1.00  0.00     0.031 C 
ATOM     65  C   UNL A   1      40.987  32.736  34.801  1.00  0.00     0.031 A 
BRANCH  52  66
ATOM     66  C   UNL A   1      42.729  35.349  29.470  1.00  0.00    -0.014 A 
ATOM     67  C   UNL A   1      41.758  35.680  28.510  1.00  0.00     0.009 A 
ATOM     68  C   UNL A   1      43.826  36.207  29.645  1.00  0.00     0.009 A 
ATOM     69  C   UNL A   1      41.906  36.818  27.713  1.00  0.00     0.001 A 
ATOM     70  C   UNL A   1      43.954  37.362  28.871  1.00  0.00     0.001 A 
ATOM     71  C   UNL A   1      43.001  37.660  27.898  1.00  0.00     0.000 A 
ENDBRANCH  52  66
BRANCH  53  72
ATOM     72  C   UNL A   1      42.401  26.848  34.748  1.00  0.00    -0.014 A 
ATOM     73  C   UNL A   1      43.569  26.319  35.321  1.00  0.00     0.009 A 
ATOM     74  C   UNL A   1      41.188  26.166  34.933  1.00  0.00     0.009 A 
ATOM     75  C   UNL A   1      43.529  25.119  36.032  1.00  0.00     0.001 A 
ATOM     76  C   UNL A   1      41.146  24.981  35.672  1.00  0.00     0.001 A 
ATOM     77  C   UNL A   1      42.318  24.453  36.211  1.00  0.00     0.000 A 
ENDBRANCH  53  72
BRANCH  65  78
ATOM     78  C   UNL A   1      40.240  33.352  35.952  1.00  0.00    -0.014 A 
ATOM     79  C   UNL A   1      38.839  33.308  36.031  1.00  0.00     0.009 A 
ATOM     80  C   UNL A   1      40.961  33.969  36.987  1.00  0.00     0.009 A 
ATOM     81  C   UNL A   1      38.174  33.918  37.097  1.00  0.00     0.001 A 
ATOM     82  C   UNL A   1      40.296  34.546  38.069  1.00  0.00     0.001 A 
ATOM     83  C   UNL A   1      38.903  34.533  38.115  1.00  0.00     0.000 A 
ENDBRANCH  65  78
ENDBRANCH  39  40
ENDBRANCH  31  34
ENDBRANCH  29  30
ENDBRANCH  28  29
ENDBRANCH   1  28
TORSDOF 16
ENDMDL
