MODEL 1
REMARK VINA RESULT:     -11.9      0.000      0.000
REMARK SMILES COc1ccc(S(=O)(=O)N2CCC[C@H](C(=O)N3CCC[C@H](C(=O)NCCCNC(=O)c4ccc(-c5c6nc(c(-c7ccccc7)c7ccc([nH]7)c(-c7ccccc7)c7nc(c(-c8ccccc8)c8ccc5[nH]8)C=C7)C=C6)cc4)C3)C2)cc1
REMARK SMILES IDX 22 1 23 2 24 3 21 5 17 6 18 7 79 8 19 9 20 10 15 11 16 12
REMARK SMILES IDX 14 13 10 14 11 15 80 16 12 17 13 18 7 19 8 20 9 21 6 22 3 23
REMARK SMILES IDX 4 24 82 25 5 26 81 27 2 28 1 29 25 30 26 31 27 32 28 33
REMARK SMILES IDX 29 34 30 36 31 37 32 38 78 39 33 40 77 41 34 42 35 43 36 44
REMARK SMILES IDX 71 45 37 46 76 47 70 48 72 49 38 50 75 51 69 52 68 53 39 55
REMARK SMILES IDX 61 56 46 57 60 58 47 59 50 60 59 61 73 62 48 63 49 64 58 66
REMARK SMILES IDX 74 67 51 68 40 69 41 70 45 71 42 72 44 73 43 74 62 75 63 76
REMARK SMILES IDX 67 77 64 78 66 79 65 80 52 81 53 82 57 83 54 84 56 85 55 86
REMARK H PARENT 24 4 28 35 72 54 50 65
REMARK Flexibility Score: inf
ROOT
ATOM      1  C   UNL A   1      36.156  22.297  25.846  1.00  0.00     0.224 C 
ATOM      2  O   UNL A   1      36.280  23.340  26.496  1.00  0.00    -0.275 OA
ATOM      3  N   UNL A   1      37.168  21.992  24.992  1.00  0.00    -0.356 N 
ATOM      4  H   UNL A   1      37.837  22.701  24.862  1.00  0.00     0.163 HD
ENDROOT
BRANCH   1   5
ATOM      5  C   UNL A   1      34.892  21.441  26.023  1.00  0.00     0.098 C 
ATOM      6  N   UNL A   1      32.842  22.010  24.654  1.00  0.00    -0.342 N 
ATOM      7  C   UNL A   1      32.020  22.107  25.855  1.00  0.00     0.119 C 
ATOM      8  C   UNL A   1      34.058  21.209  24.755  1.00  0.00     0.133 C 
ATOM      9  C   UNL A   1      32.812  22.563  27.072  1.00  0.00     0.022 C 
ATOM     10  C   UNL A   1      34.083  21.750  27.288  1.00  0.00     0.017 C 
BRANCH   6  11
ATOM     11  C   UNL A   1      32.548  22.846  23.592  1.00  0.00     0.227 C 
ATOM     12  O   UNL A   1      31.790  22.472  22.689  1.00  0.00    -0.275 OA
BRANCH  11  13
ATOM     13  C   UNL A   1      33.335  24.135  23.379  1.00  0.00     0.094 C 
ATOM     14  N   UNL A   1      31.420  25.600  23.841  1.00  0.00    -0.197 NA
ATOM     15  C   UNL A   1      31.255  26.002  22.433  1.00  0.00     0.102 C 
ATOM     16  C   UNL A   1      32.738  25.162  24.331  1.00  0.00     0.116 C 
ATOM     17  C   UNL A   1      32.360  25.570  21.472  1.00  0.00     0.018 C 
ATOM     18  C   UNL A   1      33.532  24.764  22.014  1.00  0.00     0.016 C 
BRANCH  14  19
ATOM     19  S   UNL A   1      30.331  26.258  24.966  1.00  0.00     0.243 S 
ATOM     20  O   UNL A   1      30.205  25.347  26.075  1.00  0.00    -0.207 OA
ATOM     21  O   UNL A   1      29.169  26.704  24.216  1.00  0.00    -0.207 OA
BRANCH  19  22
ATOM     22  C   UNL A   1      31.111  27.731  25.592  1.00  0.00     0.082 A 
ATOM     23  C   UNL A   1      32.161  30.059  26.715  1.00  0.00     0.118 A 
ATOM     24  C   UNL A   1      31.959  28.930  27.509  1.00  0.00     0.048 A 
ATOM     25  C   UNL A   1      31.900  30.004  25.348  1.00  0.00     0.048 A 
ATOM     26  C   UNL A   1      31.423  27.766  26.954  1.00  0.00     0.025 A 
ATOM     27  C   UNL A   1      31.367  28.845  24.788  1.00  0.00     0.025 A 
BRANCH  23  28
ATOM     28  O   UNL A   1      32.641  31.173  27.347  1.00  0.00    -0.497 OA
ATOM     29  C   UNL A   1      34.040  31.115  27.623  1.00  0.00     0.278 C 
ENDBRANCH  23  28
ENDBRANCH  19  22
ENDBRANCH  14  19
ENDBRANCH  11  13
ENDBRANCH   6  11
ENDBRANCH   1   5
BRANCH   3  30
ATOM     30  C   UNL A   1      37.400  20.779  24.252  1.00  0.00     0.117 C 
BRANCH  30  31
ATOM     31  C   UNL A   1      38.017  19.657  25.060  1.00  0.00     0.042 C 
BRANCH  31  32
ATOM     32  C   UNL A   1      39.264  20.088  25.801  1.00  0.00     0.118 C 
BRANCH  32  33
ATOM     33  N   UNL A   1      40.288  19.046  25.867  1.00  0.00    -0.352 N 
ATOM     34  C   UNL A   1      41.636  19.145  26.126  1.00  0.00     0.251 C 
ATOM     35  H   UNL A   1      39.962  18.132  25.700  1.00  0.00     0.163 HD
ATOM     36  O   UNL A   1      42.354  18.152  26.076  1.00  0.00    -0.269 OA
BRANCH  34  37
ATOM     37  C   UNL A   1      42.229  20.467  26.414  1.00  0.00     0.039 A 
ATOM     38  C   UNL A   1      42.676  21.259  25.352  1.00  0.00     0.014 A 
ATOM     39  C   UNL A   1      42.276  20.954  27.719  1.00  0.00     0.014 A 
ATOM     40  C   UNL A   1      43.073  22.577  25.593  1.00  0.00     0.010 A 
ATOM     41  C   UNL A   1      42.544  22.296  27.937  1.00  0.00     0.010 A 
ATOM     42  C   UNL A   1      42.954  23.123  26.881  1.00  0.00    -0.014 A 
BRANCH  42  43
ATOM     43  C   UNL A   1      43.274  24.542  27.176  1.00  0.00     0.031 A 
ATOM     44  C   UNL A   1      44.706  25.002  27.107  1.00  0.00     0.074 A 
ATOM     45  C   UNL A   1      42.313  25.380  27.612  1.00  0.00     0.049 A 
ATOM     46  N   UNL A   1      45.233  26.131  27.506  1.00  0.00    -0.248 NA
ATOM     47  C   UNL A   1      45.683  24.041  26.567  1.00  0.00     0.031 C 
ATOM     48  C   UNL A   1      40.895  25.048  27.773  1.00  0.00     0.029 A 
ATOM     49  N   UNL A   1      42.393  26.689  28.017  1.00  0.00    -0.354 N 
ATOM     50  C   UNL A   1      46.602  25.990  27.319  1.00  0.00     0.074 A 
ATOM     51  C   UNL A   1      46.829  24.654  26.817  1.00  0.00     0.031 C 
ATOM     52  C   UNL A   1      40.235  26.133  28.209  1.00  0.00     0.029 A 
ATOM     53  C   UNL A   1      41.187  27.221  28.405  1.00  0.00     0.049 A 
ATOM     54  H   UNL A   1      43.236  27.199  28.027  1.00  0.00     0.167 HD
ATOM     55  C   UNL A   1      47.583  26.899  27.522  1.00  0.00     0.031 A 
ATOM     56  C   UNL A   1      40.886  28.447  28.874  1.00  0.00     0.031 A 
ATOM     57  C   UNL A   1      47.351  28.247  27.958  1.00  0.00     0.049 A 
ATOM     58  C   UNL A   1      41.985  29.459  29.037  1.00  0.00     0.074 A 
ATOM     59  C   UNL A   1      48.265  29.272  28.119  1.00  0.00     0.029 A 
ATOM     60  N   UNL A   1      46.105  28.762  28.281  1.00  0.00    -0.354 N 
ATOM     61  N   UNL A   1      43.270  29.325  28.814  1.00  0.00    -0.248 NA
ATOM     62  C   UNL A   1      41.590  30.794  29.510  1.00  0.00     0.031 C 
ATOM     63  C   UNL A   1      47.574  30.404  28.566  1.00  0.00     0.029 A 
ATOM     64  C   UNL A   1      46.226  30.091  28.644  1.00  0.00     0.049 A 
ATOM     65  H   UNL A   1      45.261  28.257  28.256  1.00  0.00     0.167 HD
ATOM     66  C   UNL A   1      43.832  30.564  29.090  1.00  0.00     0.074 A 
ATOM     67  C   UNL A   1      42.748  31.438  29.488  1.00  0.00     0.031 C 
ATOM     68  C   UNL A   1      45.131  30.945  29.021  1.00  0.00     0.031 A 
BRANCH  55  69
ATOM     69  C   UNL A   1      48.997  26.456  27.265  1.00  0.00    -0.014 A 
ATOM     70  C   UNL A   1      49.545  26.485  25.972  1.00  0.00     0.009 A 
ATOM     71  C   UNL A   1      49.792  26.009  28.331  1.00  0.00     0.009 A 
ATOM     72  C   UNL A   1      50.846  26.033  25.746  1.00  0.00     0.001 A 
ATOM     73  C   UNL A   1      51.103  25.587  28.106  1.00  0.00     0.001 A 
ATOM     74  C   UNL A   1      51.625  25.587  26.813  1.00  0.00     0.000 A 
ENDBRANCH  55  69
BRANCH  56  75
ATOM     75  C   UNL A   1      39.478  28.799  29.192  1.00  0.00    -0.014 A 
ATOM     76  C   UNL A   1      38.643  29.333  28.199  1.00  0.00     0.009 A 
ATOM     77  C   UNL A   1      38.961  28.603  30.481  1.00  0.00     0.009 A 
ATOM     78  C   UNL A   1      37.325  29.689  28.496  1.00  0.00     0.001 A 
ATOM     79  C   UNL A   1      37.636  28.937  30.771  1.00  0.00     0.001 A 
ATOM     80  C   UNL A   1      36.821  29.488  29.780  1.00  0.00     0.000 A 
ENDBRANCH  56  75
BRANCH  68  81
ATOM     81  C   UNL A   1      45.444  32.377  29.336  1.00  0.00    -0.014 A 
ATOM     82  C   UNL A   1      45.800  32.775  30.633  1.00  0.00     0.009 A 
ATOM     83  C   UNL A   1      45.437  33.328  28.304  1.00  0.00     0.009 A 
ATOM     84  C   UNL A   1      46.120  34.108  30.895  1.00  0.00     0.001 A 
ATOM     85  C   UNL A   1      45.780  34.656  28.565  1.00  0.00     0.001 A 
ATOM     86  C   UNL A   1      46.115  35.045  29.861  1.00  0.00     0.000 A 
ENDBRANCH  68  81
ENDBRANCH  42  43
ENDBRANCH  34  37
ENDBRANCH  32  33
ENDBRANCH  31  32
ENDBRANCH  30  31
ENDBRANCH   3  30
TORSDOF 15
ENDMDL
MODEL 2
REMARK VINA RESULT:     -11.7      4.070      9.532
REMARK SMILES COc1ccc(S(=O)(=O)N2CCC[C@H](C(=O)N3CCC[C@H](C(=O)NCCCNC(=O)c4ccc(-c5c6nc(c(-c7ccccc7)c7ccc([nH]7)c(-c7ccccc7)c7nc(c(-c8ccccc8)c8ccc5[nH]8)C=C7)C=C6)cc4)C3)C2)cc1
REMARK SMILES IDX 22 1 23 2 24 3 21 5 17 6 18 7 79 8 19 9 20 10 15 11 16 12
REMARK SMILES IDX 14 13 10 14 11 15 80 16 12 17 13 18 7 19 8 20 9 21 6 22 3 23
REMARK SMILES IDX 4 24 82 25 5 26 81 27 2 28 1 29 25 30 26 31 27 32 28 33
REMARK SMILES IDX 29 34 30 36 31 37 32 38 78 39 33 40 77 41 34 42 35 43 36 44
REMARK SMILES IDX 71 45 37 46 76 47 70 48 72 49 38 50 75 51 69 52 68 53 39 55
REMARK SMILES IDX 61 56 46 57 60 58 47 59 50 60 59 61 73 62 48 63 49 64 58 66
REMARK SMILES IDX 74 67 51 68 40 69 41 70 45 71 42 72 44 73 43 74 62 75 63 76
REMARK SMILES IDX 67 77 64 78 66 79 65 80 52 81 53 82 57 83 54 84 56 85 55 86
REMARK H PARENT 24 4 28 35 72 54 50 65
REMARK Flexibility Score: inf
ROOT
ATOM      1  C   UNL A   1      33.694  28.976  26.082  1.00  0.00     0.224 C 
ATOM      2  O   UNL A   1      34.335  27.924  26.174  1.00  0.00    -0.275 OA
ATOM      3  N   UNL A   1      33.776  29.828  27.138  1.00  0.00    -0.356 N 
ATOM      4  H   UNL A   1      34.219  29.465  27.939  1.00  0.00     0.163 HD
ENDROOT
BRANCH   1   5
ATOM      5  C   UNL A   1      32.853  29.243  24.825  1.00  0.00     0.098 C 
ATOM      6  N   UNL A   1      31.202  27.480  24.075  1.00  0.00    -0.342 N 
ATOM      7  C   UNL A   1      31.793  27.438  22.742  1.00  0.00     0.119 C 
ATOM      8  C   UNL A   1      31.418  28.697  24.851  1.00  0.00     0.133 C 
ATOM      9  C   UNL A   1      33.280  27.761  22.750  1.00  0.00     0.022 C 
ATOM     10  C   UNL A   1      33.602  29.047  23.502  1.00  0.00     0.017 C 
BRANCH   6  11
ATOM     11  C   UNL A   1      30.683  26.308  24.596  1.00  0.00     0.227 C 
ATOM     12  O   UNL A   1      29.528  25.957  24.326  1.00  0.00    -0.275 OA
BRANCH  11  13
ATOM     13  C   UNL A   1      31.420  25.558  25.700  1.00  0.00     0.094 C 
ATOM     14  N   UNL A   1      32.187  23.755  24.221  1.00  0.00    -0.197 NA
ATOM     15  C   UNL A   1      31.261  22.758  24.784  1.00  0.00     0.102 C 
ATOM     16  C   UNL A   1      32.623  24.899  25.041  1.00  0.00     0.116 C 
ATOM     17  C   UNL A   1      30.501  23.173  26.041  1.00  0.00     0.018 C 
ATOM     18  C   UNL A   1      30.737  24.562  26.618  1.00  0.00     0.016 C 
BRANCH  14  19
ATOM     19  S   UNL A   1      33.209  23.241  22.965  1.00  0.00     0.243 S 
ATOM     20  O   UNL A   1      33.649  24.396  22.225  1.00  0.00    -0.207 OA
ATOM     21  O   UNL A   1      32.542  22.129  22.309  1.00  0.00    -0.207 OA
BRANCH  19  22
ATOM     22  C   UNL A   1      34.647  22.556  23.760  1.00  0.00     0.082 A 
ATOM     23  C   UNL A   1      36.997  21.473  24.803  1.00  0.00     0.118 A 
ATOM     24  C   UNL A   1      37.028  22.700  24.139  1.00  0.00     0.048 A 
ATOM     25  C   UNL A   1      35.783  20.820  25.001  1.00  0.00     0.048 A 
ATOM     26  C   UNL A   1      35.856  23.241  23.605  1.00  0.00     0.025 A 
ATOM     27  C   UNL A   1      34.611  21.355  24.473  1.00  0.00     0.025 A 
BRANCH  23  28
ATOM     28  O   UNL A   1      38.196  20.989  25.249  1.00  0.00    -0.497 OA
ATOM     29  C   UNL A   1      38.341  19.579  25.082  1.00  0.00     0.278 C 
ENDBRANCH  23  28
ENDBRANCH  19  22
ENDBRANCH  14  19
ENDBRANCH  11  13
ENDBRANCH   6  11
ENDBRANCH   1   5
BRANCH   3  30
ATOM     30  C   UNL A   1      33.307  31.184  27.251  1.00  0.00     0.117 C 
BRANCH  30  31
ATOM     31  C   UNL A   1      34.029  32.015  28.291  1.00  0.00     0.042 C 
BRANCH  31  32
ATOM     32  C   UNL A   1      33.984  33.498  27.989  1.00  0.00     0.118 C 
BRANCH  32  33
ATOM     33  N   UNL A   1      33.359  34.286  29.050  1.00  0.00    -0.352 N 
ATOM     34  C   UNL A   1      33.721  34.440  30.369  1.00  0.00     0.251 C 
ATOM     35  H   UNL A   1      32.554  34.785  28.779  1.00  0.00     0.163 HD
ATOM     36  O   UNL A   1      33.027  35.104  31.132  1.00  0.00    -0.269 OA
BRANCH  34  37
ATOM     37  C   UNL A   1      34.926  33.756  30.879  1.00  0.00     0.039 A 
ATOM     38  C   UNL A   1      34.778  32.659  31.732  1.00  0.00     0.014 A 
ATOM     39  C   UNL A   1      36.196  34.148  30.459  1.00  0.00     0.014 A 
ATOM     40  C   UNL A   1      35.896  31.896  32.078  1.00  0.00     0.010 A 
ATOM     41  C   UNL A   1      37.280  33.319  30.696  1.00  0.00     0.010 A 
ATOM     42  C   UNL A   1      37.147  32.188  31.515  1.00  0.00    -0.014 A 
BRANCH  42  43
ATOM     43  C   UNL A   1      38.350  31.358  31.774  1.00  0.00     0.031 A 
ATOM     44  C   UNL A   1      39.251  31.709  32.928  1.00  0.00     0.074 A 
ATOM     45  C   UNL A   1      38.695  30.373  30.922  1.00  0.00     0.049 A 
ATOM     46  N   UNL A   1      40.440  31.249  33.222  1.00  0.00    -0.248 NA
ATOM     47  C   UNL A   1      38.772  32.760  33.843  1.00  0.00     0.031 C 
ATOM     48  C   UNL A   1      37.938  29.962  29.736  1.00  0.00     0.029 A 
ATOM     49  N   UNL A   1      39.790  29.545  30.917  1.00  0.00    -0.354 N 
ATOM     50  C   UNL A   1      40.869  31.992  34.313  1.00  0.00     0.074 A 
ATOM     51  C   UNL A   1      39.838  32.964  34.601  1.00  0.00     0.031 C 
ATOM     52  C   UNL A   1      38.574  28.940  29.140  1.00  0.00     0.029 A 
ATOM     53  C   UNL A   1      39.804  28.655  29.870  1.00  0.00     0.049 A 
ATOM     54  H   UNL A   1      40.498  29.584  31.601  1.00  0.00     0.167 HD
ATOM     55  C   UNL A   1      42.009  31.864  35.031  1.00  0.00     0.031 A 
ATOM     56  C   UNL A   1      40.712  27.719  29.534  1.00  0.00     0.031 A 
ATOM     57  C   UNL A   1      43.002  30.856  34.786  1.00  0.00     0.049 A 
ATOM     58  C   UNL A   1      41.943  27.557  30.380  1.00  0.00     0.074 A 
ATOM     59  C   UNL A   1      44.154  30.588  35.502  1.00  0.00     0.029 A 
ATOM     60  N   UNL A   1      42.945  29.936  33.752  1.00  0.00    -0.354 N 
ATOM     61  N   UNL A   1      42.315  28.238  31.437  1.00  0.00    -0.248 NA
ATOM     62  C   UNL A   1      42.877  26.490  29.991  1.00  0.00     0.031 C 
ATOM     63  C   UNL A   1      44.810  29.518  34.884  1.00  0.00     0.029 A 
ATOM     64  C   UNL A   1      44.044  29.098  33.808  1.00  0.00     0.049 A 
ATOM     65  H   UNL A   1      42.230  29.886  33.078  1.00  0.00     0.167 HD
ATOM     66  C   UNL A   1      43.508  27.665  31.855  1.00  0.00     0.074 A 
ATOM     67  C   UNL A   1      43.794  26.575  30.945  1.00  0.00     0.031 C 
ATOM     68  C   UNL A   1      44.298  28.011  32.901  1.00  0.00     0.031 A 
BRANCH  55  69
ATOM     69  C   UNL A   1      42.229  32.839  36.153  1.00  0.00    -0.014 A 
ATOM     70  C   UNL A   1      41.742  32.585  37.446  1.00  0.00     0.009 A 
ATOM     71  C   UNL A   1      42.939  34.026  35.916  1.00  0.00     0.009 A 
ATOM     72  C   UNL A   1      41.922  33.520  38.466  1.00  0.00     0.001 A 
ATOM     73  C   UNL A   1      43.145  34.945  36.947  1.00  0.00     0.001 A 
ATOM     74  C   UNL A   1      42.626  34.698  38.217  1.00  0.00     0.000 A 
ENDBRANCH  55  69
BRANCH  56  75
ATOM     75  C   UNL A   1      40.477  26.839  28.360  1.00  0.00    -0.014 A 
ATOM     76  C   UNL A   1      41.076  27.135  27.126  1.00  0.00     0.009 A 
ATOM     77  C   UNL A   1      39.658  25.705  28.463  1.00  0.00     0.009 A 
ATOM     78  C   UNL A   1      40.841  26.327  26.012  1.00  0.00     0.001 A 
ATOM     79  C   UNL A   1      39.443  24.884  27.353  1.00  0.00     0.001 A 
ATOM     80  C   UNL A   1      40.027  25.201  26.126  1.00  0.00     0.000 A 
ENDBRANCH  56  75
BRANCH  68  81
ATOM     81  C   UNL A   1      45.519  27.174  33.145  1.00  0.00    -0.014 A 
ATOM     82  C   UNL A   1      46.759  27.519  32.589  1.00  0.00     0.009 A 
ATOM     83  C   UNL A   1      45.432  26.057  33.991  1.00  0.00     0.009 A 
ATOM     84  C   UNL A   1      47.888  26.743  32.858  1.00  0.00     0.001 A 
ATOM     85  C   UNL A   1      46.568  25.298  34.275  1.00  0.00     0.001 A 
ATOM     86  C   UNL A   1      47.793  25.639  33.704  1.00  0.00     0.000 A 
ENDBRANCH  68  81
ENDBRANCH  42  43
ENDBRANCH  34  37
ENDBRANCH  32  33
ENDBRANCH  31  32
ENDBRANCH  30  31
ENDBRANCH   3  30
TORSDOF 15
ENDMDL
MODEL 3
REMARK VINA RESULT:     -11.5      1.906      7.917
REMARK SMILES COc1ccc(S(=O)(=O)N2CCC[C@H](C(=O)N3CCC[C@H](C(=O)NCCCNC(=O)c4ccc(-c5c6nc(c(-c7ccccc7)c7ccc([nH]7)c(-c7ccccc7)c7nc(c(-c8ccccc8)c8ccc5[nH]8)C=C7)C=C6)cc4)C3)C2)cc1
REMARK SMILES IDX 22 1 23 2 24 3 21 5 17 6 18 7 79 8 19 9 20 10 15 11 16 12
REMARK SMILES IDX 14 13 10 14 11 15 80 16 12 17 13 18 7 19 8 20 9 21 6 22 3 23
REMARK SMILES IDX 4 24 82 25 5 26 81 27 2 28 1 29 25 30 26 31 27 32 28 33
REMARK SMILES IDX 29 34 30 36 31 37 32 38 78 39 33 40 77 41 34 42 35 43 36 44
REMARK SMILES IDX 71 45 37 46 76 47 70 48 72 49 38 50 75 51 69 52 68 53 39 55
REMARK SMILES IDX 61 56 46 57 60 58 47 59 50 60 59 61 73 62 48 63 49 64 58 66
REMARK SMILES IDX 74 67 51 68 40 69 41 70 45 71 42 72 44 73 43 74 62 75 63 76
REMARK SMILES IDX 67 77 64 78 66 79 65 80 52 81 53 82 57 83 54 84 56 85 55 86
REMARK H PARENT 24 4 28 35 72 54 50 65
REMARK Flexibility Score: inf
ROOT
ATOM      1  C   UNL A   1      32.771  29.303  24.328  1.00  0.00     0.224 C 
ATOM      2  O   UNL A   1      33.250  29.084  23.211  1.00  0.00    -0.275 OA
ATOM      3  N   UNL A   1      33.645  29.684  25.297  1.00  0.00    -0.356 N 
ATOM      4  H   UNL A   1      34.597  29.608  25.059  1.00  0.00     0.163 HD
ENDROOT
BRANCH   1   5
ATOM      5  C   UNL A   1      31.262  29.121  24.554  1.00  0.00     0.098 C 
ATOM      6  N   UNL A   1      30.306  26.780  24.520  1.00  0.00    -0.342 N 
ATOM      7  C   UNL A   1      29.334  27.150  23.498  1.00  0.00     0.119 C 
ATOM      8  C   UNL A   1      30.849  27.864  25.332  1.00  0.00     0.133 C 
ATOM      9  C   UNL A   1      29.842  28.250  22.577  1.00  0.00     0.022 C 
ATOM     10  C   UNL A   1      30.390  29.452  23.338  1.00  0.00     0.017 C 
BRANCH   6  11
ATOM     11  C   UNL A   1      30.812  25.492  24.505  1.00  0.00     0.227 C 
ATOM     12  O   UNL A   1      30.406  24.667  23.678  1.00  0.00    -0.275 OA
BRANCH  11  13
ATOM     13  C   UNL A   1      31.686  24.989  25.649  1.00  0.00     0.094 C 
ATOM     14  N   UNL A   1      32.162  22.829  24.584  1.00  0.00    -0.197 NA
ATOM     15  C   UNL A   1      31.304  22.067  25.506  1.00  0.00     0.102 C 
ATOM     16  C   UNL A   1      32.753  24.108  25.017  1.00  0.00     0.116 C 
ATOM     17  C   UNL A   1      30.758  22.830  26.711  1.00  0.00     0.018 C 
ATOM     18  C   UNL A   1      31.121  24.300  26.876  1.00  0.00     0.016 C 
BRANCH  14  19
ATOM     19  S   UNL A   1      32.964  21.953  23.369  1.00  0.00     0.243 S 
ATOM     20  O   UNL A   1      32.906  22.705  22.141  1.00  0.00    -0.207 OA
ATOM     21  O   UNL A   1      32.475  20.586  23.445  1.00  0.00    -0.207 OA
BRANCH  19  22
ATOM     22  C   UNL A   1      34.674  21.895  23.861  1.00  0.00     0.082 A 
ATOM     23  C   UNL A   1      37.288  21.872  24.834  1.00  0.00     0.118 A 
ATOM     24  C   UNL A   1      36.321  21.048  25.411  1.00  0.00     0.048 A 
ATOM     25  C   UNL A   1      36.964  22.658  23.731  1.00  0.00     0.048 A 
ATOM     26  C   UNL A   1      35.008  21.064  24.934  1.00  0.00     0.025 A 
ATOM     27  C   UNL A   1      35.657  22.676  23.250  1.00  0.00     0.025 A 
BRANCH  23  28
ATOM     28  O   UNL A   1      38.536  21.834  25.393  1.00  0.00    -0.497 OA
ATOM     29  C   UNL A   1      38.709  22.759  26.466  1.00  0.00     0.278 C 
ENDBRANCH  23  28
ENDBRANCH  19  22
ENDBRANCH  14  19
ENDBRANCH  11  13
ENDBRANCH   6  11
ENDBRANCH   1   5
BRANCH   3  30
ATOM     30  C   UNL A   1      33.376  30.182  26.621  1.00  0.00     0.117 C 
BRANCH  30  31
ATOM     31  C   UNL A   1      34.463  29.893  27.635  1.00  0.00     0.042 C 
BRANCH  31  32
ATOM     32  C   UNL A   1      35.185  31.143  28.090  1.00  0.00     0.118 C 
BRANCH  32  33
ATOM     33  N   UNL A   1      35.188  31.313  29.542  1.00  0.00    -0.352 N 
ATOM     34  C   UNL A   1      36.109  30.904  30.479  1.00  0.00     0.251 C 
ATOM     35  H   UNL A   1      34.411  31.796  29.906  1.00  0.00     0.163 HD
ATOM     36  O   UNL A   1      35.904  31.087  31.675  1.00  0.00    -0.269 OA
BRANCH  34  37
ATOM     37  C   UNL A   1      37.326  30.190  30.043  1.00  0.00     0.039 A 
ATOM     38  C   UNL A   1      37.794  30.375  28.739  1.00  0.00     0.014 A 
ATOM     39  C   UNL A   1      38.043  29.398  30.938  1.00  0.00     0.014 A 
ATOM     40  C   UNL A   1      39.034  29.849  28.370  1.00  0.00     0.010 A 
ATOM     41  C   UNL A   1      39.327  28.990  30.612  1.00  0.00     0.010 A 
ATOM     42  C   UNL A   1      39.836  29.202  29.322  1.00  0.00    -0.014 A 
BRANCH  42  43
ATOM     43  C   UNL A   1      41.199  28.704  29.010  1.00  0.00     0.031 A 
ATOM     44  C   UNL A   1      42.353  29.671  29.013  1.00  0.00     0.074 A 
ATOM     45  C   UNL A   1      41.385  27.429  28.618  1.00  0.00     0.049 A 
ATOM     46  N   UNL A   1      43.579  29.500  28.589  1.00  0.00    -0.248 NA
ATOM     47  C   UNL A   1      42.075  31.030  29.509  1.00  0.00     0.031 C 
ATOM     48  C   UNL A   1      40.345  26.401  28.522  1.00  0.00     0.029 A 
ATOM     49  N   UNL A   1      42.525  26.783  28.208  1.00  0.00    -0.354 N 
ATOM     50  C   UNL A   1      44.194  30.739  28.714  1.00  0.00     0.074 A 
ATOM     51  C   UNL A   1      43.197  31.663  29.206  1.00  0.00     0.031 C 
ATOM     52  C   UNL A   1      40.901  25.249  28.115  1.00  0.00     0.029 A 
ATOM     53  C   UNL A   1      42.323  25.465  27.875  1.00  0.00     0.049 A 
ATOM     54  H   UNL A   1      43.405  27.222  28.159  1.00  0.00     0.167 HD
ATOM     55  C   UNL A   1      45.480  31.076  28.465  1.00  0.00     0.031 A 
ATOM     56  C   UNL A   1      43.187  24.539  27.418  1.00  0.00     0.031 A 
ATOM     57  C   UNL A   1      46.486  30.144  28.039  1.00  0.00     0.049 A 
ATOM     58  C   UNL A   1      44.624  24.922  27.204  1.00  0.00     0.074 A 
ATOM     59  C   UNL A   1      47.836  30.363  27.834  1.00  0.00     0.029 A 
ATOM     60  N   UNL A   1      46.249  28.804  27.772  1.00  0.00    -0.354 N 
ATOM     61  N   UNL A   1      45.202  26.088  27.368  1.00  0.00    -0.248 NA
ATOM     62  C   UNL A   1      45.531  23.858  26.748  1.00  0.00     0.031 C 
ATOM     63  C   UNL A   1      48.413  29.159  27.418  1.00  0.00     0.029 A 
ATOM     64  C   UNL A   1      47.428  28.184  27.402  1.00  0.00     0.049 A 
ATOM     65  H   UNL A   1      45.373  28.361  27.835  1.00  0.00     0.167 HD
ATOM     66  C   UNL A   1      46.542  25.892  27.064  1.00  0.00     0.074 A 
ATOM     67  C   UNL A   1      46.694  24.494  26.716  1.00  0.00     0.031 C 
ATOM     68  C   UNL A   1      47.558  26.789  27.074  1.00  0.00     0.031 A 
BRANCH  55  69
ATOM     69  C   UNL A   1      45.865  32.516  28.658  1.00  0.00    -0.014 A 
ATOM     70  C   UNL A   1      46.342  32.983  29.893  1.00  0.00     0.009 A 
ATOM     71  C   UNL A   1      45.754  33.416  27.588  1.00  0.00     0.009 A 
ATOM     72  C   UNL A   1      46.657  34.332  30.065  1.00  0.00     0.001 A 
ATOM     73  C   UNL A   1      46.099  34.759  27.754  1.00  0.00     0.001 A 
ATOM     74  C   UNL A   1      46.538  35.218  28.995  1.00  0.00     0.000 A 
ENDBRANCH  55  69
BRANCH  56  75
ATOM     75  C   UNL A   1      42.726  23.149  27.165  1.00  0.00    -0.014 A 
ATOM     76  C   UNL A   1      42.561  22.255  28.232  1.00  0.00     0.009 A 
ATOM     77  C   UNL A   1      42.450  22.710  25.861  1.00  0.00     0.009 A 
ATOM     78  C   UNL A   1      42.152  20.940  28.000  1.00  0.00     0.001 A 
ATOM     79  C   UNL A   1      42.018  21.401  25.633  1.00  0.00     0.001 A 
ATOM     80  C   UNL A   1      41.877  20.515  26.701  1.00  0.00     0.000 A 
ENDBRANCH  56  75
BRANCH  68  81
ATOM     81  C   UNL A   1      48.928  26.277  26.743  1.00  0.00    -0.014 A 
ATOM     82  C   UNL A   1      49.459  26.405  25.451  1.00  0.00     0.009 A 
ATOM     83  C   UNL A   1      49.718  25.712  27.756  1.00  0.00     0.009 A 
ATOM     84  C   UNL A   1      50.750  25.953  25.175  1.00  0.00     0.001 A 
ATOM     85  C   UNL A   1      51.016  25.281  27.482  1.00  0.00     0.001 A 
ATOM     86  C   UNL A   1      51.529  25.397  26.191  1.00  0.00     0.000 A 
ENDBRANCH  68  81
ENDBRANCH  42  43
ENDBRANCH  34  37
ENDBRANCH  32  33
ENDBRANCH  31  32
ENDBRANCH  30  31
ENDBRANCH   3  30
TORSDOF 15
ENDMDL
