MODEL 1
REMARK VINA RESULT:     -11.3      0.000      0.000
REMARK SMILES Cc1ccc([C@H](C)Nc2ccc(C(=O)NCCCNC(=O)c3ccc(-c4c5nc(c(-c6ccccc6)c6ccc([nH]6)c(-c6ccccc6)c6nc(c(-c7ccccc7)c7ccc4[nH]7)C=C6)C=C5)cc3)cc2Cl)cc1F
REMARK SMILES IDX 16 1 15 2 13 3 14 4 12 6 9 7 10 8 71 9 11 10 70 11 72 12
REMARK SMILES IDX 8 13 6 15 7 16 5 17 1 18 2 19 3 20 74 21 4 22 73 23 75 24
REMARK SMILES IDX 17 25 18 26 19 27 20 28 21 30 22 31 23 32 69 33 24 34 68 35
REMARK SMILES IDX 25 36 26 37 27 38 62 39 28 40 67 41 61 42 63 43 29 44 66 45
REMARK SMILES IDX 60 46 59 47 30 49 52 50 37 51 51 52 38 53 41 54 50 55 64 56
REMARK SMILES IDX 39 57 40 58 49 60 65 61 42 62 31 63 32 64 36 65 33 66 35 67
REMARK SMILES IDX 34 68 53 69 54 70 58 71 55 72 57 73 56 74 43 75 44 76 48 77
REMARK SMILES IDX 45 78 47 79 46 80
REMARK H PARENT 15 5 8 14 19 29 63 48 41 59
REMARK Flexibility Score: inf
ROOT
ATOM      1  C   UNL A   1      41.524  19.558  27.606  1.00  0.00     0.118 C 
ENDROOT
BRANCH   1   2
ATOM      2  N   UNL A   1      41.946  20.864  28.079  1.00  0.00    -0.352 N 
ATOM      3  C   UNL A   1      41.422  22.125  27.938  1.00  0.00     0.251 C 
ATOM      4  O   UNL A   1      42.019  23.044  28.500  1.00  0.00    -0.269 OA
ATOM      5  H   UNL A   1      42.776  20.841  28.609  1.00  0.00     0.163 HD
BRANCH   3   6
ATOM      6  C   UNL A   1      40.172  22.434  27.183  1.00  0.00     0.041 A 
ATOM      7  C   UNL A   1      37.759  23.164  25.817  1.00  0.00     0.053 A 
ATOM      8  C   UNL A   1      38.446  24.063  26.655  1.00  0.00     0.028 A 
ATOM      9  C   UNL A   1      38.305  21.874  25.712  1.00  0.00     0.065 A 
ATOM     10  C   UNL A   1      39.614  23.703  27.341  1.00  0.00     0.016 A 
ATOM     11  C   UNL A   1      39.527  21.555  26.322  1.00  0.00     0.036 A 
ATOM     12  Cl  UNL A   1      37.613  20.563  24.815  1.00  0.00    -0.082 Cl
BRANCH   7  13
ATOM     13  N   UNL A   1      36.613  23.649  25.212  1.00  0.00    -0.377 N 
ATOM     14  H   UNL A   1      36.714  23.953  24.281  1.00  0.00     0.161 HD
BRANCH  13  15
ATOM     15  C   UNL A   1      35.276  23.765  25.781  1.00  0.00     0.106 C 
ATOM     16  C   UNL A   1      34.758  25.160  25.392  1.00  0.00     0.036 C 
BRANCH  15  17
ATOM     17  C   UNL A   1      34.409  22.582  25.346  1.00  0.00    -0.023 A 
ATOM     18  C   UNL A   1      32.505  19.126  23.535  1.00  0.00     0.047 C 
ATOM     19  C   UNL A   1      33.102  20.320  24.213  1.00  0.00    -0.015 A 
ATOM     20  C   UNL A   1      33.805  20.210  25.415  1.00  0.00     0.007 A 
ATOM     21  C   UNL A   1      33.018  21.570  23.612  1.00  0.00     0.126 A 
ATOM     22  C   UNL A   1      34.453  21.326  25.971  1.00  0.00     0.006 A 
ATOM     23  C   UNL A   1      33.633  22.682  24.176  1.00  0.00     0.045 A 
ATOM     24  F   UNL A   1      32.368  21.713  22.448  1.00  0.00    -0.207 F 
ENDBRANCH  15  17
ENDBRANCH  13  15
ENDBRANCH   7  13
ENDBRANCH   3   6
ENDBRANCH   1   2
BRANCH   1  25
ATOM     25  C   UNL A   1      42.630  18.884  26.789  1.00  0.00     0.042 C 
BRANCH  25  26
ATOM     26  C   UNL A   1      42.679  19.373  25.346  1.00  0.00     0.118 C 
BRANCH  26  27
ATOM     27  N   UNL A   1      43.927  18.994  24.699  1.00  0.00    -0.352 N 
ATOM     28  C   UNL A   1      44.989  19.765  24.307  1.00  0.00     0.251 C 
ATOM     29  H   UNL A   1      44.023  18.031  24.516  1.00  0.00     0.163 HD
ATOM     30  O   UNL A   1      45.842  19.284  23.567  1.00  0.00    -0.269 OA
BRANCH  28  31
ATOM     31  C   UNL A   1      45.115  21.167  24.760  1.00  0.00     0.039 A 
ATOM     32  C   UNL A   1      44.857  22.192  23.844  1.00  0.00     0.014 A 
ATOM     33  C   UNL A   1      45.543  21.476  26.054  1.00  0.00     0.014 A 
ATOM     34  C   UNL A   1      44.993  23.524  24.235  1.00  0.00     0.010 A 
ATOM     35  C   UNL A   1      45.611  22.805  26.464  1.00  0.00     0.010 A 
ATOM     36  C   UNL A   1      45.350  23.841  25.555  1.00  0.00    -0.014 A 
BRANCH  36  37
ATOM     37  C   UNL A   1      45.469  25.251  26.000  1.00  0.00     0.031 A 
ATOM     38  C   UNL A   1      46.808  25.935  25.997  1.00  0.00     0.074 A 
ATOM     39  C   UNL A   1      44.381  25.894  26.464  1.00  0.00     0.049 A 
ATOM     40  N   UNL A   1      47.123  27.136  26.408  1.00  0.00    -0.248 NA
ATOM     41  C   UNL A   1      47.949  25.157  25.486  1.00  0.00     0.031 C 
ATOM     42  C   UNL A   1      43.033  25.329  26.548  1.00  0.00     0.029 A 
ATOM     43  N   UNL A   1      44.241  27.166  26.958  1.00  0.00    -0.354 N 
ATOM     44  C   UNL A   1      48.495  27.251  26.227  1.00  0.00     0.074 A 
ATOM     45  C   UNL A   1      48.960  25.982  25.711  1.00  0.00     0.031 C 
ATOM     46  C   UNL A   1      42.198  26.257  27.039  1.00  0.00     0.029 A 
ATOM     47  C   UNL A   1      42.956  27.467  27.343  1.00  0.00     0.049 A 
ATOM     48  H   UNL A   1      44.987  27.803  27.030  1.00  0.00     0.167 HD
ATOM     49  C   UNL A   1      49.294  28.320  26.454  1.00  0.00     0.031 A 
ATOM     50  C   UNL A   1      42.448  28.587  27.887  1.00  0.00     0.031 A 
ATOM     51  C   UNL A   1      48.828  29.584  26.957  1.00  0.00     0.049 A 
ATOM     52  C   UNL A   1      43.359  29.756  28.141  1.00  0.00     0.074 A 
ATOM     53  C   UNL A   1      49.548  30.747  27.168  1.00  0.00     0.029 A 
ATOM     54  N   UNL A   1      47.519  29.850  27.330  1.00  0.00    -0.354 N 
ATOM     55  N   UNL A   1      44.644  29.869  27.906  1.00  0.00    -0.248 NA
ATOM     56  C   UNL A   1      42.744  30.955  28.727  1.00  0.00     0.031 C 
ATOM     57  C   UNL A   1      48.684  31.702  27.716  1.00  0.00     0.029 A 
ATOM     58  C   UNL A   1      47.415  31.150  27.793  1.00  0.00     0.049 A 
ATOM     59  H   UNL A   1      46.775  29.208  27.273  1.00  0.00     0.167 HD
ATOM     60  C   UNL A   1      44.986  31.159  28.290  1.00  0.00     0.074 A 
ATOM     61  C   UNL A   1      43.770  31.794  28.758  1.00  0.00     0.031 C 
ATOM     62  C   UNL A   1      46.198  31.764  28.257  1.00  0.00     0.031 A 
BRANCH  49  63
ATOM     63  C   UNL A   1      50.762  28.160  26.167  1.00  0.00    -0.014 A 
ATOM     64  C   UNL A   1      51.652  27.701  27.152  1.00  0.00     0.009 A 
ATOM     65  C   UNL A   1      51.259  28.448  24.886  1.00  0.00     0.009 A 
ATOM     66  C   UNL A   1      53.015  27.574  26.871  1.00  0.00     0.001 A 
ATOM     67  C   UNL A   1      52.617  28.291  24.600  1.00  0.00     0.001 A 
ATOM     68  C   UNL A   1      53.494  27.865  25.595  1.00  0.00     0.000 A 
ENDBRANCH  49  63
BRANCH  50  69
ATOM     69  C   UNL A   1      41.002  28.664  28.214  1.00  0.00    -0.014 A 
ATOM     70  C   UNL A   1      40.531  28.228  29.461  1.00  0.00     0.009 A 
ATOM     71  C   UNL A   1      40.084  29.178  27.284  1.00  0.00     0.009 A 
ATOM     72  C   UNL A   1      39.168  28.282  29.763  1.00  0.00     0.001 A 
ATOM     73  C   UNL A   1      38.726  29.256  27.598  1.00  0.00     0.001 A 
ATOM     74  C   UNL A   1      38.268  28.800  28.832  1.00  0.00     0.000 A 
ENDBRANCH  50  69
BRANCH  62  75
ATOM     75  C   UNL A   1      46.261  33.195  28.710  1.00  0.00    -0.014 A 
ATOM     76  C   UNL A   1      46.035  34.254  27.817  1.00  0.00     0.009 A 
ATOM     77  C   UNL A   1      46.515  33.484  30.060  1.00  0.00     0.009 A 
ATOM     78  C   UNL A   1      46.093  35.576  28.262  1.00  0.00     0.001 A 
ATOM     79  C   UNL A   1      46.544  34.806  30.507  1.00  0.00     0.001 A 
ATOM     80  C   UNL A   1      46.342  35.850  29.607  1.00  0.00     0.000 A 
ENDBRANCH  62  75
ENDBRANCH  36  37
ENDBRANCH  28  31
ENDBRANCH  26  27
ENDBRANCH  25  26
ENDBRANCH   1  25
TORSDOF 13
ENDMDL
MODEL 2
REMARK VINA RESULT:     -11.3      3.371      4.819
REMARK SMILES Cc1ccc([C@H](C)Nc2ccc(C(=O)NCCCNC(=O)c3ccc(-c4c5nc(c(-c6ccccc6)c6ccc([nH]6)c(-c6ccccc6)c6nc(c(-c7ccccc7)c7ccc4[nH]7)C=C6)C=C5)cc3)cc2Cl)cc1F
REMARK SMILES IDX 16 1 15 2 13 3 14 4 12 6 9 7 10 8 71 9 11 10 70 11 72 12
REMARK SMILES IDX 8 13 6 15 7 16 5 17 1 18 2 19 3 20 74 21 4 22 73 23 75 24
REMARK SMILES IDX 17 25 18 26 19 27 20 28 21 30 22 31 23 32 69 33 24 34 68 35
REMARK SMILES IDX 25 36 26 37 27 38 62 39 28 40 67 41 61 42 63 43 29 44 66 45
REMARK SMILES IDX 60 46 59 47 30 49 52 50 37 51 51 52 38 53 41 54 50 55 64 56
REMARK SMILES IDX 39 57 40 58 49 60 65 61 42 62 31 63 32 64 36 65 33 66 35 67
REMARK SMILES IDX 34 68 53 69 54 70 58 71 55 72 57 73 56 74 43 75 44 76 48 77
REMARK SMILES IDX 45 78 47 79 46 80
REMARK H PARENT 15 5 8 14 19 29 63 48 41 59
REMARK Flexibility Score: inf
ROOT
ATOM      1  C   UNL A   1      37.195  20.551  24.721  1.00  0.00     0.118 C 
ENDROOT
BRANCH   1   2
ATOM      2  N   UNL A   1      35.854  20.065  24.988  1.00  0.00    -0.352 N 
ATOM      3  C   UNL A   1      34.627  20.680  25.029  1.00  0.00     0.251 C 
ATOM      4  O   UNL A   1      33.651  19.964  25.262  1.00  0.00    -0.269 OA
ATOM      5  H   UNL A   1      35.816  19.100  25.177  1.00  0.00     0.163 HD
BRANCH   3   6
ATOM      6  C   UNL A   1      34.409  22.135  24.779  1.00  0.00     0.041 A 
ATOM      7  C   UNL A   1      34.018  24.958  24.455  1.00  0.00     0.053 A 
ATOM      8  C   UNL A   1      34.540  24.405  25.640  1.00  0.00     0.028 A 
ATOM      9  C   UNL A   1      33.667  24.043  23.448  1.00  0.00     0.065 A 
ATOM     10  C   UNL A   1      34.713  23.025  25.811  1.00  0.00     0.016 A 
ATOM     11  C   UNL A   1      33.937  22.674  23.589  1.00  0.00     0.036 A 
ATOM     12  Cl  UNL A   1      32.934  24.453  21.933  1.00  0.00    -0.082 Cl
BRANCH   7  13
ATOM     13  N   UNL A   1      33.890  26.334  24.429  1.00  0.00    -0.377 N 
ATOM     14  H   UNL A   1      34.441  26.805  23.762  1.00  0.00     0.161 HD
BRANCH  13  15
ATOM     15  C   UNL A   1      33.041  27.175  25.264  1.00  0.00     0.106 C 
ATOM     16  C   UNL A   1      33.978  28.164  25.978  1.00  0.00     0.036 C 
BRANCH  15  17
ATOM     17  C   UNL A   1      31.922  27.796  24.428  1.00  0.00    -0.023 A 
ATOM     18  C   UNL A   1      29.296  30.120  21.866  1.00  0.00     0.047 C 
ATOM     19  C   UNL A   1      30.140  29.269  22.762  1.00  0.00    -0.015 A 
ATOM     20  C   UNL A   1      30.688  28.059  22.329  1.00  0.00     0.007 A 
ATOM     21  C   UNL A   1      30.451  29.709  24.044  1.00  0.00     0.126 A 
ATOM     22  C   UNL A   1      31.570  27.335  23.149  1.00  0.00     0.006 A 
ATOM     23  C   UNL A   1      31.299  28.979  24.869  1.00  0.00     0.045 A 
ATOM     24  F   UNL A   1      29.960  30.874  24.490  1.00  0.00    -0.207 F 
ENDBRANCH  15  17
ENDBRANCH  13  15
ENDBRANCH   7  13
ENDBRANCH   3   6
ENDBRANCH   1   2
BRANCH   1  25
ATOM     25  C   UNL A   1      38.236  19.450  24.945  1.00  0.00     0.042 C 
BRANCH  25  26
ATOM     26  C   UNL A   1      39.191  19.767  26.090  1.00  0.00     0.118 C 
BRANCH  26  27
ATOM     27  N   UNL A   1      40.461  19.072  25.929  1.00  0.00    -0.352 N 
ATOM     28  C   UNL A   1      41.743  19.551  25.978  1.00  0.00     0.251 C 
ATOM     29  H   UNL A   1      40.385  18.105  25.758  1.00  0.00     0.163 HD
ATOM     30  O   UNL A   1      42.666  18.846  25.582  1.00  0.00    -0.269 OA
BRANCH  28  31
ATOM     31  C   UNL A   1      42.025  20.907  26.497  1.00  0.00     0.039 A 
ATOM     32  C   UNL A   1      42.349  21.918  25.586  1.00  0.00     0.014 A 
ATOM     33  C   UNL A   1      42.033  21.172  27.869  1.00  0.00     0.014 A 
ATOM     34  C   UNL A   1      42.645  23.200  26.048  1.00  0.00     0.010 A 
ATOM     35  C   UNL A   1      42.260  22.468  28.325  1.00  0.00     0.010 A 
ATOM     36  C   UNL A   1      42.582  23.491  27.419  1.00  0.00    -0.014 A 
BRANCH  36  37
ATOM     37  C   UNL A   1      42.862  24.856  27.929  1.00  0.00     0.031 A 
ATOM     38  C   UNL A   1      44.264  25.252  28.300  1.00  0.00     0.074 A 
ATOM     39  C   UNL A   1      41.843  25.717  28.113  1.00  0.00     0.049 A 
ATOM     40  N   UNL A   1      44.695  26.372  28.821  1.00  0.00    -0.248 NA
ATOM     41  C   UNL A   1      45.317  24.247  28.079  1.00  0.00     0.031 C 
ATOM     42  C   UNL A   1      40.435  25.440  27.822  1.00  0.00     0.029 A 
ATOM     43  N   UNL A   1      41.838  27.001  28.597  1.00  0.00    -0.354 N 
ATOM     44  C   UNL A   1      46.060  26.200  29.009  1.00  0.00     0.074 A 
ATOM     45  C   UNL A   1      46.379  24.853  28.590  1.00  0.00     0.031 C 
ATOM     46  C   UNL A   1      39.706  26.530  28.109  1.00  0.00     0.029 A 
ATOM     47  C   UNL A   1      40.585  27.565  28.642  1.00  0.00     0.049 A 
ATOM     48  H   UNL A   1      42.652  27.473  28.884  1.00  0.00     0.167 HD
ATOM     49  C   UNL A   1      46.971  27.089  29.475  1.00  0.00     0.031 A 
ATOM     50  C   UNL A   1      40.189  28.776  29.073  1.00  0.00     0.031 A 
ATOM     51  C   UNL A   1      46.654  28.431  29.881  1.00  0.00     0.049 A 
ATOM     52  C   UNL A   1      41.217  29.739  29.596  1.00  0.00     0.074 A 
ATOM     53  C   UNL A   1      47.512  29.427  30.314  1.00  0.00     0.029 A 
ATOM     54  N   UNL A   1      45.375  28.966  29.907  1.00  0.00    -0.354 N 
ATOM     55  N   UNL A   1      42.514  29.583  29.710  1.00  0.00    -0.248 NA
ATOM     56  C   UNL A   1      40.725  31.051  30.042  1.00  0.00     0.031 C 
ATOM     57  C   UNL A   1      46.746  30.549  30.649  1.00  0.00     0.029 A 
ATOM     58  C   UNL A   1      45.417  30.269  30.371  1.00  0.00     0.049 A 
ATOM     59  H   UNL A   1      44.558  28.488  29.635  1.00  0.00     0.167 HD
ATOM     60  C   UNL A   1      42.997  30.783  30.215  1.00  0.00     0.074 A 
ATOM     61  C   UNL A   1      41.855  31.663  30.369  1.00  0.00     0.031 C 
ATOM     62  C   UNL A   1      44.271  31.128  30.521  1.00  0.00     0.031 A 
BRANCH  49  63
ATOM     63  C   UNL A   1      48.398  26.627  29.577  1.00  0.00    -0.014 A 
ATOM     64  C   UNL A   1      48.869  25.960  30.720  1.00  0.00     0.009 A 
ATOM     65  C   UNL A   1      49.279  26.838  28.505  1.00  0.00     0.009 A 
ATOM     66  C   UNL A   1      50.203  25.552  30.803  1.00  0.00     0.001 A 
ATOM     67  C   UNL A   1      50.604  26.403  28.578  1.00  0.00     0.001 A 
ATOM     68  C   UNL A   1      51.067  25.771  29.731  1.00  0.00     0.000 A 
ENDBRANCH  49  63
BRANCH  50  69
ATOM     69  C   UNL A   1      38.755  29.153  29.011  1.00  0.00    -0.014 A 
ATOM     70  C   UNL A   1      37.934  29.012  30.140  1.00  0.00     0.009 A 
ATOM     71  C   UNL A   1      38.198  29.661  27.827  1.00  0.00     0.009 A 
ATOM     72  C   UNL A   1      36.579  29.347  30.079  1.00  0.00     0.001 A 
ATOM     73  C   UNL A   1      36.850  30.022  27.775  1.00  0.00     0.001 A 
ATOM     74  C   UNL A   1      36.040  29.857  28.898  1.00  0.00     0.000 A 
ENDBRANCH  50  69
BRANCH  62  75
ATOM     75  C   UNL A   1      44.501  32.525  31.024  1.00  0.00    -0.014 A 
ATOM     76  C   UNL A   1      44.514  32.813  32.397  1.00  0.00     0.009 A 
ATOM     77  C   UNL A   1      44.744  33.560  30.108  1.00  0.00     0.009 A 
ATOM     78  C   UNL A   1      44.735  34.118  32.841  1.00  0.00     0.001 A 
ATOM     79  C   UNL A   1      44.992  34.858  30.556  1.00  0.00     0.001 A 
ATOM     80  C   UNL A   1      44.979  35.138  31.921  1.00  0.00     0.000 A 
ENDBRANCH  62  75
ENDBRANCH  36  37
ENDBRANCH  28  31
ENDBRANCH  26  27
ENDBRANCH  25  26
ENDBRANCH   1  25
TORSDOF 13
ENDMDL
MODEL 3
REMARK VINA RESULT:     -11.2      3.351      7.575
REMARK SMILES Cc1ccc([C@H](C)Nc2ccc(C(=O)NCCCNC(=O)c3ccc(-c4c5nc(c(-c6ccccc6)c6ccc([nH]6)c(-c6ccccc6)c6nc(c(-c7ccccc7)c7ccc4[nH]7)C=C6)C=C5)cc3)cc2Cl)cc1F
REMARK SMILES IDX 16 1 15 2 13 3 14 4 12 6 9 7 10 8 71 9 11 10 70 11 72 12
REMARK SMILES IDX 8 13 6 15 7 16 5 17 1 18 2 19 3 20 74 21 4 22 73 23 75 24
REMARK SMILES IDX 17 25 18 26 19 27 20 28 21 30 22 31 23 32 69 33 24 34 68 35
REMARK SMILES IDX 25 36 26 37 27 38 62 39 28 40 67 41 61 42 63 43 29 44 66 45
REMARK SMILES IDX 60 46 59 47 30 49 52 50 37 51 51 52 38 53 41 54 50 55 64 56
REMARK SMILES IDX 39 57 40 58 49 60 65 61 42 62 31 63 32 64 36 65 33 66 35 67
REMARK SMILES IDX 34 68 53 69 54 70 58 71 55 72 57 73 56 74 43 75 44 76 48 77
REMARK SMILES IDX 45 78 47 79 46 80
REMARK H PARENT 15 5 8 14 19 29 63 48 41 59
REMARK Flexibility Score: inf
ROOT
ATOM      1  C   UNL A   1      36.381  20.360  24.968  1.00  0.00     0.118 C 
ENDROOT
BRANCH   1   2
ATOM      2  N   UNL A   1      35.253  19.447  24.950  1.00  0.00    -0.352 N 
ATOM      3  C   UNL A   1      33.899  19.630  25.089  1.00  0.00     0.251 C 
ATOM      4  O   UNL A   1      33.188  18.628  24.994  1.00  0.00    -0.269 OA
ATOM      5  H   UNL A   1      35.510  18.507  24.810  1.00  0.00     0.163 HD
BRANCH   3   6
ATOM      6  C   UNL A   1      33.250  20.955  25.310  1.00  0.00     0.041 A 
ATOM      7  C   UNL A   1      32.028  23.484  25.893  1.00  0.00     0.053 A 
ATOM      8  C   UNL A   1      32.749  22.760  26.861  1.00  0.00     0.028 A 
ATOM      9  C   UNL A   1      31.912  22.881  24.629  1.00  0.00     0.065 A 
ATOM     10  C   UNL A   1      33.329  21.513  26.586  1.00  0.00     0.016 A 
ATOM     11  C   UNL A   1      32.580  21.683  24.335  1.00  0.00     0.036 A 
ATOM     12  Cl  UNL A   1      31.014  23.521  23.292  1.00  0.00    -0.082 Cl
BRANCH   7  13
ATOM     13  N   UNL A   1      31.499  24.693  26.304  1.00  0.00    -0.377 N 
ATOM     14  H   UNL A   1      30.670  24.642  26.834  1.00  0.00     0.161 HD
BRANCH  13  15
ATOM     15  C   UNL A   1      32.015  26.033  26.052  1.00  0.00     0.106 C 
ATOM     16  C   UNL A   1      33.499  25.865  25.686  1.00  0.00     0.036 C 
BRANCH  15  17
ATOM     17  C   UNL A   1      31.146  26.750  25.017  1.00  0.00    -0.023 A 
ATOM     18  C   UNL A   1      28.241  29.013  22.717  1.00  0.00     0.047 C 
ATOM     19  C   UNL A   1      29.280  28.215  23.441  1.00  0.00    -0.015 A 
ATOM     20  C   UNL A   1      30.558  28.721  23.689  1.00  0.00     0.007 A 
ATOM     21  C   UNL A   1      28.962  26.959  23.944  1.00  0.00     0.126 A 
ATOM     22  C   UNL A   1      31.477  28.000  24.469  1.00  0.00     0.006 A 
ATOM     23  C   UNL A   1      29.879  26.229  24.691  1.00  0.00     0.045 A 
ATOM     24  F   UNL A   1      27.739  26.447  23.744  1.00  0.00    -0.207 F 
ENDBRANCH  15  17
ENDBRANCH  13  15
ENDBRANCH   7  13
ENDBRANCH   3   6
ENDBRANCH   1   2
BRANCH   1  25
ATOM     25  C   UNL A   1      37.707  19.602  24.861  1.00  0.00     0.042 C 
BRANCH  25  26
ATOM     26  C   UNL A   1      38.825  20.254  25.666  1.00  0.00     0.118 C 
BRANCH  26  27
ATOM     27  N   UNL A   1      39.979  19.373  25.781  1.00  0.00    -0.352 N 
ATOM     28  C   UNL A   1      41.286  19.662  26.072  1.00  0.00     0.251 C 
ATOM     29  H   UNL A   1      39.790  18.420  25.625  1.00  0.00     0.163 HD
ATOM     30  O   UNL A   1      42.148  18.808  25.888  1.00  0.00    -0.269 OA
BRANCH  28  31
ATOM     31  C   UNL A   1      41.668  20.990  26.600  1.00  0.00     0.039 A 
ATOM     32  C   UNL A   1      41.574  21.215  27.977  1.00  0.00     0.014 A 
ATOM     33  C   UNL A   1      42.055  22.027  25.747  1.00  0.00     0.014 A 
ATOM     34  C   UNL A   1      41.901  22.465  28.501  1.00  0.00     0.010 A 
ATOM     35  C   UNL A   1      42.449  23.253  26.277  1.00  0.00     0.010 A 
ATOM     36  C   UNL A   1      42.363  23.487  27.658  1.00  0.00    -0.014 A 
BRANCH  36  37
ATOM     37  C   UNL A   1      42.747  24.814  28.198  1.00  0.00     0.031 A 
ATOM     38  C   UNL A   1      41.704  25.875  28.412  1.00  0.00     0.074 A 
ATOM     39  C   UNL A   1      44.045  25.081  28.440  1.00  0.00     0.049 A 
ATOM     40  N   UNL A   1      41.854  27.112  28.813  1.00  0.00    -0.248 NA
ATOM     41  C   UNL A   1      40.310  25.505  28.111  1.00  0.00     0.031 C 
ATOM     42  C   UNL A   1      45.154  24.146  28.243  1.00  0.00     0.029 A 
ATOM     43  N   UNL A   1      44.649  26.224  28.900  1.00  0.00    -0.354 N 
ATOM     44  C   UNL A   1      40.583  27.672  28.793  1.00  0.00     0.074 A 
ATOM     45  C   UNL A   1      39.681  26.655  28.297  1.00  0.00     0.031 C 
ATOM     46  C   UNL A   1      46.301  24.744  28.602  1.00  0.00     0.029 A 
ATOM     47  C   UNL A   1      46.014  26.114  29.016  1.00  0.00     0.049 A 
ATOM     48  H   UNL A   1      44.153  27.043  29.125  1.00  0.00     0.167 HD
ATOM     49  C   UNL A   1      40.198  28.915  29.168  1.00  0.00     0.031 A 
ATOM     50  C   UNL A   1      46.932  27.018  29.402  1.00  0.00     0.031 A 
ATOM     51  C   UNL A   1      41.095  29.921  29.670  1.00  0.00     0.049 A 
ATOM     52  C   UNL A   1      46.480  28.395  29.801  1.00  0.00     0.074 A 
ATOM     53  C   UNL A   1      40.796  31.191  30.130  1.00  0.00     0.029 A 
ATOM     54  N   UNL A   1      42.469  29.769  29.777  1.00  0.00    -0.354 N 
ATOM     55  N   UNL A   1      45.267  28.890  29.836  1.00  0.00    -0.248 NA
ATOM     56  C   UNL A   1      47.528  29.335  30.225  1.00  0.00     0.031 C 
ATOM     57  C   UNL A   1      41.996  31.826  30.468  1.00  0.00     0.029 A 
ATOM     58  C   UNL A   1      43.036  30.931  30.272  1.00  0.00     0.049 A 
ATOM     59  H   UNL A   1      42.967  28.955  29.536  1.00  0.00     0.167 HD
ATOM     60  C   UNL A   1      45.401  30.189  30.309  1.00  0.00     0.074 A 
ATOM     61  C   UNL A   1      46.812  30.399  30.564  1.00  0.00     0.031 C 
ATOM     62  C   UNL A   1      44.441  31.123  30.516  1.00  0.00     0.031 A 
BRANCH  49  63
ATOM     63  C   UNL A   1      38.739  29.256  29.037  1.00  0.00    -0.014 A 
ATOM     64  C   UNL A   1      38.206  29.731  27.827  1.00  0.00     0.009 A 
ATOM     65  C   UNL A   1      37.879  29.078  30.131  1.00  0.00     0.009 A 
ATOM     66  C   UNL A   1      36.852  30.057  27.729  1.00  0.00     0.001 A 
ATOM     67  C   UNL A   1      36.519  29.377  30.022  1.00  0.00     0.001 A 
ATOM     68  C   UNL A   1      36.010  29.877  28.825  1.00  0.00     0.000 A 
ENDBRANCH  49  63
BRANCH  50  69
ATOM     69  C   UNL A   1      48.368  26.645  29.447  1.00  0.00    -0.014 A 
ATOM     70  C   UNL A   1      48.913  26.057  30.599  1.00  0.00     0.009 A 
ATOM     71  C   UNL A   1      49.201  26.869  28.340  1.00  0.00     0.009 A 
ATOM     72  C   UNL A   1      50.269  25.724  30.650  1.00  0.00     0.001 A 
ATOM     73  C   UNL A   1      50.550  26.509  28.384  1.00  0.00     0.001 A 
ATOM     74  C   UNL A   1      51.084  25.945  29.541  1.00  0.00     0.000 A 
ENDBRANCH  50  69
BRANCH  62  75
ATOM     75  C   UNL A   1      44.884  32.446  31.074  1.00  0.00    -0.014 A 
ATOM     76  C   UNL A   1      44.966  32.663  32.458  1.00  0.00     0.009 A 
ATOM     77  C   UNL A   1      45.258  33.477  30.198  1.00  0.00     0.009 A 
ATOM     78  C   UNL A   1      45.385  33.900  32.953  1.00  0.00     0.001 A 
ATOM     79  C   UNL A   1      45.703  34.702  30.697  1.00  0.00     0.001 A 
ATOM     80  C   UNL A   1      45.758  34.915  32.072  1.00  0.00     0.000 A 
ENDBRANCH  62  75
ENDBRANCH  36  37
ENDBRANCH  28  31
ENDBRANCH  26  27
ENDBRANCH  25  26
ENDBRANCH   1  25
TORSDOF 13
ENDMDL
