MODEL 1
REMARK VINA RESULT:     -11.5      0.000      0.000
REMARK SMILES C[C@@H]1CCCN(C(=O)c2ccncc2/C=C/C(=O)NCCCNC(=O)c2ccc(-c3c4nc(c(-c5ccccc5)c5ccc([nH]5)c(-c5ccccc5)c5nc(c(-c6ccccc6)c6ccc3[nH]6)C=C5)C=C4)cc2)[C@@H]1C
REMARK SMILES IDX 20 1 19 2 17 3 18 4 16 6 15 7 14 8 9 9 10 10 11 11 13 12
REMARK SMILES IDX 12 13 7 14 8 15 6 16 1 17 2 18 3 19 74 20 4 21 75 22 5 23
REMARK SMILES IDX 21 24 22 25 23 26 24 27 25 29 26 30 27 31 73 32 28 33 72 34
REMARK SMILES IDX 29 35 30 36 31 37 66 38 32 39 71 40 65 41 67 42 33 43 70 44
REMARK SMILES IDX 64 45 63 46 34 48 56 49 41 50 55 51 42 52 45 53 54 54 68 55
REMARK SMILES IDX 43 56 44 57 53 59 69 60 46 61 35 62 36 63 40 64 37 65 39 66
REMARK SMILES IDX 38 67 57 68 58 69 62 70 59 71 61 72 60 73 47 74 48 75 52 76
REMARK SMILES IDX 49 77 51 78 50 79
REMARK H PARENT 19 5 23 28 67 47 45 58
REMARK Flexibility Score: inf
ROOT
ATOM      1  C   UNL A   1      31.998  29.394  25.107  1.00  0.00     0.118 C 
ENDROOT
BRANCH   1   2
ATOM      2  N   UNL A   1      31.640  29.110  23.727  1.00  0.00    -0.352 N 
ATOM      3  C   UNL A   1      30.991  28.039  23.199  1.00  0.00     0.244 C 
ATOM      4  O   UNL A   1      30.678  28.034  22.010  1.00  0.00    -0.270 OA
ATOM      5  H   UNL A   1      31.907  29.799  23.075  1.00  0.00     0.163 HD
BRANCH   3   6
ATOM      6  C   UNL A   1      30.577  26.909  24.060  1.00  0.00     0.072 C 
ATOM      7  C   UNL A   1      31.387  25.896  24.405  1.00  0.00     0.016 C 
BRANCH   7   8
ATOM      8  C   UNL A   1      30.946  24.774  25.250  1.00  0.00     0.006 A 
ATOM      9  C   UNL A   1      31.339  23.443  25.032  1.00  0.00     0.050 A 
ATOM     10  C   UNL A   1      30.917  22.428  25.902  1.00  0.00     0.034 A 
ATOM     11  C   UNL A   1      30.050  22.761  26.923  1.00  0.00     0.112 A 
ATOM     12  C   UNL A   1      30.059  24.981  26.304  1.00  0.00     0.119 A 
ATOM     13  N   UNL A   1      29.598  24.012  27.132  1.00  0.00    -0.264 NA
BRANCH   9  14
ATOM     14  C   UNL A   1      32.289  23.084  23.948  1.00  0.00     0.254 C 
ATOM     15  O   UNL A   1      31.788  22.815  22.862  1.00  0.00    -0.269 OA
BRANCH  14  16
ATOM     16  N   UNL A   1      33.665  23.100  24.211  1.00  0.00    -0.336 N 
ATOM     17  C   UNL A   1      34.211  22.220  27.189  1.00  0.00     0.010 C 
ATOM     18  C   UNL A   1      35.154  22.139  25.985  1.00  0.00     0.008 C 
ATOM     19  C   UNL A   1      36.023  23.403  25.885  1.00  0.00     0.007 C 
ATOM     20  C   UNL A   1      34.416  21.893  24.640  1.00  0.00     0.085 C 
ATOM     21  C   UNL A   1      35.226  24.610  25.405  1.00  0.00     0.022 C 
ATOM     22  C   UNL A   1      33.679  20.550  24.636  1.00  0.00     0.031 C 
ATOM     23  C   UNL A   1      34.491  24.311  24.101  1.00  0.00     0.120 C 
ENDBRANCH  14  16
ENDBRANCH   9  14
ENDBRANCH   7   8
ENDBRANCH   3   6
ENDBRANCH   1   2
BRANCH   1  24
ATOM     24  C   UNL A   1      33.365  28.819  25.459  1.00  0.00     0.042 C 
BRANCH  24  25
ATOM     25  C   UNL A   1      33.670  28.805  26.955  1.00  0.00     0.118 C 
BRANCH  25  26
ATOM     26  N   UNL A   1      33.636  30.142  27.529  1.00  0.00    -0.352 N 
ATOM     27  C   UNL A   1      34.555  30.804  28.305  1.00  0.00     0.251 C 
ATOM     28  H   UNL A   1      32.820  30.656  27.330  1.00  0.00     0.163 HD
ATOM     29  O   UNL A   1      34.225  31.846  28.866  1.00  0.00    -0.269 OA
BRANCH  27  30
ATOM     30  C   UNL A   1      35.935  30.291  28.484  1.00  0.00     0.039 A 
ATOM     31  C   UNL A   1      36.293  29.771  29.734  1.00  0.00     0.014 A 
ATOM     32  C   UNL A   1      36.900  30.394  27.480  1.00  0.00     0.014 A 
ATOM     33  C   UNL A   1      37.598  29.323  29.963  1.00  0.00     0.010 A 
ATOM     34  C   UNL A   1      38.185  29.891  27.688  1.00  0.00     0.010 A 
ATOM     35  C   UNL A   1      38.552  29.360  28.935  1.00  0.00    -0.014 A 
BRANCH  35  36
ATOM     36  C   UNL A   1      39.938  28.869  29.151  1.00  0.00     0.031 A 
ATOM     37  C   UNL A   1      40.981  29.774  29.750  1.00  0.00     0.074 A 
ATOM     38  C   UNL A   1      40.277  27.624  28.764  1.00  0.00     0.049 A 
ATOM     39  N   UNL A   1      42.259  29.552  29.938  1.00  0.00    -0.248 NA
ATOM     40  C   UNL A   1      40.535  31.110  30.176  1.00  0.00     0.031 C 
ATOM     41  C   UNL A   1      39.372  26.647  28.156  1.00  0.00     0.029 A 
ATOM     42  N   UNL A   1      41.482  26.969  28.820  1.00  0.00    -0.354 N 
ATOM     43  C   UNL A   1      42.771  30.726  30.480  1.00  0.00     0.074 A 
ATOM     44  C   UNL A   1      41.674  31.667  30.557  1.00  0.00     0.031 C 
ATOM     45  C   UNL A   1      40.048  25.512  27.915  1.00  0.00     0.029 A 
ATOM     46  C   UNL A   1      41.440  25.694  28.313  1.00  0.00     0.049 A 
ATOM     47  H   UNL A   1      42.301  27.376  29.188  1.00  0.00     0.167 HD
ATOM     48  C   UNL A   1      44.033  30.994  30.890  1.00  0.00     0.031 A 
ATOM     49  C   UNL A   1      42.414  24.775  28.174  1.00  0.00     0.031 A 
ATOM     50  C   UNL A   1      45.125  30.057  30.833  1.00  0.00     0.049 A 
ATOM     51  C   UNL A   1      43.811  25.100  28.623  1.00  0.00     0.074 A 
ATOM     52  C   UNL A   1      46.430  30.225  31.264  1.00  0.00     0.029 A 
ATOM     53  N   UNL A   1      45.035  28.775  30.316  1.00  0.00    -0.354 N 
ATOM     54  N   UNL A   1      44.267  26.202  29.166  1.00  0.00    -0.248 NA
ATOM     55  C   UNL A   1      44.824  24.050  28.445  1.00  0.00     0.031 C 
ATOM     56  C   UNL A   1      47.141  29.055  30.974  1.00  0.00     0.029 A 
ATOM     57  C   UNL A   1      46.266  28.144  30.404  1.00  0.00     0.049 A 
ATOM     58  H   UNL A   1      44.220  28.371  29.943  1.00  0.00     0.167 HD
ATOM     59  C   UNL A   1      45.613  25.968  29.420  1.00  0.00     0.074 A 
ATOM     60  C   UNL A   1      45.895  24.617  28.982  1.00  0.00     0.031 C 
ATOM     61  C   UNL A   1      46.532  26.799  29.969  1.00  0.00     0.031 A 
BRANCH  48  62
ATOM     62  C   UNL A   1      44.307  32.369  31.433  1.00  0.00    -0.014 A 
ATOM     63  C   UNL A   1      44.703  33.417  30.586  1.00  0.00     0.009 A 
ATOM     64  C   UNL A   1      44.136  32.628  32.801  1.00  0.00     0.009 A 
ATOM     65  C   UNL A   1      44.957  34.688  31.107  1.00  0.00     0.001 A 
ATOM     66  C   UNL A   1      44.363  33.906  33.315  1.00  0.00     0.001 A 
ATOM     67  C   UNL A   1      44.783  34.932  32.469  1.00  0.00     0.000 A 
ENDBRANCH  48  62
BRANCH  49  68
ATOM     68  C   UNL A   1      42.102  23.443  27.594  1.00  0.00    -0.014 A 
ATOM     69  C   UNL A   1      42.379  23.176  26.244  1.00  0.00     0.009 A 
ATOM     70  C   UNL A   1      41.518  22.439  28.380  1.00  0.00     0.009 A 
ATOM     71  C   UNL A   1      42.056  21.937  25.688  1.00  0.00     0.001 A 
ATOM     72  C   UNL A   1      41.220  21.192  27.827  1.00  0.00     0.001 A 
ATOM     73  C   UNL A   1      41.480  20.946  26.479  1.00  0.00     0.000 A 
ENDBRANCH  49  68
BRANCH  61  74
ATOM     74  C   UNL A   1      47.919  26.256  30.163  1.00  0.00    -0.014 A 
ATOM     75  C   UNL A   1      48.329  25.732  31.398  1.00  0.00     0.009 A 
ATOM     76  C   UNL A   1      48.814  26.240  29.082  1.00  0.00     0.009 A 
ATOM     77  C   UNL A   1      49.622  25.228  31.554  1.00  0.00     0.001 A 
ATOM     78  C   UNL A   1      50.098  25.713  29.235  1.00  0.00     0.001 A 
ATOM     79  C   UNL A   1      50.503  25.216  30.473  1.00  0.00     0.000 A 
ENDBRANCH  61  74
ENDBRANCH  35  36
ENDBRANCH  27  30
ENDBRANCH  25  26
ENDBRANCH  24  25
ENDBRANCH   1  24
TORSDOF 13
ENDMDL
MODEL 2
REMARK VINA RESULT:     -11.3      2.454      7.579
REMARK SMILES C[C@@H]1CCCN(C(=O)c2ccncc2/C=C/C(=O)NCCCNC(=O)c2ccc(-c3c4nc(c(-c5ccccc5)c5ccc([nH]5)c(-c5ccccc5)c5nc(c(-c6ccccc6)c6ccc3[nH]6)C=C5)C=C4)cc2)[C@@H]1C
REMARK SMILES IDX 20 1 19 2 17 3 18 4 16 6 15 7 14 8 9 9 10 10 11 11 13 12
REMARK SMILES IDX 12 13 7 14 8 15 6 16 1 17 2 18 3 19 74 20 4 21 75 22 5 23
REMARK SMILES IDX 21 24 22 25 23 26 24 27 25 29 26 30 27 31 73 32 28 33 72 34
REMARK SMILES IDX 29 35 30 36 31 37 66 38 32 39 71 40 65 41 67 42 33 43 70 44
REMARK SMILES IDX 64 45 63 46 34 48 56 49 41 50 55 51 42 52 45 53 54 54 68 55
REMARK SMILES IDX 43 56 44 57 53 59 69 60 46 61 35 62 36 63 40 64 37 65 39 66
REMARK SMILES IDX 38 67 57 68 58 69 62 70 59 71 61 72 60 73 47 74 48 75 52 76
REMARK SMILES IDX 49 77 51 78 50 79
REMARK H PARENT 19 5 23 28 67 47 45 58
REMARK Flexibility Score: inf
ROOT
ATOM      1  C   UNL A   1      37.374  20.981  24.568  1.00  0.00     0.118 C 
ENDROOT
BRANCH   1   2
ATOM      2  N   UNL A   1      37.998  22.217  25.012  1.00  0.00    -0.352 N 
ATOM      3  C   UNL A   1      37.474  23.250  25.723  1.00  0.00     0.244 C 
ATOM      4  O   UNL A   1      38.201  24.166  26.102  1.00  0.00    -0.270 OA
ATOM      5  H   UNL A   1      38.944  22.321  24.759  1.00  0.00     0.163 HD
BRANCH   3   6
ATOM      6  C   UNL A   1      36.050  23.244  26.124  1.00  0.00     0.072 C 
ATOM      7  C   UNL A   1      35.146  24.136  25.689  1.00  0.00     0.016 C 
BRANCH   7   8
ATOM      8  C   UNL A   1      33.738  24.119  26.115  1.00  0.00     0.006 A 
ATOM      9  C   UNL A   1      32.877  25.220  25.980  1.00  0.00     0.050 A 
ATOM     10  C   UNL A   1      31.534  25.123  26.368  1.00  0.00     0.034 A 
ATOM     11  C   UNL A   1      31.107  23.947  26.952  1.00  0.00     0.112 A 
ATOM     12  C   UNL A   1      33.194  22.994  26.731  1.00  0.00     0.119 A 
ATOM     13  N   UNL A   1      31.911  22.887  27.158  1.00  0.00    -0.264 NA
BRANCH   9  14
ATOM     14  C   UNL A   1      33.326  26.479  25.332  1.00  0.00     0.254 C 
ATOM     15  O   UNL A   1      33.997  27.233  26.030  1.00  0.00    -0.269 OA
BRANCH  14  16
ATOM     16  N   UNL A   1      32.995  26.715  23.992  1.00  0.00    -0.336 N 
ATOM     17  C   UNL A   1      29.928  26.159  23.519  1.00  0.00     0.010 C 
ATOM     18  C   UNL A   1      30.866  27.066  22.716  1.00  0.00     0.008 C 
ATOM     19  C   UNL A   1      31.491  26.300  21.538  1.00  0.00     0.007 C 
ATOM     20  C   UNL A   1      31.981  27.718  23.579  1.00  0.00     0.085 C 
ATOM     21  C   UNL A   1      32.554  25.310  21.999  1.00  0.00     0.022 C 
ATOM     22  C   UNL A   1      31.397  28.635  24.658  1.00  0.00     0.031 C 
ATOM     23  C   UNL A   1      33.607  25.987  22.871  1.00  0.00     0.120 C 
ENDBRANCH  14  16
ENDBRANCH   9  14
ENDBRANCH   7   8
ENDBRANCH   3   6
ENDBRANCH   1   2
BRANCH   1  24
ATOM     24  C   UNL A   1      38.217  19.765  24.937  1.00  0.00     0.042 C 
BRANCH  24  25
ATOM     25  C   UNL A   1      39.199  20.011  26.080  1.00  0.00     0.118 C 
BRANCH  25  26
ATOM     26  N   UNL A   1      40.411  19.218  25.936  1.00  0.00    -0.352 N 
ATOM     27  C   UNL A   1      41.731  19.590  25.986  1.00  0.00     0.251 C 
ATOM     28  H   UNL A   1      40.259  18.259  25.777  1.00  0.00     0.163 HD
ATOM     29  O   UNL A   1      42.591  18.793  25.617  1.00  0.00    -0.269 OA
BRANCH  27  30
ATOM     30  C   UNL A   1      42.145  20.929  26.471  1.00  0.00     0.039 A 
ATOM     31  C   UNL A   1      42.218  21.142  27.852  1.00  0.00     0.014 A 
ATOM     32  C   UNL A   1      42.376  21.994  25.597  1.00  0.00     0.014 A 
ATOM     33  C   UNL A   1      42.555  22.403  28.354  1.00  0.00     0.010 A 
ATOM     34  C   UNL A   1      42.773  23.236  26.095  1.00  0.00     0.010 A 
ATOM     35  C   UNL A   1      42.856  23.457  27.479  1.00  0.00    -0.014 A 
BRANCH  35  36
ATOM     36  C   UNL A   1      43.238  24.800  27.991  1.00  0.00     0.031 A 
ATOM     37  C   UNL A   1      42.182  25.831  28.286  1.00  0.00     0.074 A 
ATOM     38  C   UNL A   1      44.539  25.114  28.146  1.00  0.00     0.049 A 
ATOM     39  N   UNL A   1      42.325  27.079  28.659  1.00  0.00    -0.248 NA
ATOM     40  C   UNL A   1      40.781  25.411  28.121  1.00  0.00     0.031 C 
ATOM     41  C   UNL A   1      45.666  24.218  27.883  1.00  0.00     0.029 A 
ATOM     42  N   UNL A   1      45.132  26.281  28.558  1.00  0.00    -0.354 N 
ATOM     43  C   UNL A   1      41.037  27.597  28.750  1.00  0.00     0.074 A 
ATOM     44  C   UNL A   1      40.130  26.540  28.359  1.00  0.00     0.031 C 
ATOM     45  C   UNL A   1      46.812  24.861  28.161  1.00  0.00     0.029 A 
ATOM     46  C   UNL A   1      46.504  26.224  28.581  1.00  0.00     0.049 A 
ATOM     47  H   UNL A   1      44.622  27.085  28.813  1.00  0.00     0.167 HD
ATOM     48  C   UNL A   1      40.644  28.834  29.136  1.00  0.00     0.031 A 
ATOM     49  C   UNL A   1      47.414  27.165  28.895  1.00  0.00     0.031 A 
ATOM     50  C   UNL A   1      41.540  29.884  29.543  1.00  0.00     0.049 A 
ATOM     51  C   UNL A   1      46.953  28.535  29.307  1.00  0.00     0.074 A 
ATOM     52  C   UNL A   1      41.230  31.157  29.990  1.00  0.00     0.029 A 
ATOM     53  N   UNL A   1      42.921  29.780  29.555  1.00  0.00    -0.354 N 
ATOM     54  N   UNL A   1      45.731  28.994  29.422  1.00  0.00    -0.248 NA
ATOM     55  C   UNL A   1      48.000  29.512  29.640  1.00  0.00     0.031 C 
ATOM     56  C   UNL A   1      42.428  31.837  30.239  1.00  0.00     0.029 A 
ATOM     57  C   UNL A   1      43.480  30.972  29.989  1.00  0.00     0.049 A 
ATOM     58  H   UNL A   1      43.430  28.980  29.294  1.00  0.00     0.167 HD
ATOM     59  C   UNL A   1      45.861  30.304  29.866  1.00  0.00     0.074 A 
ATOM     60  C   UNL A   1      47.279  30.561  30.010  1.00  0.00     0.031 C 
ATOM     61  C   UNL A   1      44.891  31.212  30.132  1.00  0.00     0.031 A 
BRANCH  48  62
ATOM     62  C   UNL A   1      39.169  29.123  29.129  1.00  0.00    -0.014 A 
ATOM     63  C   UNL A   1      38.386  28.927  30.278  1.00  0.00     0.009 A 
ATOM     64  C   UNL A   1      38.560  29.628  27.970  1.00  0.00     0.009 A 
ATOM     65  C   UNL A   1      37.016  29.198  30.255  1.00  0.00     0.001 A 
ATOM     66  C   UNL A   1      37.195  29.924  27.957  1.00  0.00     0.001 A 
ATOM     67  C   UNL A   1      36.423  29.699  29.095  1.00  0.00     0.000 A 
ENDBRANCH  48  62
BRANCH  49  68
ATOM     68  C   UNL A   1      48.863  26.842  28.848  1.00  0.00    -0.014 A 
ATOM     69  C   UNL A   1      49.591  27.023  27.661  1.00  0.00     0.009 A 
ATOM     70  C   UNL A   1      49.523  26.343  29.981  1.00  0.00     0.009 A 
ATOM     71  C   UNL A   1      50.945  26.688  27.605  1.00  0.00     0.001 A 
ATOM     72  C   UNL A   1      50.883  26.034  29.928  1.00  0.00     0.001 A 
ATOM     73  C   UNL A   1      51.591  26.197  28.738  1.00  0.00     0.000 A 
ENDBRANCH  49  68
BRANCH  61  74
ATOM     74  C   UNL A   1      45.329  32.554  30.644  1.00  0.00    -0.014 A 
ATOM     75  C   UNL A   1      45.548  33.631  29.771  1.00  0.00     0.009 A 
ATOM     76  C   UNL A   1      45.493  32.749  32.024  1.00  0.00     0.009 A 
ATOM     77  C   UNL A   1      45.951  34.871  30.271  1.00  0.00     0.001 A 
ATOM     78  C   UNL A   1      45.873  33.997  32.522  1.00  0.00     0.001 A 
ATOM     79  C   UNL A   1      46.109  35.054  31.644  1.00  0.00     0.000 A 
ENDBRANCH  61  74
ENDBRANCH  35  36
ENDBRANCH  27  30
ENDBRANCH  25  26
ENDBRANCH  24  25
ENDBRANCH   1  24
TORSDOF 13
ENDMDL
MODEL 3
REMARK VINA RESULT:     -11.2      2.376      7.601
REMARK SMILES C[C@@H]1CCCN(C(=O)c2ccncc2/C=C/C(=O)NCCCNC(=O)c2ccc(-c3c4nc(c(-c5ccccc5)c5ccc([nH]5)c(-c5ccccc5)c5nc(c(-c6ccccc6)c6ccc3[nH]6)C=C5)C=C4)cc2)[C@@H]1C
REMARK SMILES IDX 20 1 19 2 17 3 18 4 16 6 15 7 14 8 9 9 10 10 11 11 13 12
REMARK SMILES IDX 12 13 7 14 8 15 6 16 1 17 2 18 3 19 74 20 4 21 75 22 5 23
REMARK SMILES IDX 21 24 22 25 23 26 24 27 25 29 26 30 27 31 73 32 28 33 72 34
REMARK SMILES IDX 29 35 30 36 31 37 66 38 32 39 71 40 65 41 67 42 33 43 70 44
REMARK SMILES IDX 64 45 63 46 34 48 56 49 41 50 55 51 42 52 45 53 54 54 68 55
REMARK SMILES IDX 43 56 44 57 53 59 69 60 46 61 35 62 36 63 40 64 37 65 39 66
REMARK SMILES IDX 38 67 57 68 58 69 62 70 59 71 61 72 60 73 47 74 48 75 52 76
REMARK SMILES IDX 49 77 51 78 50 79
REMARK H PARENT 19 5 23 28 67 47 45 58
REMARK Flexibility Score: inf
ROOT
ATOM      1  C   UNL A   1      37.404  20.749  24.641  1.00  0.00     0.118 C 
ENDROOT
BRANCH   1   2
ATOM      2  N   UNL A   1      37.999  22.016  25.033  1.00  0.00    -0.352 N 
ATOM      3  C   UNL A   1      37.441  23.079  25.670  1.00  0.00     0.244 C 
ATOM      4  O   UNL A   1      38.145  24.025  26.018  1.00  0.00    -0.270 OA
ATOM      5  H   UNL A   1      38.951  22.119  24.803  1.00  0.00     0.163 HD
BRANCH   3   6
ATOM      6  C   UNL A   1      36.006  23.076  26.028  1.00  0.00     0.072 C 
ATOM      7  C   UNL A   1      35.161  24.079  25.743  1.00  0.00     0.016 C 
BRANCH   7   8
ATOM      8  C   UNL A   1      33.739  24.060  26.125  1.00  0.00     0.006 A 
ATOM      9  C   UNL A   1      32.884  25.163  25.974  1.00  0.00     0.050 A 
ATOM     10  C   UNL A   1      31.529  25.063  26.317  1.00  0.00     0.034 A 
ATOM     11  C   UNL A   1      31.084  23.882  26.877  1.00  0.00     0.112 A 
ATOM     12  C   UNL A   1      33.176  22.929  26.713  1.00  0.00     0.119 A 
ATOM     13  N   UNL A   1      31.881  22.819  27.098  1.00  0.00    -0.264 NA
BRANCH   9  14
ATOM     14  C   UNL A   1      33.354  26.427  25.352  1.00  0.00     0.254 C 
ATOM     15  O   UNL A   1      34.027  27.161  26.069  1.00  0.00    -0.269 OA
BRANCH  14  16
ATOM     16  N   UNL A   1      33.039  26.690  24.012  1.00  0.00    -0.336 N 
ATOM     17  C   UNL A   1      29.970  26.180  23.501  1.00  0.00     0.010 C 
ATOM     18  C   UNL A   1      30.926  27.089  22.723  1.00  0.00     0.008 C 
ATOM     19  C   UNL A   1      31.553  26.336  21.538  1.00  0.00     0.007 C 
ATOM     20  C   UNL A   1      32.040  27.712  23.607  1.00  0.00     0.085 C 
ATOM     21  C   UNL A   1      32.600  25.325  21.992  1.00  0.00     0.022 C 
ATOM     22  C   UNL A   1      31.458  28.617  24.697  1.00  0.00     0.031 C 
ATOM     23  C   UNL A   1      33.653  25.975  22.885  1.00  0.00     0.120 C 
ENDBRANCH  14  16
ENDBRANCH   9  14
ENDBRANCH   7   8
ENDBRANCH   3   6
ENDBRANCH   1   2
BRANCH   1  24
ATOM     24  C   UNL A   1      38.334  19.578  24.942  1.00  0.00     0.042 C 
BRANCH  24  25
ATOM     25  C   UNL A   1      39.268  19.811  26.126  1.00  0.00     0.118 C 
BRANCH  25  26
ATOM     26  N   UNL A   1      40.539  19.124  25.960  1.00  0.00    -0.352 N 
ATOM     27  C   UNL A   1      41.824  19.606  25.982  1.00  0.00     0.251 C 
ATOM     28  H   UNL A   1      40.467  18.154  25.806  1.00  0.00     0.163 HD
ATOM     29  O   UNL A   1      42.742  18.884  25.598  1.00  0.00    -0.269 OA
BRANCH  27  30
ATOM     30  C   UNL A   1      42.133  20.978  26.455  1.00  0.00     0.039 A 
ATOM     31  C   UNL A   1      42.116  21.225  27.833  1.00  0.00     0.014 A 
ATOM     32  C   UNL A   1      42.349  22.036  25.569  1.00  0.00     0.014 A 
ATOM     33  C   UNL A   1      42.351  22.514  28.321  1.00  0.00     0.010 A 
ATOM     34  C   UNL A   1      42.646  23.309  26.057  1.00  0.00     0.010 A 
ATOM     35  C   UNL A   1      42.639  23.565  27.438  1.00  0.00    -0.014 A 
BRANCH  35  36
ATOM     36  C   UNL A   1      42.914  24.938  27.936  1.00  0.00     0.031 A 
ATOM     37  C   UNL A   1      44.323  25.364  28.254  1.00  0.00     0.074 A 
ATOM     38  C   UNL A   1      41.894  25.792  28.150  1.00  0.00     0.049 A 
ATOM     39  N   UNL A   1      44.750  26.488  28.774  1.00  0.00    -0.248 NA
ATOM     40  C   UNL A   1      45.389  24.391  27.969  1.00  0.00     0.031 C 
ATOM     41  C   UNL A   1      40.481  25.506  27.900  1.00  0.00     0.029 A 
ATOM     42  N   UNL A   1      41.893  27.076  28.635  1.00  0.00    -0.354 N 
ATOM     43  C   UNL A   1      46.128  26.348  28.900  1.00  0.00     0.074 A 
ATOM     44  C   UNL A   1      46.459  25.018  28.436  1.00  0.00     0.031 C 
ATOM     45  C   UNL A   1      39.752  26.591  28.214  1.00  0.00     0.029 A 
ATOM     46  C   UNL A   1      40.640  27.630  28.723  1.00  0.00     0.049 A 
ATOM     47  H   UNL A   1      42.713  27.555  28.897  1.00  0.00     0.167 HD
ATOM     48  C   UNL A   1      47.036  27.247  29.347  1.00  0.00     0.031 A 
ATOM     49  C   UNL A   1      40.245  28.837  29.173  1.00  0.00     0.031 A 
ATOM     50  C   UNL A   1      46.716  28.577  29.794  1.00  0.00     0.049 A 
ATOM     51  C   UNL A   1      41.272  29.812  29.678  1.00  0.00     0.074 A 
ATOM     52  C   UNL A   1      47.575  29.573  30.225  1.00  0.00     0.029 A 
ATOM     53  N   UNL A   1      45.434  29.097  29.861  1.00  0.00    -0.354 N 
ATOM     54  N   UNL A   1      42.572  29.675  29.755  1.00  0.00    -0.248 NA
ATOM     55  C   UNL A   1      40.772  31.111  30.151  1.00  0.00     0.031 C 
ATOM     56  C   UNL A   1      46.809  30.685  30.589  1.00  0.00     0.029 A 
ATOM     57  C   UNL A   1      45.477  30.396  30.341  1.00  0.00     0.049 A 
ATOM     58  H   UNL A   1      44.614  28.617  29.606  1.00  0.00     0.167 HD
ATOM     59  C   UNL A   1      43.050  30.879  30.258  1.00  0.00     0.074 A 
ATOM     60  C   UNL A   1      41.900  31.736  30.457  1.00  0.00     0.031 C 
ATOM     61  C   UNL A   1      44.327  31.240  30.530  1.00  0.00     0.031 A 
BRANCH  48  62
ATOM     62  C   UNL A   1      48.476  26.814  29.384  1.00  0.00    -0.014 A 
ATOM     63  C   UNL A   1      49.004  26.145  30.500  1.00  0.00     0.009 A 
ATOM     64  C   UNL A   1      49.306  27.049  28.277  1.00  0.00     0.009 A 
ATOM     65  C   UNL A   1      50.344  25.752  30.520  1.00  0.00     0.001 A 
ATOM     66  C   UNL A   1      50.638  26.631  28.288  1.00  0.00     0.001 A 
ATOM     67  C   UNL A   1      51.158  25.992  29.413  1.00  0.00     0.000 A 
ENDBRANCH  48  62
BRANCH  49  68
ATOM     68  C   UNL A   1      38.806  29.203  29.154  1.00  0.00    -0.014 A 
ATOM     69  C   UNL A   1      38.230  29.758  28.001  1.00  0.00     0.009 A 
ATOM     70  C   UNL A   1      38.004  29.010  30.290  1.00  0.00     0.009 A 
ATOM     71  C   UNL A   1      36.886  30.134  27.993  1.00  0.00     0.001 A 
ATOM     72  C   UNL A   1      36.653  29.363  30.269  1.00  0.00     0.001 A 
ATOM     73  C   UNL A   1      36.098  29.934  29.124  1.00  0.00     0.000 A 
ENDBRANCH  49  68
BRANCH  61  74
ATOM     74  C   UNL A   1      44.552  32.637  31.033  1.00  0.00    -0.014 A 
ATOM     75  C   UNL A   1      44.567  32.923  32.406  1.00  0.00     0.009 A 
ATOM     76  C   UNL A   1      44.785  33.674  30.117  1.00  0.00     0.009 A 
ATOM     77  C   UNL A   1      44.782  34.228  32.851  1.00  0.00     0.001 A 
ATOM     78  C   UNL A   1      45.025  34.974  30.566  1.00  0.00     0.001 A 
ATOM     79  C   UNL A   1      45.015  35.251  31.932  1.00  0.00     0.000 A 
ENDBRANCH  61  74
ENDBRANCH  35  36
ENDBRANCH  27  30
ENDBRANCH  25  26
ENDBRANCH  24  25
ENDBRANCH   1  24
TORSDOF 13
ENDMDL
