MODEL 1
REMARK VINA RESULT:     -10.8      0.000      0.000
REMARK SMILES C[N@H+]1CCO[C@@H](C[N@H+]2CCCC[C@@H]2CCC(=O)NCCCNC(=O)c2ccc(-c3c4nc(c(-c5ccccc5)c5ccc([nH]5)c(-c5ccccc5)c5nc(c(-c6ccccc6)c6ccc3[nH]6)C=C5)C=C4)cc2)C1
REMARK SMILES IDX 19 1 18 2 16 3 17 4 15 6 14 7 13 8 8 9 9 10 10 12 12 13
REMARK SMILES IDX 11 14 7 15 6 16 1 17 2 18 3 19 73 20 4 22 5 23 20 24 21 25
REMARK SMILES IDX 22 26 23 27 24 29 25 30 26 31 72 32 27 33 71 34 28 35 29 36
REMARK SMILES IDX 30 37 65 38 31 39 70 40 64 41 66 42 32 43 69 44 63 45 62 46
REMARK SMILES IDX 33 48 55 49 40 50 54 51 41 52 44 53 53 54 67 55 42 56 43 57
REMARK SMILES IDX 52 59 68 60 45 61 34 62 35 63 39 64 36 65 38 66 37 67 56 68
REMARK SMILES IDX 57 69 61 70 58 71 60 72 59 73 46 74 47 75 51 76 48 77 50 78
REMARK SMILES IDX 49 79
REMARK H PARENT 18 5 8 11 2 21 22 28 66 47 44 58
REMARK Flexibility Score: inf
ROOT
ATOM      1  C   UNL A   1      31.581  27.693  26.074  1.00  0.00     0.117 C 
ENDROOT
BRANCH   1   2
ATOM      2  N   UNL A   1      31.191  26.408  26.618  1.00  0.00    -0.356 N 
ATOM      3  C   UNL A   1      31.780  25.184  26.544  1.00  0.00     0.220 C 
ATOM      4  O   UNL A   1      31.348  24.313  27.305  1.00  0.00    -0.275 OA
ATOM      5  H   UNL A   1      30.353  26.424  27.133  1.00  0.00     0.163 HD
BRANCH   3   6
ATOM      6  C   UNL A   1      32.906  24.873  25.574  1.00  0.00     0.106 C 
BRANCH   6   7
ATOM      7  C   UNL A   1      33.631  23.582  26.008  1.00  0.00     0.075 C 
BRANCH   7   8
ATOM      8  C   UNL A   1      34.162  22.721  24.834  1.00  0.00     0.184 C 
ATOM      9  N   UNL A   1      34.732  21.461  25.316  1.00  0.00    -0.330 N 
ATOM     10  C   UNL A   1      36.079  21.554  25.861  1.00  0.00     0.262 C 
ATOM     11  H   UNL A   1      34.257  21.246  26.193  1.00  0.00     0.348 HD
ATOM     12  C   UNL A   1      37.082  22.313  25.001  1.00  0.00     0.062 C 
ATOM     13  C   UNL A   1      35.149  23.504  23.945  1.00  0.00     0.065 C 
ATOM     14  C   UNL A   1      36.528  23.667  24.580  1.00  0.00     0.012 C 
BRANCH   9  15
ATOM     15  C   UNL A   1      34.315  20.267  24.566  1.00  0.00     0.300 C 
BRANCH  15  16
ATOM     16  C   UNL A   1      32.823  19.879  24.480  1.00  0.00     0.228 C 
ATOM     17  C   UNL A   1      33.932  17.013  23.115  1.00  0.00     0.332 C 
ATOM     18  N   UNL A   1      32.598  17.506  23.426  1.00  0.00    -0.333 N 
ATOM     19  C   UNL A   1      32.158  17.088  24.765  1.00  0.00     0.290 C 
ATOM     20  C   UNL A   1      32.435  18.968  23.278  1.00  0.00     0.300 C 
ATOM     21  H   UNL A   1      32.000  17.074  22.720  1.00  0.00     0.348 HD
ATOM     22  C   UNL A   1      32.766  17.939  25.884  1.00  0.00     0.222 C 
ATOM     23  O   UNL A   1      32.387  19.310  25.736  1.00  0.00    -0.361 OA
ENDBRANCH  15  16
ENDBRANCH   9  15
ENDBRANCH   7   8
ENDBRANCH   6   7
ENDBRANCH   3   6
ENDBRANCH   1   2
BRANCH   1  24
ATOM     24  C   UNL A   1      32.495  28.544  26.966  1.00  0.00     0.042 C 
BRANCH  24  25
ATOM     25  C   UNL A   1      33.270  29.690  26.304  1.00  0.00     0.118 C 
BRANCH  25  26
ATOM     26  N   UNL A   1      33.622  30.710  27.284  1.00  0.00    -0.352 N 
ATOM     27  C   UNL A   1      34.612  30.850  28.216  1.00  0.00     0.251 C 
ATOM     28  H   UNL A   1      33.003  31.478  27.271  1.00  0.00     0.163 HD
ATOM     29  O   UNL A   1      34.422  31.706  29.092  1.00  0.00    -0.269 OA
BRANCH  27  30
ATOM     30  C   UNL A   1      35.892  30.093  28.257  1.00  0.00     0.039 A 
ATOM     31  C   UNL A   1      36.251  29.519  29.490  1.00  0.00     0.014 A 
ATOM     32  C   UNL A   1      36.840  30.102  27.231  1.00  0.00     0.014 A 
ATOM     33  C   UNL A   1      37.537  29.006  29.714  1.00  0.00     0.010 A 
ATOM     34  C   UNL A   1      38.127  29.562  27.448  1.00  0.00     0.010 A 
ATOM     35  C   UNL A   1      38.503  29.043  28.702  1.00  0.00    -0.014 A 
BRANCH  35  36
ATOM     36  C   UNL A   1      39.913  28.635  28.991  1.00  0.00     0.031 A 
ATOM     37  C   UNL A   1      40.844  29.568  29.731  1.00  0.00     0.074 A 
ATOM     38  C   UNL A   1      40.377  27.420  28.637  1.00  0.00     0.049 A 
ATOM     39  N   UNL A   1      42.110  29.409  30.036  1.00  0.00    -0.248 NA
ATOM     40  C   UNL A   1      40.274  30.842  30.190  1.00  0.00     0.031 C 
ATOM     41  C   UNL A   1      39.603  26.376  27.968  1.00  0.00     0.029 A 
ATOM     42  N   UNL A   1      41.624  26.859  28.799  1.00  0.00    -0.354 N 
ATOM     43  C   UNL A   1      42.493  30.568  30.701  1.00  0.00     0.074 A 
ATOM     44  C   UNL A   1      41.328  31.430  30.740  1.00  0.00     0.031 C 
ATOM     45  C   UNL A   1      40.390  25.303  27.776  1.00  0.00     0.029 A 
ATOM     46  C   UNL A   1      41.732  25.591  28.279  1.00  0.00     0.049 A 
ATOM     47  H   UNL A   1      42.369  27.322  29.245  1.00  0.00     0.167 HD
ATOM     48  C   UNL A   1      43.695  30.894  31.240  1.00  0.00     0.031 A 
ATOM     49  C   UNL A   1      42.789  24.758  28.198  1.00  0.00     0.031 A 
ATOM     50  C   UNL A   1      44.863  30.053  31.238  1.00  0.00     0.049 A 
ATOM     51  C   UNL A   1      44.130  25.165  28.745  1.00  0.00     0.074 A 
ATOM     52  C   UNL A   1      46.108  30.307  31.791  1.00  0.00     0.029 A 
ATOM     53  N   UNL A   1      44.935  28.798  30.659  1.00  0.00    -0.354 N 
ATOM     54  N   UNL A   1      44.469  26.264  29.372  1.00  0.00    -0.248 NA
ATOM     55  C   UNL A   1      45.238  24.211  28.569  1.00  0.00     0.031 C 
ATOM     56  C   UNL A   1      46.946  29.223  31.512  1.00  0.00     0.029 A 
ATOM     57  C   UNL A   1      46.209  28.278  30.820  1.00  0.00     0.049 A 
ATOM     58  H   UNL A   1      44.192  28.343  30.202  1.00  0.00     0.167 HD
ATOM     59  C   UNL A   1      45.816  26.123  29.684  1.00  0.00     0.074 A 
ATOM     60  C   UNL A   1      46.235  24.830  29.188  1.00  0.00     0.031 C 
ATOM     61  C   UNL A   1      46.630  26.992  30.329  1.00  0.00     0.031 A 
BRANCH  48  62
ATOM     62  C   UNL A   1      43.823  32.253  31.868  1.00  0.00    -0.014 A 
ATOM     63  C   UNL A   1      44.305  33.350  31.138  1.00  0.00     0.009 A 
ATOM     64  C   UNL A   1      43.399  32.447  33.192  1.00  0.00     0.009 A 
ATOM     65  C   UNL A   1      44.391  34.610  31.735  1.00  0.00     0.001 A 
ATOM     66  C   UNL A   1      43.465  33.712  33.778  1.00  0.00     0.001 A 
ATOM     67  C   UNL A   1      43.967  34.790  33.052  1.00  0.00     0.000 A 
ENDBRANCH  48  62
BRANCH  49  68
ATOM     68  C   UNL A   1      42.637  23.433  27.543  1.00  0.00    -0.014 A 
ATOM     69  C   UNL A   1      42.896  23.281  26.172  1.00  0.00     0.009 A 
ATOM     70  C   UNL A   1      42.197  22.324  28.282  1.00  0.00     0.009 A 
ATOM     71  C   UNL A   1      42.697  22.046  25.550  1.00  0.00     0.001 A 
ATOM     72  C   UNL A   1      42.022  21.085  27.661  1.00  0.00     0.001 A 
ATOM     73  C   UNL A   1      42.264  20.949  26.295  1.00  0.00     0.000 A 
ENDBRANCH  49  68
BRANCH  61  74
ATOM     74  C   UNL A   1      48.053  26.570  30.565  1.00  0.00    -0.014 A 
ATOM     75  C   UNL A   1      48.423  25.884  31.732  1.00  0.00     0.009 A 
ATOM     76  C   UNL A   1      49.028  26.826  29.589  1.00  0.00     0.009 A 
ATOM     77  C   UNL A   1      49.748  25.485  31.928  1.00  0.00     0.001 A 
ATOM     78  C   UNL A   1      50.347  26.409  29.778  1.00  0.00     0.001 A 
ATOM     79  C   UNL A   1      50.707  25.744  30.950  1.00  0.00     0.000 A 
ENDBRANCH  61  74
ENDBRANCH  35  36
ENDBRANCH  27  30
ENDBRANCH  25  26
ENDBRANCH  24  25
ENDBRANCH   1  24
TORSDOF 14
ENDMDL
MODEL 2
REMARK VINA RESULT:     -10.7      2.800      6.413
REMARK SMILES C[N@H+]1CCO[C@@H](C[N@H+]2CCCC[C@@H]2CCC(=O)NCCCNC(=O)c2ccc(-c3c4nc(c(-c5ccccc5)c5ccc([nH]5)c(-c5ccccc5)c5nc(c(-c6ccccc6)c6ccc3[nH]6)C=C5)C=C4)cc2)C1
REMARK SMILES IDX 19 1 18 2 16 3 17 4 15 6 14 7 13 8 8 9 9 10 10 12 12 13
REMARK SMILES IDX 11 14 7 15 6 16 1 17 2 18 3 19 73 20 4 22 5 23 20 24 21 25
REMARK SMILES IDX 22 26 23 27 24 29 25 30 26 31 72 32 27 33 71 34 28 35 29 36
REMARK SMILES IDX 30 37 65 38 31 39 70 40 64 41 66 42 32 43 69 44 63 45 62 46
REMARK SMILES IDX 33 48 55 49 40 50 54 51 41 52 44 53 53 54 67 55 42 56 43 57
REMARK SMILES IDX 52 59 68 60 45 61 34 62 35 63 39 64 36 65 38 66 37 67 56 68
REMARK SMILES IDX 57 69 61 70 58 71 60 72 59 73 46 74 47 75 51 76 48 77 50 78
REMARK SMILES IDX 49 79
REMARK H PARENT 18 5 8 11 2 21 22 28 66 47 44 58
REMARK Flexibility Score: inf
ROOT
ATOM      1  C   UNL A   1      30.816  26.889  25.481  1.00  0.00     0.117 C 
ENDROOT
BRANCH   1   2
ATOM      2  N   UNL A   1      30.678  25.644  26.209  1.00  0.00    -0.356 N 
ATOM      3  C   UNL A   1      31.568  24.647  26.464  1.00  0.00     0.220 C 
ATOM      4  O   UNL A   1      31.240  23.814  27.314  1.00  0.00    -0.275 OA
ATOM      5  H   UNL A   1      29.782  25.493  26.587  1.00  0.00     0.163 HD
BRANCH   3   6
ATOM      6  C   UNL A   1      32.899  24.534  25.744  1.00  0.00     0.106 C 
BRANCH   6   7
ATOM      7  C   UNL A   1      33.558  23.176  26.069  1.00  0.00     0.075 C 
BRANCH   7   8
ATOM      8  C   UNL A   1      33.814  22.277  24.833  1.00  0.00     0.184 C 
ATOM      9  N   UNL A   1      34.773  21.214  25.140  1.00  0.00    -0.330 N 
ATOM     10  C   UNL A   1      36.172  21.618  25.140  1.00  0.00     0.262 C 
ATOM     11  H   UNL A   1      34.694  21.034  26.141  1.00  0.00     0.348 HD
ATOM     12  C   UNL A   1      36.621  22.424  23.928  1.00  0.00     0.062 C 
ATOM     13  C   UNL A   1      34.232  23.101  23.599  1.00  0.00     0.065 C 
ATOM     14  C   UNL A   1      35.678  23.590  23.666  1.00  0.00     0.012 C 
BRANCH   9  15
ATOM     15  C   UNL A   1      34.386  19.877  24.667  1.00  0.00     0.300 C 
BRANCH  15  16
ATOM     16  C   UNL A   1      32.896  19.500  24.519  1.00  0.00     0.228 C 
ATOM     17  C   UNL A   1      34.038  16.591  23.279  1.00  0.00     0.332 C 
ATOM     18  N   UNL A   1      32.696  17.105  23.514  1.00  0.00    -0.333 N 
ATOM     19  C   UNL A   1      32.188  16.724  24.840  1.00  0.00     0.290 C 
ATOM     20  C   UNL A   1      32.556  18.564  23.323  1.00  0.00     0.300 C 
ATOM     21  H   UNL A   1      32.128  16.661  22.791  1.00  0.00     0.348 HD
ATOM     22  C   UNL A   1      32.751  17.596  25.966  1.00  0.00     0.222 C 
ATOM     23  O   UNL A   1      32.394  18.967  25.767  1.00  0.00    -0.361 OA
ENDBRANCH  15  16
ENDBRANCH   9  15
ENDBRANCH   7   8
ENDBRANCH   6   7
ENDBRANCH   3   6
ENDBRANCH   1   2
BRANCH   1  24
ATOM     24  C   UNL A   1      31.545  28.016  26.224  1.00  0.00     0.042 C 
BRANCH  24  25
ATOM     25  C   UNL A   1      32.270  29.072  25.381  1.00  0.00     0.118 C 
BRANCH  25  26
ATOM     26  N   UNL A   1      32.090  30.402  25.950  1.00  0.00    -0.352 N 
ATOM     27  C   UNL A   1      32.762  31.154  26.872  1.00  0.00     0.251 C 
ATOM     28  H   UNL A   1      31.302  30.867  25.584  1.00  0.00     0.163 HD
ATOM     29  O   UNL A   1      32.147  32.121  27.344  1.00  0.00    -0.269 OA
BRANCH  27  30
ATOM     30  C   UNL A   1      34.159  30.932  27.336  1.00  0.00     0.039 A 
ATOM     31  C   UNL A   1      34.523  29.609  27.646  1.00  0.00     0.014 A 
ATOM     32  C   UNL A   1      35.041  31.958  27.683  1.00  0.00     0.014 A 
ATOM     33  C   UNL A   1      35.714  29.316  28.324  1.00  0.00     0.010 A 
ATOM     34  C   UNL A   1      36.253  31.661  28.343  1.00  0.00     0.010 A 
ATOM     35  C   UNL A   1      36.586  30.341  28.705  1.00  0.00    -0.014 A 
BRANCH  35  36
ATOM     36  C   UNL A   1      37.777  30.039  29.559  1.00  0.00     0.031 A 
ATOM     37  C   UNL A   1      38.918  29.209  29.017  1.00  0.00     0.074 A 
ATOM     38  C   UNL A   1      37.883  30.529  30.811  1.00  0.00     0.049 A 
ATOM     39  N   UNL A   1      40.014  28.809  29.619  1.00  0.00    -0.248 NA
ATOM     40  C   UNL A   1      38.814  28.779  27.616  1.00  0.00     0.031 C 
ATOM     41  C   UNL A   1      36.905  31.390  31.473  1.00  0.00     0.029 A 
ATOM     42  N   UNL A   1      38.876  30.366  31.751  1.00  0.00    -0.354 N 
ATOM     43  C   UNL A   1      40.716  28.063  28.679  1.00  0.00     0.074 A 
ATOM     44  C   UNL A   1      39.915  28.052  27.472  1.00  0.00     0.031 C 
ATOM     45  C   UNL A   1      37.345  31.681  32.710  1.00  0.00     0.029 A 
ATOM     46  C   UNL A   1      38.619  31.003  32.942  1.00  0.00     0.049 A 
ATOM     47  H   UNL A   1      39.693  29.843  31.587  1.00  0.00     0.167 HD
ATOM     48  C   UNL A   1      41.919  27.446  28.796  1.00  0.00     0.031 A 
ATOM     49  C   UNL A   1      39.315  31.029  34.097  1.00  0.00     0.031 A 
ATOM     50  C   UNL A   1      42.749  27.455  29.972  1.00  0.00     0.049 A 
ATOM     51  C   UNL A   1      40.616  30.284  34.224  1.00  0.00     0.074 A 
ATOM     52  C   UNL A   1      43.995  26.875  30.151  1.00  0.00     0.029 A 
ATOM     53  N   UNL A   1      42.424  28.075  31.165  1.00  0.00    -0.354 N 
ATOM     54  N   UNL A   1      41.263  29.588  33.323  1.00  0.00    -0.248 NA
ATOM     55  C   UNL A   1      41.283  30.330  35.537  1.00  0.00     0.031 C 
ATOM     56  C   UNL A   1      44.406  27.108  31.467  1.00  0.00     0.029 A 
ATOM     57  C   UNL A   1      43.433  27.869  32.093  1.00  0.00     0.049 A 
ATOM     58  H   UNL A   1      41.599  28.586  31.331  1.00  0.00     0.167 HD
ATOM     59  C   UNL A   1      42.418  29.135  33.951  1.00  0.00     0.074 A 
ATOM     60  C   UNL A   1      42.392  29.641  35.306  1.00  0.00     0.031 C 
ATOM     61  C   UNL A   1      43.412  28.370  33.441  1.00  0.00     0.031 A 
BRANCH  48  62
ATOM     62  C   UNL A   1      42.413  26.669  27.607  1.00  0.00    -0.014 A 
ATOM     63  C   UNL A   1      43.157  27.289  26.592  1.00  0.00     0.009 A 
ATOM     64  C   UNL A   1      42.177  25.288  27.535  1.00  0.00     0.009 A 
ATOM     65  C   UNL A   1      43.629  26.542  25.509  1.00  0.00     0.001 A 
ATOM     66  C   UNL A   1      42.669  24.541  26.464  1.00  0.00     0.001 A 
ATOM     67  C   UNL A   1      43.388  25.170  25.449  1.00  0.00     0.000 A 
ENDBRANCH  48  62
BRANCH  49  68
ATOM     68  C   UNL A   1      38.784  31.781  35.263  1.00  0.00    -0.014 A 
ATOM     69  C   UNL A   1      38.938  33.173  35.345  1.00  0.00     0.009 A 
ATOM     70  C   UNL A   1      38.153  31.100  36.316  1.00  0.00     0.009 A 
ATOM     71  C   UNL A   1      38.486  33.867  36.470  1.00  0.00     0.001 A 
ATOM     72  C   UNL A   1      37.682  31.801  37.428  1.00  0.00     0.001 A 
ATOM     73  C   UNL A   1      37.856  33.182  37.508  1.00  0.00     0.000 A 
ENDBRANCH  49  68
BRANCH  61  74
ATOM     74  C   UNL A   1      44.574  28.049  34.338  1.00  0.00    -0.014 A 
ATOM     75  C   UNL A   1      45.683  28.905  34.425  1.00  0.00     0.009 A 
ATOM     76  C   UNL A   1      44.540  26.897  35.139  1.00  0.00     0.009 A 
ATOM     77  C   UNL A   1      46.748  28.599  35.277  1.00  0.00     0.001 A 
ATOM     78  C   UNL A   1      45.597  26.604  36.005  1.00  0.00     0.001 A 
ATOM     79  C   UNL A   1      46.702  27.452  36.068  1.00  0.00     0.000 A 
ENDBRANCH  61  74
ENDBRANCH  35  36
ENDBRANCH  27  30
ENDBRANCH  25  26
ENDBRANCH  24  25
ENDBRANCH   1  24
TORSDOF 14
ENDMDL
MODEL 3
REMARK VINA RESULT:     -10.6      2.128      7.279
REMARK SMILES C[N@H+]1CCO[C@@H](C[N@H+]2CCCC[C@@H]2CCC(=O)NCCCNC(=O)c2ccc(-c3c4nc(c(-c5ccccc5)c5ccc([nH]5)c(-c5ccccc5)c5nc(c(-c6ccccc6)c6ccc3[nH]6)C=C5)C=C4)cc2)C1
REMARK SMILES IDX 19 1 18 2 16 3 17 4 15 6 14 7 13 8 8 9 9 10 10 12 12 13
REMARK SMILES IDX 11 14 7 15 6 16 1 17 2 18 3 19 73 20 4 22 5 23 20 24 21 25
REMARK SMILES IDX 22 26 23 27 24 29 25 30 26 31 72 32 27 33 71 34 28 35 29 36
REMARK SMILES IDX 30 37 65 38 31 39 70 40 64 41 66 42 32 43 69 44 63 45 62 46
REMARK SMILES IDX 33 48 55 49 40 50 54 51 41 52 44 53 53 54 67 55 42 56 43 57
REMARK SMILES IDX 52 59 68 60 45 61 34 62 35 63 39 64 36 65 38 66 37 67 56 68
REMARK SMILES IDX 57 69 61 70 58 71 60 72 59 73 46 74 47 75 51 76 48 77 50 78
REMARK SMILES IDX 49 79
REMARK H PARENT 18 5 8 11 2 21 22 28 66 47 44 58
REMARK Flexibility Score: inf
ROOT
ATOM      1  C   UNL A   1      37.149  20.926  24.480  1.00  0.00     0.117 C 
ENDROOT
BRANCH   1   2
ATOM      2  N   UNL A   1      37.549  22.304  24.681  1.00  0.00    -0.356 N 
ATOM      3  C   UNL A   1      37.150  23.232  25.592  1.00  0.00     0.220 C 
ATOM      4  O   UNL A   1      37.835  24.256  25.678  1.00  0.00    -0.275 OA
ATOM      5  H   UNL A   1      38.230  22.625  24.048  1.00  0.00     0.163 HD
BRANCH   3   6
ATOM      6  C   UNL A   1      35.920  23.051  26.463  1.00  0.00     0.106 C 
BRANCH   6   7
ATOM      7  C   UNL A   1      34.665  23.535  25.707  1.00  0.00     0.075 C 
BRANCH   7   8
ATOM      8  C   UNL A   1      33.615  22.429  25.434  1.00  0.00     0.184 C 
ATOM      9  N   UNL A   1      33.782  21.857  24.096  1.00  0.00    -0.330 N 
ATOM     10  C   UNL A   1      33.233  22.651  23.006  1.00  0.00     0.262 C 
ATOM     11  H   UNL A   1      34.766  21.974  23.854  1.00  0.00     0.348 HD
ATOM     12  C   UNL A   1      31.808  23.149  23.212  1.00  0.00     0.062 C 
ATOM     13  C   UNL A   1      32.176  22.927  25.679  1.00  0.00     0.065 C 
ATOM     14  C   UNL A   1      31.657  23.832  24.564  1.00  0.00     0.012 C 
BRANCH   9  15
ATOM     15  C   UNL A   1      33.737  20.388  24.042  1.00  0.00     0.300 C 
BRANCH  15  16
ATOM     16  C   UNL A   1      32.384  19.646  24.041  1.00  0.00     0.228 C 
ATOM     17  C   UNL A   1      34.193  16.919  23.267  1.00  0.00     0.332 C 
ATOM     18  N   UNL A   1      32.768  17.130  23.479  1.00  0.00    -0.333 N 
ATOM     19  C   UNL A   1      32.380  16.886  24.877  1.00  0.00     0.290 C 
ATOM     20  C   UNL A   1      32.273  18.454  23.046  1.00  0.00     0.300 C 
ATOM     21  H   UNL A   1      32.320  16.440  22.876  1.00  0.00     0.348 HD
ATOM     22  C   UNL A   1      32.723  18.057  25.802  1.00  0.00     0.222 C 
ATOM     23  O   UNL A   1      32.039  19.243  25.387  1.00  0.00    -0.361 OA
ENDBRANCH  15  16
ENDBRANCH   9  15
ENDBRANCH   7   8
ENDBRANCH   6   7
ENDBRANCH   3   6
ENDBRANCH   1   2
BRANCH   1  24
ATOM     24  C   UNL A   1      38.198  19.868  24.846  1.00  0.00     0.042 C 
BRANCH  24  25
ATOM     25  C   UNL A   1      39.104  20.149  26.051  1.00  0.00     0.118 C 
BRANCH  25  26
ATOM     26  N   UNL A   1      40.329  19.363  25.973  1.00  0.00    -0.352 N 
ATOM     27  C   UNL A   1      41.663  19.655  25.994  1.00  0.00     0.251 C 
ATOM     28  H   UNL A   1      40.154  18.397  25.885  1.00  0.00     0.163 HD
ATOM     29  O   UNL A   1      42.425  18.764  25.591  1.00  0.00    -0.269 OA
BRANCH  27  30
ATOM     30  C   UNL A   1      42.278  20.922  26.476  1.00  0.00     0.039 A 
ATOM     31  C   UNL A   1      42.189  21.186  27.856  1.00  0.00     0.014 A 
ATOM     32  C   UNL A   1      42.731  21.941  25.636  1.00  0.00     0.014 A 
ATOM     33  C   UNL A   1      42.501  22.447  28.382  1.00  0.00     0.010 A 
ATOM     34  C   UNL A   1      43.070  23.204  26.170  1.00  0.00     0.010 A 
ATOM     35  C   UNL A   1      42.923  23.483  27.543  1.00  0.00    -0.014 A 
BRANCH  35  36
ATOM     36  C   UNL A   1      43.109  24.865  28.085  1.00  0.00     0.031 A 
ATOM     37  C   UNL A   1      44.482  25.355  28.483  1.00  0.00     0.074 A 
ATOM     38  C   UNL A   1      42.071  25.719  28.197  1.00  0.00     0.049 A 
ATOM     39  N   UNL A   1      44.835  26.503  29.011  1.00  0.00    -0.248 NA
ATOM     40  C   UNL A   1      45.603  24.433  28.253  1.00  0.00     0.031 C 
ATOM     41  C   UNL A   1      40.690  25.434  27.810  1.00  0.00     0.029 A 
ATOM     42  N   UNL A   1      42.025  27.010  28.671  1.00  0.00    -0.354 N 
ATOM     43  C   UNL A   1      46.211  26.433  29.195  1.00  0.00     0.074 A 
ATOM     44  C   UNL A   1      46.627  25.122  28.739  1.00  0.00     0.031 C 
ATOM     45  C   UNL A   1      39.934  26.517  28.061  1.00  0.00     0.029 A 
ATOM     46  C   UNL A   1      40.766  27.561  28.656  1.00  0.00     0.049 A 
ATOM     47  H   UNL A   1      42.820  27.495  28.992  1.00  0.00     0.167 HD
ATOM     48  C   UNL A   1      47.061  27.368  29.691  1.00  0.00     0.031 A 
ATOM     49  C   UNL A   1      40.322  28.760  29.084  1.00  0.00     0.031 A 
ATOM     50  C   UNL A   1      46.684  28.686  30.131  1.00  0.00     0.049 A 
ATOM     51  C   UNL A   1      41.271  29.758  29.689  1.00  0.00     0.074 A 
ATOM     52  C   UNL A   1      47.498  29.697  30.618  1.00  0.00     0.029 A 
ATOM     53  N   UNL A   1      45.391  29.179  30.138  1.00  0.00    -0.354 N 
ATOM     54  N   UNL A   1      42.568  29.672  29.852  1.00  0.00    -0.248 NA
ATOM     55  C   UNL A   1      40.689  31.021  30.173  1.00  0.00     0.031 C 
ATOM     56  C   UNL A   1      46.691  30.788  30.959  1.00  0.00     0.029 A 
ATOM     57  C   UNL A   1      45.382  30.468  30.645  1.00  0.00     0.049 A 
ATOM     58  H   UNL A   1      44.596  28.686  29.830  1.00  0.00     0.167 HD
ATOM     59  C   UNL A   1      42.958  30.874  30.432  1.00  0.00     0.074 A 
ATOM     60  C   UNL A   1      41.765  31.679  30.586  1.00  0.00     0.031 C 
ATOM     61  C   UNL A   1      44.199  31.273  30.800  1.00  0.00     0.031 A 
BRANCH  48  62
ATOM     62  C   UNL A   1      48.510  26.988  29.810  1.00  0.00    -0.014 A 
ATOM     63  C   UNL A   1      48.995  26.320  30.945  1.00  0.00     0.009 A 
ATOM     64  C   UNL A   1      49.386  27.251  28.747  1.00  0.00     0.009 A 
ATOM     65  C   UNL A   1      50.340  25.952  31.024  1.00  0.00     0.001 A 
ATOM     66  C   UNL A   1      50.724  26.863  28.819  1.00  0.00     0.001 A 
ATOM     67  C   UNL A   1      51.202  26.220  29.960  1.00  0.00     0.000 A 
ENDBRANCH  48  62
BRANCH  49  68
ATOM     68  C   UNL A   1      38.877  29.094  28.979  1.00  0.00    -0.014 A 
ATOM     69  C   UNL A   1      38.343  29.584  27.779  1.00  0.00     0.009 A 
ATOM     70  C   UNL A   1      38.037  28.955  30.095  1.00  0.00     0.009 A 
ATOM     71  C   UNL A   1      36.997  29.949  27.703  1.00  0.00     0.001 A 
ATOM     72  C   UNL A   1      36.686  29.299  30.009  1.00  0.00     0.001 A 
ATOM     73  C   UNL A   1      36.169  29.803  28.816  1.00  0.00     0.000 A 
ENDBRANCH  49  68
BRANCH  61  74
ATOM     74  C   UNL A   1      44.344  32.650  31.381  1.00  0.00    -0.014 A 
ATOM     75  C   UNL A   1      44.271  32.866  32.766  1.00  0.00     0.009 A 
ATOM     76  C   UNL A   1      44.599  33.742  30.536  1.00  0.00     0.009 A 
ATOM     77  C   UNL A   1      44.426  34.152  33.291  1.00  0.00     0.001 A 
ATOM     78  C   UNL A   1      44.773  35.022  31.065  1.00  0.00     0.001 A 
ATOM     79  C   UNL A   1      44.679  35.227  32.440  1.00  0.00     0.000 A 
ENDBRANCH  61  74
ENDBRANCH  35  36
ENDBRANCH  27  30
ENDBRANCH  25  26
ENDBRANCH  24  25
ENDBRANCH   1  24
TORSDOF 14
ENDMDL
