MODEL 1
REMARK VINA RESULT:     -11.6      0.000      0.000
REMARK SMILES COc1ccc2c(c1)C=C(C(=O)NCCCNC(=O)c1ccc(-c3c4nc(c(-c5ccccc5)c5ccc([nH]5)c(-c5ccccc5)c5nc(c(-c6ccccc6)c6ccc3[nH]6)C=C5)C=C4)cc1)[C@H](C(F)(F)F)O2
REMARK SMILES IDX 15 1 14 2 13 3 11 4 12 5 10 7 3 8 4 9 8 10 5 11 7 12 6 13
REMARK SMILES IDX 9 14 73 15 68 16 2 17 1 18 69 19 70 20 71 21 72 22 16 23
REMARK SMILES IDX 17 24 18 25 19 27 20 28 21 29 67 30 22 31 66 32 23 33 24 34
REMARK SMILES IDX 25 35 60 36 26 37 65 38 59 39 61 40 27 41 64 42 58 43 57 44
REMARK SMILES IDX 28 46 50 47 35 48 49 49 36 50 39 51 48 52 62 53 37 54 38 55
REMARK SMILES IDX 47 57 63 58 40 59 29 60 30 61 34 62 31 63 33 64 32 65 51 66
REMARK SMILES IDX 52 67 56 68 53 69 55 70 54 71 41 72 42 73 46 74 43 75 45 76
REMARK SMILES IDX 44 77
REMARK H PARENT 13 6 17 26 61 45 39 56
REMARK Flexibility Score: inf
ROOT
ATOM      1  C   UNL A   1      34.033  28.594  25.827  1.00  0.00     0.042 C 
ENDROOT
BRANCH   1   2
ATOM      2  C   UNL A   1      33.843  27.173  25.284  1.00  0.00     0.118 C 
BRANCH   2   3
ATOM      3  N   UNL A   1      34.045  27.139  23.843  1.00  0.00    -0.352 N 
ATOM      4  C   UNL A   1      33.202  27.257  22.784  1.00  0.00     0.251 C 
ATOM      5  O   UNL A   1      33.657  27.059  21.660  1.00  0.00    -0.270 OA
ATOM      6  H   UNL A   1      34.985  27.003  23.582  1.00  0.00     0.163 HD
BRANCH   4   7
ATOM      7  C   UNL A   1      31.783  27.674  22.921  1.00  0.00     0.067 C 
ATOM      8  C   UNL A   1      28.152  30.832  22.571  1.00  0.00     0.119 A 
ATOM      9  C   UNL A   1      27.236  29.836  22.906  1.00  0.00     0.050 A 
ATOM     10  C   UNL A   1      29.513  30.541  22.497  1.00  0.00     0.058 A 
ATOM     11  C   UNL A   1      27.694  28.547  23.190  1.00  0.00     0.051 A 
ATOM     12  C   UNL A   1      29.969  29.253  22.788  1.00  0.00     0.021 A 
ATOM     13  C   UNL A   1      29.058  28.258  23.134  1.00  0.00     0.128 A 
ATOM     14  C   UNL A   1      31.378  28.924  22.653  1.00  0.00     0.025 C 
ATOM     15  O   UNL A   1      29.418  26.964  23.359  1.00  0.00    -0.475 OA
ATOM     16  C   UNL A   1      30.831  26.658  23.549  1.00  0.00     0.314 C 
BRANCH   8  17
ATOM     17  O   UNL A   1      27.772  32.094  22.207  1.00  0.00    -0.497 OA
ATOM     18  C   UNL A   1      27.971  32.336  20.817  1.00  0.00     0.278 C 
ENDBRANCH   8  17
BRANCH  16  19
ATOM     19  C   UNL A   1      31.036  25.184  23.127  1.00  0.00     0.429 C 
ATOM     20  F   UNL A   1      31.956  24.545  23.883  1.00  0.00    -0.167 F 
ATOM     21  F   UNL A   1      29.887  24.472  23.275  1.00  0.00    -0.167 F 
ATOM     22  F   UNL A   1      31.403  25.068  21.830  1.00  0.00    -0.167 F 
ENDBRANCH  16  19
ENDBRANCH   4   7
ENDBRANCH   2   3
ENDBRANCH   1   2
BRANCH   1  23
ATOM     23  C   UNL A   1      33.589  28.757  27.281  1.00  0.00     0.118 C 
BRANCH  23  24
ATOM     24  N   UNL A   1      33.612  30.149  27.704  1.00  0.00    -0.352 N 
ATOM     25  C   UNL A   1      34.570  30.849  28.395  1.00  0.00     0.251 C 
ATOM     26  H   UNL A   1      32.815  30.672  27.456  1.00  0.00     0.163 HD
ATOM     27  O   UNL A   1      34.299  31.958  28.845  1.00  0.00    -0.269 OA
BRANCH  25  28
ATOM     28  C   UNL A   1      35.919  30.281  28.614  1.00  0.00     0.039 A 
ATOM     29  C   UNL A   1      36.832  30.297  27.554  1.00  0.00     0.014 A 
ATOM     30  C   UNL A   1      36.273  29.685  29.828  1.00  0.00     0.014 A 
ATOM     31  C   UNL A   1      38.115  29.772  27.729  1.00  0.00     0.010 A 
ATOM     32  C   UNL A   1      37.571  29.211  30.020  1.00  0.00     0.010 A 
ATOM     33  C   UNL A   1      38.506  29.254  28.974  1.00  0.00    -0.014 A 
BRANCH  33  34
ATOM     34  C   UNL A   1      39.897  28.789  29.209  1.00  0.00     0.031 A 
ATOM     35  C   UNL A   1      40.930  29.715  29.786  1.00  0.00     0.074 A 
ATOM     36  C   UNL A   1      40.248  27.544  28.829  1.00  0.00     0.049 A 
ATOM     37  N   UNL A   1      42.206  29.502  29.992  1.00  0.00    -0.248 NA
ATOM     38  C   UNL A   1      40.477  31.063  30.166  1.00  0.00     0.031 C 
ATOM     39  C   UNL A   1      39.349  26.560  28.221  1.00  0.00     0.029 A 
ATOM     40  N   UNL A   1      41.457  26.900  28.886  1.00  0.00    -0.354 N 
ATOM     41  C   UNL A   1      42.711  30.691  30.503  1.00  0.00     0.074 A 
ATOM     42  C   UNL A   1      41.612  31.631  30.547  1.00  0.00     0.031 C 
ATOM     43  C   UNL A   1      40.036  25.434  27.973  1.00  0.00     0.029 A 
ATOM     44  C   UNL A   1      41.428  25.629  28.365  1.00  0.00     0.049 A 
ATOM     45  H   UNL A   1      42.271  27.309  29.262  1.00  0.00     0.167 HD
ATOM     46  C   UNL A   1      43.974  30.970  30.909  1.00  0.00     0.031 A 
ATOM     47  C   UNL A   1      42.412  24.724  28.206  1.00  0.00     0.031 A 
ATOM     48  C   UNL A   1      45.064  30.031  30.877  1.00  0.00     0.049 A 
ATOM     49  C   UNL A   1      43.805  25.065  28.650  1.00  0.00     0.074 A 
ATOM     50  C   UNL A   1      46.359  30.200  31.337  1.00  0.00     0.029 A 
ATOM     51  N   UNL A   1      44.991  28.753  30.348  1.00  0.00    -0.354 N 
ATOM     52  N   UNL A   1      44.248  26.167  29.203  1.00  0.00    -0.248 NA
ATOM     53  C   UNL A   1      44.834  24.033  28.452  1.00  0.00     0.031 C 
ATOM     54  C   UNL A   1      47.083  29.041  31.039  1.00  0.00     0.029 A 
ATOM     55  C   UNL A   1      46.227  28.134  30.438  1.00  0.00     0.049 A 
ATOM     56  H   UNL A   1      44.181  28.345  29.964  1.00  0.00     0.167 HD
ATOM     57  C   UNL A   1      45.602  25.957  29.434  1.00  0.00     0.074 A 
ATOM     58  C   UNL A   1      45.902  24.615  28.979  1.00  0.00     0.031 C 
ATOM     59  C   UNL A   1      46.513  26.803  29.972  1.00  0.00     0.031 A 
BRANCH  46  60
ATOM     60  C   UNL A   1      44.250  32.358  31.415  1.00  0.00    -0.014 A 
ATOM     61  C   UNL A   1      44.129  32.674  32.777  1.00  0.00     0.009 A 
ATOM     62  C   UNL A   1      44.687  33.351  30.523  1.00  0.00     0.009 A 
ATOM     63  C   UNL A   1      44.410  33.965  33.231  1.00  0.00     0.001 A 
ATOM     64  C   UNL A   1      44.990  34.633  30.984  1.00  0.00     0.001 A 
ATOM     65  C   UNL A   1      44.843  34.942  32.336  1.00  0.00     0.000 A 
ENDBRANCH  46  60
BRANCH  47  66
ATOM     66  C   UNL A   1      42.114  23.406  27.589  1.00  0.00    -0.014 A 
ATOM     67  C   UNL A   1      41.589  22.360  28.361  1.00  0.00     0.009 A 
ATOM     68  C   UNL A   1      42.355  23.189  26.223  1.00  0.00     0.009 A 
ATOM     69  C   UNL A   1      41.332  21.115  27.783  1.00  0.00     0.001 A 
ATOM     70  C   UNL A   1      42.072  21.951  25.642  1.00  0.00     0.001 A 
ATOM     71  C   UNL A   1      41.569  20.913  26.424  1.00  0.00     0.000 A 
ENDBRANCH  47  66
BRANCH  59  72
ATOM     72  C   UNL A   1      47.920  26.295  30.106  1.00  0.00    -0.014 A 
ATOM     73  C   UNL A   1      48.823  26.370  29.035  1.00  0.00     0.009 A 
ATOM     74  C   UNL A   1      48.358  25.768  31.331  1.00  0.00     0.009 A 
ATOM     75  C   UNL A   1      50.131  25.902  29.180  1.00  0.00     0.001 A 
ATOM     76  C   UNL A   1      49.673  25.325  31.481  1.00  0.00     0.001 A 
ATOM     77  C   UNL A   1      50.554  25.385  30.403  1.00  0.00     0.000 A 
ENDBRANCH  59  72
ENDBRANCH  33  34
ENDBRANCH  25  28
ENDBRANCH  23  24
ENDBRANCH   1  23
TORSDOF 12
ENDMDL
MODEL 2
REMARK VINA RESULT:     -11.4      2.221      4.080
REMARK SMILES COc1ccc2c(c1)C=C(C(=O)NCCCNC(=O)c1ccc(-c3c4nc(c(-c5ccccc5)c5ccc([nH]5)c(-c5ccccc5)c5nc(c(-c6ccccc6)c6ccc3[nH]6)C=C5)C=C4)cc1)[C@H](C(F)(F)F)O2
REMARK SMILES IDX 15 1 14 2 13 3 11 4 12 5 10 7 3 8 4 9 8 10 5 11 7 12 6 13
REMARK SMILES IDX 9 14 73 15 68 16 2 17 1 18 69 19 70 20 71 21 72 22 16 23
REMARK SMILES IDX 17 24 18 25 19 27 20 28 21 29 67 30 22 31 66 32 23 33 24 34
REMARK SMILES IDX 25 35 60 36 26 37 65 38 59 39 61 40 27 41 64 42 58 43 57 44
REMARK SMILES IDX 28 46 50 47 35 48 49 49 36 50 39 51 48 52 62 53 37 54 38 55
REMARK SMILES IDX 47 57 63 58 40 59 29 60 30 61 34 62 31 63 33 64 32 65 51 66
REMARK SMILES IDX 52 67 56 68 53 69 55 70 54 71 41 72 42 73 46 74 43 75 45 76
REMARK SMILES IDX 44 77
REMARK H PARENT 13 6 17 26 61 45 39 56
REMARK Flexibility Score: inf
ROOT
ATOM      1  C   UNL A   1      33.690  28.719  25.647  1.00  0.00     0.042 C 
ENDROOT
BRANCH   1   2
ATOM      2  C   UNL A   1      33.692  27.274  25.137  1.00  0.00     0.118 C 
BRANCH   2   3
ATOM      3  N   UNL A   1      33.606  27.238  23.684  1.00  0.00    -0.352 N 
ATOM      4  C   UNL A   1      33.648  26.227  22.777  1.00  0.00     0.251 C 
ATOM      5  O   UNL A   1      33.675  26.524  21.585  1.00  0.00    -0.270 OA
ATOM      6  H   UNL A   1      33.495  28.126  23.276  1.00  0.00     0.163 HD
BRANCH   4   7
ATOM      7  C   UNL A   1      33.599  24.793  23.158  1.00  0.00     0.067 C 
ATOM      8  C   UNL A   1      35.516  20.697  24.840  1.00  0.00     0.119 A 
ATOM      9  C   UNL A   1      34.263  20.088  24.824  1.00  0.00     0.050 A 
ATOM     10  C   UNL A   1      35.662  22.019  24.425  1.00  0.00     0.058 A 
ATOM     11  C   UNL A   1      33.155  20.804  24.364  1.00  0.00     0.051 A 
ATOM     12  C   UNL A   1      34.554  22.732  23.959  1.00  0.00     0.021 A 
ATOM     13  C   UNL A   1      33.302  22.123  23.931  1.00  0.00     0.128 A 
ATOM     14  C   UNL A   1      34.683  24.129  23.583  1.00  0.00     0.025 C 
ATOM     15  O   UNL A   1      32.165  22.774  23.561  1.00  0.00    -0.475 OA
ATOM     16  C   UNL A   1      32.289  24.058  22.879  1.00  0.00     0.314 C 
BRANCH   8  17
ATOM     17  O   UNL A   1      36.629  20.085  25.347  1.00  0.00    -0.497 OA
ATOM     18  C   UNL A   1      37.828  20.769  24.993  1.00  0.00     0.278 C 
ENDBRANCH   8  17
BRANCH  16  19
ATOM     19  C   UNL A   1      30.991  24.850  23.165  1.00  0.00     0.429 C 
ATOM     20  F   UNL A   1      30.751  25.811  22.247  1.00  0.00    -0.167 F 
ATOM     21  F   UNL A   1      29.904  24.033  23.127  1.00  0.00    -0.167 F 
ATOM     22  F   UNL A   1      31.002  25.428  24.387  1.00  0.00    -0.167 F 
ENDBRANCH  16  19
ENDBRANCH   4   7
ENDBRANCH   2   3
ENDBRANCH   1   2
BRANCH   1  23
ATOM     23  C   UNL A   1      33.609  28.831  27.169  1.00  0.00     0.118 C 
BRANCH  23  24
ATOM     24  N   UNL A   1      33.645  30.215  27.617  1.00  0.00    -0.352 N 
ATOM     25  C   UNL A   1      34.609  30.893  28.322  1.00  0.00     0.251 C 
ATOM     26  H   UNL A   1      32.855  30.750  27.375  1.00  0.00     0.163 HD
ATOM     27  O   UNL A   1      34.348  31.996  28.791  1.00  0.00    -0.269 OA
BRANCH  25  28
ATOM     28  C   UNL A   1      35.951  30.307  28.536  1.00  0.00     0.039 A 
ATOM     29  C   UNL A   1      36.848  30.280  27.462  1.00  0.00     0.014 A 
ATOM     30  C   UNL A   1      36.313  29.736  29.759  1.00  0.00     0.014 A 
ATOM     31  C   UNL A   1      38.124  29.737  27.631  1.00  0.00     0.010 A 
ATOM     32  C   UNL A   1      37.606  29.244  29.944  1.00  0.00     0.010 A 
ATOM     33  C   UNL A   1      38.525  29.244  28.883  1.00  0.00    -0.014 A 
BRANCH  33  34
ATOM     34  C   UNL A   1      39.911  28.761  29.109  1.00  0.00     0.031 A 
ATOM     35  C   UNL A   1      40.969  29.683  29.649  1.00  0.00     0.074 A 
ATOM     36  C   UNL A   1      40.235  27.502  28.755  1.00  0.00     0.049 A 
ATOM     37  N   UNL A   1      42.243  29.453  29.840  1.00  0.00    -0.248 NA
ATOM     38  C   UNL A   1      40.544  31.047  30.002  1.00  0.00     0.031 C 
ATOM     39  C   UNL A   1      39.311  26.519  28.184  1.00  0.00     0.029 A 
ATOM     40  N   UNL A   1      41.434  26.838  28.809  1.00  0.00    -0.354 N 
ATOM     41  C   UNL A   1      42.777  30.645  30.315  1.00  0.00     0.074 A 
ATOM     42  C   UNL A   1      41.694  31.605  30.352  1.00  0.00     0.031 C 
ATOM     43  C   UNL A   1      39.975  25.375  27.954  1.00  0.00     0.029 A 
ATOM     44  C   UNL A   1      41.375  25.555  28.321  1.00  0.00     0.049 A 
ATOM     45  H   UNL A   1      42.260  27.242  29.164  1.00  0.00     0.167 HD
ATOM     46  C   UNL A   1      44.050  30.911  30.696  1.00  0.00     0.031 A 
ATOM     47  C   UNL A   1      42.341  24.630  28.169  1.00  0.00     0.031 A 
ATOM     48  C   UNL A   1      45.123  29.953  30.671  1.00  0.00     0.049 A 
ATOM     49  C   UNL A   1      43.747  24.957  28.585  1.00  0.00     0.074 A 
ATOM     50  C   UNL A   1      46.428  30.110  31.108  1.00  0.00     0.029 A 
ATOM     51  N   UNL A   1      45.021  28.664  30.174  1.00  0.00    -0.354 N 
ATOM     52  N   UNL A   1      44.217  26.065  29.104  1.00  0.00    -0.248 NA
ATOM     53  C   UNL A   1      44.755  23.903  28.397  1.00  0.00     0.031 C 
ATOM     54  C   UNL A   1      47.127  28.932  30.828  1.00  0.00     0.029 A 
ATOM     55  C   UNL A   1      46.247  28.026  30.261  1.00  0.00     0.049 A 
ATOM     56  H   UNL A   1      44.198  28.261  29.812  1.00  0.00     0.167 HD
ATOM     57  C   UNL A   1      45.570  25.837  29.320  1.00  0.00     0.074 A 
ATOM     58  C   UNL A   1      45.841  24.479  28.894  1.00  0.00     0.031 C 
ATOM     59  C   UNL A   1      46.504  26.679  29.824  1.00  0.00     0.031 A 
BRANCH  46  60
ATOM     60  C   UNL A   1      44.357  32.306  31.164  1.00  0.00    -0.014 A 
ATOM     61  C   UNL A   1      44.256  32.659  32.518  1.00  0.00     0.009 A 
ATOM     62  C   UNL A   1      44.803  33.268  30.243  1.00  0.00     0.009 A 
ATOM     63  C   UNL A   1      44.565  33.956  32.936  1.00  0.00     0.001 A 
ATOM     64  C   UNL A   1      45.134  34.556  30.668  1.00  0.00     0.001 A 
ATOM     65  C   UNL A   1      45.008  34.901  32.012  1.00  0.00     0.000 A 
ENDBRANCH  46  60
BRANCH  47  66
ATOM     66  C   UNL A   1      42.012  23.303  27.589  1.00  0.00    -0.014 A 
ATOM     67  C   UNL A   1      41.411  22.310  28.376  1.00  0.00     0.009 A 
ATOM     68  C   UNL A   1      42.299  23.023  26.244  1.00  0.00     0.009 A 
ATOM     69  C   UNL A   1      41.123  21.056  27.834  1.00  0.00     0.001 A 
ATOM     70  C   UNL A   1      41.986  21.777  25.697  1.00  0.00     0.001 A 
ATOM     71  C   UNL A   1      41.407  20.792  26.495  1.00  0.00     0.000 A 
ENDBRANCH  47  66
BRANCH  59  72
ATOM     72  C   UNL A   1      47.904  26.150  29.950  1.00  0.00    -0.014 A 
ATOM     73  C   UNL A   1      48.786  26.169  28.860  1.00  0.00     0.009 A 
ATOM     74  C   UNL A   1      48.356  25.661  31.185  1.00  0.00     0.009 A 
ATOM     75  C   UNL A   1      50.088  25.682  28.997  1.00  0.00     0.001 A 
ATOM     76  C   UNL A   1      49.666  25.199  31.326  1.00  0.00     0.001 A 
ATOM     77  C   UNL A   1      50.526  25.203  30.230  1.00  0.00     0.000 A 
ENDBRANCH  59  72
ENDBRANCH  33  34
ENDBRANCH  25  28
ENDBRANCH  23  24
ENDBRANCH   1  23
TORSDOF 12
ENDMDL
MODEL 3
REMARK VINA RESULT:     -11.3      3.911      8.665
REMARK SMILES COc1ccc2c(c1)C=C(C(=O)NCCCNC(=O)c1ccc(-c3c4nc(c(-c5ccccc5)c5ccc([nH]5)c(-c5ccccc5)c5nc(c(-c6ccccc6)c6ccc3[nH]6)C=C5)C=C4)cc1)[C@H](C(F)(F)F)O2
REMARK SMILES IDX 15 1 14 2 13 3 11 4 12 5 10 7 3 8 4 9 8 10 5 11 7 12 6 13
REMARK SMILES IDX 9 14 73 15 68 16 2 17 1 18 69 19 70 20 71 21 72 22 16 23
REMARK SMILES IDX 17 24 18 25 19 27 20 28 21 29 67 30 22 31 66 32 23 33 24 34
REMARK SMILES IDX 25 35 60 36 26 37 65 38 59 39 61 40 27 41 64 42 58 43 57 44
REMARK SMILES IDX 28 46 50 47 35 48 49 49 36 50 39 51 48 52 62 53 37 54 38 55
REMARK SMILES IDX 47 57 63 58 40 59 29 60 30 61 34 62 31 63 33 64 32 65 51 66
REMARK SMILES IDX 52 67 56 68 53 69 55 70 54 71 41 72 42 73 46 74 43 75 45 76
REMARK SMILES IDX 44 77
REMARK H PARENT 13 6 17 26 61 45 39 56
REMARK Flexibility Score: inf
ROOT
ATOM      1  C   UNL A   1      36.538  23.712  24.846  1.00  0.00     0.042 C 
ENDROOT
BRANCH   1   2
ATOM      2  C   UNL A   1      35.182  24.426  24.816  1.00  0.00     0.118 C 
BRANCH   2   3
ATOM      3  N   UNL A   1      34.383  24.066  25.978  1.00  0.00    -0.352 N 
ATOM      4  C   UNL A   1      33.465  23.091  26.208  1.00  0.00     0.251 C 
ATOM      5  O   UNL A   1      32.854  23.115  27.273  1.00  0.00    -0.270 OA
ATOM      6  H   UNL A   1      34.539  24.648  26.756  1.00  0.00     0.163 HD
BRANCH   4   7
ATOM      7  C   UNL A   1      33.218  21.972  25.263  1.00  0.00     0.067 C 
ATOM      8  C   UNL A   1      33.677  17.416  23.742  1.00  0.00     0.119 A 
ATOM      9  C   UNL A   1      32.758  17.651  22.720  1.00  0.00     0.050 A 
ATOM     10  C   UNL A   1      34.022  18.437  24.625  1.00  0.00     0.058 A 
ATOM     11  C   UNL A   1      32.202  18.924  22.572  1.00  0.00     0.051 A 
ATOM     12  C   UNL A   1      33.471  19.712  24.472  1.00  0.00     0.021 A 
ATOM     13  C   UNL A   1      32.561  19.952  23.446  1.00  0.00     0.128 A 
ATOM     14  C   UNL A   1      33.777  20.765  25.425  1.00  0.00     0.025 C 
ATOM     15  O   UNL A   1      31.927  21.146  23.277  1.00  0.00    -0.475 OA
ATOM     16  C   UNL A   1      32.432  22.310  23.997  1.00  0.00     0.314 C 
BRANCH   8  17
ATOM     17  O   UNL A   1      34.202  16.179  23.994  1.00  0.00    -0.497 OA
ATOM     18  C   UNL A   1      33.920  15.734  25.317  1.00  0.00     0.278 C 
ENDBRANCH   8  17
BRANCH  16  19
ATOM     19  C   UNL A   1      31.243  23.283  24.175  1.00  0.00     0.429 C 
ATOM     20  F   UNL A   1      30.394  23.272  23.124  1.00  0.00    -0.167 F 
ATOM     21  F   UNL A   1      30.490  22.938  25.253  1.00  0.00    -0.167 F 
ATOM     22  F   UNL A   1      31.649  24.558  24.375  1.00  0.00    -0.167 F 
ENDBRANCH  16  19
ENDBRANCH   4   7
ENDBRANCH   2   3
ENDBRANCH   1   2
BRANCH   1  23
ATOM     23  C   UNL A   1      36.830  23.009  26.172  1.00  0.00     0.118 C 
BRANCH  23  24
ATOM     24  N   UNL A   1      38.074  22.256  26.127  1.00  0.00    -0.352 N 
ATOM     25  C   UNL A   1      39.369  22.671  26.318  1.00  0.00     0.251 C 
ATOM     26  H   UNL A   1      37.972  21.296  25.928  1.00  0.00     0.163 HD
ATOM     27  O   UNL A   1      40.293  21.922  26.018  1.00  0.00    -0.269 OA
BRANCH  25  28
ATOM     28  C   UNL A   1      39.665  24.013  26.869  1.00  0.00     0.039 A 
ATOM     29  C   UNL A   1      39.293  24.291  28.189  1.00  0.00     0.014 A 
ATOM     30  C   UNL A   1      40.250  25.012  26.086  1.00  0.00     0.014 A 
ATOM     31  C   UNL A   1      39.562  25.546  28.741  1.00  0.00     0.010 A 
ATOM     32  C   UNL A   1      40.567  26.247  26.654  1.00  0.00     0.010 A 
ATOM     33  C   UNL A   1      40.231  26.524  27.988  1.00  0.00    -0.014 A 
BRANCH  33  34
ATOM     34  C   UNL A   1      40.618  27.825  28.590  1.00  0.00     0.031 A 
ATOM     35  C   UNL A   1      41.997  28.033  29.151  1.00  0.00     0.074 A 
ATOM     36  C   UNL A   1      39.694  28.801  28.699  1.00  0.00     0.049 A 
ATOM     37  N   UNL A   1      42.484  29.074  29.776  1.00  0.00    -0.248 NA
ATOM     38  C   UNL A   1      42.948  26.919  29.007  1.00  0.00     0.031 C 
ATOM     39  C   UNL A   1      38.310  28.712  28.230  1.00  0.00     0.029 A 
ATOM     40  N   UNL A   1      39.778  30.054  29.251  1.00  0.00    -0.354 N 
ATOM     41  C   UNL A   1      43.788  28.736  30.118  1.00  0.00     0.074 A 
ATOM     42  C   UNL A   1      44.004  27.380  29.660  1.00  0.00     0.031 C 
ATOM     43  C   UNL A   1      37.679  29.865  28.503  1.00  0.00     0.029 A 
ATOM     44  C   UNL A   1      38.599  30.757  29.200  1.00  0.00     0.049 A 
ATOM     45  H   UNL A   1      40.605  30.415  29.648  1.00  0.00     0.167 HD
ATOM     46  C   UNL A   1      44.721  29.490  30.748  1.00  0.00     0.031 A 
ATOM     47  C   UNL A   1      38.286  31.977  29.675  1.00  0.00     0.031 A 
ATOM     48  C   UNL A   1      44.510  30.841  31.193  1.00  0.00     0.049 A 
ATOM     49  C   UNL A   1      39.335  32.785  30.383  1.00  0.00     0.074 A 
ATOM     50  C   UNL A   1      45.420  31.710  31.773  1.00  0.00     0.029 A 
ATOM     51  N   UNL A   1      43.303  31.519  31.118  1.00  0.00    -0.354 N 
ATOM     52  N   UNL A   1      40.585  32.478  30.629  1.00  0.00    -0.248 NA
ATOM     53  C   UNL A   1      38.931  34.110  30.874  1.00  0.00     0.031 C 
ATOM     54  C   UNL A   1      44.750  32.894  32.095  1.00  0.00     0.029 A 
ATOM     55  C   UNL A   1      43.435  32.781  31.672  1.00  0.00     0.049 A 
ATOM     56  H   UNL A   1      42.475  31.156  30.729  1.00  0.00     0.167 HD
ATOM     57  C   UNL A   1      41.121  33.576  31.289  1.00  0.00     0.074 A 
ATOM     58  C   UNL A   1      40.066  34.564  31.386  1.00  0.00     0.031 C 
ATOM     59  C   UNL A   1      42.375  33.749  31.772  1.00  0.00     0.031 A 
BRANCH  46  60
ATOM     60  C   UNL A   1      46.063  28.862  31.006  1.00  0.00    -0.014 A 
ATOM     61  C   UNL A   1      46.318  28.146  32.185  1.00  0.00     0.009 A 
ATOM     62  C   UNL A   1      47.070  28.945  30.030  1.00  0.00     0.009 A 
ATOM     63  C   UNL A   1      47.564  27.553  32.397  1.00  0.00     0.001 A 
ATOM     64  C   UNL A   1      48.306  28.330  30.235  1.00  0.00     0.001 A 
ATOM     65  C   UNL A   1      48.556  27.642  31.421  1.00  0.00     0.000 A 
ENDBRANCH  46  60
BRANCH  47  66
ATOM     66  C   UNL A   1      36.910  32.508  29.502  1.00  0.00    -0.014 A 
ATOM     67  C   UNL A   1      36.565  33.234  28.353  1.00  0.00     0.009 A 
ATOM     68  C   UNL A   1      35.934  32.291  30.488  1.00  0.00     0.009 A 
ATOM     69  C   UNL A   1      35.277  33.752  28.203  1.00  0.00     0.001 A 
ATOM     70  C   UNL A   1      34.639  32.788  30.323  1.00  0.00     0.001 A 
ATOM     71  C   UNL A   1      34.314  33.524  29.185  1.00  0.00     0.000 A 
ENDBRANCH  47  66
BRANCH  59  72
ATOM     72  C   UNL A   1      42.675  35.059  32.442  1.00  0.00    -0.014 A 
ATOM     73  C   UNL A   1      42.329  35.283  33.783  1.00  0.00     0.009 A 
ATOM     74  C   UNL A   1      43.344  36.068  31.732  1.00  0.00     0.009 A 
ATOM     75  C   UNL A   1      42.623  36.504  34.393  1.00  0.00     0.001 A 
ATOM     76  C   UNL A   1      43.661  37.278  32.353  1.00  0.00     0.001 A 
ATOM     77  C   UNL A   1      43.293  37.497  33.679  1.00  0.00     0.000 A 
ENDBRANCH  59  72
ENDBRANCH  33  34
ENDBRANCH  25  28
ENDBRANCH  23  24
ENDBRANCH   1  23
TORSDOF 12
ENDMDL
