MODEL 1
REMARK VINA RESULT:     -11.3      0.000      0.000
REMARK SMILES Cc1cccc(C[C@H](CC(=O)NCCCNC(=O)c2ccc(-c3c4nc(c(-c5ccccc5)c5ccc([nH]5)c(-c5ccccc5)c5nc(c(-c6ccccc6)c6ccc3[nH]6)C=C5)C=C4)cc2)NC(=O)OC(C)(C)C)c1
REMARK SMILES IDX 13 1 12 2 10 3 11 4 9 6 8 7 7 8 6 9 1 10 2 11 3 12 75 13
REMARK SMILES IDX 4 14 5 15 67 16 68 17 69 19 70 20 71 21 72 22 73 23 74 24
REMARK SMILES IDX 14 25 15 26 16 27 17 28 18 30 19 31 20 32 66 33 21 34 65 35
REMARK SMILES IDX 22 36 23 37 24 38 59 39 25 40 64 41 58 42 60 43 26 44 63 45
REMARK SMILES IDX 57 46 56 47 27 49 49 50 34 51 48 52 35 53 38 54 47 55 61 56
REMARK SMILES IDX 36 57 37 58 46 60 62 61 39 62 28 63 29 64 33 65 30 66 32 67
REMARK SMILES IDX 31 68 50 69 51 70 55 71 52 72 54 73 53 74 40 75 41 76 45 77
REMARK SMILES IDX 42 78 44 79 43 80
REMARK H PARENT 12 5 67 18 16 29 60 48 38 59
REMARK Flexibility Score: inf
ROOT
ATOM      1  C   UNL A   1      37.618  21.248  25.330  1.00  0.00     0.117 C 
ENDROOT
BRANCH   1   2
ATOM      2  N   UNL A   1      37.101  21.959  24.172  1.00  0.00    -0.356 N 
ATOM      3  C   UNL A   1      36.065  22.834  24.042  1.00  0.00     0.222 C 
ATOM      4  O   UNL A   1      35.860  23.308  22.923  1.00  0.00    -0.275 OA
ATOM      5  H   UNL A   1      37.586  21.776  23.335  1.00  0.00     0.163 HD
BRANCH   3   6
ATOM      6  C   UNL A   1      35.172  23.224  25.212  1.00  0.00     0.125 C 
BRANCH   6   7
ATOM      7  C   UNL A   1      33.806  22.505  25.311  1.00  0.00     0.099 C 
BRANCH   7   8
ATOM      8  C   UNL A   1      33.973  20.977  25.574  1.00  0.00     0.061 C 
BRANCH   8   9
ATOM      9  C   UNL A   1      33.502  19.991  24.523  1.00  0.00    -0.046 A 
ATOM     10  C   UNL A   1      34.130  16.336  23.582  1.00  0.00     0.044 C 
ATOM     11  C   UNL A   1      33.586  17.733  23.578  1.00  0.00    -0.051 A 
ATOM     12  C   UNL A   1      32.628  18.098  22.629  1.00  0.00     0.003 A 
ATOM     13  C   UNL A   1      34.031  18.688  24.506  1.00  0.00     0.007 A 
ATOM     14  C   UNL A   1      32.057  19.364  22.668  1.00  0.00     0.001 A 
ATOM     15  C   UNL A   1      32.464  20.284  23.632  1.00  0.00     0.004 A 
ENDBRANCH   8   9
ENDBRANCH   7   8
BRANCH   7  16
ATOM     16  N   UNL A   1      33.004  23.216  26.305  1.00  0.00    -0.318 N 
ATOM     17  C   UNL A   1      31.809  23.847  26.238  1.00  0.00     0.407 C 
ATOM     18  H   UNL A   1      33.415  23.238  27.200  1.00  0.00     0.167 HD
ATOM     19  O   UNL A   1      31.345  24.316  27.264  1.00  0.00    -0.225 OA
BRANCH  17  20
ATOM     20  O   UNL A   1      31.248  23.855  25.014  1.00  0.00    -0.444 OA
BRANCH  20  21
ATOM     21  C   UNL A   1      31.363  25.059  24.214  1.00  0.00     0.106 C 
ATOM     22  C   UNL A   1      29.986  25.695  23.983  1.00  0.00     0.056 C 
ATOM     23  C   UNL A   1      32.357  26.060  24.822  1.00  0.00     0.056 C 
ATOM     24  C   UNL A   1      31.917  24.581  22.866  1.00  0.00     0.056 C 
ENDBRANCH  20  21
ENDBRANCH  17  20
ENDBRANCH   7  16
ENDBRANCH   6   7
ENDBRANCH   3   6
ENDBRANCH   1   2
BRANCH   1  25
ATOM     25  C   UNL A   1      38.968  21.793  25.786  1.00  0.00     0.042 C 
BRANCH  25  26
ATOM     26  C   UNL A   1      38.916  23.123  26.501  1.00  0.00     0.118 C 
BRANCH  26  27
ATOM     27  N   UNL A   1      40.116  23.376  27.286  1.00  0.00    -0.352 N 
ATOM     28  C   UNL A   1      40.619  24.555  27.801  1.00  0.00     0.251 C 
ATOM     29  H   UNL A   1      40.655  22.577  27.482  1.00  0.00     0.163 HD
ATOM     30  O   UNL A   1      41.721  24.551  28.342  1.00  0.00    -0.269 OA
BRANCH  28  31
ATOM     31  C   UNL A   1      39.744  25.750  27.915  1.00  0.00     0.039 A 
ATOM     32  C   UNL A   1      40.086  26.786  27.038  1.00  0.00     0.014 A 
ATOM     33  C   UNL A   1      39.095  26.026  29.110  1.00  0.00     0.014 A 
ATOM     34  C   UNL A   1      40.162  28.075  27.533  1.00  0.00     0.010 A 
ATOM     35  C   UNL A   1      39.317  27.260  29.661  1.00  0.00     0.010 A 
ATOM     36  C   UNL A   1      39.923  28.253  28.888  1.00  0.00    -0.014 A 
BRANCH  36  37
ATOM     37  C   UNL A   1      40.202  29.475  29.604  1.00  0.00     0.031 A 
ATOM     38  C   UNL A   1      39.114  30.459  29.649  1.00  0.00     0.074 A 
ATOM     39  C   UNL A   1      41.367  29.587  30.277  1.00  0.00     0.049 A 
ATOM     40  N   UNL A   1      39.275  31.713  29.858  1.00  0.00    -0.248 NA
ATOM     41  C   UNL A   1      37.724  30.094  29.374  1.00  0.00     0.031 C 
ATOM     42  C   UNL A   1      41.748  30.566  31.286  1.00  0.00     0.029 A 
ATOM     43  N   UNL A   1      42.548  28.897  30.013  1.00  0.00    -0.354 N 
ATOM     44  C   UNL A   1      38.024  32.248  30.065  1.00  0.00     0.074 A 
ATOM     45  C   UNL A   1      37.093  31.239  29.634  1.00  0.00     0.031 C 
ATOM     46  C   UNL A   1      43.092  30.598  31.378  1.00  0.00     0.029 A 
ATOM     47  C   UNL A   1      43.622  29.748  30.321  1.00  0.00     0.049 A 
ATOM     48  H   UNL A   1      42.617  27.976  29.672  1.00  0.00     0.167 HD
ATOM     49  C   UNL A   1      37.931  33.421  30.746  1.00  0.00     0.031 A 
ATOM     50  C   UNL A   1      44.440  30.191  29.316  1.00  0.00     0.031 A 
ATOM     51  C   UNL A   1      39.266  33.950  31.014  1.00  0.00     0.049 A 
ATOM     52  C   UNL A   1      44.267  31.675  29.069  1.00  0.00     0.074 A 
ATOM     53  C   UNL A   1      40.103  33.821  32.110  1.00  0.00     0.029 A 
ATOM     54  N   UNL A   1      40.065  34.336  29.943  1.00  0.00    -0.354 N 
ATOM     55  N   UNL A   1      43.172  32.335  29.339  1.00  0.00    -0.248 NA
ATOM     56  C   UNL A   1      45.323  32.532  28.535  1.00  0.00     0.031 C 
ATOM     57  C   UNL A   1      41.435  34.011  31.657  1.00  0.00     0.029 A 
ATOM     58  C   UNL A   1      41.399  34.296  30.301  1.00  0.00     0.049 A 
ATOM     59  H   UNL A   1      39.727  34.599  29.057  1.00  0.00     0.167 HD
ATOM     60  C   UNL A   1      43.372  33.663  29.081  1.00  0.00     0.074 A 
ATOM     61  C   UNL A   1      44.724  33.736  28.558  1.00  0.00     0.031 C 
ATOM     62  C   UNL A   1      42.432  34.621  29.331  1.00  0.00     0.031 A 
BRANCH  49  63
ATOM     63  C   UNL A   1      36.685  33.913  31.435  1.00  0.00    -0.014 A 
ATOM     64  C   UNL A   1      36.703  34.054  32.835  1.00  0.00     0.009 A 
ATOM     65  C   UNL A   1      35.460  34.191  30.805  1.00  0.00     0.009 A 
ATOM     66  C   UNL A   1      35.559  34.395  33.566  1.00  0.00     0.001 A 
ATOM     67  C   UNL A   1      34.304  34.516  31.531  1.00  0.00     0.001 A 
ATOM     68  C   UNL A   1      34.353  34.612  32.915  1.00  0.00     0.000 A 
ENDBRANCH  49  63
BRANCH  50  69
ATOM     69  C   UNL A   1      44.646  29.154  28.256  1.00  0.00    -0.014 A 
ATOM     70  C   UNL A   1      45.142  27.898  28.666  1.00  0.00     0.009 A 
ATOM     71  C   UNL A   1      43.954  29.231  27.039  1.00  0.00     0.009 A 
ATOM     72  C   UNL A   1      44.789  26.729  27.980  1.00  0.00     0.001 A 
ATOM     73  C   UNL A   1      43.626  28.058  26.344  1.00  0.00     0.001 A 
ATOM     74  C   UNL A   1      43.992  26.809  26.844  1.00  0.00     0.000 A 
ENDBRANCH  50  69
BRANCH  62  75
ATOM     75  C   UNL A   1      42.460  36.006  28.745  1.00  0.00    -0.014 A 
ATOM     76  C   UNL A   1      43.142  37.077  29.337  1.00  0.00     0.009 A 
ATOM     77  C   UNL A   1      41.920  36.223  27.460  1.00  0.00     0.009 A 
ATOM     78  C   UNL A   1      43.217  38.324  28.709  1.00  0.00     0.001 A 
ATOM     79  C   UNL A   1      42.044  37.448  26.804  1.00  0.00     0.001 A 
ATOM     80  C   UNL A   1      42.677  38.507  27.440  1.00  0.00     0.000 A 
ENDBRANCH  62  75
ENDBRANCH  36  37
ENDBRANCH  28  31
ENDBRANCH  26  27
ENDBRANCH  25  26
ENDBRANCH   1  25
TORSDOF 16
ENDMDL
MODEL 2
REMARK VINA RESULT:     -11.2      1.449      3.250
REMARK SMILES Cc1cccc(C[C@H](CC(=O)NCCCNC(=O)c2ccc(-c3c4nc(c(-c5ccccc5)c5ccc([nH]5)c(-c5ccccc5)c5nc(c(-c6ccccc6)c6ccc3[nH]6)C=C5)C=C4)cc2)NC(=O)OC(C)(C)C)c1
REMARK SMILES IDX 13 1 12 2 10 3 11 4 9 6 8 7 7 8 6 9 1 10 2 11 3 12 75 13
REMARK SMILES IDX 4 14 5 15 67 16 68 17 69 19 70 20 71 21 72 22 73 23 74 24
REMARK SMILES IDX 14 25 15 26 16 27 17 28 18 30 19 31 20 32 66 33 21 34 65 35
REMARK SMILES IDX 22 36 23 37 24 38 59 39 25 40 64 41 58 42 60 43 26 44 63 45
REMARK SMILES IDX 57 46 56 47 27 49 49 50 34 51 48 52 35 53 38 54 47 55 61 56
REMARK SMILES IDX 36 57 37 58 46 60 62 61 39 62 28 63 29 64 33 65 30 66 32 67
REMARK SMILES IDX 31 68 50 69 51 70 55 71 52 72 54 73 53 74 40 75 41 76 45 77
REMARK SMILES IDX 42 78 44 79 43 80
REMARK H PARENT 12 5 67 18 16 29 60 48 38 59
REMARK Flexibility Score: inf
ROOT
ATOM      1  C   UNL A   1      37.574  21.319  25.573  1.00  0.00     0.117 C 
ENDROOT
BRANCH   1   2
ATOM      2  N   UNL A   1      37.258  21.728  24.214  1.00  0.00    -0.356 N 
ATOM      3  C   UNL A   1      36.607  22.824  23.732  1.00  0.00     0.222 C 
ATOM      4  O   UNL A   1      36.497  22.926  22.509  1.00  0.00    -0.275 OA
ATOM      5  H   UNL A   1      37.571  21.104  23.521  1.00  0.00     0.163 HD
BRANCH   3   6
ATOM      6  C   UNL A   1      36.020  23.893  24.643  1.00  0.00     0.125 C 
BRANCH   6   7
ATOM      7  C   UNL A   1      34.483  24.068  24.605  1.00  0.00     0.099 C 
BRANCH   7   8
ATOM      8  C   UNL A   1      34.045  25.107  23.526  1.00  0.00     0.061 C 
BRANCH   8   9
ATOM      9  C   UNL A   1      33.724  26.525  23.953  1.00  0.00    -0.046 A 
ATOM     10  C   UNL A   1      34.051  28.682  27.096  1.00  0.00     0.044 C 
ATOM     11  C   UNL A   1      33.744  28.247  25.694  1.00  0.00    -0.051 A 
ATOM     12  C   UNL A   1      33.199  29.163  24.791  1.00  0.00     0.003 A 
ATOM     13  C   UNL A   1      33.985  26.929  25.275  1.00  0.00     0.007 A 
ATOM     14  C   UNL A   1      32.988  28.793  23.468  1.00  0.00     0.001 A 
ATOM     15  C   UNL A   1      33.287  27.499  23.049  1.00  0.00     0.004 A 
ENDBRANCH   8   9
ENDBRANCH   7   8
BRANCH   7  16
ATOM     16  N   UNL A   1      33.891  22.741  24.456  1.00  0.00    -0.318 N 
ATOM     17  C   UNL A   1      32.915  22.092  25.131  1.00  0.00     0.407 C 
ATOM     18  H   UNL A   1      34.280  22.216  23.719  1.00  0.00     0.167 HD
ATOM     19  O   UNL A   1      32.581  20.984  24.744  1.00  0.00    -0.225 OA
BRANCH  17  20
ATOM     20  O   UNL A   1      32.394  22.782  26.165  1.00  0.00    -0.444 OA
BRANCH  20  21
ATOM     21  C   UNL A   1      31.175  23.535  25.942  1.00  0.00     0.106 C 
ATOM     22  C   UNL A   1      31.289  24.946  26.534  1.00  0.00     0.056 C 
ATOM     23  C   UNL A   1      30.785  23.571  24.457  1.00  0.00     0.056 C 
ATOM     24  C   UNL A   1      30.094  22.765  26.711  1.00  0.00     0.056 C 
ENDBRANCH  20  21
ENDBRANCH  17  20
ENDBRANCH   7  16
ENDBRANCH   6   7
ENDBRANCH   3   6
ENDBRANCH   1   2
BRANCH   1  25
ATOM     25  C   UNL A   1      38.972  21.758  25.997  1.00  0.00     0.042 C 
BRANCH  25  26
ATOM     26  C   UNL A   1      39.091  23.202  26.424  1.00  0.00     0.118 C 
BRANCH  26  27
ATOM     27  N   UNL A   1      40.225  23.425  27.311  1.00  0.00    -0.352 N 
ATOM     28  C   UNL A   1      40.693  24.586  27.894  1.00  0.00     0.251 C 
ATOM     29  H   UNL A   1      40.741  22.616  27.529  1.00  0.00     0.163 HD
ATOM     30  O   UNL A   1      41.748  24.560  28.521  1.00  0.00    -0.269 OA
BRANCH  28  31
ATOM     31  C   UNL A   1      39.820  25.786  27.967  1.00  0.00     0.039 A 
ATOM     32  C   UNL A   1      40.177  26.801  27.071  1.00  0.00     0.014 A 
ATOM     33  C   UNL A   1      39.153  26.092  29.145  1.00  0.00     0.014 A 
ATOM     34  C   UNL A   1      40.250  28.101  27.537  1.00  0.00     0.010 A 
ATOM     35  C   UNL A   1      39.371  27.338  29.670  1.00  0.00     0.010 A 
ATOM     36  C   UNL A   1      39.991  28.310  28.884  1.00  0.00    -0.014 A 
BRANCH  36  37
ATOM     37  C   UNL A   1      40.263  29.548  29.575  1.00  0.00     0.031 A 
ATOM     38  C   UNL A   1      39.187  30.546  29.559  1.00  0.00     0.074 A 
ATOM     39  C   UNL A   1      41.407  29.664  30.281  1.00  0.00     0.049 A 
ATOM     40  N   UNL A   1      39.357  31.803  29.739  1.00  0.00    -0.248 NA
ATOM     41  C   UNL A   1      37.802  30.190  29.249  1.00  0.00     0.031 C 
ATOM     42  C   UNL A   1      41.769  30.666  31.276  1.00  0.00     0.029 A 
ATOM     43  N   UNL A   1      42.587  28.954  30.074  1.00  0.00    -0.354 N 
ATOM     44  C   UNL A   1      38.107  32.358  29.892  1.00  0.00     0.074 A 
ATOM     45  C   UNL A   1      37.177  31.349  29.458  1.00  0.00     0.031 C 
ATOM     46  C   UNL A   1      43.109  30.685  31.410  1.00  0.00     0.029 A 
ATOM     47  C   UNL A   1      43.662  29.800  30.393  1.00  0.00     0.049 A 
ATOM     48  H   UNL A   1      42.656  28.023  29.760  1.00  0.00     0.167 HD
ATOM     49  C   UNL A   1      38.008  33.551  30.537  1.00  0.00     0.031 A 
ATOM     50  C   UNL A   1      44.517  30.206  29.404  1.00  0.00     0.031 A 
ATOM     51  C   UNL A   1      39.340  34.071  30.833  1.00  0.00     0.049 A 
ATOM     52  C   UNL A   1      44.371  31.684  29.111  1.00  0.00     0.074 A 
ATOM     53  C   UNL A   1      40.140  33.962  31.959  1.00  0.00     0.029 A 
ATOM     54  N   UNL A   1      40.177  34.418  29.779  1.00  0.00    -0.354 N 
ATOM     55  N   UNL A   1      43.276  32.364  29.328  1.00  0.00    -0.248 NA
ATOM     56  C   UNL A   1      45.454  32.514  28.589  1.00  0.00     0.031 C 
ATOM     57  C   UNL A   1      41.488  34.123  31.544  1.00  0.00     0.029 A 
ATOM     58  C   UNL A   1      41.499  34.372  30.180  1.00  0.00     0.049 A 
ATOM     59  H   UNL A   1      39.871  34.661  28.875  1.00  0.00     0.167 HD
ATOM     60  C   UNL A   1      43.501  33.683  29.041  1.00  0.00     0.074 A 
ATOM     61  C   UNL A   1      44.870  33.725  28.560  1.00  0.00     0.031 C 
ATOM     62  C   UNL A   1      42.566  34.658  29.236  1.00  0.00     0.031 A 
BRANCH  49  63
ATOM     63  C   UNL A   1      36.746  34.076  31.173  1.00  0.00    -0.014 A 
ATOM     64  C   UNL A   1      36.804  34.530  32.503  1.00  0.00     0.009 A 
ATOM     65  C   UNL A   1      35.477  34.098  30.571  1.00  0.00     0.009 A 
ATOM     66  C   UNL A   1      35.661  34.927  33.207  1.00  0.00     0.001 A 
ATOM     67  C   UNL A   1      34.323  34.477  31.273  1.00  0.00     0.001 A 
ATOM     68  C   UNL A   1      34.415  34.887  32.596  1.00  0.00     0.000 A 
ENDBRANCH  49  63
BRANCH  50  69
ATOM     69  C   UNL A   1      44.744  29.138  28.379  1.00  0.00    -0.014 A 
ATOM     70  C   UNL A   1      45.083  27.851  28.849  1.00  0.00     0.009 A 
ATOM     71  C   UNL A   1      44.193  29.254  27.095  1.00  0.00     0.009 A 
ATOM     72  C   UNL A   1      44.705  26.706  28.137  1.00  0.00     0.001 A 
ATOM     73  C   UNL A   1      43.840  28.102  26.377  1.00  0.00     0.001 A 
ATOM     74  C   UNL A   1      44.041  26.834  26.923  1.00  0.00     0.000 A 
ENDBRANCH  50  69
BRANCH  62  75
ATOM     75  C   UNL A   1      42.631  36.026  28.613  1.00  0.00    -0.014 A 
ATOM     76  C   UNL A   1      42.011  36.347  27.399  1.00  0.00     0.009 A 
ATOM     77  C   UNL A   1      43.196  37.091  29.345  1.00  0.00     0.009 A 
ATOM     78  C   UNL A   1      42.020  37.655  26.904  1.00  0.00     0.001 A 
ATOM     79  C   UNL A   1      43.155  38.407  28.884  1.00  0.00     0.001 A 
ATOM     80  C   UNL A   1      42.584  38.686  27.650  1.00  0.00     0.000 A 
ENDBRANCH  62  75
ENDBRANCH  36  37
ENDBRANCH  28  31
ENDBRANCH  26  27
ENDBRANCH  25  26
ENDBRANCH   1  25
TORSDOF 16
ENDMDL
MODEL 3
REMARK VINA RESULT:     -11.1      2.396      3.944
REMARK SMILES Cc1cccc(C[C@H](CC(=O)NCCCNC(=O)c2ccc(-c3c4nc(c(-c5ccccc5)c5ccc([nH]5)c(-c5ccccc5)c5nc(c(-c6ccccc6)c6ccc3[nH]6)C=C5)C=C4)cc2)NC(=O)OC(C)(C)C)c1
REMARK SMILES IDX 13 1 12 2 10 3 11 4 9 6 8 7 7 8 6 9 1 10 2 11 3 12 75 13
REMARK SMILES IDX 4 14 5 15 67 16 68 17 69 19 70 20 71 21 72 22 73 23 74 24
REMARK SMILES IDX 14 25 15 26 16 27 17 28 18 30 19 31 20 32 66 33 21 34 65 35
REMARK SMILES IDX 22 36 23 37 24 38 59 39 25 40 64 41 58 42 60 43 26 44 63 45
REMARK SMILES IDX 57 46 56 47 27 49 49 50 34 51 48 52 35 53 38 54 47 55 61 56
REMARK SMILES IDX 36 57 37 58 46 60 62 61 39 62 28 63 29 64 33 65 30 66 32 67
REMARK SMILES IDX 31 68 50 69 51 70 55 71 52 72 54 73 53 74 40 75 41 76 45 77
REMARK SMILES IDX 42 78 44 79 43 80
REMARK H PARENT 12 5 67 18 16 29 60 48 38 59
REMARK Flexibility Score: inf
ROOT
ATOM      1  C   UNL A   1      37.977  21.991  25.626  1.00  0.00     0.117 C 
ENDROOT
BRANCH   1   2
ATOM      2  N   UNL A   1      37.380  22.321  24.342  1.00  0.00    -0.356 N 
ATOM      3  C   UNL A   1      36.207  22.939  24.027  1.00  0.00     0.222 C 
ATOM      4  O   UNL A   1      35.959  23.109  22.831  1.00  0.00    -0.275 OA
ATOM      5  H   UNL A   1      37.919  22.052  23.563  1.00  0.00     0.163 HD
BRANCH   3   6
ATOM      6  C   UNL A   1      35.218  23.405  25.085  1.00  0.00     0.125 C 
BRANCH   6   7
ATOM      7  C   UNL A   1      33.928  22.565  25.247  1.00  0.00     0.099 C 
BRANCH   7   8
ATOM      8  C   UNL A   1      34.246  21.055  25.479  1.00  0.00     0.061 C 
BRANCH   8   9
ATOM      9  C   UNL A   1      33.677  20.026  24.523  1.00  0.00    -0.046 A 
ATOM     10  C   UNL A   1      34.153  16.310  23.746  1.00  0.00     0.044 C 
ATOM     11  C   UNL A   1      33.641  17.719  23.703  1.00  0.00    -0.051 A 
ATOM     12  C   UNL A   1      32.623  18.055  22.808  1.00  0.00     0.003 A 
ATOM     13  C   UNL A   1      34.174  18.711  24.541  1.00  0.00     0.007 A 
ATOM     14  C   UNL A   1      32.084  19.336  22.817  1.00  0.00     0.001 A 
ATOM     15  C   UNL A   1      32.582  20.297  23.695  1.00  0.00     0.004 A 
ENDBRANCH   8   9
ENDBRANCH   7   8
BRANCH   7  16
ATOM     16  N   UNL A   1      33.122  23.191  26.292  1.00  0.00    -0.318 N 
ATOM     17  C   UNL A   1      31.928  23.827  26.272  1.00  0.00     0.407 C 
ATOM     18  H   UNL A   1      33.528  23.138  27.188  1.00  0.00     0.167 HD
ATOM     19  O   UNL A   1      31.458  24.210  27.331  1.00  0.00    -0.225 OA
BRANCH  17  20
ATOM     20  O   UNL A   1      31.373  23.938  25.049  1.00  0.00    -0.444 OA
BRANCH  20  21
ATOM     21  C   UNL A   1      31.464  25.214  24.368  1.00  0.00     0.106 C 
ATOM     22  C   UNL A   1      31.771  26.343  25.361  1.00  0.00     0.056 C 
ATOM     23  C   UNL A   1      32.479  25.180  23.216  1.00  0.00     0.056 C 
ATOM     24  C   UNL A   1      30.067  25.444  23.779  1.00  0.00     0.056 C 
ENDBRANCH  20  21
ENDBRANCH  17  20
ENDBRANCH   7  16
ENDBRANCH   6   7
ENDBRANCH   3   6
ENDBRANCH   1   2
BRANCH   1  25
ATOM     25  C   UNL A   1      38.676  23.188  26.262  1.00  0.00     0.042 C 
BRANCH  25  26
ATOM     26  C   UNL A   1      39.992  22.881  26.935  1.00  0.00     0.118 C 
BRANCH  26  27
ATOM     27  N   UNL A   1      40.642  21.707  26.369  1.00  0.00    -0.352 N 
ATOM     28  C   UNL A   1      41.982  21.398  26.240  1.00  0.00     0.251 C 
ATOM     29  H   UNL A   1      40.026  21.023  26.021  1.00  0.00     0.163 HD
ATOM     30  O   UNL A   1      42.309  20.392  25.617  1.00  0.00    -0.269 OA
BRANCH  28  31
ATOM     31  C   UNL A   1      42.995  22.133  27.040  1.00  0.00     0.039 A 
ATOM     32  C   UNL A   1      42.763  22.093  28.420  1.00  0.00     0.014 A 
ATOM     33  C   UNL A   1      43.696  23.190  26.477  1.00  0.00     0.014 A 
ATOM     34  C   UNL A   1      42.850  23.269  29.142  1.00  0.00     0.010 A 
ATOM     35  C   UNL A   1      43.633  24.391  27.132  1.00  0.00     0.010 A 
ATOM     36  C   UNL A   1      43.134  24.430  28.436  1.00  0.00    -0.014 A 
BRANCH  36  37
ATOM     37  C   UNL A   1      43.016  25.759  28.987  1.00  0.00     0.031 A 
ATOM     38  C   UNL A   1      41.811  26.508  28.612  1.00  0.00     0.074 A 
ATOM     39  C   UNL A   1      43.929  26.176  29.890  1.00  0.00     0.049 A 
ATOM     40  N   UNL A   1      41.709  27.785  28.644  1.00  0.00    -0.248 NA
ATOM     41  C   UNL A   1      40.620  25.847  28.078  1.00  0.00     0.031 C 
ATOM     42  C   UNL A   1      43.869  27.322  30.786  1.00  0.00     0.029 A 
ATOM     43  N   UNL A   1      45.232  25.706  30.031  1.00  0.00    -0.354 N 
ATOM     44  C   UNL A   1      40.378  28.084  28.458  1.00  0.00     0.074 A 
ATOM     45  C   UNL A   1      39.767  26.868  27.990  1.00  0.00     0.031 C 
ATOM     46  C   UNL A   1      45.118  27.629  31.188  1.00  0.00     0.029 A 
ATOM     47  C   UNL A   1      46.037  26.781  30.441  1.00  0.00     0.049 A 
ATOM     48  H   UNL A   1      45.536  24.782  29.871  1.00  0.00     0.167 HD
ATOM     49  C   UNL A   1      39.923  29.288  28.896  1.00  0.00     0.031 A 
ATOM     50  C   UNL A   1      47.009  27.255  29.600  1.00  0.00     0.031 A 
ATOM     51  C   UNL A   1      41.037  30.097  29.382  1.00  0.00     0.049 A 
ATOM     52  C   UNL A   1      46.672  28.635  29.080  1.00  0.00     0.074 A 
ATOM     53  C   UNL A   1      41.565  30.265  30.652  1.00  0.00     0.029 A 
ATOM     54  N   UNL A   1      42.017  30.503  28.484  1.00  0.00    -0.354 N 
ATOM     55  N   UNL A   1      45.453  29.095  28.970  1.00  0.00    -0.248 NA
ATOM     56  C   UNL A   1      47.679  29.615  28.679  1.00  0.00     0.031 C 
ATOM     57  C   UNL A   1      42.922  30.658  30.503  1.00  0.00     0.029 A 
ATOM     58  C   UNL A   1      43.199  30.769  29.149  1.00  0.00     0.049 A 
ATOM     59  H   UNL A   1      41.887  30.589  27.512  1.00  0.00     0.167 HD
ATOM     60  C   UNL A   1      45.498  30.397  28.553  1.00  0.00     0.074 A 
ATOM     61  C   UNL A   1      46.910  30.671  28.361  1.00  0.00     0.031 C 
ATOM     62  C   UNL A   1      44.385  31.174  28.413  1.00  0.00     0.031 A 
BRANCH  49  63
ATOM     63  C   UNL A   1      38.477  29.603  29.180  1.00  0.00    -0.014 A 
ATOM     64  C   UNL A   1      38.014  29.499  30.505  1.00  0.00     0.009 A 
ATOM     65  C   UNL A   1      37.510  29.938  28.216  1.00  0.00     0.009 A 
ATOM     66  C   UNL A   1      36.665  29.663  30.839  1.00  0.00     0.001 A 
ATOM     67  C   UNL A   1      36.153  30.086  28.540  1.00  0.00     0.001 A 
ATOM     68  C   UNL A   1      35.729  29.942  29.853  1.00  0.00     0.000 A 
ENDBRANCH  49  63
BRANCH  50  69
ATOM     69  C   UNL A   1      47.650  26.161  28.804  1.00  0.00    -0.014 A 
ATOM     70  C   UNL A   1      47.357  26.106  27.424  1.00  0.00     0.009 A 
ATOM     71  C   UNL A   1      48.821  25.539  29.260  1.00  0.00     0.009 A 
ATOM     72  C   UNL A   1      48.298  25.617  26.510  1.00  0.00     0.001 A 
ATOM     73  C   UNL A   1      49.748  25.029  28.340  1.00  0.00     0.001 A 
ATOM     74  C   UNL A   1      49.513  25.121  26.968  1.00  0.00     0.000 A 
ENDBRANCH  50  69
BRANCH  62  75
ATOM     75  C   UNL A   1      44.344  32.459  27.631  1.00  0.00    -0.014 A 
ATOM     76  C   UNL A   1      44.425  32.510  26.234  1.00  0.00     0.009 A 
ATOM     77  C   UNL A   1      44.049  33.665  28.301  1.00  0.00     0.009 A 
ATOM     78  C   UNL A   1      44.290  33.720  25.544  1.00  0.00     0.001 A 
ATOM     79  C   UNL A   1      43.854  34.862  27.612  1.00  0.00     0.001 A 
ATOM     80  C   UNL A   1      43.997  34.893  26.232  1.00  0.00     0.000 A 
ENDBRANCH  62  75
ENDBRANCH  36  37
ENDBRANCH  28  31
ENDBRANCH  26  27
ENDBRANCH  25  26
ENDBRANCH   1  25
TORSDOF 16
ENDMDL
