MODEL 1
REMARK VINA RESULT:     -10.6      0.000      0.000
REMARK SMILES CNC(=O)c1ccc(N(CCC(=O)NCCCNC(=O)c2ccc(-c3c4nc(c(-c5ccccc5)c5ccc([nH]5)c(-c5ccccc5)c5nc(c(-c6ccccc6)c6ccc3[nH]6)C=C5)C=C4)cc2)C2CC2)nn1
REMARK SMILES IDX 15 1 14 2 12 3 13 4 11 6 10 7 9 8 8 9 5 10 6 11 73 12 7 13
REMARK SMILES IDX 72 14 3 15 1 16 2 17 4 19 69 20 70 21 71 22 16 23 17 24
REMARK SMILES IDX 18 25 19 26 20 28 21 29 22 30 68 31 23 32 67 33 24 34 25 35
REMARK SMILES IDX 26 36 61 37 27 38 66 39 60 40 62 41 28 42 65 43 59 44 58 45
REMARK SMILES IDX 29 47 51 48 36 49 50 50 37 51 40 52 49 53 63 54 38 55 39 56
REMARK SMILES IDX 48 58 64 59 41 60 30 61 31 62 35 63 32 64 34 65 33 66 52 67
REMARK SMILES IDX 53 68 57 69 54 70 56 71 55 72 42 73 43 74 47 75 44 76 46 77
REMARK SMILES IDX 45 78
REMARK H PARENT 14 5 2 18 18 27 62 46 40 57
REMARK Flexibility Score: inf
ROOT
ATOM      1  C   UNL A   1      33.507  30.368  27.257  1.00  0.00     0.117 C 
ENDROOT
BRANCH   1   2
ATOM      2  N   UNL A   1      32.940  29.040  27.486  1.00  0.00    -0.356 N 
ATOM      3  C   UNL A   1      31.872  28.426  26.902  1.00  0.00     0.221 C 
ATOM      4  O   UNL A   1      31.269  27.576  27.561  1.00  0.00    -0.275 OA
ATOM      5  H   UNL A   1      33.402  28.504  28.170  1.00  0.00     0.163 HD
BRANCH   3   6
ATOM      6  C   UNL A   1      31.495  28.719  25.467  1.00  0.00     0.121 C 
BRANCH   6   7
ATOM      7  C   UNL A   1      31.811  27.542  24.538  1.00  0.00     0.128 C 
BRANCH   7   8
ATOM      8  N   UNL A   1      30.629  27.116  23.753  1.00  0.00    -0.352 N 
BRANCH   8   9
ATOM      9  C   UNL A   1      29.971  28.148  23.044  1.00  0.00     0.151 A 
ATOM     10  C   UNL A   1      28.745  30.252  21.747  1.00  0.00     0.150 A 
ATOM     11  C   UNL A   1      27.996  29.499  22.622  1.00  0.00     0.040 A 
ATOM     12  N   UNL A   1      30.035  29.975  21.486  1.00  0.00    -0.143 NA
ATOM     13  C   UNL A   1      28.622  28.431  23.257  1.00  0.00     0.051 A 
ATOM     14  N   UNL A   1      30.640  28.907  22.140  1.00  0.00    -0.132 NA
BRANCH  10  15
ATOM     15  C   UNL A   1      28.140  31.439  21.111  1.00  0.00     0.271 C 
ATOM     16  C   UNL A   1      28.948  32.962  22.974  1.00  0.00     0.143 C 
ATOM     17  N   UNL A   1      28.220  32.650  21.765  1.00  0.00    -0.354 N 
ATOM     18  H   UNL A   1      27.720  33.394  21.358  1.00  0.00     0.163 HD
ATOM     19  O   UNL A   1      27.510  31.331  20.068  1.00  0.00    -0.267 OA
ENDBRANCH  10  15
ENDBRANCH   8   9
BRANCH   8  20
ATOM     20  C   UNL A   1      30.016  25.838  24.170  1.00  0.00     0.084 C 
ATOM     21  C   UNL A   1      30.407  24.525  23.545  1.00  0.00     0.027 C 
ATOM     22  C   UNL A   1      30.603  24.751  25.016  1.00  0.00     0.027 C 
ENDBRANCH   8  20
ENDBRANCH   7   8
ENDBRANCH   6   7
ENDBRANCH   3   6
ENDBRANCH   1   2
BRANCH   1  23
ATOM     23  C   UNL A   1      32.377  31.378  27.439  1.00  0.00     0.042 C 
BRANCH  23  24
ATOM     24  C   UNL A   1      32.450  32.758  26.785  1.00  0.00     0.118 C 
BRANCH  24  25
ATOM     25  N   UNL A   1      32.314  33.933  27.615  1.00  0.00    -0.352 N 
ATOM     26  C   UNL A   1      33.163  34.473  28.561  1.00  0.00     0.251 C 
ATOM     27  H   UNL A   1      31.475  34.432  27.483  1.00  0.00     0.163 HD
ATOM     28  O   UNL A   1      32.815  35.538  29.077  1.00  0.00    -0.269 OA
BRANCH  26  29
ATOM     29  C   UNL A   1      34.436  33.830  29.034  1.00  0.00     0.039 A 
ATOM     30  C   UNL A   1      35.627  34.197  28.381  1.00  0.00     0.014 A 
ATOM     31  C   UNL A   1      34.530  32.878  30.050  1.00  0.00     0.014 A 
ATOM     32  C   UNL A   1      36.867  33.662  28.763  1.00  0.00     0.010 A 
ATOM     33  C   UNL A   1      35.777  32.423  30.503  1.00  0.00     0.010 A 
ATOM     34  C   UNL A   1      36.964  32.791  29.857  1.00  0.00    -0.014 A 
BRANCH  34  35
ATOM     35  C   UNL A   1      38.274  32.238  30.314  1.00  0.00     0.031 A 
ATOM     36  C   UNL A   1      38.803  30.941  29.748  1.00  0.00     0.074 A 
ATOM     37  C   UNL A   1      38.974  32.852  31.290  1.00  0.00     0.049 A 
ATOM     38  N   UNL A   1      39.869  30.258  30.090  1.00  0.00    -0.248 NA
ATOM     39  C   UNL A   1      38.010  30.316  28.679  1.00  0.00     0.031 C 
ATOM     40  C   UNL A   1      38.580  34.088  31.969  1.00  0.00     0.029 A 
ATOM     41  N   UNL A   1      40.162  32.509  31.892  1.00  0.00    -0.354 N 
ATOM     42  C   UNL A   1      39.853  29.110  29.305  1.00  0.00     0.074 A 
ATOM     43  C   UNL A   1      38.647  29.167  28.508  1.00  0.00     0.031 C 
ATOM     44  C   UNL A   1      39.515  34.408  32.877  1.00  0.00     0.029 A 
ATOM     45  C   UNL A   1      40.553  33.381  32.880  1.00  0.00     0.049 A 
ATOM     46  H   UNL A   1      40.682  31.712  31.640  1.00  0.00     0.167 HD
ATOM     47  C   UNL A   1      40.762  28.105  29.235  1.00  0.00     0.031 A 
ATOM     48  C   UNL A   1      41.615  33.359  33.709  1.00  0.00     0.031 A 
ATOM     49  C   UNL A   1      41.978  28.049  30.002  1.00  0.00     0.049 A 
ATOM     50  C   UNL A   1      42.618  32.244  33.611  1.00  0.00     0.074 A 
ATOM     51  C   UNL A   1      42.992  27.108  29.943  1.00  0.00     0.029 A 
ATOM     52  N   UNL A   1      42.344  28.968  30.972  1.00  0.00    -0.354 N 
ATOM     53  N   UNL A   1      42.617  31.201  32.818  1.00  0.00    -0.248 NA
ATOM     54  C   UNL A   1      43.775  32.311  34.517  1.00  0.00     0.031 C 
ATOM     55  C   UNL A   1      43.948  27.431  30.913  1.00  0.00     0.029 A 
ATOM     56  C   UNL A   1      43.555  28.603  31.537  1.00  0.00     0.049 A 
ATOM     57  H   UNL A   1      41.820  29.763  31.223  1.00  0.00     0.167 HD
ATOM     58  C   UNL A   1      43.778  30.498  33.115  1.00  0.00     0.074 A 
ATOM     59  C   UNL A   1      44.468  31.243  34.147  1.00  0.00     0.031 C 
ATOM     60  C   UNL A   1      44.231  29.340  32.574  1.00  0.00     0.031 A 
BRANCH  47  61
ATOM     61  C   UNL A   1      40.458  26.971  28.292  1.00  0.00    -0.014 A 
ATOM     62  C   UNL A   1      40.892  26.991  26.957  1.00  0.00     0.009 A 
ATOM     63  C   UNL A   1      39.730  25.860  28.750  1.00  0.00     0.009 A 
ATOM     64  C   UNL A   1      40.555  25.952  26.085  1.00  0.00     0.001 A 
ATOM     65  C   UNL A   1      39.425  24.807  27.886  1.00  0.00     0.001 A 
ATOM     66  C   UNL A   1      39.823  24.861  26.551  1.00  0.00     0.000 A 
ENDBRANCH  47  61
BRANCH  48  67
ATOM     67  C   UNL A   1      41.783  34.446  34.708  1.00  0.00    -0.014 A 
ATOM     68  C   UNL A   1      42.494  35.612  34.381  1.00  0.00     0.009 A 
ATOM     69  C   UNL A   1      41.209  34.336  35.984  1.00  0.00     0.009 A 
ATOM     70  C   UNL A   1      42.633  36.639  35.316  1.00  0.00     0.001 A 
ATOM     71  C   UNL A   1      41.328  35.376  36.907  1.00  0.00     0.001 A 
ATOM     72  C   UNL A   1      42.044  36.524  36.575  1.00  0.00     0.000 A 
ENDBRANCH  48  67
BRANCH  60  73
ATOM     73  C   UNL A   1      45.547  28.812  33.075  1.00  0.00    -0.014 A 
ATOM     74  C   UNL A   1      45.610  27.904  34.144  1.00  0.00     0.009 A 
ATOM     75  C   UNL A   1      46.739  29.198  32.441  1.00  0.00     0.009 A 
ATOM     76  C   UNL A   1      46.842  27.417  34.586  1.00  0.00     0.001 A 
ATOM     77  C   UNL A   1      47.967  28.689  32.869  1.00  0.00     0.001 A 
ATOM     78  C   UNL A   1      48.018  27.806  33.945  1.00  0.00     0.000 A 
ENDBRANCH  60  73
ENDBRANCH  34  35
ENDBRANCH  26  29
ENDBRANCH  24  25
ENDBRANCH  23  24
ENDBRANCH   1  23
TORSDOF 15
ENDMDL
MODEL 2
REMARK VINA RESULT:     -10.5      1.258      6.120
REMARK SMILES CNC(=O)c1ccc(N(CCC(=O)NCCCNC(=O)c2ccc(-c3c4nc(c(-c5ccccc5)c5ccc([nH]5)c(-c5ccccc5)c5nc(c(-c6ccccc6)c6ccc3[nH]6)C=C5)C=C4)cc2)C2CC2)nn1
REMARK SMILES IDX 15 1 14 2 12 3 13 4 11 6 10 7 9 8 8 9 5 10 6 11 73 12 7 13
REMARK SMILES IDX 72 14 3 15 1 16 2 17 4 19 69 20 70 21 71 22 16 23 17 24
REMARK SMILES IDX 18 25 19 26 20 28 21 29 22 30 68 31 23 32 67 33 24 34 25 35
REMARK SMILES IDX 26 36 61 37 27 38 66 39 60 40 62 41 28 42 65 43 59 44 58 45
REMARK SMILES IDX 29 47 51 48 36 49 50 50 37 51 40 52 49 53 63 54 38 55 39 56
REMARK SMILES IDX 48 58 64 59 41 60 30 61 31 62 35 63 32 64 34 65 33 66 52 67
REMARK SMILES IDX 53 68 57 69 54 70 56 71 55 72 42 73 43 74 47 75 44 76 46 77
REMARK SMILES IDX 45 78
REMARK H PARENT 14 5 2 18 18 27 62 46 40 57
REMARK Flexibility Score: inf
ROOT
ATOM      1  C   UNL A   1      33.467  30.163  27.140  1.00  0.00     0.117 C 
ENDROOT
BRANCH   1   2
ATOM      2  N   UNL A   1      33.569  29.749  25.741  1.00  0.00    -0.356 N 
ATOM      3  C   UNL A   1      33.746  28.510  25.201  1.00  0.00     0.221 C 
ATOM      4  O   UNL A   1      34.302  28.438  24.103  1.00  0.00    -0.275 OA
ATOM      5  H   UNL A   1      33.500  30.480  25.086  1.00  0.00     0.163 HD
BRANCH   3   6
ATOM      6  C   UNL A   1      33.200  27.277  25.886  1.00  0.00     0.121 C 
BRANCH   6   7
ATOM      7  C   UNL A   1      31.708  27.075  25.605  1.00  0.00     0.128 C 
BRANCH   7   8
ATOM      8  N   UNL A   1      31.392  27.182  24.162  1.00  0.00    -0.352 N 
BRANCH   8   9
ATOM      9  C   UNL A   1      30.483  28.209  23.816  1.00  0.00     0.151 A 
ATOM     10  C   UNL A   1      28.670  30.217  23.274  1.00  0.00     0.150 A 
ATOM     11  C   UNL A   1      28.334  28.926  22.938  1.00  0.00     0.040 A 
ATOM     12  N   UNL A   1      29.857  30.528  23.826  1.00  0.00    -0.143 NA
ATOM     13  C   UNL A   1      29.264  27.925  23.201  1.00  0.00     0.051 A 
ATOM     14  N   UNL A   1      30.766  29.508  24.087  1.00  0.00    -0.132 NA
BRANCH  10  15
ATOM     15  C   UNL A   1      27.682  31.297  23.081  1.00  0.00     0.271 C 
ATOM     16  C   UNL A   1      28.489  31.737  20.716  1.00  0.00     0.143 C 
ATOM     17  N   UNL A   1      27.695  31.998  21.895  1.00  0.00    -0.354 N 
ATOM     18  H   UNL A   1      27.089  32.773  21.844  1.00  0.00     0.163 HD
ATOM     19  O   UNL A   1      26.924  31.614  23.988  1.00  0.00    -0.267 OA
ENDBRANCH  10  15
ENDBRANCH   8   9
BRANCH   8  20
ATOM     20  C   UNL A   1      31.656  25.968  23.361  1.00  0.00     0.084 C 
ATOM     21  C   UNL A   1      31.860  26.024  21.870  1.00  0.00     0.027 C 
ATOM     22  C   UNL A   1      32.949  25.505  22.765  1.00  0.00     0.027 C 
ENDBRANCH   8  20
ENDBRANCH   7   8
ENDBRANCH   6   7
ENDBRANCH   3   6
ENDBRANCH   1   2
BRANCH   1  23
ATOM     23  C   UNL A   1      32.265  31.098  27.247  1.00  0.00     0.042 C 
BRANCH  23  24
ATOM     24  C   UNL A   1      32.287  32.478  26.590  1.00  0.00     0.118 C 
BRANCH  24  25
ATOM     25  N   UNL A   1      32.114  33.649  27.417  1.00  0.00    -0.352 N 
ATOM     26  C   UNL A   1      32.976  34.260  28.308  1.00  0.00     0.251 C 
ATOM     27  H   UNL A   1      31.236  34.085  27.332  1.00  0.00     0.163 HD
ATOM     28  O   UNL A   1      32.582  35.303  28.836  1.00  0.00    -0.269 OA
BRANCH  26  29
ATOM     29  C   UNL A   1      34.318  33.716  28.710  1.00  0.00     0.039 A 
ATOM     30  C   UNL A   1      34.372  32.922  29.870  1.00  0.00     0.014 A 
ATOM     31  C   UNL A   1      35.519  33.958  28.043  1.00  0.00     0.014 A 
ATOM     32  C   UNL A   1      35.577  32.356  30.315  1.00  0.00     0.010 A 
ATOM     33  C   UNL A   1      36.703  33.309  28.425  1.00  0.00     0.010 A 
ATOM     34  C   UNL A   1      36.757  32.513  29.577  1.00  0.00    -0.014 A 
BRANCH  34  35
ATOM     35  C   UNL A   1      38.046  31.890  30.002  1.00  0.00     0.031 A 
ATOM     36  C   UNL A   1      38.989  32.623  30.927  1.00  0.00     0.074 A 
ATOM     37  C   UNL A   1      38.421  30.690  29.512  1.00  0.00     0.049 A 
ATOM     38  N   UNL A   1      40.190  32.285  31.328  1.00  0.00    -0.248 NA
ATOM     39  C   UNL A   1      38.531  33.921  31.443  1.00  0.00     0.031 C 
ATOM     40  C   UNL A   1      37.644  29.874  28.577  1.00  0.00     0.029 A 
ATOM     41  N   UNL A   1      39.563  29.954  29.724  1.00  0.00    -0.354 N 
ATOM     42  C   UNL A   1      40.643  33.342  32.110  1.00  0.00     0.074 A 
ATOM     43  C   UNL A   1      39.606  34.351  32.085  1.00  0.00     0.031 C 
ATOM     44  C   UNL A   1      38.321  28.746  28.312  1.00  0.00     0.029 A 
ATOM     45  C   UNL A   1      39.597  28.774  29.019  1.00  0.00     0.049 A 
ATOM     46  H   UNL A   1      40.287  30.245  30.323  1.00  0.00     0.167 HD
ATOM     47  C   UNL A   1      41.802  33.463  32.802  1.00  0.00     0.031 A 
ATOM     48  C   UNL A   1      40.549  27.824  28.934  1.00  0.00     0.031 A 
ATOM     49  C   UNL A   1      42.830  32.457  32.857  1.00  0.00     0.049 A 
ATOM     50  C   UNL A   1      41.824  27.968  29.716  1.00  0.00     0.074 A 
ATOM     51  C   UNL A   1      44.004  32.462  33.592  1.00  0.00     0.029 A 
ATOM     52  N   UNL A   1      42.810  31.267  32.147  1.00  0.00    -0.354 N 
ATOM     53  N   UNL A   1      42.205  28.947  30.499  1.00  0.00    -0.248 NA
ATOM     54  C   UNL A   1      42.797  26.870  29.608  1.00  0.00     0.031 C 
ATOM     55  C   UNL A   1      44.718  31.298  33.286  1.00  0.00     0.029 A 
ATOM     56  C   UNL A   1      43.962  30.543  32.405  1.00  0.00     0.049 A 
ATOM     57  H   UNL A   1      42.084  30.980  31.548  1.00  0.00     0.167 HD
ATOM     58  C   UNL A   1      43.450  28.576  30.992  1.00  0.00     0.074 A 
ATOM     59  C   UNL A   1      43.752  27.275  30.434  1.00  0.00     0.031 C 
ATOM     60  C   UNL A   1      44.265  29.254  31.836  1.00  0.00     0.031 A 
BRANCH  47  61
ATOM     61  C   UNL A   1      42.022  34.751  33.553  1.00  0.00    -0.014 A 
ATOM     62  C   UNL A   1      42.759  35.808  32.994  1.00  0.00     0.009 A 
ATOM     63  C   UNL A   1      41.479  34.910  34.838  1.00  0.00     0.009 A 
ATOM     64  C   UNL A   1      42.995  36.973  33.728  1.00  0.00     0.001 A 
ATOM     65  C   UNL A   1      41.687  36.089  35.555  1.00  0.00     0.001 A 
ATOM     66  C   UNL A   1      42.458  37.113  35.007  1.00  0.00     0.000 A 
ENDBRANCH  47  61
BRANCH  48  67
ATOM     67  C   UNL A   1      40.319  26.637  28.069  1.00  0.00    -0.014 A 
ATOM     68  C   UNL A   1      40.873  26.575  26.780  1.00  0.00     0.009 A 
ATOM     69  C   UNL A   1      39.568  25.548  28.538  1.00  0.00     0.009 A 
ATOM     70  C   UNL A   1      40.671  25.451  25.978  1.00  0.00     0.001 A 
ATOM     71  C   UNL A   1      39.390  24.415  27.743  1.00  0.00     0.001 A 
ATOM     72  C   UNL A   1      39.937  24.369  26.463  1.00  0.00     0.000 A 
ENDBRANCH  48  67
BRANCH  60  73
ATOM     73  C   UNL A   1      45.559  28.595  32.226  1.00  0.00    -0.014 A 
ATOM     74  C   UNL A   1      46.741  28.823  31.503  1.00  0.00     0.009 A 
ATOM     75  C   UNL A   1      45.605  27.765  33.358  1.00  0.00     0.009 A 
ATOM     76  C   UNL A   1      47.935  28.209  31.889  1.00  0.00     0.001 A 
ATOM     77  C   UNL A   1      46.805  27.174  33.756  1.00  0.00     0.001 A 
ATOM     78  C   UNL A   1      47.967  27.389  33.017  1.00  0.00     0.000 A 
ENDBRANCH  60  73
ENDBRANCH  34  35
ENDBRANCH  26  29
ENDBRANCH  24  25
ENDBRANCH  23  24
ENDBRANCH   1  23
TORSDOF 15
ENDMDL
MODEL 3
REMARK VINA RESULT:     -10.5      5.417     10.126
REMARK SMILES CNC(=O)c1ccc(N(CCC(=O)NCCCNC(=O)c2ccc(-c3c4nc(c(-c5ccccc5)c5ccc([nH]5)c(-c5ccccc5)c5nc(c(-c6ccccc6)c6ccc3[nH]6)C=C5)C=C4)cc2)C2CC2)nn1
REMARK SMILES IDX 15 1 14 2 12 3 13 4 11 6 10 7 9 8 8 9 5 10 6 11 73 12 7 13
REMARK SMILES IDX 72 14 3 15 1 16 2 17 4 19 69 20 70 21 71 22 16 23 17 24
REMARK SMILES IDX 18 25 19 26 20 28 21 29 22 30 68 31 23 32 67 33 24 34 25 35
REMARK SMILES IDX 26 36 61 37 27 38 66 39 60 40 62 41 28 42 65 43 59 44 58 45
REMARK SMILES IDX 29 47 51 48 36 49 50 50 37 51 40 52 49 53 63 54 38 55 39 56
REMARK SMILES IDX 48 58 64 59 41 60 30 61 31 62 35 63 32 64 34 65 33 66 52 67
REMARK SMILES IDX 53 68 57 69 54 70 56 71 55 72 42 73 43 74 47 75 44 76 46 77
REMARK SMILES IDX 45 78
REMARK H PARENT 14 5 2 18 18 27 62 46 40 57
REMARK Flexibility Score: inf
ROOT
ATOM      1  C   UNL A   1      37.733  22.245  25.611  1.00  0.00     0.117 C 
ENDROOT
BRANCH   1   2
ATOM      2  N   UNL A   1      37.389  22.925  24.364  1.00  0.00    -0.356 N 
ATOM      3  C   UNL A   1      36.171  23.258  23.849  1.00  0.00     0.221 C 
ATOM      4  O   UNL A   1      36.070  23.343  22.624  1.00  0.00    -0.275 OA
ATOM      5  H   UNL A   1      38.157  23.184  23.807  1.00  0.00     0.163 HD
BRANCH   3   6
ATOM      6  C   UNL A   1      35.008  23.593  24.757  1.00  0.00     0.121 C 
BRANCH   6   7
ATOM      7  C   UNL A   1      33.670  23.127  24.173  1.00  0.00     0.128 C 
BRANCH   7   8
ATOM      8  N   UNL A   1      33.017  22.103  25.021  1.00  0.00    -0.352 N 
BRANCH   8   9
ATOM      9  C   UNL A   1      33.214  20.764  24.612  1.00  0.00     0.151 A 
ATOM     10  C   UNL A   1      33.517  18.111  23.916  1.00  0.00     0.150 A 
ATOM     11  C   UNL A   1      34.531  18.722  24.616  1.00  0.00     0.040 A 
ATOM     12  N   UNL A   1      32.407  18.773  23.539  1.00  0.00    -0.143 NA
ATOM     13  C   UNL A   1      34.373  20.065  24.946  1.00  0.00     0.051 A 
ATOM     14  N   UNL A   1      32.270  20.111  23.888  1.00  0.00    -0.132 NA
BRANCH  10  15
ATOM     15  C   UNL A   1      33.612  16.670  23.612  1.00  0.00     0.271 C 
ATOM     16  C   UNL A   1      32.357  16.049  25.729  1.00  0.00     0.143 C 
ATOM     17  N   UNL A   1      33.107  15.769  24.525  1.00  0.00    -0.354 N 
ATOM     18  H   UNL A   1      33.277  14.818  24.333  1.00  0.00     0.163 HD
ATOM     19  O   UNL A   1      34.199  16.283  22.611  1.00  0.00    -0.267 OA
ENDBRANCH  10  15
ENDBRANCH   8   9
BRANCH   8  20
ATOM     20  C   UNL A   1      31.896  22.588  25.853  1.00  0.00     0.084 C 
ATOM     21  C   UNL A   1      32.074  22.936  27.308  1.00  0.00     0.027 C 
ATOM     22  C   UNL A   1      31.619  23.980  26.330  1.00  0.00     0.027 C 
ENDBRANCH   8  20
ENDBRANCH   7   8
ENDBRANCH   6   7
ENDBRANCH   3   6
ENDBRANCH   1   2
BRANCH   1  23
ATOM     23  C   UNL A   1      38.897  21.305  25.306  1.00  0.00     0.042 C 
BRANCH  23  24
ATOM     24  C   UNL A   1      38.962  19.913  25.935  1.00  0.00     0.118 C 
BRANCH  24  25
ATOM     25  N   UNL A   1      40.175  19.140  25.799  1.00  0.00    -0.352 N 
ATOM     26  C   UNL A   1      41.476  19.430  26.166  1.00  0.00     0.251 C 
ATOM     27  H   UNL A   1      40.055  18.261  25.374  1.00  0.00     0.163 HD
ATOM     28  O   UNL A   1      42.314  18.543  25.987  1.00  0.00    -0.269 OA
BRANCH  26  29
ATOM     29  C   UNL A   1      41.937  20.752  26.711  1.00  0.00     0.039 A 
ATOM     30  C   UNL A   1      42.292  21.745  25.781  1.00  0.00     0.014 A 
ATOM     31  C   UNL A   1      42.068  21.066  28.064  1.00  0.00     0.014 A 
ATOM     32  C   UNL A   1      42.719  23.017  26.193  1.00  0.00     0.010 A 
ATOM     33  C   UNL A   1      42.392  22.366  28.478  1.00  0.00     0.010 A 
ATOM     34  C   UNL A   1      42.741  23.358  27.552  1.00  0.00    -0.014 A 
BRANCH  34  35
ATOM     35  C   UNL A   1      43.150  24.716  28.021  1.00  0.00     0.031 A 
ATOM     36  C   UNL A   1      42.114  25.776  28.311  1.00  0.00     0.074 A 
ATOM     37  C   UNL A   1      44.455  25.039  28.128  1.00  0.00     0.049 A 
ATOM     38  N   UNL A   1      42.281  27.036  28.633  1.00  0.00    -0.248 NA
ATOM     39  C   UNL A   1      40.705  25.373  28.192  1.00  0.00     0.031 C 
ATOM     40  C   UNL A   1      45.578  24.143  27.844  1.00  0.00     0.029 A 
ATOM     41  N   UNL A   1      45.059  26.221  28.491  1.00  0.00    -0.354 N 
ATOM     42  C   UNL A   1      41.004  27.580  28.718  1.00  0.00     0.074 A 
ATOM     43  C   UNL A   1      40.078  26.526  28.366  1.00  0.00     0.031 C 
ATOM     44  C   UNL A   1      46.729  24.799  28.061  1.00  0.00     0.029 A 
ATOM     45  C   UNL A   1      46.432  26.173  28.456  1.00  0.00     0.049 A 
ATOM     46  H   UNL A   1      44.554  27.025  28.751  1.00  0.00     0.167 HD
ATOM     47  C   UNL A   1      40.627  28.834  29.074  1.00  0.00     0.031 A 
ATOM     48  C   UNL A   1      47.356  27.124  28.698  1.00  0.00     0.031 A 
ATOM     49  C   UNL A   1      41.535  29.883  29.452  1.00  0.00     0.049 A 
ATOM     50  C   UNL A   1      46.921  28.505  29.101  1.00  0.00     0.074 A 
ATOM     51  C   UNL A   1      41.239  31.161  29.897  1.00  0.00     0.029 A 
ATOM     52  N   UNL A   1      42.917  29.781  29.426  1.00  0.00    -0.354 N 
ATOM     53  N   UNL A   1      45.708  28.980  29.237  1.00  0.00    -0.248 NA
ATOM     54  C   UNL A   1      47.986  29.477  29.393  1.00  0.00     0.031 C 
ATOM     55  C   UNL A   1      42.443  31.848  30.092  1.00  0.00     0.029 A 
ATOM     56  C   UNL A   1      43.488  30.980  29.822  1.00  0.00     0.049 A 
ATOM     57  H   UNL A   1      43.418  28.976  29.165  1.00  0.00     0.167 HD
ATOM     58  C   UNL A   1      45.862  30.299  29.648  1.00  0.00     0.074 A 
ATOM     59  C   UNL A   1      47.285  30.542  29.756  1.00  0.00     0.031 C 
ATOM     60  C   UNL A   1      44.905  31.222  29.915  1.00  0.00     0.031 A 
BRANCH  47  61
ATOM     61  C   UNL A   1      39.152  29.137  29.055  1.00  0.00    -0.014 A 
ATOM     62  C   UNL A   1      38.354  28.969  30.199  1.00  0.00     0.009 A 
ATOM     63  C   UNL A   1      38.551  29.603  27.875  1.00  0.00     0.009 A 
ATOM     64  C   UNL A   1      36.978  29.207  30.145  1.00  0.00     0.001 A 
ATOM     65  C   UNL A   1      37.182  29.874  27.833  1.00  0.00     0.001 A 
ATOM     66  C   UNL A   1      36.394  29.660  28.963  1.00  0.00     0.000 A 
ENDBRANCH  47  61
BRANCH  48  67
ATOM     67  C   UNL A   1      48.798  26.789  28.570  1.00  0.00    -0.014 A 
ATOM     68  C   UNL A   1      49.504  26.244  29.654  1.00  0.00     0.009 A 
ATOM     69  C   UNL A   1      49.469  26.985  27.353  1.00  0.00     0.009 A 
ATOM     70  C   UNL A   1      50.854  25.913  29.523  1.00  0.00     0.001 A 
ATOM     71  C   UNL A   1      50.811  26.629  27.218  1.00  0.00     0.001 A 
ATOM     72  C   UNL A   1      51.504  26.098  28.304  1.00  0.00     0.000 A 
ENDBRANCH  48  67
BRANCH  60  73
ATOM     73  C   UNL A   1      45.363  32.580  30.370  1.00  0.00    -0.014 A 
ATOM     74  C   UNL A   1      45.588  32.857  31.728  1.00  0.00     0.009 A 
ATOM     75  C   UNL A   1      45.613  33.584  29.421  1.00  0.00     0.009 A 
ATOM     76  C   UNL A   1      46.025  34.122  32.127  1.00  0.00     0.001 A 
ATOM     77  C   UNL A   1      46.075  34.840  29.822  1.00  0.00     0.001 A 
ATOM     78  C   UNL A   1      46.272  35.110  31.175  1.00  0.00     0.000 A 
ENDBRANCH  60  73
ENDBRANCH  34  35
ENDBRANCH  26  29
ENDBRANCH  24  25
ENDBRANCH  23  24
ENDBRANCH   1  23
TORSDOF 15
ENDMDL
