MODEL 1
REMARK VINA RESULT:     -11.5      0.000      0.000
REMARK SMILES O=C(NCCCNC(=O)[C@@H]1C=C[C@@H](NS(=O)(=O)c2ccc(F)c(F)c2F)C1)c1ccc(-c2c3nc(c(-c4ccccc4)c4ccc([nH]4)c(-c4ccccc4)c4nc(c(-c5ccccc5)c5ccc2[nH]5)C=C4)C=C3)cc1
REMARK SMILES IDX 5 1 4 2 3 3 1 4 2 5 28 7 29 8 75 9 30 10 74 11 31 12 32 13
REMARK SMILES IDX 33 14 68 15 34 16 73 17 67 18 69 19 35 20 72 21 66 22 65 23
REMARK SMILES IDX 36 25 58 26 43 27 57 28 44 29 47 30 56 31 70 32 45 33 46 34
REMARK SMILES IDX 55 36 71 37 48 38 37 39 38 40 42 41 39 42 41 43 40 44 59 45
REMARK SMILES IDX 60 46 64 47 61 48 63 49 62 50 49 51 50 52 54 53 51 54 53 55
REMARK SMILES IDX 52 56 6 57 7 58 8 59 9 61 10 62 11 63 27 64 12 65 13 66
REMARK SMILES IDX 14 67 15 69 16 70 17 71 18 72 19 73 25 74 20 75 23 76 26 77
REMARK SMILES IDX 21 78 24 79 22 80
REMARK H PARENT 3 6 69 24 47 35 7 60 14 68
REMARK Flexibility Score: inf
ROOT
ATOM      1  C   UNL A   1      31.406  31.956  26.571  1.00  0.00     0.042 C 
ENDROOT
BRANCH   1   2
ATOM      2  C   UNL A   1      32.722  32.595  27.010  1.00  0.00     0.118 C 
BRANCH   2   3
ATOM      3  N   UNL A   1      32.522  33.892  27.639  1.00  0.00    -0.352 N 
ATOM      4  O   UNL A   1      32.685  35.483  29.214  1.00  0.00    -0.269 OA
ATOM      5  C   UNL A   1      33.171  34.482  28.692  1.00  0.00     0.251 C 
ATOM      6  H   UNL A   1      31.803  34.436  27.241  1.00  0.00     0.163 HD
BRANCH   5   7
ATOM      7  C   UNL A   1      34.441  33.931  29.214  1.00  0.00     0.039 A 
ATOM      8  C   UNL A   1      34.462  33.029  30.282  1.00  0.00     0.014 A 
ATOM      9  C   UNL A   1      35.632  34.264  28.562  1.00  0.00     0.014 A 
ATOM     10  C   UNL A   1      35.677  32.546  30.765  1.00  0.00     0.010 A 
ATOM     11  C   UNL A   1      36.843  33.728  29.003  1.00  0.00     0.010 A 
ATOM     12  C   UNL A   1      36.877  32.882  30.123  1.00  0.00    -0.014 A 
BRANCH  12  13
ATOM     13  C   UNL A   1      38.164  32.311  30.588  1.00  0.00     0.031 A 
ATOM     14  C   UNL A   1      38.706  31.050  29.981  1.00  0.00     0.074 A 
ATOM     15  C   UNL A   1      38.828  32.914  31.592  1.00  0.00     0.049 A 
ATOM     16  N   UNL A   1      39.769  30.363  30.317  1.00  0.00    -0.248 NA
ATOM     17  C   UNL A   1      37.951  30.480  28.855  1.00  0.00     0.031 C 
ATOM     18  C   UNL A   1      38.404  34.142  32.268  1.00  0.00     0.029 A 
ATOM     19  N   UNL A   1      39.993  32.568  32.228  1.00  0.00    -0.354 N 
ATOM     20  C   UNL A   1      39.796  29.267  29.464  1.00  0.00     0.074 A 
ATOM     21  C   UNL A   1      38.634  29.372  28.607  1.00  0.00     0.031 C 
ATOM     22  C   UNL A   1      39.300  34.451  33.217  1.00  0.00     0.029 A 
ATOM     23  C   UNL A   1      40.329  33.417  33.253  1.00  0.00     0.049 A 
ATOM     24  H   UNL A   1      40.536  31.786  31.974  1.00  0.00     0.167 HD
ATOM     25  C   UNL A   1      40.706  28.266  29.402  1.00  0.00     0.031 A 
ATOM     26  C   UNL A   1      41.333  33.358  34.146  1.00  0.00     0.031 A 
ATOM     27  C   UNL A   1      41.859  28.164  30.255  1.00  0.00     0.049 A 
ATOM     28  C   UNL A   1      42.310  32.221  34.082  1.00  0.00     0.074 A 
ATOM     29  C   UNL A   1      42.860  27.208  30.241  1.00  0.00     0.029 A 
ATOM     30  N   UNL A   1      42.161  29.043  31.284  1.00  0.00    -0.354 N 
ATOM     31  N   UNL A   1      42.343  31.212  33.247  1.00  0.00    -0.248 NA
ATOM     32  C   UNL A   1      43.388  32.215  35.080  1.00  0.00     0.031 C 
ATOM     33  C   UNL A   1      43.743  27.483  31.292  1.00  0.00     0.029 A 
ATOM     34  C   UNL A   1      43.318  28.639  31.927  1.00  0.00     0.049 A 
ATOM     35  H   UNL A   1      41.630  29.838  31.521  1.00  0.00     0.167 HD
ATOM     36  C   UNL A   1      43.455  30.462  33.603  1.00  0.00     0.074 A 
ATOM     37  C   UNL A   1      44.074  31.136  34.727  1.00  0.00     0.031 C 
ATOM     38  C   UNL A   1      43.922  29.320  33.044  1.00  0.00     0.031 A 
BRANCH  25  39
ATOM     39  C   UNL A   1      40.462  27.178  28.394  1.00  0.00    -0.014 A 
ATOM     40  C   UNL A   1      39.683  26.053  28.706  1.00  0.00     0.009 A 
ATOM     41  C   UNL A   1      41.008  27.291  27.105  1.00  0.00     0.009 A 
ATOM     42  C   UNL A   1      39.489  25.044  27.760  1.00  0.00     0.001 A 
ATOM     43  C   UNL A   1      40.790  26.292  26.154  1.00  0.00     0.001 A 
ATOM     44  C   UNL A   1      40.040  25.165  26.485  1.00  0.00     0.000 A 
ENDBRANCH  25  39
BRANCH  26  45
ATOM     45  C   UNL A   1      41.441  34.411  35.187  1.00  0.00    -0.014 A 
ATOM     46  C   UNL A   1      42.184  35.575  34.949  1.00  0.00     0.009 A 
ATOM     47  C   UNL A   1      40.753  34.276  36.403  1.00  0.00     0.009 A 
ATOM     48  C   UNL A   1      42.241  36.584  35.914  1.00  0.00     0.001 A 
ATOM     49  C   UNL A   1      40.791  35.297  37.354  1.00  0.00     0.001 A 
ATOM     50  C   UNL A   1      41.538  36.447  37.111  1.00  0.00     0.000 A 
ENDBRANCH  26  45
BRANCH  38  51
ATOM     51  C   UNL A   1      45.184  28.740  33.613  1.00  0.00    -0.014 A 
ATOM     52  C   UNL A   1      46.443  29.128  33.132  1.00  0.00     0.009 A 
ATOM     53  C   UNL A   1      45.110  27.840  34.688  1.00  0.00     0.009 A 
ATOM     54  C   UNL A   1      47.605  28.609  33.706  1.00  0.00     0.001 A 
ATOM     55  C   UNL A   1      46.273  27.340  35.273  1.00  0.00     0.001 A 
ATOM     56  C   UNL A   1      47.520  27.720  34.779  1.00  0.00     0.000 A 
ENDBRANCH  38  51
ENDBRANCH  12  13
ENDBRANCH   5   7
ENDBRANCH   2   3
ENDBRANCH   1   2
BRANCH   1  57
ATOM     57  C   UNL A   1      31.556  30.525  26.064  1.00  0.00     0.117 C 
BRANCH  57  58
ATOM     58  N   UNL A   1      31.664  29.571  27.154  1.00  0.00    -0.356 N 
ATOM     59  C   UNL A   1      31.680  28.206  27.120  1.00  0.00     0.226 C 
ATOM     60  H   UNL A   1      31.738  29.968  28.053  1.00  0.00     0.163 HD
ATOM     61  O   UNL A   1      31.667  27.596  28.190  1.00  0.00    -0.274 OA
BRANCH  59  62
ATOM     62  C   UNL A   1      31.701  27.495  25.769  1.00  0.00     0.103 C 
ATOM     63  C   UNL A   1      30.565  26.526  25.658  1.00  0.00    -0.016 C 
ATOM     64  C   UNL A   1      32.935  26.592  25.614  1.00  0.00     0.042 C 
ATOM     65  C   UNL A   1      30.983  25.256  25.686  1.00  0.00    -0.011 C 
ATOM     66  C   UNL A   1      32.460  25.146  25.841  1.00  0.00     0.093 C 
BRANCH  66  67
ATOM     67  N   UNL A   1      33.016  24.291  24.811  1.00  0.00    -0.204 NA
ATOM     68  H   UNL A   1      33.946  24.662  24.617  1.00  0.00     0.142 HD
BRANCH  67  69
ATOM     69  S   UNL A   1      33.210  22.652  24.966  1.00  0.00     0.244 S 
ATOM     70  O   UNL A   1      32.587  22.250  26.208  1.00  0.00    -0.207 OA
ATOM     71  O   UNL A   1      32.809  22.070  23.704  1.00  0.00    -0.207 OA
BRANCH  69  72
ATOM     72  C   UNL A   1      34.934  22.345  25.135  1.00  0.00     0.121 A 
ATOM     73  C   UNL A   1      35.783  23.431  25.404  1.00  0.00     0.028 A 
ATOM     74  C   UNL A   1      35.454  21.066  24.986  1.00  0.00     0.181 A 
ATOM     75  C   UNL A   1      37.158  23.224  25.514  1.00  0.00     0.044 A 
ATOM     76  C   UNL A   1      36.828  20.869  25.080  1.00  0.00     0.195 A 
ATOM     77  F   UNL A   1      34.662  20.013  24.742  1.00  0.00    -0.202 F 
ATOM     78  C   UNL A   1      37.672  21.942  25.343  1.00  0.00     0.161 A 
ATOM     79  F   UNL A   1      37.340  19.641  24.911  1.00  0.00    -0.200 F 
ATOM     80  F   UNL A   1      38.995  21.753  25.433  1.00  0.00    -0.204 F 
ENDBRANCH  69  72
ENDBRANCH  67  69
ENDBRANCH  66  67
ENDBRANCH  59  62
ENDBRANCH  57  58
ENDBRANCH   1  57
TORSDOF 13
ENDMDL
MODEL 2
REMARK VINA RESULT:     -11.4      4.690      9.675
REMARK SMILES O=C(NCCCNC(=O)[C@@H]1C=C[C@@H](NS(=O)(=O)c2ccc(F)c(F)c2F)C1)c1ccc(-c2c3nc(c(-c4ccccc4)c4ccc([nH]4)c(-c4ccccc4)c4nc(c(-c5ccccc5)c5ccc2[nH]5)C=C4)C=C3)cc1
REMARK SMILES IDX 5 1 4 2 3 3 1 4 2 5 28 7 29 8 75 9 30 10 74 11 31 12 32 13
REMARK SMILES IDX 33 14 68 15 34 16 73 17 67 18 69 19 35 20 72 21 66 22 65 23
REMARK SMILES IDX 36 25 58 26 43 27 57 28 44 29 47 30 56 31 70 32 45 33 46 34
REMARK SMILES IDX 55 36 71 37 48 38 37 39 38 40 42 41 39 42 41 43 40 44 59 45
REMARK SMILES IDX 60 46 64 47 61 48 63 49 62 50 49 51 50 52 54 53 51 54 53 55
REMARK SMILES IDX 52 56 6 57 7 58 8 59 9 61 10 62 11 63 27 64 12 65 13 66
REMARK SMILES IDX 14 67 15 69 16 70 17 71 18 72 19 73 25 74 20 75 23 76 26 77
REMARK SMILES IDX 21 78 24 79 22 80
REMARK H PARENT 3 6 69 24 47 35 7 60 14 68
REMARK Flexibility Score: inf
ROOT
ATOM      1  C   UNL A   1      37.880  19.535  25.004  1.00  0.00     0.042 C 
ENDROOT
BRANCH   1   2
ATOM      2  C   UNL A   1      39.007  20.069  25.885  1.00  0.00     0.118 C 
BRANCH   2   3
ATOM      3  N   UNL A   1      40.145  19.162  25.935  1.00  0.00    -0.352 N 
ATOM      4  O   UNL A   1      42.295  18.525  25.867  1.00  0.00    -0.269 OA
ATOM      5  C   UNL A   1      41.482  19.417  26.093  1.00  0.00     0.251 C 
ATOM      6  H   UNL A   1      39.915  18.209  25.841  1.00  0.00     0.163 HD
BRANCH   5   7
ATOM      7  C   UNL A   1      41.961  20.749  26.523  1.00  0.00     0.039 A 
ATOM      8  C   UNL A   1      42.286  21.744  25.597  1.00  0.00     0.014 A 
ATOM      9  C   UNL A   1      42.006  21.032  27.892  1.00  0.00     0.014 A 
ATOM     10  C   UNL A   1      42.757  22.980  26.034  1.00  0.00     0.010 A 
ATOM     11  C   UNL A   1      42.414  22.293  28.330  1.00  0.00     0.010 A 
ATOM     12  C   UNL A   1      42.814  23.270  27.405  1.00  0.00    -0.014 A 
BRANCH  12  13
ATOM     13  C   UNL A   1      43.244  24.610  27.874  1.00  0.00     0.031 A 
ATOM     14  C   UNL A   1      42.230  25.657  28.232  1.00  0.00     0.074 A 
ATOM     15  C   UNL A   1      44.559  24.896  27.937  1.00  0.00     0.049 A 
ATOM     16  N   UNL A   1      42.421  26.905  28.579  1.00  0.00    -0.248 NA
ATOM     17  C   UNL A   1      40.817  25.252  28.186  1.00  0.00     0.031 C 
ATOM     18  C   UNL A   1      45.642  23.966  27.612  1.00  0.00     0.029 A 
ATOM     19  N   UNL A   1      45.205  26.054  28.285  1.00  0.00    -0.354 N 
ATOM     20  C   UNL A   1      41.154  27.443  28.766  1.00  0.00     0.074 A 
ATOM     21  C   UNL A   1      40.203  26.390  28.478  1.00  0.00     0.031 C 
ATOM     22  C   UNL A   1      46.818  24.587  27.784  1.00  0.00     0.029 A 
ATOM     23  C   UNL A   1      46.571  25.970  28.177  1.00  0.00     0.049 A 
ATOM     24  H   UNL A   1      44.736  26.867  28.583  1.00  0.00     0.167 HD
ATOM     25  C   UNL A   1      40.815  28.698  29.143  1.00  0.00     0.031 A 
ATOM     26  C   UNL A   1      47.522  26.907  28.343  1.00  0.00     0.031 A 
ATOM     27  C   UNL A   1      41.762  29.743  29.428  1.00  0.00     0.049 A 
ATOM     28  C   UNL A   1      47.123  28.302  28.726  1.00  0.00     0.074 A 
ATOM     29  C   UNL A   1      41.517  31.037  29.857  1.00  0.00     0.029 A 
ATOM     30  N   UNL A   1      43.137  29.618  29.303  1.00  0.00    -0.354 N 
ATOM     31  N   UNL A   1      45.923  28.785  28.935  1.00  0.00    -0.248 NA
ATOM     32  C   UNL A   1      48.207  29.278  28.900  1.00  0.00     0.031 C 
ATOM     33  C   UNL A   1      42.741  31.708  29.946  1.00  0.00     0.029 A 
ATOM     34  C   UNL A   1      43.752  30.817  29.622  1.00  0.00     0.049 A 
ATOM     35  H   UNL A   1      43.607  28.797  29.028  1.00  0.00     0.167 HD
ATOM     36  C   UNL A   1      46.107  30.116  29.285  1.00  0.00     0.074 A 
ATOM     37  C   UNL A   1      47.535  30.362  29.266  1.00  0.00     0.031 C 
ATOM     38  C   UNL A   1      45.174  31.047  29.598  1.00  0.00     0.031 A 
BRANCH  25  39
ATOM     39  C   UNL A   1      39.350  29.018  29.231  1.00  0.00    -0.014 A 
ATOM     40  C   UNL A   1      38.646  29.536  28.132  1.00  0.00     0.009 A 
ATOM     41  C   UNL A   1      38.658  28.779  30.429  1.00  0.00     0.009 A 
ATOM     42  C   UNL A   1      37.289  29.846  28.244  1.00  0.00     0.001 A 
ATOM     43  C   UNL A   1      37.295  29.066  30.530  1.00  0.00     0.001 A 
ATOM     44  C   UNL A   1      36.614  29.609  29.441  1.00  0.00     0.000 A 
ENDBRANCH  25  39
BRANCH  26  45
ATOM     45  C   UNL A   1      48.944  26.544  28.126  1.00  0.00    -0.014 A 
ATOM     46  C   UNL A   1      49.507  26.599  26.843  1.00  0.00     0.009 A 
ATOM     47  C   UNL A   1      49.759  26.192  29.215  1.00  0.00     0.009 A 
ATOM     48  C   UNL A   1      50.859  26.304  26.654  1.00  0.00     0.001 A 
ATOM     49  C   UNL A   1      51.115  25.922  29.025  1.00  0.00     0.001 A 
ATOM     50  C   UNL A   1      51.663  25.973  27.745  1.00  0.00     0.000 A 
ENDBRANCH  26  45
BRANCH  38  51
ATOM     51  C   UNL A   1      45.665  32.412  29.982  1.00  0.00    -0.014 A 
ATOM     52  C   UNL A   1      46.008  32.715  31.308  1.00  0.00     0.009 A 
ATOM     53  C   UNL A   1      45.844  33.388  28.990  1.00  0.00     0.009 A 
ATOM     54  C   UNL A   1      46.505  33.978  31.635  1.00  0.00     0.001 A 
ATOM     55  C   UNL A   1      46.361  34.642  29.316  1.00  0.00     0.001 A 
ATOM     56  C   UNL A   1      46.686  34.938  30.638  1.00  0.00     0.000 A 
ENDBRANCH  38  51
ENDBRANCH  12  13
ENDBRANCH   5   7
ENDBRANCH   2   3
ENDBRANCH   1   2
BRANCH   1  57
ATOM     57  C   UNL A   1      36.700  20.492  24.865  1.00  0.00     0.117 C 
BRANCH  57  58
ATOM     58  N   UNL A   1      37.015  21.621  24.006  1.00  0.00    -0.356 N 
ATOM     59  C   UNL A   1      36.218  22.648  23.589  1.00  0.00     0.226 C 
ATOM     60  H   UNL A   1      37.943  21.650  23.676  1.00  0.00     0.163 HD
ATOM     61  O   UNL A   1      36.674  23.441  22.764  1.00  0.00    -0.274 OA
BRANCH  59  62
ATOM     62  C   UNL A   1      34.802  22.766  24.148  1.00  0.00     0.103 C 
ATOM     63  C   UNL A   1      33.792  22.787  23.042  1.00  0.00    -0.016 C 
ATOM     64  C   UNL A   1      34.570  24.116  24.846  1.00  0.00     0.042 C 
ATOM     65  C   UNL A   1      33.222  23.989  22.906  1.00  0.00    -0.011 C 
ATOM     66  C   UNL A   1      33.758  24.987  23.873  1.00  0.00     0.093 C 
BRANCH  66  67
ATOM     67  N   UNL A   1      32.674  25.627  24.593  1.00  0.00    -0.204 NA
ATOM     68  H   UNL A   1      33.030  25.797  25.533  1.00  0.00     0.142 HD
BRANCH  67  69
ATOM     69  S   UNL A   1      31.953  27.044  24.122  1.00  0.00     0.244 S 
ATOM     70  O   UNL A   1      32.509  27.417  22.841  1.00  0.00    -0.207 OA
ATOM     71  O   UNL A   1      30.530  26.857  24.296  1.00  0.00    -0.207 OA
BRANCH  69  72
ATOM     72  C   UNL A   1      32.440  28.283  25.272  1.00  0.00     0.121 A 
ATOM     73  C   UNL A   1      33.538  28.024  26.109  1.00  0.00     0.028 A 
ATOM     74  C   UNL A   1      31.748  29.483  25.371  1.00  0.00     0.181 A 
ATOM     75  C   UNL A   1      33.930  28.975  27.051  1.00  0.00     0.044 A 
ATOM     76  C   UNL A   1      32.134  30.420  26.324  1.00  0.00     0.195 A 
ATOM     77  F   UNL A   1      30.706  29.758  24.575  1.00  0.00    -0.202 F 
ATOM     78  C   UNL A   1      33.218  30.166  27.158  1.00  0.00     0.161 A 
ATOM     79  F   UNL A   1      31.454  31.570  26.444  1.00  0.00    -0.200 F 
ATOM     80  F   UNL A   1      33.588  31.068  28.076  1.00  0.00    -0.204 F 
ENDBRANCH  69  72
ENDBRANCH  67  69
ENDBRANCH  66  67
ENDBRANCH  59  62
ENDBRANCH  57  58
ENDBRANCH   1  57
TORSDOF 13
ENDMDL
MODEL 3
REMARK VINA RESULT:     -11.3      3.879      8.984
REMARK SMILES O=C(NCCCNC(=O)[C@@H]1C=C[C@@H](NS(=O)(=O)c2ccc(F)c(F)c2F)C1)c1ccc(-c2c3nc(c(-c4ccccc4)c4ccc([nH]4)c(-c4ccccc4)c4nc(c(-c5ccccc5)c5ccc2[nH]5)C=C4)C=C3)cc1
REMARK SMILES IDX 5 1 4 2 3 3 1 4 2 5 28 7 29 8 75 9 30 10 74 11 31 12 32 13
REMARK SMILES IDX 33 14 68 15 34 16 73 17 67 18 69 19 35 20 72 21 66 22 65 23
REMARK SMILES IDX 36 25 58 26 43 27 57 28 44 29 47 30 56 31 70 32 45 33 46 34
REMARK SMILES IDX 55 36 71 37 48 38 37 39 38 40 42 41 39 42 41 43 40 44 59 45
REMARK SMILES IDX 60 46 64 47 61 48 63 49 62 50 49 51 50 52 54 53 51 54 53 55
REMARK SMILES IDX 52 56 6 57 7 58 8 59 9 61 10 62 11 63 27 64 12 65 13 66
REMARK SMILES IDX 14 67 15 69 16 70 17 71 18 72 19 73 25 74 20 75 23 76 26 77
REMARK SMILES IDX 21 78 24 79 22 80
REMARK H PARENT 3 6 69 24 47 35 7 60 14 68
REMARK Flexibility Score: inf
ROOT
ATOM      1  C   UNL A   1      37.758  19.442  24.942  1.00  0.00     0.042 C 
ENDROOT
BRANCH   1   2
ATOM      2  C   UNL A   1      38.897  20.144  25.678  1.00  0.00     0.118 C 
BRANCH   2   3
ATOM      3  N   UNL A   1      40.074  19.297  25.809  1.00  0.00    -0.352 N 
ATOM      4  O   UNL A   1      42.254  18.775  25.905  1.00  0.00    -0.269 OA
ATOM      5  C   UNL A   1      41.379  19.620  26.075  1.00  0.00     0.251 C 
ATOM      6  H   UNL A   1      39.904  18.335  25.686  1.00  0.00     0.163 HD
BRANCH   5   7
ATOM      7  C   UNL A   1      41.751  20.968  26.557  1.00  0.00     0.039 A 
ATOM      8  C   UNL A   1      42.215  21.955  25.683  1.00  0.00     0.014 A 
ATOM      9  C   UNL A   1      41.550  21.274  27.907  1.00  0.00     0.014 A 
ATOM     10  C   UNL A   1      42.579  23.208  26.172  1.00  0.00     0.010 A 
ATOM     11  C   UNL A   1      41.851  22.549  28.386  1.00  0.00     0.010 A 
ATOM     12  C   UNL A   1      42.390  23.520  27.526  1.00  0.00    -0.014 A 
BRANCH  12  13
ATOM     13  C   UNL A   1      42.706  24.876  28.037  1.00  0.00     0.031 A 
ATOM     14  C   UNL A   1      44.099  25.224  28.475  1.00  0.00     0.074 A 
ATOM     15  C   UNL A   1      41.719  25.787  28.144  1.00  0.00     0.049 A 
ATOM     16  N   UNL A   1      44.540  26.328  29.023  1.00  0.00    -0.248 NA
ATOM     17  C   UNL A   1      45.130  24.194  28.279  1.00  0.00     0.031 C 
ATOM     18  C   UNL A   1      40.324  25.570  27.757  1.00  0.00     0.029 A 
ATOM     19  N   UNL A   1      41.738  27.072  28.623  1.00  0.00    -0.354 N 
ATOM     20  C   UNL A   1      45.891  26.117  29.264  1.00  0.00     0.074 A 
ATOM     21  C   UNL A   1      46.194  24.773  28.816  1.00  0.00     0.031 C 
ATOM     22  C   UNL A   1      39.623  26.686  28.005  1.00  0.00     0.029 A 
ATOM     23  C   UNL A   1      40.504  27.674  28.617  1.00  0.00     0.049 A 
ATOM     24  H   UNL A   1      42.556  27.519  28.940  1.00  0.00     0.167 HD
ATOM     25  C   UNL A   1      46.796  26.965  29.807  1.00  0.00     0.031 A 
ATOM     26  C   UNL A   1      40.113  28.875  29.081  1.00  0.00     0.031 A 
ATOM     27  C   UNL A   1      46.493  28.299  30.253  1.00  0.00     0.049 A 
ATOM     28  C   UNL A   1      41.125  29.785  29.712  1.00  0.00     0.074 A 
ATOM     29  C   UNL A   1      47.351  29.249  30.780  1.00  0.00     0.029 A 
ATOM     30  N   UNL A   1      45.229  28.870  30.232  1.00  0.00    -0.354 N 
ATOM     31  N   UNL A   1      42.407  29.586  29.899  1.00  0.00    -0.248 NA
ATOM     32  C   UNL A   1      40.639  31.086  30.194  1.00  0.00     0.031 C 
ATOM     33  C   UNL A   1      46.598  30.378  31.121  1.00  0.00     0.029 A 
ATOM     34  C   UNL A   1      45.280  30.148  30.760  1.00  0.00     0.049 A 
ATOM     35  H   UNL A   1      44.417  28.430  29.892  1.00  0.00     0.167 HD
ATOM     36  C   UNL A   1      42.886  30.742  30.500  1.00  0.00     0.074 A 
ATOM     37  C   UNL A   1      41.758  31.641  30.641  1.00  0.00     0.031 C 
ATOM     38  C   UNL A   1      44.149  31.031  30.894  1.00  0.00     0.031 A 
BRANCH  25  39
ATOM     39  C   UNL A   1      48.197  26.453  29.985  1.00  0.00    -0.014 A 
ATOM     40  C   UNL A   1      49.174  26.632  28.992  1.00  0.00     0.009 A 
ATOM     41  C   UNL A   1      48.551  25.798  31.176  1.00  0.00     0.009 A 
ATOM     42  C   UNL A   1      50.464  26.128  29.171  1.00  0.00     0.001 A 
ATOM     43  C   UNL A   1      49.849  25.319  31.362  1.00  0.00     0.001 A 
ATOM     44  C   UNL A   1      50.802  25.474  30.356  1.00  0.00     0.000 A 
ENDBRANCH  25  39
BRANCH  26  45
ATOM     45  C   UNL A   1      38.686  29.264  28.974  1.00  0.00    -0.014 A 
ATOM     46  C   UNL A   1      38.166  29.744  27.763  1.00  0.00     0.009 A 
ATOM     47  C   UNL A   1      37.824  29.104  30.072  1.00  0.00     0.009 A 
ATOM     48  C   UNL A   1      36.809  30.061  27.656  1.00  0.00     0.001 A 
ATOM     49  C   UNL A   1      36.465  29.399  29.953  1.00  0.00     0.001 A 
ATOM     50  C   UNL A   1      35.960  29.881  28.747  1.00  0.00     0.000 A 
ENDBRANCH  26  45
BRANCH  38  51
ATOM     51  C   UNL A   1      44.392  32.390  31.484  1.00  0.00    -0.014 A 
ATOM     52  C   UNL A   1      44.321  32.604  32.869  1.00  0.00     0.009 A 
ATOM     53  C   UNL A   1      44.758  33.454  30.646  1.00  0.00     0.009 A 
ATOM     54  C   UNL A   1      44.595  33.866  33.400  1.00  0.00     0.001 A 
ATOM     55  C   UNL A   1      45.052  34.708  31.182  1.00  0.00     0.001 A 
ATOM     56  C   UNL A   1      44.965  34.915  32.557  1.00  0.00     0.000 A 
ENDBRANCH  38  51
ENDBRANCH  12  13
ENDBRANCH   5   7
ENDBRANCH   2   3
ENDBRANCH   1   2
BRANCH   1  57
ATOM     57  C   UNL A   1      36.441  20.211  24.968  1.00  0.00     0.117 C 
BRANCH  57  58
ATOM     58  N   UNL A   1      36.574  21.493  25.639  1.00  0.00    -0.356 N 
ATOM     59  C   UNL A   1      35.841  22.636  25.489  1.00  0.00     0.226 C 
ATOM     60  H   UNL A   1      37.302  21.546  26.301  1.00  0.00     0.163 HD
ATOM     61  O   UNL A   1      36.210  23.646  26.089  1.00  0.00    -0.274 OA
BRANCH  59  62
ATOM     62  C   UNL A   1      34.613  22.619  24.583  1.00  0.00     0.103 C 
ATOM     63  C   UNL A   1      34.692  23.704  23.555  1.00  0.00    -0.016 C 
ATOM     64  C   UNL A   1      33.328  22.971  25.351  1.00  0.00     0.042 C 
ATOM     65  C   UNL A   1      33.802  24.676  23.780  1.00  0.00    -0.011 C 
ATOM     66  C   UNL A   1      32.987  24.430  25.002  1.00  0.00     0.093 C 
BRANCH  66  67
ATOM     67  N   UNL A   1      31.574  24.533  24.697  1.00  0.00    -0.204 NA
ATOM     68  H   UNL A   1      31.173  23.628  24.943  1.00  0.00     0.142 HD
BRANCH  67  69
ATOM     69  S   UNL A   1      30.559  25.667  25.355  1.00  0.00     0.244 S 
ATOM     70  O   UNL A   1      29.580  26.018  24.351  1.00  0.00    -0.207 OA
ATOM     71  O   UNL A   1      30.158  25.158  26.647  1.00  0.00    -0.207 OA
BRANCH  69  72
ATOM     72  C   UNL A   1      31.519  27.110  25.660  1.00  0.00     0.121 A 
ATOM     73  C   UNL A   1      31.661  27.550  26.986  1.00  0.00     0.028 A 
ATOM     74  C   UNL A   1      32.109  27.814  24.618  1.00  0.00     0.181 A 
ATOM     75  C   UNL A   1      32.392  28.708  27.256  1.00  0.00     0.044 A 
ATOM     76  C   UNL A   1      32.822  28.976  24.893  1.00  0.00     0.195 A 
ATOM     77  F   UNL A   1      31.998  27.405  23.346  1.00  0.00    -0.202 F 
ATOM     78  C   UNL A   1      32.961  29.418  26.204  1.00  0.00     0.161 A 
ATOM     79  F   UNL A   1      33.372  29.675  23.890  1.00  0.00    -0.200 F 
ATOM     80  F   UNL A   1      33.647  30.537  26.468  1.00  0.00    -0.204 F 
ENDBRANCH  69  72
ENDBRANCH  67  69
ENDBRANCH  66  67
ENDBRANCH  59  62
ENDBRANCH  57  58
ENDBRANCH   1  57
TORSDOF 13
ENDMDL
