MODEL 1
REMARK VINA RESULT:     -11.8      0.000      0.000
REMARK SMILES O=C(NCCCNC(=O)[C@@H](NC(=O)c1cscn1)c1ccccc1C(F)(F)F)c1ccc(-c2c3nc(c(-c4ccccc4)c4ccc([nH]4)c(-c4ccccc4)c4nc(c(-c5ccccc5)c5ccc2[nH]5)C=C4)C=C3)cc1
REMARK SMILES IDX 5 1 4 2 3 3 1 4 2 5 29 7 30 8 76 9 31 10 75 11 32 12 33 13
REMARK SMILES IDX 34 14 69 15 35 16 74 17 68 18 70 19 36 20 73 21 67 22 66 23
REMARK SMILES IDX 37 25 59 26 44 27 58 28 45 29 48 30 57 31 71 32 46 33 47 34
REMARK SMILES IDX 56 36 72 37 49 38 38 39 39 40 43 41 40 42 42 43 41 44 60 45
REMARK SMILES IDX 61 46 65 47 62 48 64 49 63 50 50 51 51 52 55 53 52 54 54 55
REMARK SMILES IDX 53 56 6 57 7 58 8 59 9 61 10 62 11 63 12 64 13 66 14 67
REMARK SMILES IDX 15 68 18 69 16 70 17 71 19 72 20 73 24 74 21 75 23 76 22 77
REMARK SMILES IDX 25 78 26 79 27 80 28 81
REMARK H PARENT 3 6 70 24 48 35 7 60 11 65
REMARK Flexibility Score: inf
ROOT
ATOM      1  C   UNL A   1      31.186  31.476  26.137  1.00  0.00     0.042 C 
ENDROOT
BRANCH   1   2
ATOM      2  C   UNL A   1      32.393  32.006  26.898  1.00  0.00     0.118 C 
BRANCH   2   3
ATOM      3  N   UNL A   1      32.229  33.407  27.279  1.00  0.00    -0.352 N 
ATOM      4  O   UNL A   1      32.575  35.249  28.541  1.00  0.00    -0.269 OA
ATOM      5  C   UNL A   1      32.968  34.152  28.160  1.00  0.00     0.251 C 
ATOM      6  H   UNL A   1      31.483  33.881  26.842  1.00  0.00     0.163 HD
BRANCH   5   7
ATOM      7  C   UNL A   1      34.246  33.606  28.647  1.00  0.00     0.039 A 
ATOM      8  C   UNL A   1      34.258  32.802  29.790  1.00  0.00     0.014 A 
ATOM      9  C   UNL A   1      35.429  33.909  27.972  1.00  0.00     0.014 A 
ATOM     10  C   UNL A   1      35.468  32.416  30.341  1.00  0.00     0.010 A 
ATOM     11  C   UNL A   1      36.640  33.432  28.471  1.00  0.00     0.010 A 
ATOM     12  C   UNL A   1      36.666  32.697  29.667  1.00  0.00    -0.014 A 
BRANCH  12  13
ATOM     13  C   UNL A   1      37.922  32.105  30.174  1.00  0.00     0.031 A 
ATOM     14  C   UNL A   1      38.477  30.838  29.597  1.00  0.00     0.074 A 
ATOM     15  C   UNL A   1      38.556  32.746  31.175  1.00  0.00     0.049 A 
ATOM     16  N   UNL A   1      39.548  30.179  29.955  1.00  0.00    -0.248 NA
ATOM     17  C   UNL A   1      37.737  30.224  28.484  1.00  0.00     0.031 C 
ATOM     18  C   UNL A   1      38.093  33.986  31.809  1.00  0.00     0.029 A 
ATOM     19  N   UNL A   1      39.726  32.458  31.826  1.00  0.00    -0.354 N 
ATOM     20  C   UNL A   1      39.596  29.059  29.137  1.00  0.00     0.074 A 
ATOM     21  C   UNL A   1      38.442  29.121  28.266  1.00  0.00     0.031 C 
ATOM     22  C   UNL A   1      38.988  34.371  32.728  1.00  0.00     0.029 A 
ATOM     23  C   UNL A   1      40.042  33.370  32.803  1.00  0.00     0.049 A 
ATOM     24  H   UNL A   1      40.284  31.676  31.614  1.00  0.00     0.167 HD
ATOM     25  C   UNL A   1      40.520  28.070  29.125  1.00  0.00     0.031 A 
ATOM     26  C   UNL A   1      41.050  33.381  33.692  1.00  0.00     0.031 A 
ATOM     27  C   UNL A   1      41.671  28.031  29.990  1.00  0.00     0.049 A 
ATOM     28  C   UNL A   1      42.034  32.253  33.674  1.00  0.00     0.074 A 
ATOM     29  C   UNL A   1      42.700  27.107  30.011  1.00  0.00     0.029 A 
ATOM     30  N   UNL A   1      41.938  28.952  30.991  1.00  0.00    -0.354 N 
ATOM     31  N   UNL A   1      42.092  31.226  32.861  1.00  0.00    -0.248 NA
ATOM     32  C   UNL A   1      43.083  32.277  34.700  1.00  0.00     0.031 C 
ATOM     33  C   UNL A   1      43.560  27.437  31.063  1.00  0.00     0.029 A 
ATOM     34  C   UNL A   1      43.092  28.594  31.665  1.00  0.00     0.049 A 
ATOM     35  H   UNL A   1      41.387  29.743  31.193  1.00  0.00     0.167 HD
ATOM     36  C   UNL A   1      43.185  30.480  33.276  1.00  0.00     0.074 A 
ATOM     37  C   UNL A   1      43.776  31.189  34.394  1.00  0.00     0.031 C 
ATOM     38  C   UNL A   1      43.652  29.309  32.781  1.00  0.00     0.031 A 
BRANCH  25  39
ATOM     39  C   UNL A   1      40.315  26.925  28.175  1.00  0.00    -0.014 A 
ATOM     40  C   UNL A   1      40.888  26.921  26.894  1.00  0.00     0.009 A 
ATOM     41  C   UNL A   1      39.594  25.798  28.599  1.00  0.00     0.009 A 
ATOM     42  C   UNL A   1      40.728  25.818  26.052  1.00  0.00     0.001 A 
ATOM     43  C   UNL A   1      39.452  24.688  27.764  1.00  0.00     0.001 A 
ATOM     44  C   UNL A   1      40.016  24.702  26.489  1.00  0.00     0.000 A 
ENDBRANCH  25  39
BRANCH  26  45
ATOM     45  C   UNL A   1      41.132  34.467  34.699  1.00  0.00    -0.014 A 
ATOM     46  C   UNL A   1      41.885  35.623  34.448  1.00  0.00     0.009 A 
ATOM     47  C   UNL A   1      40.431  34.361  35.912  1.00  0.00     0.009 A 
ATOM     48  C   UNL A   1      41.948  36.643  35.402  1.00  0.00     0.001 A 
ATOM     49  C   UNL A   1      40.471  35.394  36.848  1.00  0.00     0.001 A 
ATOM     50  C   UNL A   1      41.238  36.530  36.596  1.00  0.00     0.000 A 
ENDBRANCH  26  45
BRANCH  38  51
ATOM     51  C   UNL A   1      44.864  28.733  33.449  1.00  0.00    -0.014 A 
ATOM     52  C   UNL A   1      44.738  27.890  34.565  1.00  0.00     0.009 A 
ATOM     53  C   UNL A   1      46.140  29.011  32.940  1.00  0.00     0.009 A 
ATOM     54  C   UNL A   1      45.874  27.356  35.173  1.00  0.00     0.001 A 
ATOM     55  C   UNL A   1      47.273  28.456  33.537  1.00  0.00     0.001 A 
ATOM     56  C   UNL A   1      47.139  27.635  34.656  1.00  0.00     0.000 A 
ENDBRANCH  38  51
ENDBRANCH  12  13
ENDBRANCH   5   7
ENDBRANCH   2   3
ENDBRANCH   1   2
BRANCH   1  57
ATOM     57  C   UNL A   1      31.421  30.062  25.643  1.00  0.00     0.117 C 
BRANCH  57  58
ATOM     58  N   UNL A   1      31.398  29.994  24.201  1.00  0.00    -0.354 N 
ATOM     59  C   UNL A   1      30.784  29.105  23.377  1.00  0.00     0.247 C 
ATOM     60  H   UNL A   1      31.908  30.701  23.744  1.00  0.00     0.163 HD
ATOM     61  O   UNL A   1      31.031  29.208  22.170  1.00  0.00    -0.272 OA
BRANCH  59  62
ATOM     62  C   UNL A   1      29.916  27.950  23.900  1.00  0.00     0.203 C 
BRANCH  62  63
ATOM     63  N   UNL A   1      28.623  27.999  23.163  1.00  0.00    -0.335 N 
ATOM     64  C   UNL A   1      27.673  28.981  23.003  1.00  0.00     0.271 C 
ATOM     65  H   UNL A   1      28.405  27.160  22.696  1.00  0.00     0.165 HD
ATOM     66  O   UNL A   1      26.493  28.654  23.137  1.00  0.00    -0.267 OA
BRANCH  64  67
ATOM     67  C   UNL A   1      28.035  30.358  22.661  1.00  0.00     0.139 A 
ATOM     68  C   UNL A   1      28.131  31.377  23.598  1.00  0.00     0.100 A 
ATOM     69  N   UNL A   1      28.151  30.801  21.349  1.00  0.00    -0.240 NA
ATOM     70  S   UNL A   1      28.556  32.856  22.846  1.00  0.00    -0.130 S 
ATOM     71  C   UNL A   1      28.452  32.080  21.325  1.00  0.00     0.176 A 
ENDBRANCH  64  67
ENDBRANCH  62  63
BRANCH  62  72
ATOM     72  C   UNL A   1      30.522  26.593  24.256  1.00  0.00    -0.004 A 
ATOM     73  C   UNL A   1      30.366  26.235  25.619  1.00  0.00     0.007 A 
ATOM     74  C   UNL A   1      31.298  25.709  23.461  1.00  0.00     0.061 A 
ATOM     75  C   UNL A   1      30.757  24.997  26.129  1.00  0.00     0.000 A 
ATOM     76  C   UNL A   1      31.606  24.422  23.976  1.00  0.00     0.013 A 
ATOM     77  C   UNL A   1      31.329  24.063  25.288  1.00  0.00     0.001 A 
BRANCH  74  78
ATOM     78  C   UNL A   1      31.941  25.989  22.114  1.00  0.00     0.416 C 
ATOM     79  F   UNL A   1      32.512  24.869  21.573  1.00  0.00    -0.166 F 
ATOM     80  F   UNL A   1      31.052  26.404  21.175  1.00  0.00    -0.166 F 
ATOM     81  F   UNL A   1      32.945  26.898  22.141  1.00  0.00    -0.166 F 
ENDBRANCH  74  78
ENDBRANCH  62  72
ENDBRANCH  59  62
ENDBRANCH  57  58
ENDBRANCH   1  57
TORSDOF 14
ENDMDL
MODEL 2
REMARK VINA RESULT:     -11.8      0.658      5.901
REMARK SMILES O=C(NCCCNC(=O)[C@@H](NC(=O)c1cscn1)c1ccccc1C(F)(F)F)c1ccc(-c2c3nc(c(-c4ccccc4)c4ccc([nH]4)c(-c4ccccc4)c4nc(c(-c5ccccc5)c5ccc2[nH]5)C=C4)C=C3)cc1
REMARK SMILES IDX 5 1 4 2 3 3 1 4 2 5 29 7 30 8 76 9 31 10 75 11 32 12 33 13
REMARK SMILES IDX 34 14 69 15 35 16 74 17 68 18 70 19 36 20 73 21 67 22 66 23
REMARK SMILES IDX 37 25 59 26 44 27 58 28 45 29 48 30 57 31 71 32 46 33 47 34
REMARK SMILES IDX 56 36 72 37 49 38 38 39 39 40 43 41 40 42 42 43 41 44 60 45
REMARK SMILES IDX 61 46 65 47 62 48 64 49 63 50 50 51 51 52 55 53 52 54 54 55
REMARK SMILES IDX 53 56 6 57 7 58 8 59 9 61 10 62 11 63 12 64 13 66 14 67
REMARK SMILES IDX 15 68 18 69 16 70 17 71 19 72 20 73 24 74 21 75 23 76 22 77
REMARK SMILES IDX 25 78 26 79 27 80 28 81
REMARK H PARENT 3 6 70 24 48 35 7 60 11 65
REMARK Flexibility Score: inf
ROOT
ATOM      1  C   UNL A   1      31.342  31.268  26.109  1.00  0.00     0.042 C 
ENDROOT
BRANCH   1   2
ATOM      2  C   UNL A   1      32.457  31.756  27.022  1.00  0.00     0.118 C 
BRANCH   2   3
ATOM      3  N   UNL A   1      32.288  33.158  27.394  1.00  0.00    -0.352 N 
ATOM      4  O   UNL A   1      32.661  35.021  28.619  1.00  0.00    -0.269 OA
ATOM      5  C   UNL A   1      33.054  33.926  28.233  1.00  0.00     0.251 C 
ATOM      6  H   UNL A   1      31.516  33.615  26.987  1.00  0.00     0.163 HD
BRANCH   5   7
ATOM      7  C   UNL A   1      34.361  33.406  28.667  1.00  0.00     0.039 A 
ATOM      8  C   UNL A   1      34.447  32.667  29.851  1.00  0.00     0.014 A 
ATOM      9  C   UNL A   1      35.498  33.668  27.902  1.00  0.00     0.014 A 
ATOM     10  C   UNL A   1      35.691  32.311  30.345  1.00  0.00     0.010 A 
ATOM     11  C   UNL A   1      36.740  33.218  28.351  1.00  0.00     0.010 A 
ATOM     12  C   UNL A   1      36.843  32.552  29.582  1.00  0.00    -0.014 A 
BRANCH  12  13
ATOM     13  C   UNL A   1      38.129  31.987  30.041  1.00  0.00     0.031 A 
ATOM     14  C   UNL A   1      39.002  32.720  31.013  1.00  0.00     0.074 A 
ATOM     15  C   UNL A   1      38.491  30.783  29.557  1.00  0.00     0.049 A 
ATOM     16  N   UNL A   1      40.171  32.370  31.486  1.00  0.00    -0.248 NA
ATOM     17  C   UNL A   1      38.512  34.013  31.516  1.00  0.00     0.031 C 
ATOM     18  C   UNL A   1      37.711  29.989  28.600  1.00  0.00     0.029 A 
ATOM     19  N   UNL A   1      39.593  30.009  29.807  1.00  0.00    -0.354 N 
ATOM     20  C   UNL A   1      40.572  33.410  32.314  1.00  0.00     0.074 A 
ATOM     21  C   UNL A   1      39.525  34.408  32.277  1.00  0.00     0.031 C 
ATOM     22  C   UNL A   1      38.339  28.828  28.376  1.00  0.00     0.029 A 
ATOM     23  C   UNL A   1      39.598  28.828  29.107  1.00  0.00     0.049 A 
ATOM     24  H   UNL A   1      40.310  30.274  30.426  1.00  0.00     0.167 HD
ATOM     25  C   UNL A   1      41.714  33.514  33.032  1.00  0.00     0.031 A 
ATOM     26  C   UNL A   1      40.530  27.863  29.031  1.00  0.00     0.031 A 
ATOM     27  C   UNL A   1      42.739  32.504  33.068  1.00  0.00     0.049 A 
ATOM     28  C   UNL A   1      41.798  28.028  29.810  1.00  0.00     0.074 A 
ATOM     29  C   UNL A   1      43.903  32.485  33.815  1.00  0.00     0.029 A 
ATOM     30  N   UNL A   1      42.725  31.338  32.319  1.00  0.00    -0.354 N 
ATOM     31  N   UNL A   1      42.140  28.995  30.627  1.00  0.00    -0.248 NA
ATOM     32  C   UNL A   1      42.812  26.980  29.649  1.00  0.00     0.031 C 
ATOM     33  C   UNL A   1      44.622  31.335  33.474  1.00  0.00     0.029 A 
ATOM     34  C   UNL A   1      43.882  30.614  32.552  1.00  0.00     0.049 A 
ATOM     35  H   UNL A   1      42.000  31.065  31.710  1.00  0.00     0.167 HD
ATOM     36  C   UNL A   1      43.409  28.671  31.081  1.00  0.00     0.074 A 
ATOM     37  C   UNL A   1      43.763  27.404  30.470  1.00  0.00     0.031 C 
ATOM     38  C   UNL A   1      44.215  29.363  31.922  1.00  0.00     0.031 A 
BRANCH  25  39
ATOM     39  C   UNL A   1      41.943  34.777  33.812  1.00  0.00    -0.014 A 
ATOM     40  C   UNL A   1      41.538  34.897  35.150  1.00  0.00     0.009 A 
ATOM     41  C   UNL A   1      42.642  35.838  33.216  1.00  0.00     0.009 A 
ATOM     42  C   UNL A   1      41.814  36.063  35.869  1.00  0.00     0.001 A 
ATOM     43  C   UNL A   1      42.935  36.994  33.943  1.00  0.00     0.001 A 
ATOM     44  C   UNL A   1      42.516  37.107  35.268  1.00  0.00     0.000 A 
ENDBRANCH  25  39
BRANCH  26  45
ATOM     45  C   UNL A   1      40.313  26.698  28.139  1.00  0.00    -0.014 A 
ATOM     46  C   UNL A   1      40.846  26.677  26.842  1.00  0.00     0.009 A 
ATOM     47  C   UNL A   1      39.588  25.583  28.595  1.00  0.00     0.009 A 
ATOM     48  C   UNL A   1      40.641  25.570  26.015  1.00  0.00     0.001 A 
ATOM     49  C   UNL A   1      39.412  24.468  27.777  1.00  0.00     0.001 A 
ATOM     50  C   UNL A   1      39.931  24.466  26.484  1.00  0.00     0.000 A 
ENDBRANCH  26  45
BRANCH  38  51
ATOM     51  C   UNL A   1      45.550  28.756  32.227  1.00  0.00    -0.014 A 
ATOM     52  C   UNL A   1      45.705  27.857  33.294  1.00  0.00     0.009 A 
ATOM     53  C   UNL A   1      46.657  29.062  31.422  1.00  0.00     0.009 A 
ATOM     54  C   UNL A   1      46.952  27.295  33.564  1.00  0.00     0.001 A 
ATOM     55  C   UNL A   1      47.898  28.479  31.679  1.00  0.00     0.001 A 
ATOM     56  C   UNL A   1      48.046  27.602  32.754  1.00  0.00     0.000 A 
ENDBRANCH  38  51
ENDBRANCH  12  13
ENDBRANCH   5   7
ENDBRANCH   2   3
ENDBRANCH   1   2
BRANCH   1  57
ATOM     57  C   UNL A   1      31.647  29.894  25.548  1.00  0.00     0.117 C 
BRANCH  57  58
ATOM     58  N   UNL A   1      31.534  29.873  24.109  1.00  0.00    -0.354 N 
ATOM     59  C   UNL A   1      30.820  29.047  23.299  1.00  0.00     0.247 C 
ATOM     60  H   UNL A   1      32.057  30.563  23.641  1.00  0.00     0.163 HD
ATOM     61  O   UNL A   1      31.000  29.173  22.083  1.00  0.00    -0.272 OA
BRANCH  59  62
ATOM     62  C   UNL A   1      29.918  27.928  23.843  1.00  0.00     0.203 C 
BRANCH  62  63
ATOM     63  N   UNL A   1      28.618  28.019  23.121  1.00  0.00    -0.335 N 
ATOM     64  C   UNL A   1      27.686  29.021  22.994  1.00  0.00     0.271 C 
ATOM     65  H   UNL A   1      28.379  27.195  22.638  1.00  0.00     0.165 HD
ATOM     66  O   UNL A   1      26.501  28.714  23.133  1.00  0.00    -0.267 OA
BRANCH  64  67
ATOM     67  C   UNL A   1      28.070  30.399  22.679  1.00  0.00     0.139 A 
ATOM     68  C   UNL A   1      28.233  31.384  23.642  1.00  0.00     0.100 A 
ATOM     69  N   UNL A   1      28.142  30.880  21.377  1.00  0.00    -0.240 NA
ATOM     70  S   UNL A   1      28.666  32.875  22.918  1.00  0.00    -0.130 S 
ATOM     71  C   UNL A   1      28.477  32.151  21.380  1.00  0.00     0.176 A 
ENDBRANCH  64  67
ENDBRANCH  62  63
BRANCH  62  72
ATOM     72  C   UNL A   1      30.478  26.553  24.203  1.00  0.00    -0.004 A 
ATOM     73  C   UNL A   1      30.258  26.179  25.553  1.00  0.00     0.007 A 
ATOM     74  C   UNL A   1      31.266  25.663  23.427  1.00  0.00     0.061 A 
ATOM     75  C   UNL A   1      30.601  24.926  26.060  1.00  0.00     0.000 A 
ATOM     76  C   UNL A   1      31.525  24.362  23.935  1.00  0.00     0.013 A 
ATOM     77  C   UNL A   1      31.185  23.991  25.229  1.00  0.00     0.001 A 
BRANCH  74  78
ATOM     78  C   UNL A   1      31.970  25.946  22.112  1.00  0.00     0.416 C 
ATOM     79  F   UNL A   1      32.548  24.824  21.584  1.00  0.00    -0.166 F 
ATOM     80  F   UNL A   1      31.128  26.384  21.140  1.00  0.00    -0.166 F 
ATOM     81  F   UNL A   1      32.984  26.841  22.191  1.00  0.00    -0.166 F 
ENDBRANCH  74  78
ENDBRANCH  62  72
ENDBRANCH  59  62
ENDBRANCH  57  58
ENDBRANCH   1  57
TORSDOF 14
ENDMDL
MODEL 3
REMARK VINA RESULT:     -11.7      5.598      9.946
REMARK SMILES O=C(NCCCNC(=O)[C@@H](NC(=O)c1cscn1)c1ccccc1C(F)(F)F)c1ccc(-c2c3nc(c(-c4ccccc4)c4ccc([nH]4)c(-c4ccccc4)c4nc(c(-c5ccccc5)c5ccc2[nH]5)C=C4)C=C3)cc1
REMARK SMILES IDX 5 1 4 2 3 3 1 4 2 5 29 7 30 8 76 9 31 10 75 11 32 12 33 13
REMARK SMILES IDX 34 14 69 15 35 16 74 17 68 18 70 19 36 20 73 21 67 22 66 23
REMARK SMILES IDX 37 25 59 26 44 27 58 28 45 29 48 30 57 31 71 32 46 33 47 34
REMARK SMILES IDX 56 36 72 37 49 38 38 39 39 40 43 41 40 42 42 43 41 44 60 45
REMARK SMILES IDX 61 46 65 47 62 48 64 49 63 50 50 51 51 52 55 53 52 54 54 55
REMARK SMILES IDX 53 56 6 57 7 58 8 59 9 61 10 62 11 63 12 64 13 66 14 67
REMARK SMILES IDX 15 68 18 69 16 70 17 71 19 72 20 73 24 74 21 75 23 76 22 77
REMARK SMILES IDX 25 78 26 79 27 80 28 81
REMARK H PARENT 3 6 70 24 48 35 7 60 11 65
REMARK Flexibility Score: inf
ROOT
ATOM      1  C   UNL A   1      37.545  19.620  24.975  1.00  0.00     0.042 C 
ENDROOT
BRANCH   1   2
ATOM      2  C   UNL A   1      38.752  20.239  25.666  1.00  0.00     0.118 C 
BRANCH   2   3
ATOM      3  N   UNL A   1      39.850  19.285  25.809  1.00  0.00    -0.352 N 
ATOM      4  O   UNL A   1      42.010  18.650  25.996  1.00  0.00    -0.269 OA
ATOM      5  C   UNL A   1      41.161  19.524  26.130  1.00  0.00     0.251 C 
ATOM      6  H   UNL A   1      39.615  18.341  25.653  1.00  0.00     0.163 HD
BRANCH   5   7
ATOM      7  C   UNL A   1      41.532  20.855  26.637  1.00  0.00     0.039 A 
ATOM      8  C   UNL A   1      41.931  21.846  25.735  1.00  0.00     0.014 A 
ATOM      9  C   UNL A   1      41.496  21.108  28.009  1.00  0.00     0.014 A 
ATOM     10  C   UNL A   1      42.430  23.046  26.214  1.00  0.00     0.010 A 
ATOM     11  C   UNL A   1      41.902  22.355  28.483  1.00  0.00     0.010 A 
ATOM     12  C   UNL A   1      42.385  23.323  27.589  1.00  0.00    -0.014 A 
BRANCH  12  13
ATOM     13  C   UNL A   1      42.739  24.682  28.050  1.00  0.00     0.031 A 
ATOM     14  C   UNL A   1      41.687  25.716  28.315  1.00  0.00     0.074 A 
ATOM     15  C   UNL A   1      44.045  24.962  28.228  1.00  0.00     0.049 A 
ATOM     16  N   UNL A   1      41.841  26.959  28.692  1.00  0.00    -0.248 NA
ATOM     17  C   UNL A   1      40.285  25.313  28.127  1.00  0.00     0.031 C 
ATOM     18  C   UNL A   1      45.148  24.023  27.992  1.00  0.00     0.029 A 
ATOM     19  N   UNL A   1      44.668  26.102  28.659  1.00  0.00    -0.354 N 
ATOM     20  C   UNL A   1      40.563  27.497  28.756  1.00  0.00     0.074 A 
ATOM     21  C   UNL A   1      39.642  26.448  28.373  1.00  0.00     0.031 C 
ATOM     22  C   UNL A   1      46.306  24.613  28.317  1.00  0.00     0.029 A 
ATOM     23  C   UNL A   1      46.036  25.989  28.707  1.00  0.00     0.049 A 
ATOM     24  H   UNL A   1      44.184  26.921  28.908  1.00  0.00     0.167 HD
ATOM     25  C   UNL A   1      40.201  28.755  29.100  1.00  0.00     0.031 A 
ATOM     26  C   UNL A   1      46.977  26.903  28.998  1.00  0.00     0.031 A 
ATOM     27  C   UNL A   1      41.130  29.783  29.492  1.00  0.00     0.049 A 
ATOM     28  C   UNL A   1      46.543  28.296  29.339  1.00  0.00     0.074 A 
ATOM     29  C   UNL A   1      40.859  31.070  29.922  1.00  0.00     0.029 A 
ATOM     30  N   UNL A   1      42.509  29.641  29.495  1.00  0.00    -0.354 N 
ATOM     31  N   UNL A   1      45.327  28.775  29.442  1.00  0.00    -0.248 NA
ATOM     32  C   UNL A   1      47.607  29.274  29.590  1.00  0.00     0.031 C 
ATOM     33  C   UNL A   1      42.077  31.726  30.129  1.00  0.00     0.029 A 
ATOM     34  C   UNL A   1      43.104  30.832  29.876  1.00  0.00     0.049 A 
ATOM     35  H   UNL A   1      42.994  28.816  29.260  1.00  0.00     0.167 HD
ATOM     36  C   UNL A   1      45.478  30.113  29.773  1.00  0.00     0.074 A 
ATOM     37  C   UNL A   1      46.903  30.359  29.881  1.00  0.00     0.031 C 
ATOM     38  C   UNL A   1      44.524  31.055  29.963  1.00  0.00     0.031 A 
BRANCH  25  39
ATOM     39  C   UNL A   1      38.744  29.112  29.034  1.00  0.00    -0.014 A 
ATOM     40  C   UNL A   1      37.900  28.961  30.145  1.00  0.00     0.009 A 
ATOM     41  C   UNL A   1      38.225  29.678  27.859  1.00  0.00     0.009 A 
ATOM     42  C   UNL A   1      36.561  29.354  30.073  1.00  0.00     0.001 A 
ATOM     43  C   UNL A   1      36.892  30.088  27.796  1.00  0.00     0.001 A 
ATOM     44  C   UNL A   1      36.060  29.922  28.902  1.00  0.00     0.000 A 
ENDBRANCH  25  39
BRANCH  26  45
ATOM     45  C   UNL A   1      48.411  26.535  28.918  1.00  0.00    -0.014 A 
ATOM     46  C   UNL A   1      49.102  26.085  30.052  1.00  0.00     0.009 A 
ATOM     47  C   UNL A   1      49.093  26.609  27.691  1.00  0.00     0.009 A 
ATOM     48  C   UNL A   1      50.451  25.734  29.962  1.00  0.00     0.001 A 
ATOM     49  C   UNL A   1      50.431  26.227  27.598  1.00  0.00     0.001 A 
ATOM     50  C   UNL A   1      51.112  25.799  28.737  1.00  0.00     0.000 A 
ENDBRANCH  26  45
BRANCH  38  51
ATOM     51  C   UNL A   1      44.999  32.433  30.310  1.00  0.00    -0.014 A 
ATOM     52  C   UNL A   1      45.226  33.389  29.308  1.00  0.00     0.009 A 
ATOM     53  C   UNL A   1      45.191  32.788  31.653  1.00  0.00     0.009 A 
ATOM     54  C   UNL A   1      45.662  34.670  29.645  1.00  0.00     0.001 A 
ATOM     55  C   UNL A   1      45.605  34.077  31.989  1.00  0.00     0.001 A 
ATOM     56  C   UNL A   1      45.847  35.014  30.985  1.00  0.00     0.000 A 
ENDBRANCH  38  51
ENDBRANCH  12  13
ENDBRANCH   5   7
ENDBRANCH   2   3
ENDBRANCH   1   2
BRANCH   1  57
ATOM     57  C   UNL A   1      36.422  20.626  24.818  1.00  0.00     0.117 C 
BRANCH  57  58
ATOM     58  N   UNL A   1      35.305  20.309  25.675  1.00  0.00    -0.354 N 
ATOM     59  C   UNL A   1      33.972  20.487  25.476  1.00  0.00     0.247 C 
ATOM     60  H   UNL A   1      35.545  19.902  26.538  1.00  0.00     0.163 HD
ATOM     61  O   UNL A   1      33.232  20.238  26.435  1.00  0.00    -0.272 OA
BRANCH  59  62
ATOM     62  C   UNL A   1      33.397  21.078  24.180  1.00  0.00     0.203 C 
BRANCH  62  63
ATOM     63  N   UNL A   1      32.405  20.102  23.651  1.00  0.00    -0.335 N 
ATOM     64  C   UNL A   1      32.497  18.780  23.283  1.00  0.00     0.271 C 
ATOM     65  H   UNL A   1      31.502  20.478  23.543  1.00  0.00     0.165 HD
ATOM     66  O   UNL A   1      31.965  18.449  22.222  1.00  0.00    -0.267 OA
BRANCH  64  67
ATOM     67  C   UNL A   1      33.174  17.789  24.122  1.00  0.00     0.139 A 
ATOM     68  C   UNL A   1      34.431  17.278  23.837  1.00  0.00     0.100 A 
ATOM     69  N   UNL A   1      32.546  17.151  25.186  1.00  0.00    -0.240 NA
ATOM     70  S   UNL A   1      34.905  16.132  25.018  1.00  0.00    -0.130 S 
ATOM     71  C   UNL A   1      33.366  16.290  25.747  1.00  0.00     0.176 A 
ENDBRANCH  64  67
ENDBRANCH  62  63
BRANCH  62  72
ATOM     72  C   UNL A   1      33.122  22.575  24.035  1.00  0.00    -0.004 A 
ATOM     73  C   UNL A   1      34.063  23.255  23.222  1.00  0.00     0.007 A 
ATOM     74  C   UNL A   1      32.146  23.383  24.675  1.00  0.00     0.061 A 
ATOM     75  C   UNL A   1      33.939  24.602  22.881  1.00  0.00     0.000 A 
ATOM     76  C   UNL A   1      31.986  24.727  24.244  1.00  0.00     0.013 A 
ATOM     77  C   UNL A   1      32.862  25.328  23.349  1.00  0.00     0.001 A 
BRANCH  74  78
ATOM     78  C   UNL A   1      31.267  23.022  25.860  1.00  0.00     0.416 C 
ATOM     79  F   UNL A   1      31.974  22.975  27.031  1.00  0.00    -0.166 F 
ATOM     80  F   UNL A   1      30.286  23.933  26.092  1.00  0.00    -0.166 F 
ATOM     81  F   UNL A   1      30.672  21.808  25.777  1.00  0.00    -0.166 F 
ENDBRANCH  74  78
ENDBRANCH  62  72
ENDBRANCH  59  62
ENDBRANCH  57  58
ENDBRANCH   1  57
TORSDOF 14
ENDMDL
