MODEL 1
REMARK VINA RESULT:     -10.8      0.000      0.000
REMARK SMILES CC[C@@H]1CC(=O)N(Cc2ccc(C(=O)NCCCNC(=O)c3ccc(-c4c5nc(c(-c6ccccc6)c6ccc([nH]6)c(-c6ccccc6)c6nc(c(-c7ccccc7)c7ccc4[nH]7)C=C6)C=C5)cc3)cn2)C1
REMARK SMILES IDX 16 1 15 2 13 3 14 4 12 6 9 7 10 8 71 9 11 10 70 11 8 12 7 13
REMARK SMILES IDX 3 14 4 15 72 16 5 17 6 18 2 19 1 20 17 21 18 22 19 23 20 24
REMARK SMILES IDX 21 26 22 27 23 28 69 29 24 30 68 31 25 32 26 33 27 34 62 35
REMARK SMILES IDX 28 36 67 37 61 38 63 39 29 40 66 41 60 42 59 43 30 45 52 46
REMARK SMILES IDX 37 47 51 48 38 49 41 50 50 51 64 52 39 53 40 54 49 56 65 57
REMARK SMILES IDX 42 58 31 59 32 60 36 61 33 62 35 63 34 64 53 65 54 66 58 67
REMARK SMILES IDX 55 68 57 69 56 70 43 71 44 72 48 73 45 74 47 75 46 76
REMARK H PARENT 15 5 19 25 63 44 41 55
REMARK Flexibility Score: inf
ROOT
ATOM      1  C   UNL A   1      31.132  30.375  25.226  1.00  0.00     0.118 C 
ENDROOT
BRANCH   1   2
ATOM      2  N   UNL A   1      30.301  30.563  24.051  1.00  0.00    -0.352 N 
ATOM      3  C   UNL A   1      29.829  29.682  23.113  1.00  0.00     0.252 C 
ATOM      4  O   UNL A   1      29.081  30.119  22.239  1.00  0.00    -0.269 OA
ATOM      5  H   UNL A   1      30.024  31.496  23.901  1.00  0.00     0.163 HD
BRANCH   3   6
ATOM      6  C   UNL A   1      30.138  28.236  23.136  1.00  0.00     0.058 A 
ATOM      7  C   UNL A   1      30.508  25.505  23.396  1.00  0.00     0.060 A 
ATOM      8  C   UNL A   1      31.477  26.267  22.748  1.00  0.00     0.026 A 
ATOM      9  N   UNL A   1      29.359  26.054  23.856  1.00  0.00    -0.259 NA
ATOM     10  C   UNL A   1      31.280  27.641  22.607  1.00  0.00     0.017 A 
ATOM     11  C   UNL A   1      29.195  27.392  23.710  1.00  0.00     0.125 A 
BRANCH   7  12
ATOM     12  C   UNL A   1      30.743  24.034  23.658  1.00  0.00     0.175 C 
BRANCH  12  13
ATOM     13  N   UNL A   1      32.016  23.778  24.316  1.00  0.00    -0.336 N 
ATOM     14  C   UNL A   1      33.818  24.023  25.770  1.00  0.00     0.017 C 
ATOM     15  C   UNL A   1      34.102  22.862  24.809  1.00  0.00     0.105 C 
ATOM     16  C   UNL A   1      32.297  24.137  25.685  1.00  0.00     0.124 C 
ATOM     17  C   UNL A   1      33.035  23.025  23.752  1.00  0.00     0.223 C 
ATOM     18  O   UNL A   1      33.074  22.547  22.636  1.00  0.00    -0.275 OA
BRANCH  14  19
ATOM     19  C   UNL A   1      34.477  25.354  25.357  1.00  0.00     0.002 C 
ATOM     20  C   UNL A   1      33.687  26.588  25.765  1.00  0.00     0.004 C 
ENDBRANCH  14  19
ENDBRANCH  12  13
ENDBRANCH   7  12
ENDBRANCH   3   6
ENDBRANCH   1   2
BRANCH   1  21
ATOM     21  C   UNL A   1      30.951  31.526  26.211  1.00  0.00     0.042 C 
BRANCH  21  22
ATOM     22  C   UNL A   1      32.271  32.041  26.776  1.00  0.00     0.118 C 
BRANCH  22  23
ATOM     23  N   UNL A   1      32.166  33.420  27.233  1.00  0.00    -0.352 N 
ATOM     24  C   UNL A   1      32.931  34.103  28.144  1.00  0.00     0.251 C 
ATOM     25  H   UNL A   1      31.436  33.941  26.826  1.00  0.00     0.163 HD
ATOM     26  O   UNL A   1      32.545  35.184  28.580  1.00  0.00    -0.269 OA
BRANCH  24  27
ATOM     27  C   UNL A   1      34.214  33.538  28.610  1.00  0.00     0.039 A 
ATOM     28  C   UNL A   1      35.386  33.845  27.913  1.00  0.00     0.014 A 
ATOM     29  C   UNL A   1      34.258  32.685  29.716  1.00  0.00     0.014 A 
ATOM     30  C   UNL A   1      36.611  33.345  28.361  1.00  0.00     0.010 A 
ATOM     31  C   UNL A   1      35.484  32.255  30.208  1.00  0.00     0.010 A 
ATOM     32  C   UNL A   1      36.672  32.575  29.533  1.00  0.00    -0.014 A 
BRANCH  32  33
ATOM     33  C   UNL A   1      37.960  32.075  30.072  1.00  0.00     0.031 A 
ATOM     34  C   UNL A   1      38.544  30.791  29.549  1.00  0.00     0.074 A 
ATOM     35  C   UNL A   1      38.558  32.727  31.088  1.00  0.00     0.049 A 
ATOM     36  N   UNL A   1      39.589  30.126  29.971  1.00  0.00    -0.248 NA
ATOM     37  C   UNL A   1      37.841  30.156  28.421  1.00  0.00     0.031 C 
ATOM     38  C   UNL A   1      38.078  33.967  31.701  1.00  0.00     0.029 A 
ATOM     39  N   UNL A   1      39.693  32.424  31.798  1.00  0.00    -0.354 N 
ATOM     40  C   UNL A   1      39.653  28.986  29.179  1.00  0.00     0.074 A 
ATOM     41  C   UNL A   1      38.516  29.025  28.286  1.00  0.00     0.031 C 
ATOM     42  C   UNL A   1      38.923  34.329  32.680  1.00  0.00     0.029 A 
ATOM     43  C   UNL A   1      39.972  33.322  32.800  1.00  0.00     0.049 A 
ATOM     44  H   UNL A   1      40.255  31.639  31.608  1.00  0.00     0.167 HD
ATOM     45  C   UNL A   1      40.585  28.003  29.184  1.00  0.00     0.031 A 
ATOM     46  C   UNL A   1      40.952  33.325  33.723  1.00  0.00     0.031 A 
ATOM     47  C   UNL A   1      41.718  27.973  30.069  1.00  0.00     0.049 A 
ATOM     48  C   UNL A   1      41.956  32.206  33.729  1.00  0.00     0.074 A 
ATOM     49  C   UNL A   1      42.746  27.049  30.118  1.00  0.00     0.029 A 
ATOM     50  N   UNL A   1      41.967  28.907  31.061  1.00  0.00    -0.354 N 
ATOM     51  N   UNL A   1      42.038  31.167  32.935  1.00  0.00    -0.248 NA
ATOM     52  C   UNL A   1      43.008  32.265  34.754  1.00  0.00     0.031 C 
ATOM     53  C   UNL A   1      43.588  27.393  31.181  1.00  0.00     0.029 A 
ATOM     54  C   UNL A   1      43.121  28.568  31.747  1.00  0.00     0.049 A 
ATOM     55  H   UNL A   1      41.408  29.696  31.250  1.00  0.00     0.167 HD
ATOM     56  C   UNL A   1      43.169  30.468  33.339  1.00  0.00     0.074 A 
ATOM     57  C   UNL A   1      43.745  31.207  34.444  1.00  0.00     0.031 C 
ATOM     58  C   UNL A   1      43.686  29.321  32.837  1.00  0.00     0.031 A 
BRANCH  45  59
ATOM     59  C   UNL A   1      40.406  26.870  28.211  1.00  0.00    -0.014 A 
ATOM     60  C   UNL A   1      40.989  26.904  26.933  1.00  0.00     0.009 A 
ATOM     61  C   UNL A   1      39.670  25.735  28.587  1.00  0.00     0.009 A 
ATOM     62  C   UNL A   1      40.807  25.845  26.041  1.00  0.00     0.001 A 
ATOM     63  C   UNL A   1      39.518  24.663  27.706  1.00  0.00     0.001 A 
ATOM     64  C   UNL A   1      40.076  24.724  26.431  1.00  0.00     0.000 A 
ENDBRANCH  45  59
BRANCH  46  65
ATOM     65  C   UNL A   1      41.036  34.427  34.718  1.00  0.00    -0.014 A 
ATOM     66  C   UNL A   1      40.352  34.338  35.941  1.00  0.00     0.009 A 
ATOM     67  C   UNL A   1      41.794  35.578  34.450  1.00  0.00     0.009 A 
ATOM     68  C   UNL A   1      40.402  35.388  36.860  1.00  0.00     0.001 A 
ATOM     69  C   UNL A   1      41.869  36.614  35.385  1.00  0.00     0.001 A 
ATOM     70  C   UNL A   1      41.164  36.523  36.584  1.00  0.00     0.000 A 
ENDBRANCH  46  65
BRANCH  58  71
ATOM     71  C   UNL A   1      44.968  28.815  33.438  1.00  0.00    -0.014 A 
ATOM     72  C   UNL A   1      46.218  29.194  32.927  1.00  0.00     0.009 A 
ATOM     73  C   UNL A   1      44.918  27.997  34.579  1.00  0.00     0.009 A 
ATOM     74  C   UNL A   1      47.392  28.744  33.534  1.00  0.00     0.001 A 
ATOM     75  C   UNL A   1      46.092  27.575  35.202  1.00  0.00     0.001 A 
ATOM     76  C   UNL A   1      47.329  27.943  34.675  1.00  0.00     0.000 A 
ENDBRANCH  58  71
ENDBRANCH  32  33
ENDBRANCH  24  27
ENDBRANCH  22  23
ENDBRANCH  21  22
ENDBRANCH   1  21
TORSDOF 13
ENDMDL
MODEL 2
REMARK VINA RESULT:     -10.7      3.928      9.124
REMARK SMILES CC[C@@H]1CC(=O)N(Cc2ccc(C(=O)NCCCNC(=O)c3ccc(-c4c5nc(c(-c6ccccc6)c6ccc([nH]6)c(-c6ccccc6)c6nc(c(-c7ccccc7)c7ccc4[nH]7)C=C6)C=C5)cc3)cn2)C1
REMARK SMILES IDX 16 1 15 2 13 3 14 4 12 6 9 7 10 8 71 9 11 10 70 11 8 12 7 13
REMARK SMILES IDX 3 14 4 15 72 16 5 17 6 18 2 19 1 20 17 21 18 22 19 23 20 24
REMARK SMILES IDX 21 26 22 27 23 28 69 29 24 30 68 31 25 32 26 33 27 34 62 35
REMARK SMILES IDX 28 36 67 37 61 38 63 39 29 40 66 41 60 42 59 43 30 45 52 46
REMARK SMILES IDX 37 47 51 48 38 49 41 50 50 51 64 52 39 53 40 54 49 56 65 57
REMARK SMILES IDX 42 58 31 59 32 60 36 61 33 62 35 63 34 64 53 65 54 66 58 67
REMARK SMILES IDX 55 68 57 69 56 70 43 71 44 72 48 73 45 74 47 75 46 76
REMARK H PARENT 15 5 19 25 63 44 41 55
REMARK Flexibility Score: inf
ROOT
ATOM      1  C   UNL A   1      36.186  20.770  24.999  1.00  0.00     0.118 C 
ENDROOT
BRANCH   1   2
ATOM      2  N   UNL A   1      35.046  19.954  25.375  1.00  0.00    -0.352 N 
ATOM      3  C   UNL A   1      33.699  20.118  25.181  1.00  0.00     0.252 C 
ATOM      4  O   UNL A   1      32.950  19.219  25.562  1.00  0.00    -0.269 OA
ATOM      5  H   UNL A   1      35.285  19.129  25.857  1.00  0.00     0.163 HD
BRANCH   3   6
ATOM      6  C   UNL A   1      33.119  21.294  24.496  1.00  0.00     0.058 A 
ATOM      7  C   UNL A   1      31.934  23.582  23.486  1.00  0.00     0.060 A 
ATOM      8  C   UNL A   1      32.282  22.553  22.616  1.00  0.00     0.026 A 
ATOM      9  N   UNL A   1      32.209  23.521  24.811  1.00  0.00    -0.259 NA
ATOM     10  C   UNL A   1      32.892  21.407  23.127  1.00  0.00     0.017 A 
ATOM     11  C   UNL A   1      32.798  22.394  25.282  1.00  0.00     0.125 A 
BRANCH   7  12
ATOM     12  C   UNL A   1      31.176  24.788  22.977  1.00  0.00     0.175 C 
BRANCH  12  13
ATOM     13  N   UNL A   1      31.977  26.003  22.995  1.00  0.00    -0.336 N 
ATOM     14  C   UNL A   1      32.634  28.187  23.466  1.00  0.00     0.017 C 
ATOM     15  C   UNL A   1      33.660  27.545  22.524  1.00  0.00     0.105 C 
ATOM     16  C   UNL A   1      31.956  26.961  24.075  1.00  0.00     0.124 C 
ATOM     17  C   UNL A   1      32.960  26.290  22.059  1.00  0.00     0.223 C 
ATOM     18  O   UNL A   1      33.245  25.653  21.065  1.00  0.00    -0.275 OA
BRANCH  14  19
ATOM     19  C   UNL A   1      31.593  29.071  22.750  1.00  0.00     0.002 C 
ATOM     20  C   UNL A   1      30.176  28.904  23.273  1.00  0.00     0.004 C 
ENDBRANCH  14  19
ENDBRANCH  12  13
ENDBRANCH   7  12
ENDBRANCH   3   6
ENDBRANCH   1   2
BRANCH   1  21
ATOM     21  C   UNL A   1      37.434  19.911  24.815  1.00  0.00     0.042 C 
BRANCH  21  22
ATOM     22  C   UNL A   1      38.651  20.460  25.552  1.00  0.00     0.118 C 
BRANCH  22  23
ATOM     23  N   UNL A   1      39.672  19.440  25.752  1.00  0.00    -0.352 N 
ATOM     24  C   UNL A   1      40.994  19.577  26.092  1.00  0.00     0.251 C 
ATOM     25  H   UNL A   1      39.367  18.513  25.624  1.00  0.00     0.163 HD
ATOM     26  O   UNL A   1      41.757  18.622  25.979  1.00  0.00    -0.269 OA
BRANCH  24  27
ATOM     27  C   UNL A   1      41.504  20.873  26.586  1.00  0.00     0.039 A 
ATOM     28  C   UNL A   1      41.867  21.858  25.664  1.00  0.00     0.014 A 
ATOM     29  C   UNL A   1      41.648  21.107  27.956  1.00  0.00     0.014 A 
ATOM     30  C   UNL A   1      42.319  23.099  26.116  1.00  0.00     0.010 A 
ATOM     31  C   UNL A   1      42.020  22.368  28.407  1.00  0.00     0.010 A 
ATOM     32  C   UNL A   1      42.365  23.374  27.492  1.00  0.00    -0.014 A 
BRANCH  32  33
ATOM     33  C   UNL A   1      42.784  24.700  28.009  1.00  0.00     0.031 A 
ATOM     34  C   UNL A   1      41.750  25.756  28.289  1.00  0.00     0.074 A 
ATOM     35  C   UNL A   1      44.095  24.983  28.141  1.00  0.00     0.049 A 
ATOM     36  N   UNL A   1      41.919  27.010  28.625  1.00  0.00    -0.248 NA
ATOM     37  C   UNL A   1      40.340  25.357  28.142  1.00  0.00     0.031 C 
ATOM     38  C   UNL A   1      45.195  24.054  27.876  1.00  0.00     0.029 A 
ATOM     39  N   UNL A   1      44.724  26.144  28.516  1.00  0.00    -0.354 N 
ATOM     40  C   UNL A   1      40.642  27.552  28.705  1.00  0.00     0.074 A 
ATOM     41  C   UNL A   1      39.713  26.507  28.336  1.00  0.00     0.031 C 
ATOM     42  C   UNL A   1      46.361  24.674  28.116  1.00  0.00     0.029 A 
ATOM     43  C   UNL A   1      46.095  26.057  28.500  1.00  0.00     0.049 A 
ATOM     44  H   UNL A   1      44.239  26.961  28.774  1.00  0.00     0.167 HD
ATOM     45  C   UNL A   1      40.275  28.804  29.069  1.00  0.00     0.031 A 
ATOM     46  C   UNL A   1      47.033  26.990  28.747  1.00  0.00     0.031 A 
ATOM     47  C   UNL A   1      41.203  29.837  29.443  1.00  0.00     0.049 A 
ATOM     48  C   UNL A   1      46.602  28.382  29.120  1.00  0.00     0.074 A 
ATOM     49  C   UNL A   1      40.930  31.121  29.879  1.00  0.00     0.029 A 
ATOM     50  N   UNL A   1      42.582  29.703  29.422  1.00  0.00    -0.354 N 
ATOM     51  N   UNL A   1      45.389  28.863  29.249  1.00  0.00    -0.248 NA
ATOM     52  C   UNL A   1      47.668  29.357  29.386  1.00  0.00     0.031 C 
ATOM     53  C   UNL A   1      42.146  31.785  30.065  1.00  0.00     0.029 A 
ATOM     54  C   UNL A   1      43.175  30.892  29.812  1.00  0.00     0.049 A 
ATOM     55  H   UNL A   1      43.067  28.885  29.168  1.00  0.00     0.167 HD
ATOM     56  C   UNL A   1      45.546  30.184  29.649  1.00  0.00     0.074 A 
ATOM     57  C   UNL A   1      46.971  30.426  29.748  1.00  0.00     0.031 C 
ATOM     58  C   UNL A   1      44.595  31.112  29.915  1.00  0.00     0.031 A 
BRANCH  45  59
ATOM     59  C   UNL A   1      38.806  29.126  29.065  1.00  0.00    -0.014 A 
ATOM     60  C   UNL A   1      38.032  29.028  30.233  1.00  0.00     0.009 A 
ATOM     61  C   UNL A   1      38.192  29.569  27.883  1.00  0.00     0.009 A 
ATOM     62  C   UNL A   1      36.668  29.327  30.208  1.00  0.00     0.001 A 
ATOM     63  C   UNL A   1      36.835  29.899  27.868  1.00  0.00     0.001 A 
ATOM     64  C   UNL A   1      36.073  29.767  29.026  1.00  0.00     0.000 A 
ENDBRANCH  45  59
BRANCH  46  65
ATOM     65  C   UNL A   1      48.476  26.641  28.656  1.00  0.00    -0.014 A 
ATOM     66  C   UNL A   1      49.174  26.801  27.450  1.00  0.00     0.009 A 
ATOM     67  C   UNL A   1      49.163  26.138  29.773  1.00  0.00     0.009 A 
ATOM     68  C   UNL A   1      50.520  26.439  27.355  1.00  0.00     0.001 A 
ATOM     69  C   UNL A   1      50.517  25.807  29.685  1.00  0.00     0.001 A 
ATOM     70  C   UNL A   1      51.191  25.947  28.473  1.00  0.00     0.000 A 
ENDBRANCH  46  65
BRANCH  58  71
ATOM     71  C   UNL A   1      45.054  32.462  30.390  1.00  0.00    -0.014 A 
ATOM     72  C   UNL A   1      45.274  33.519  29.495  1.00  0.00     0.009 A 
ATOM     73  C   UNL A   1      45.203  32.693  31.768  1.00  0.00     0.009 A 
ATOM     74  C   UNL A   1      45.657  34.775  29.971  1.00  0.00     0.001 A 
ATOM     75  C   UNL A   1      45.554  33.957  32.241  1.00  0.00     0.001 A 
ATOM     76  C   UNL A   1      45.788  34.995  31.342  1.00  0.00     0.000 A 
ENDBRANCH  58  71
ENDBRANCH  32  33
ENDBRANCH  24  27
ENDBRANCH  22  23
ENDBRANCH  21  22
ENDBRANCH   1  21
TORSDOF 13
ENDMDL
MODEL 3
REMARK VINA RESULT:     -10.7      1.130      1.782
REMARK SMILES CC[C@@H]1CC(=O)N(Cc2ccc(C(=O)NCCCNC(=O)c3ccc(-c4c5nc(c(-c6ccccc6)c6ccc([nH]6)c(-c6ccccc6)c6nc(c(-c7ccccc7)c7ccc4[nH]7)C=C6)C=C5)cc3)cn2)C1
REMARK SMILES IDX 16 1 15 2 13 3 14 4 12 6 9 7 10 8 71 9 11 10 70 11 8 12 7 13
REMARK SMILES IDX 3 14 4 15 72 16 5 17 6 18 2 19 1 20 17 21 18 22 19 23 20 24
REMARK SMILES IDX 21 26 22 27 23 28 69 29 24 30 68 31 25 32 26 33 27 34 62 35
REMARK SMILES IDX 28 36 67 37 61 38 63 39 29 40 66 41 60 42 59 43 30 45 52 46
REMARK SMILES IDX 37 47 51 48 38 49 41 50 50 51 64 52 39 53 40 54 49 56 65 57
REMARK SMILES IDX 42 58 31 59 32 60 36 61 33 62 35 63 34 64 53 65 54 66 58 67
REMARK SMILES IDX 55 68 57 69 56 70 43 71 44 72 48 73 45 74 47 75 46 76
REMARK H PARENT 15 5 19 25 63 44 41 55
REMARK Flexibility Score: inf
ROOT
ATOM      1  C   UNL A   1      31.606  30.379  26.218  1.00  0.00     0.118 C 
ENDROOT
BRANCH   1   2
ATOM      2  N   UNL A   1      31.313  30.092  24.826  1.00  0.00    -0.352 N 
ATOM      3  C   UNL A   1      31.337  28.925  24.107  1.00  0.00     0.252 C 
ATOM      4  O   UNL A   1      30.976  28.967  22.932  1.00  0.00    -0.269 OA
ATOM      5  H   UNL A   1      31.045  30.881  24.301  1.00  0.00     0.163 HD
BRANCH   3   6
ATOM      6  C   UNL A   1      31.728  27.624  24.692  1.00  0.00     0.058 A 
ATOM      7  C   UNL A   1      32.176  25.167  25.885  1.00  0.00     0.060 A 
ATOM      8  C   UNL A   1      33.263  25.968  25.544  1.00  0.00     0.026 A 
ATOM      9  N   UNL A   1      30.903  25.531  25.600  1.00  0.00    -0.259 NA
ATOM     10  C   UNL A   1      33.033  27.200  24.930  1.00  0.00     0.017 A 
ATOM     11  C   UNL A   1      30.708  26.735  25.007  1.00  0.00     0.125 A 
BRANCH   7  12
ATOM     12  C   UNL A   1      32.389  23.877  26.648  1.00  0.00     0.175 C 
BRANCH  12  13
ATOM     13  N   UNL A   1      33.419  23.038  26.053  1.00  0.00    -0.336 N 
ATOM     14  C   UNL A   1      35.527  22.240  25.470  1.00  0.00     0.017 C 
ATOM     15  C   UNL A   1      34.457  21.388  24.777  1.00  0.00     0.105 C 
ATOM     16  C   UNL A   1      34.735  22.865  26.618  1.00  0.00     0.124 C 
ATOM     17  C   UNL A   1      33.196  22.195  24.976  1.00  0.00     0.223 C 
ATOM     18  O   UNL A   1      32.179  22.082  24.320  1.00  0.00    -0.275 OA
BRANCH  14  19
ATOM     19  C   UNL A   1      36.129  23.342  24.576  1.00  0.00     0.002 C 
ATOM     20  C   UNL A   1      36.539  22.861  23.193  1.00  0.00     0.004 C 
ENDBRANCH  14  19
ENDBRANCH  12  13
ENDBRANCH   7  12
ENDBRANCH   3   6
ENDBRANCH   1   2
BRANCH   1  21
ATOM     21  C   UNL A   1      31.481  31.873  26.504  1.00  0.00     0.042 C 
BRANCH  21  22
ATOM     22  C   UNL A   1      32.704  32.450  27.209  1.00  0.00     0.118 C 
BRANCH  22  23
ATOM     23  N   UNL A   1      32.486  33.825  27.638  1.00  0.00    -0.352 N 
ATOM     24  C   UNL A   1      33.134  34.557  28.600  1.00  0.00     0.251 C 
ATOM     25  H   UNL A   1      31.765  34.301  27.166  1.00  0.00     0.163 HD
ATOM     26  O   UNL A   1      32.653  35.618  28.989  1.00  0.00    -0.269 OA
BRANCH  24  27
ATOM     27  C   UNL A   1      34.403  34.068  29.177  1.00  0.00     0.039 A 
ATOM     28  C   UNL A   1      34.369  33.298  30.343  1.00  0.00     0.014 A 
ATOM     29  C   UNL A   1      35.626  34.391  28.584  1.00  0.00     0.014 A 
ATOM     30  C   UNL A   1      35.558  32.800  30.880  1.00  0.00     0.010 A 
ATOM     31  C   UNL A   1      36.801  33.829  29.072  1.00  0.00     0.010 A 
ATOM     32  C   UNL A   1      36.779  33.035  30.228  1.00  0.00    -0.014 A 
BRANCH  32  33
ATOM     33  C   UNL A   1      38.055  32.474  30.737  1.00  0.00     0.031 A 
ATOM     34  C   UNL A   1      38.617  31.218  30.130  1.00  0.00     0.074 A 
ATOM     35  C   UNL A   1      38.659  33.042  31.799  1.00  0.00     0.049 A 
ATOM     36  N   UNL A   1      39.647  30.506  30.509  1.00  0.00    -0.248 NA
ATOM     37  C   UNL A   1      37.909  30.676  28.958  1.00  0.00     0.031 C 
ATOM     38  C   UNL A   1      38.199  34.247  32.494  1.00  0.00     0.029 A 
ATOM     39  N   UNL A   1      39.784  32.670  32.491  1.00  0.00    -0.354 N 
ATOM     40  C   UNL A   1      39.694  29.422  29.641  1.00  0.00     0.074 A 
ATOM     41  C   UNL A   1      38.563  29.544  28.748  1.00  0.00     0.031 C 
ATOM     42  C   UNL A   1      39.045  34.524  33.499  1.00  0.00     0.029 A 
ATOM     43  C   UNL A   1      40.074  33.491  33.554  1.00  0.00     0.049 A 
ATOM     44  H   UNL A   1      40.331  31.888  32.250  1.00  0.00     0.167 HD
ATOM     45  C   UNL A   1      40.606  28.422  29.583  1.00  0.00     0.031 A 
ATOM     46  C   UNL A   1      41.048  33.411  34.480  1.00  0.00     0.031 A 
ATOM     47  C   UNL A   1      41.734  28.310  30.469  1.00  0.00     0.049 A 
ATOM     48  C   UNL A   1      42.031  32.276  34.413  1.00  0.00     0.074 A 
ATOM     49  C   UNL A   1      42.744  27.365  30.459  1.00  0.00     0.029 A 
ATOM     50  N   UNL A   1      41.995  29.169  31.524  1.00  0.00    -0.354 N 
ATOM     51  N   UNL A   1      42.098  31.291  33.549  1.00  0.00    -0.248 NA
ATOM     52  C   UNL A   1      43.078  32.243  35.444  1.00  0.00     0.031 C 
ATOM     53  C   UNL A   1      43.586  27.618  31.546  1.00  0.00     0.029 A 
ATOM     54  C   UNL A   1      43.138  28.760  32.190  1.00  0.00     0.049 A 
ATOM     55  H   UNL A   1      41.450  29.953  31.765  1.00  0.00     0.167 HD
ATOM     56  C   UNL A   1      43.213  30.545  33.909  1.00  0.00     0.074 A 
ATOM     57  C   UNL A   1      43.797  31.195  35.065  1.00  0.00     0.031 C 
ATOM     58  C   UNL A   1      43.711  29.426  33.332  1.00  0.00     0.031 A 
BRANCH  45  59
ATOM     59  C   UNL A   1      40.412  27.364  28.532  1.00  0.00    -0.014 A 
ATOM     60  C   UNL A   1      39.649  26.212  28.786  1.00  0.00     0.009 A 
ATOM     61  C   UNL A   1      40.971  27.535  27.256  1.00  0.00     0.009 A 
ATOM     62  C   UNL A   1      39.485  25.238  27.799  1.00  0.00     0.001 A 
ATOM     63  C   UNL A   1      40.778  26.576  26.261  1.00  0.00     0.001 A 
ATOM     64  C   UNL A   1      40.045  25.424  26.536  1.00  0.00     0.000 A 
ENDBRANCH  45  59
BRANCH  46  65
ATOM     65  C   UNL A   1      41.147  34.440  35.549  1.00  0.00    -0.014 A 
ATOM     66  C   UNL A   1      40.420  34.302  36.741  1.00  0.00     0.009 A 
ATOM     67  C   UNL A   1      41.964  35.570  35.382  1.00  0.00     0.009 A 
ATOM     68  C   UNL A   1      40.486  35.286  37.730  1.00  0.00     0.001 A 
ATOM     69  C   UNL A   1      42.052  36.538  36.386  1.00  0.00     0.001 A 
ATOM     70  C   UNL A   1      41.305  36.400  37.554  1.00  0.00     0.000 A 
ENDBRANCH  46  65
BRANCH  58  71
ATOM     71  C   UNL A   1      44.979  28.854  33.902  1.00  0.00    -0.014 A 
ATOM     72  C   UNL A   1      44.957  27.862  34.893  1.00  0.00     0.009 A 
ATOM     73  C   UNL A   1      46.216  29.274  33.386  1.00  0.00     0.009 A 
ATOM     74  C   UNL A   1      46.151  27.317  35.371  1.00  0.00     0.001 A 
ATOM     75  C   UNL A   1      47.405  28.706  33.842  1.00  0.00     0.001 A 
ATOM     76  C   UNL A   1      47.372  27.733  34.840  1.00  0.00     0.000 A 
ENDBRANCH  58  71
ENDBRANCH  32  33
ENDBRANCH  24  27
ENDBRANCH  22  23
ENDBRANCH  21  22
ENDBRANCH   1  21
TORSDOF 13
ENDMDL
