MODEL 1
REMARK VINA RESULT:     -10.9      0.000      0.000
REMARK SMILES Cc1noc(C)c1COc1ccc(C(=O)NCCCNC(=O)c2ccc(-c3c4nc(c(-c5ccccc5)c5ccc([nH]5)c(-c5ccccc5)c5nc(c(-c6ccccc6)c6ccc3[nH]6)C=C5)C=C4)cc2)cc1
REMARK SMILES IDX 17 1 16 2 14 3 15 4 13 6 10 7 11 8 72 9 12 10 71 11 9 12
REMARK SMILES IDX 8 13 7 14 1 15 2 16 3 17 4 18 5 19 6 20 18 21 19 22 20 23
REMARK SMILES IDX 21 24 22 26 23 27 24 28 70 29 25 30 69 31 26 32 27 33 28 34
REMARK SMILES IDX 63 35 29 36 68 37 62 38 64 39 30 40 67 41 61 42 60 43 31 45
REMARK SMILES IDX 53 46 38 47 52 48 39 49 42 50 51 51 65 52 40 53 41 54 50 56
REMARK SMILES IDX 66 57 43 58 32 59 33 60 37 61 34 62 36 63 35 64 54 65 55 66
REMARK SMILES IDX 59 67 56 68 58 69 57 70 44 71 45 72 49 73 46 74 48 75 47 76
REMARK H PARENT 16 5 20 25 64 44 42 55
REMARK Flexibility Score: inf
ROOT
ATOM      1  C   UNL A   1      37.034  20.755  24.726  1.00  0.00     0.118 C 
ENDROOT
BRANCH   1   2
ATOM      2  N   UNL A   1      35.697  20.285  25.054  1.00  0.00    -0.352 N 
ATOM      3  C   UNL A   1      34.487  20.937  25.050  1.00  0.00     0.251 C 
ATOM      4  O   UNL A   1      33.462  20.280  25.222  1.00  0.00    -0.269 OA
ATOM      5  H   UNL A   1      35.651  19.340  25.325  1.00  0.00     0.163 HD
BRANCH   3   6
ATOM      6  C   UNL A   1      34.380  22.397  24.805  1.00  0.00     0.040 A 
ATOM      7  C   UNL A   1      34.141  25.159  24.440  1.00  0.00     0.119 A 
ATOM      8  C   UNL A   1      34.445  24.657  25.702  1.00  0.00     0.047 A 
ATOM      9  C   UNL A   1      34.051  24.299  23.349  1.00  0.00     0.047 A 
ATOM     10  C   UNL A   1      34.561  23.274  25.885  1.00  0.00     0.017 A 
ATOM     11  C   UNL A   1      34.176  22.926  23.531  1.00  0.00     0.017 A 
BRANCH   7  12
ATOM     12  O   UNL A   1      34.033  26.511  24.256  1.00  0.00    -0.489 OA
BRANCH  12  13
ATOM     13  C   UNL A   1      32.682  26.905  23.942  1.00  0.00     0.271 C 
BRANCH  13  14
ATOM     14  C   UNL A   1      31.687  26.585  25.006  1.00  0.00     0.055 A 
ATOM     15  C   UNL A   1      30.301  24.654  23.905  1.00  0.00     0.071 C 
ATOM     16  C   UNL A   1      30.649  25.609  24.984  1.00  0.00     0.087 A 
ATOM     17  N   UNL A   1      29.979  25.583  26.142  1.00  0.00    -0.085 NA
ATOM     18  O   UNL A   1      30.565  26.545  26.939  1.00  0.00    -0.361 OA
ATOM     19  C   UNL A   1      31.584  27.137  26.265  1.00  0.00     0.140 A 
ATOM     20  C   UNL A   1      32.332  28.176  26.999  1.00  0.00     0.091 C 
ENDBRANCH  13  14
ENDBRANCH  12  13
ENDBRANCH   7  12
ENDBRANCH   3   6
ENDBRANCH   1   2
BRANCH   1  21
ATOM     21  C   UNL A   1      38.091  19.677  24.960  1.00  0.00     0.042 C 
BRANCH  21  22
ATOM     22  C   UNL A   1      39.177  20.086  25.948  1.00  0.00     0.118 C 
BRANCH  22  23
ATOM     23  N   UNL A   1      40.342  19.218  25.876  1.00  0.00    -0.352 N 
ATOM     24  C   UNL A   1      41.672  19.520  26.037  1.00  0.00     0.251 C 
ATOM     25  H   UNL A   1      40.148  18.273  25.681  1.00  0.00     0.163 HD
ATOM     26  O   UNL A   1      42.522  18.686  25.742  1.00  0.00    -0.269 OA
BRANCH  24  27
ATOM     27  C   UNL A   1      42.090  20.844  26.552  1.00  0.00     0.039 A 
ATOM     28  C   UNL A   1      42.411  21.851  25.635  1.00  0.00     0.014 A 
ATOM     29  C   UNL A   1      42.211  21.084  27.922  1.00  0.00     0.014 A 
ATOM     30  C   UNL A   1      42.805  23.110  26.094  1.00  0.00     0.010 A 
ATOM     31  C   UNL A   1      42.536  22.358  28.378  1.00  0.00     0.010 A 
ATOM     32  C   UNL A   1      42.847  23.381  27.470  1.00  0.00    -0.014 A 
BRANCH  32  33
ATOM     33  C   UNL A   1      43.233  24.718  27.986  1.00  0.00     0.031 A 
ATOM     34  C   UNL A   1      42.174  25.750  28.264  1.00  0.00     0.074 A 
ATOM     35  C   UNL A   1      44.535  25.031  28.136  1.00  0.00     0.049 A 
ATOM     36  N   UNL A   1      42.312  27.004  28.617  1.00  0.00    -0.248 NA
ATOM     37  C   UNL A   1      40.775  25.324  28.098  1.00  0.00     0.031 C 
ATOM     38  C   UNL A   1      45.659  24.130  27.876  1.00  0.00     0.029 A 
ATOM     39  N   UNL A   1      45.130  26.202  28.531  1.00  0.00    -0.354 N 
ATOM     40  C   UNL A   1      41.023  27.519  28.690  1.00  0.00     0.074 A 
ATOM     41  C   UNL A   1      40.120  26.457  28.304  1.00  0.00     0.031 C 
ATOM     42  C   UNL A   1      46.807  24.777  28.136  1.00  0.00     0.029 A 
ATOM     43  C   UNL A   1      46.504  26.146  28.536  1.00  0.00     0.049 A 
ATOM     44  H   UNL A   1      44.624  27.007  28.785  1.00  0.00     0.167 HD
ATOM     45  C   UNL A   1      40.626  28.761  29.058  1.00  0.00     0.031 A 
ATOM     46  C   UNL A   1      47.416  27.095  28.820  1.00  0.00     0.031 A 
ATOM     47  C   UNL A   1      41.523  29.811  29.458  1.00  0.00     0.049 A 
ATOM     48  C   UNL A   1      46.949  28.469  29.213  1.00  0.00     0.074 A 
ATOM     49  C   UNL A   1      41.216  31.086  29.899  1.00  0.00     0.029 A 
ATOM     50  N   UNL A   1      42.906  29.707  29.465  1.00  0.00    -0.354 N 
ATOM     51  N   UNL A   1      45.726  28.925  29.328  1.00  0.00    -0.248 NA
ATOM     52  C   UNL A   1      47.993  29.457  29.525  1.00  0.00     0.031 C 
ATOM     53  C   UNL A   1      42.414  31.769  30.129  1.00  0.00     0.029 A 
ATOM     54  C   UNL A   1      43.466  30.901  29.884  1.00  0.00     0.049 A 
ATOM     55  H   UNL A   1      43.413  28.903  29.209  1.00  0.00     0.167 HD
ATOM     56  C   UNL A   1      45.851  30.240  29.757  1.00  0.00     0.074 A 
ATOM     57  C   UNL A   1      47.269  30.506  29.891  1.00  0.00     0.031 C 
ATOM     58  C   UNL A   1      44.878  31.146  30.020  1.00  0.00     0.031 A 
BRANCH  45  59
ATOM     59  C   UNL A   1      39.151  29.050  29.036  1.00  0.00    -0.014 A 
ATOM     60  C   UNL A   1      38.361  28.898  30.187  1.00  0.00     0.009 A 
ATOM     61  C   UNL A   1      38.548  29.513  27.856  1.00  0.00     0.009 A 
ATOM     62  C   UNL A   1      36.990  29.165  30.146  1.00  0.00     0.001 A 
ATOM     63  C   UNL A   1      37.184  29.807  27.825  1.00  0.00     0.001 A 
ATOM     64  C   UNL A   1      36.404  29.624  28.967  1.00  0.00     0.000 A 
ENDBRANCH  45  59
BRANCH  46  65
ATOM     65  C   UNL A   1      48.865  26.776  28.754  1.00  0.00    -0.014 A 
ATOM     66  C   UNL A   1      49.533  26.270  29.880  1.00  0.00     0.009 A 
ATOM     67  C   UNL A   1      49.590  26.977  27.569  1.00  0.00     0.009 A 
ATOM     68  C   UNL A   1      50.902  25.998  29.829  1.00  0.00     0.001 A 
ATOM     69  C   UNL A   1      50.953  26.676  27.513  1.00  0.00     0.001 A 
ATOM     70  C   UNL A   1      51.610  26.196  28.645  1.00  0.00     0.000 A 
ENDBRANCH  46  65
BRANCH  58  71
ATOM     71  C   UNL A   1      45.308  32.493  30.526  1.00  0.00    -0.014 A 
ATOM     72  C   UNL A   1      45.492  32.735  31.897  1.00  0.00     0.009 A 
ATOM     73  C   UNL A   1      45.584  33.519  29.609  1.00  0.00     0.009 A 
ATOM     74  C   UNL A   1      45.917  33.990  32.339  1.00  0.00     0.001 A 
ATOM     75  C   UNL A   1      46.036  34.762  30.053  1.00  0.00     0.001 A 
ATOM     76  C   UNL A   1      46.194  34.999  31.417  1.00  0.00     0.000 A 
ENDBRANCH  58  71
ENDBRANCH  32  33
ENDBRANCH  24  27
ENDBRANCH  22  23
ENDBRANCH  21  22
ENDBRANCH   1  21
TORSDOF 13
ENDMDL
MODEL 2
REMARK VINA RESULT:     -10.9      1.202      1.962
REMARK SMILES Cc1noc(C)c1COc1ccc(C(=O)NCCCNC(=O)c2ccc(-c3c4nc(c(-c5ccccc5)c5ccc([nH]5)c(-c5ccccc5)c5nc(c(-c6ccccc6)c6ccc3[nH]6)C=C5)C=C4)cc2)cc1
REMARK SMILES IDX 17 1 16 2 14 3 15 4 13 6 10 7 11 8 72 9 12 10 71 11 9 12
REMARK SMILES IDX 8 13 7 14 1 15 2 16 3 17 4 18 5 19 6 20 18 21 19 22 20 23
REMARK SMILES IDX 21 24 22 26 23 27 24 28 70 29 25 30 69 31 26 32 27 33 28 34
REMARK SMILES IDX 63 35 29 36 68 37 62 38 64 39 30 40 67 41 61 42 60 43 31 45
REMARK SMILES IDX 53 46 38 47 52 48 39 49 42 50 51 51 65 52 40 53 41 54 50 56
REMARK SMILES IDX 66 57 43 58 32 59 33 60 37 61 34 62 36 63 35 64 54 65 55 66
REMARK SMILES IDX 59 67 56 68 58 69 57 70 44 71 45 72 49 73 46 74 48 75 47 76
REMARK H PARENT 16 5 20 25 64 44 42 55
REMARK Flexibility Score: inf
ROOT
ATOM      1  C   UNL A   1      37.396  21.063  24.465  1.00  0.00     0.118 C 
ENDROOT
BRANCH   1   2
ATOM      2  N   UNL A   1      37.912  22.249  25.132  1.00  0.00    -0.352 N 
ATOM      3  C   UNL A   1      37.262  23.339  25.660  1.00  0.00     0.251 C 
ATOM      4  O   UNL A   1      37.911  24.153  26.315  1.00  0.00    -0.269 OA
ATOM      5  H   UNL A   1      38.891  22.275  25.220  1.00  0.00     0.163 HD
BRANCH   3   6
ATOM      6  C   UNL A   1      35.800  23.540  25.496  1.00  0.00     0.040 A 
ATOM      7  C   UNL A   1      33.030  23.837  25.255  1.00  0.00     0.119 A 
ATOM      8  C   UNL A   1      33.572  23.407  26.463  1.00  0.00     0.047 A 
ATOM      9  C   UNL A   1      33.867  24.208  24.207  1.00  0.00     0.047 A 
ATOM     10  C   UNL A   1      34.958  23.254  26.582  1.00  0.00     0.017 A 
ATOM     11  C   UNL A   1      35.246  24.065  24.330  1.00  0.00     0.017 A 
BRANCH   7  12
ATOM     12  O   UNL A   1      31.676  23.994  25.137  1.00  0.00    -0.489 OA
BRANCH  12  13
ATOM     13  C   UNL A   1      31.176  25.027  26.011  1.00  0.00     0.271 C 
BRANCH  13  14
ATOM     14  C   UNL A   1      31.181  26.392  25.414  1.00  0.00     0.055 A 
ATOM     15  C   UNL A   1      33.437  27.379  26.306  1.00  0.00     0.071 C 
ATOM     16  C   UNL A   1      32.164  27.416  25.549  1.00  0.00     0.087 A 
ATOM     17  N   UNL A   1      31.844  28.498  24.830  1.00  0.00    -0.085 NA
ATOM     18  O   UNL A   1      30.644  28.203  24.216  1.00  0.00    -0.361 OA
ATOM     19  C   UNL A   1      30.253  26.948  24.559  1.00  0.00     0.140 A 
ATOM     20  C   UNL A   1      28.992  26.473  23.958  1.00  0.00     0.091 C 
ENDBRANCH  13  14
ENDBRANCH  12  13
ENDBRANCH   7  12
ENDBRANCH   3   6
ENDBRANCH   1   2
BRANCH   1  21
ATOM     21  C   UNL A   1      38.131  19.798  24.905  1.00  0.00     0.042 C 
BRANCH  21  22
ATOM     22  C   UNL A   1      39.118  20.025  26.043  1.00  0.00     0.118 C 
BRANCH  22  23
ATOM     23  N   UNL A   1      40.341  19.256  25.874  1.00  0.00    -0.352 N 
ATOM     24  C   UNL A   1      41.650  19.656  25.975  1.00  0.00     0.251 C 
ATOM     25  H   UNL A   1      40.210  18.305  25.653  1.00  0.00     0.163 HD
ATOM     26  O   UNL A   1      42.544  18.903  25.602  1.00  0.00    -0.269 OA
BRANCH  24  27
ATOM     27  C   UNL A   1      41.993  20.991  26.517  1.00  0.00     0.039 A 
ATOM     28  C   UNL A   1      42.024  21.166  27.905  1.00  0.00     0.014 A 
ATOM     29  C   UNL A   1      42.238  22.076  25.672  1.00  0.00     0.014 A 
ATOM     30  C   UNL A   1      42.348  22.414  28.442  1.00  0.00     0.010 A 
ATOM     31  C   UNL A   1      42.629  23.300  26.208  1.00  0.00     0.010 A 
ATOM     32  C   UNL A   1      42.677  23.485  27.598  1.00  0.00    -0.014 A 
BRANCH  32  33
ATOM     33  C   UNL A   1      43.054  24.814  28.141  1.00  0.00     0.031 A 
ATOM     34  C   UNL A   1      41.995  25.854  28.382  1.00  0.00     0.074 A 
ATOM     35  C   UNL A   1      44.352  25.112  28.347  1.00  0.00     0.049 A 
ATOM     36  N   UNL A   1      42.131  27.104  28.751  1.00  0.00    -0.248 NA
ATOM     37  C   UNL A   1      40.600  25.444  28.155  1.00  0.00     0.031 C 
ATOM     38  C   UNL A   1      45.477  24.202  28.127  1.00  0.00     0.029 A 
ATOM     39  N   UNL A   1      44.942  26.274  28.775  1.00  0.00    -0.354 N 
ATOM     40  C   UNL A   1      40.845  27.632  28.774  1.00  0.00     0.074 A 
ATOM     41  C   UNL A   1      39.949  26.582  28.342  1.00  0.00     0.031 C 
ATOM     42  C   UNL A   1      46.620  24.835  28.439  1.00  0.00     0.029 A 
ATOM     43  C   UNL A   1      46.313  26.204  28.837  1.00  0.00     0.049 A 
ATOM     44  H   UNL A   1      44.433  27.082  29.014  1.00  0.00     0.167 HD
ATOM     45  C   UNL A   1      40.446  28.874  29.135  1.00  0.00     0.031 A 
ATOM     46  C   UNL A   1      47.222  27.142  29.166  1.00  0.00     0.031 A 
ATOM     47  C   UNL A   1      41.336  29.912  29.579  1.00  0.00     0.049 A 
ATOM     48  C   UNL A   1      46.754  28.517  29.550  1.00  0.00     0.074 A 
ATOM     49  C   UNL A   1      41.023  31.187  30.018  1.00  0.00     0.029 A 
ATOM     50  N   UNL A   1      42.716  29.794  29.643  1.00  0.00    -0.354 N 
ATOM     51  N   UNL A   1      45.531  28.985  29.618  1.00  0.00    -0.248 NA
ATOM     52  C   UNL A   1      47.793  29.492  29.912  1.00  0.00     0.031 C 
ATOM     53  C   UNL A   1      42.217  31.857  30.303  1.00  0.00     0.029 A 
ATOM     54  C   UNL A   1      43.269  30.980  30.094  1.00  0.00     0.049 A 
ATOM     55  H   UNL A   1      43.225  28.987  29.402  1.00  0.00     0.167 HD
ATOM     56  C   UNL A   1      45.652  30.295  30.061  1.00  0.00     0.074 A 
ATOM     57  C   UNL A   1      47.065  30.545  30.256  1.00  0.00     0.031 C 
ATOM     58  C   UNL A   1      44.677  31.209  30.291  1.00  0.00     0.031 A 
BRANCH  45  59
ATOM     59  C   UNL A   1      38.976  29.180  29.054  1.00  0.00    -0.014 A 
ATOM     60  C   UNL A   1      38.388  29.619  27.856  1.00  0.00     0.009 A 
ATOM     61  C   UNL A   1      38.160  28.994  30.181  1.00  0.00     0.009 A 
ATOM     62  C   UNL A   1      37.021  29.905  27.801  1.00  0.00     0.001 A 
ATOM     63  C   UNL A   1      36.790  29.252  30.116  1.00  0.00     0.001 A 
ATOM     64  C   UNL A   1      36.224  29.717  28.929  1.00  0.00     0.000 A 
ENDBRANCH  45  59
BRANCH  46  65
ATOM     65  C   UNL A   1      48.670  26.808  29.158  1.00  0.00    -0.014 A 
ATOM     66  C   UNL A   1      49.427  26.957  27.985  1.00  0.00     0.009 A 
ATOM     67  C   UNL A   1      49.304  26.338  30.319  1.00  0.00     0.009 A 
ATOM     68  C   UNL A   1      50.781  26.617  27.968  1.00  0.00     0.001 A 
ATOM     69  C   UNL A   1      50.665  26.025  30.306  1.00  0.00     0.001 A 
ATOM     70  C   UNL A   1      51.400  26.156  29.129  1.00  0.00     0.000 A 
ENDBRANCH  46  65
BRANCH  58  71
ATOM     71  C   UNL A   1      45.099  32.548  30.825  1.00  0.00    -0.014 A 
ATOM     72  C   UNL A   1      45.383  33.621  29.967  1.00  0.00     0.009 A 
ATOM     73  C   UNL A   1      45.160  32.750  32.213  1.00  0.00     0.009 A 
ATOM     74  C   UNL A   1      45.748  34.864  30.491  1.00  0.00     0.001 A 
ATOM     75  C   UNL A   1      45.497  34.000  32.733  1.00  0.00     0.001 A 
ATOM     76  C   UNL A   1      45.799  35.053  31.871  1.00  0.00     0.000 A 
ENDBRANCH  58  71
ENDBRANCH  32  33
ENDBRANCH  24  27
ENDBRANCH  22  23
ENDBRANCH  21  22
ENDBRANCH   1  21
TORSDOF 13
ENDMDL
MODEL 3
REMARK VINA RESULT:     -10.8      3.937      9.255
REMARK SMILES Cc1noc(C)c1COc1ccc(C(=O)NCCCNC(=O)c2ccc(-c3c4nc(c(-c5ccccc5)c5ccc([nH]5)c(-c5ccccc5)c5nc(c(-c6ccccc6)c6ccc3[nH]6)C=C5)C=C4)cc2)cc1
REMARK SMILES IDX 17 1 16 2 14 3 15 4 13 6 10 7 11 8 72 9 12 10 71 11 9 12
REMARK SMILES IDX 8 13 7 14 1 15 2 16 3 17 4 18 5 19 6 20 18 21 19 22 20 23
REMARK SMILES IDX 21 24 22 26 23 27 24 28 70 29 25 30 69 31 26 32 27 33 28 34
REMARK SMILES IDX 63 35 29 36 68 37 62 38 64 39 30 40 67 41 61 42 60 43 31 45
REMARK SMILES IDX 53 46 38 47 52 48 39 49 42 50 51 51 65 52 40 53 41 54 50 56
REMARK SMILES IDX 66 57 43 58 32 59 33 60 37 61 34 62 36 63 35 64 54 65 55 66
REMARK SMILES IDX 59 67 56 68 58 69 57 70 44 71 45 72 49 73 46 74 48 75 47 76
REMARK H PARENT 16 5 20 25 64 44 42 55
REMARK Flexibility Score: inf
ROOT
ATOM      1  C   UNL A   1      31.452  30.499  26.295  1.00  0.00     0.118 C 
ENDROOT
BRANCH   1   2
ATOM      2  N   UNL A   1      31.167  30.161  24.909  1.00  0.00    -0.352 N 
ATOM      3  C   UNL A   1      31.292  28.973  24.228  1.00  0.00     0.251 C 
ATOM      4  O   UNL A   1      30.839  28.896  23.088  1.00  0.00    -0.269 OA
ATOM      5  H   UNL A   1      30.826  30.908  24.367  1.00  0.00     0.163 HD
BRANCH   3   6
ATOM      6  C   UNL A   1      31.919  27.775  24.843  1.00  0.00     0.040 A 
ATOM      7  C   UNL A   1      33.174  25.524  25.927  1.00  0.00     0.119 A 
ATOM      8  C   UNL A   1      33.944  26.525  25.342  1.00  0.00     0.047 A 
ATOM      9  C   UNL A   1      31.798  25.688  26.057  1.00  0.00     0.047 A 
ATOM     10  C   UNL A   1      33.315  27.650  24.795  1.00  0.00     0.017 A 
ATOM     11  C   UNL A   1      31.175  26.811  25.522  1.00  0.00     0.017 A 
BRANCH   7  12
ATOM     12  O   UNL A   1      33.786  24.426  26.468  1.00  0.00    -0.489 OA
BRANCH  12  13
ATOM     13  C   UNL A   1      33.464  23.221  25.745  1.00  0.00     0.271 C 
BRANCH  13  14
ATOM     14  C   UNL A   1      33.867  23.239  24.309  1.00  0.00     0.055 A 
ATOM     15  C   UNL A   1      31.553  23.312  23.084  1.00  0.00     0.071 C 
ATOM     16  C   UNL A   1      33.033  23.273  23.154  1.00  0.00     0.087 A 
ATOM     17  N   UNL A   1      33.758  23.323  22.030  1.00  0.00    -0.085 NA
ATOM     18  O   UNL A   1      35.078  23.317  22.431  1.00  0.00    -0.361 OA
ATOM     19  C   UNL A   1      35.143  23.273  23.787  1.00  0.00     0.140 A 
ATOM     20  C   UNL A   1      36.496  23.289  24.374  1.00  0.00     0.091 C 
ENDBRANCH  13  14
ENDBRANCH  12  13
ENDBRANCH   7  12
ENDBRANCH   3   6
ENDBRANCH   1   2
BRANCH   1  21
ATOM     21  C   UNL A   1      31.399  32.007  26.535  1.00  0.00     0.042 C 
BRANCH  21  22
ATOM     22  C   UNL A   1      32.674  32.577  27.146  1.00  0.00     0.118 C 
BRANCH  22  23
ATOM     23  N   UNL A   1      32.472  33.905  27.703  1.00  0.00    -0.352 N 
ATOM     24  C   UNL A   1      33.177  34.564  28.679  1.00  0.00     0.251 C 
ATOM     25  H   UNL A   1      31.715  34.407  27.322  1.00  0.00     0.163 HD
ATOM     26  O   UNL A   1      32.730  35.604  29.152  1.00  0.00    -0.269 OA
BRANCH  24  27
ATOM     27  C   UNL A   1      34.464  34.025  29.176  1.00  0.00     0.039 A 
ATOM     28  C   UNL A   1      34.460  33.226  30.324  1.00  0.00     0.014 A 
ATOM     29  C   UNL A   1      35.672  34.339  28.549  1.00  0.00     0.014 A 
ATOM     30  C   UNL A   1      35.660  32.702  30.812  1.00  0.00     0.010 A 
ATOM     31  C   UNL A   1      36.857  33.760  28.994  1.00  0.00     0.010 A 
ATOM     32  C   UNL A   1      36.865  32.945  30.137  1.00  0.00    -0.014 A 
BRANCH  32  33
ATOM     33  C   UNL A   1      38.151  32.377  30.614  1.00  0.00     0.031 A 
ATOM     34  C   UNL A   1      38.676  31.100  30.017  1.00  0.00     0.074 A 
ATOM     35  C   UNL A   1      38.809  32.966  31.631  1.00  0.00     0.049 A 
ATOM     36  N   UNL A   1      39.720  30.390  30.366  1.00  0.00    -0.248 NA
ATOM     37  C   UNL A   1      37.911  30.531  28.896  1.00  0.00     0.031 C 
ATOM     38  C   UNL A   1      38.393  34.193  32.314  1.00  0.00     0.029 A 
ATOM     39  N   UNL A   1      39.963  32.600  32.277  1.00  0.00    -0.354 N 
ATOM     40  C   UNL A   1      39.721  29.283  29.526  1.00  0.00     0.074 A 
ATOM     41  C   UNL A   1      38.553  29.391  28.680  1.00  0.00     0.031 C 
ATOM     42  C   UNL A   1      39.289  34.486  33.270  1.00  0.00     0.029 A 
ATOM     43  C   UNL A   1      40.315  33.449  33.299  1.00  0.00     0.049 A 
ATOM     44  H   UNL A   1      40.489  31.805  32.033  1.00  0.00     0.167 HD
ATOM     45  C   UNL A   1      40.621  28.273  29.456  1.00  0.00     0.031 A 
ATOM     46  C   UNL A   1      41.341  33.393  34.168  1.00  0.00     0.031 A 
ATOM     47  C   UNL A   1      41.791  28.174  30.286  1.00  0.00     0.049 A 
ATOM     48  C   UNL A   1      42.319  32.254  34.078  1.00  0.00     0.074 A 
ATOM     49  C   UNL A   1      42.791  27.218  30.256  1.00  0.00     0.029 A 
ATOM     50  N   UNL A   1      42.118  29.065  31.297  1.00  0.00    -0.354 N 
ATOM     51  N   UNL A   1      42.336  31.244  33.244  1.00  0.00    -0.248 NA
ATOM     52  C   UNL A   1      43.426  32.256  35.045  1.00  0.00     0.031 C 
ATOM     53  C   UNL A   1      43.700  27.504  31.279  1.00  0.00     0.029 A 
ATOM     54  C   UNL A   1      43.294  28.669  31.911  1.00  0.00     0.049 A 
ATOM     55  H   UNL A   1      41.592  29.859  31.542  1.00  0.00     0.167 HD
ATOM     56  C   UNL A   1      43.469  30.508  33.564  1.00  0.00     0.074 A 
ATOM     57  C   UNL A   1      44.120  31.194  34.661  1.00  0.00     0.031 C 
ATOM     58  C   UNL A   1      43.933  29.368  32.995  1.00  0.00     0.031 A 
BRANCH  45  59
ATOM     59  C   UNL A   1      40.366  27.188  28.448  1.00  0.00    -0.014 A 
ATOM     60  C   UNL A   1      40.914  27.249  27.156  1.00  0.00     0.009 A 
ATOM     61  C   UNL A   1      39.594  26.071  28.804  1.00  0.00     0.009 A 
ATOM     62  C   UNL A   1      40.660  26.235  26.230  1.00  0.00     0.001 A 
ATOM     63  C   UNL A   1      39.365  25.044  27.886  1.00  0.00     0.001 A 
ATOM     64  C   UNL A   1      39.890  25.132  26.597  1.00  0.00     0.000 A 
ENDBRANCH  45  59
BRANCH  46  65
ATOM     65  C   UNL A   1      41.506  34.454  35.195  1.00  0.00    -0.014 A 
ATOM     66  C   UNL A   1      40.861  34.346  36.436  1.00  0.00     0.009 A 
ATOM     67  C   UNL A   1      42.304  35.580  34.941  1.00  0.00     0.009 A 
ATOM     68  C   UNL A   1      40.990  35.356  37.392  1.00  0.00     0.001 A 
ATOM     69  C   UNL A   1      42.455  36.575  35.909  1.00  0.00     0.001 A 
ATOM     70  C   UNL A   1      41.791  36.467  37.130  1.00  0.00     0.000 A 
ENDBRANCH  46  65
BRANCH  58  71
ATOM     71  C   UNL A   1      45.229  28.816  33.515  1.00  0.00    -0.014 A 
ATOM     72  C   UNL A   1      45.257  27.862  34.545  1.00  0.00     0.009 A 
ATOM     73  C   UNL A   1      46.438  29.219  32.926  1.00  0.00     0.009 A 
ATOM     74  C   UNL A   1      46.475  27.345  34.992  1.00  0.00     0.001 A 
ATOM     75  C   UNL A   1      47.650  28.679  33.356  1.00  0.00     0.001 A 
ATOM     76  C   UNL A   1      47.668  27.749  34.394  1.00  0.00     0.000 A 
ENDBRANCH  58  71
ENDBRANCH  32  33
ENDBRANCH  24  27
ENDBRANCH  22  23
ENDBRANCH  21  22
ENDBRANCH   1  21
TORSDOF 13
ENDMDL
