MODEL 1
REMARK VINA RESULT:     -10.2      0.000      0.000
REMARK SMILES NC(=[NH2+])N1CCC[C@H]1C(=O)NCCCNC(=O)c1ccc(-c2c3nc(c(-c4ccccc4)c4ccc([nH]4)c(-c4ccccc4)c4nc(c(-c5ccccc5)c5ccc2[nH]5)C=C4)C=C3)cc1
REMARK SMILES IDX 13 1 12 2 11 3 9 4 10 5 8 7 4 8 5 9 6 10 7 11 2 12 3 13 1 16
REMARK SMILES IDX 14 19 15 20 16 21 17 23 18 24 19 25 65 26 20 27 64 28 21 29
REMARK SMILES IDX 22 30 23 31 58 32 24 33 63 34 57 35 59 36 25 37 62 38 56 39
REMARK SMILES IDX 55 40 26 42 48 43 33 44 47 45 34 46 37 47 46 48 60 49 35 50
REMARK SMILES IDX 36 51 45 53 61 54 38 55 27 56 28 57 32 58 29 59 31 60 30 61
REMARK SMILES IDX 49 62 50 63 54 64 51 65 53 66 52 67 39 68 40 69 44 70 41 71
REMARK SMILES IDX 43 72 42 73
REMARK H PARENT 11 6 3 14 3 15 1 17 1 18 15 22 59 41 37 52
REMARK Flexibility Score: inf
ROOT
ATOM      1  C   UNL A   1      38.282  20.101  24.920  1.00  0.00     0.042 C 
ENDROOT
BRANCH   1   2
ATOM      2  C   UNL A   1      37.604  21.472  24.979  1.00  0.00     0.117 C 
BRANCH   2   3
ATOM      3  N   UNL A   1      36.580  21.525  26.004  1.00  0.00    -0.353 N 
ATOM      4  C   UNL A   1      35.221  21.434  25.968  1.00  0.00     0.257 C 
ATOM      5  O   UNL A   1      34.678  21.524  27.078  1.00  0.00    -0.271 OA
ATOM      6  H   UNL A   1      36.939  21.653  26.912  1.00  0.00     0.163 HD
BRANCH   4   7
ATOM      7  C   UNL A   1      34.409  21.108  24.679  1.00  0.00     0.237 C 
ATOM      8  N   UNL A   1      33.096  20.485  25.000  1.00  0.00    -0.253 N 
ATOM      9  C   UNL A   1      32.005  21.304  24.484  1.00  0.00     0.201 C 
ATOM     10  C   UNL A   1      32.631  21.985  23.284  1.00  0.00     0.042 C 
ATOM     11  C   UNL A   1      34.019  22.307  23.801  1.00  0.00     0.055 C 
BRANCH   8  12
ATOM     12  C   UNL A   1      32.895  19.184  25.347  1.00  0.00     0.341 C 
ATOM     13  N   UNL A   1      32.665  18.255  24.484  1.00  0.00    -0.291 N 
ATOM     14  H   UNL A   1      32.525  17.328  24.785  1.00  0.00     0.256 HD
ATOM     15  H   UNL A   1      32.628  18.472  23.524  1.00  0.00     0.256 HD
ATOM     16  N   UNL A   1      32.942  18.907  26.658  1.00  0.00    -0.291 N 
ATOM     17  H   UNL A   1      32.804  17.982  26.971  1.00  0.00     0.256 HD
ATOM     18  H   UNL A   1      33.115  19.625  27.308  1.00  0.00     0.256 HD
ENDBRANCH   8  12
ENDBRANCH   4   7
ENDBRANCH   2   3
ENDBRANCH   1   2
BRANCH   1  19
ATOM     19  C   UNL A   1      39.109  19.756  26.156  1.00  0.00     0.118 C 
BRANCH  19  20
ATOM     20  N   UNL A   1      40.387  19.153  25.818  1.00  0.00    -0.352 N 
ATOM     21  C   UNL A   1      41.648  19.693  25.829  1.00  0.00     0.251 C 
ATOM     22  H   UNL A   1      40.341  18.210  25.538  1.00  0.00     0.163 HD
ATOM     23  O   UNL A   1      42.575  19.063  25.319  1.00  0.00    -0.269 OA
BRANCH  21  24
ATOM     24  C   UNL A   1      41.914  21.021  26.429  1.00  0.00     0.039 A 
ATOM     25  C   UNL A   1      42.291  22.071  25.584  1.00  0.00     0.014 A 
ATOM     26  C   UNL A   1      41.860  21.230  27.809  1.00  0.00     0.014 A 
ATOM     27  C   UNL A   1      42.572  23.333  26.115  1.00  0.00     0.010 A 
ATOM     28  C   UNL A   1      42.077  22.505  28.333  1.00  0.00     0.010 A 
ATOM     29  C   UNL A   1      42.447  23.567  27.493  1.00  0.00    -0.014 A 
BRANCH  29  30
ATOM     30  C   UNL A   1      42.721  24.907  28.073  1.00  0.00     0.031 A 
ATOM     31  C   UNL A   1      44.109  25.265  28.531  1.00  0.00     0.074 A 
ATOM     32  C   UNL A   1      41.713  25.785  28.237  1.00  0.00     0.049 A 
ATOM     33  N   UNL A   1      44.529  26.360  29.114  1.00  0.00    -0.248 NA
ATOM     34  C   UNL A   1      45.158  24.253  28.326  1.00  0.00     0.031 C 
ATOM     35  C   UNL A   1      40.316  25.554  27.867  1.00  0.00     0.029 A 
ATOM     36  N   UNL A   1      41.711  27.051  28.767  1.00  0.00    -0.354 N 
ATOM     37  C   UNL A   1      45.879  26.159  29.368  1.00  0.00     0.074 A 
ATOM     38  C   UNL A   1      46.201  24.825  28.909  1.00  0.00     0.031 C 
ATOM     39  C   UNL A   1      39.596  26.648  28.164  1.00  0.00     0.029 A 
ATOM     40  C   UNL A   1      40.472  27.644  28.772  1.00  0.00     0.049 A 
ATOM     41  H   UNL A   1      42.522  27.493  29.111  1.00  0.00     0.167 HD
ATOM     42  C   UNL A   1      46.777  27.010  29.921  1.00  0.00     0.031 A 
ATOM     43  C   UNL A   1      40.082  28.851  29.222  1.00  0.00     0.031 A 
ATOM     44  C   UNL A   1      46.469  28.344  30.360  1.00  0.00     0.049 A 
ATOM     45  C   UNL A   1      41.098  29.782  29.821  1.00  0.00     0.074 A 
ATOM     46  C   UNL A   1      47.325  29.301  30.879  1.00  0.00     0.029 A 
ATOM     47  N   UNL A   1      45.206  28.913  30.326  1.00  0.00    -0.354 N 
ATOM     48  N   UNL A   1      42.382  29.595  30.002  1.00  0.00    -0.248 NA
ATOM     49  C   UNL A   1      40.611  31.097  30.264  1.00  0.00     0.031 C 
ATOM     50  C   UNL A   1      46.571  30.437  31.195  1.00  0.00     0.029 A 
ATOM     51  C   UNL A   1      45.255  30.202  30.830  1.00  0.00     0.049 A 
ATOM     52  H   UNL A   1      44.393  28.466  29.993  1.00  0.00     0.167 HD
ATOM     53  C   UNL A   1      42.862  30.775  30.555  1.00  0.00     0.074 A 
ATOM     54  C   UNL A   1      41.733  31.676  30.669  1.00  0.00     0.031 C 
ATOM     55  C   UNL A   1      44.125  31.086  30.934  1.00  0.00     0.031 A 
BRANCH  42  56
ATOM     56  C   UNL A   1      48.185  26.513  30.089  1.00  0.00    -0.014 A 
ATOM     57  C   UNL A   1      48.582  25.837  31.254  1.00  0.00     0.009 A 
ATOM     58  C   UNL A   1      49.118  26.695  29.057  1.00  0.00     0.009 A 
ATOM     59  C   UNL A   1      49.897  25.385  31.396  1.00  0.00     0.001 A 
ATOM     60  C   UNL A   1      50.425  26.220  29.192  1.00  0.00     0.001 A 
ATOM     61  C   UNL A   1      50.815  25.575  30.364  1.00  0.00     0.000 A 
ENDBRANCH  42  56
BRANCH  43  62
ATOM     62  C   UNL A   1      38.660  29.260  29.104  1.00  0.00    -0.014 A 
ATOM     63  C   UNL A   1      37.791  29.129  30.199  1.00  0.00     0.009 A 
ATOM     64  C   UNL A   1      38.163  29.781  27.900  1.00  0.00     0.009 A 
ATOM     65  C   UNL A   1      36.447  29.490  30.081  1.00  0.00     0.001 A 
ATOM     66  C   UNL A   1      36.825  30.165  27.794  1.00  0.00     0.001 A 
ATOM     67  C   UNL A   1      35.967  30.012  28.881  1.00  0.00     0.000 A 
ENDBRANCH  43  62
BRANCH  55  68
ATOM     68  C   UNL A   1      44.359  32.468  31.472  1.00  0.00    -0.014 A 
ATOM     69  C   UNL A   1      44.675  33.536  30.620  1.00  0.00     0.009 A 
ATOM     70  C   UNL A   1      44.225  32.708  32.849  1.00  0.00     0.009 A 
ATOM     71  C   UNL A   1      44.882  34.815  31.141  1.00  0.00     0.001 A 
ATOM     72  C   UNL A   1      44.409  33.991  33.364  1.00  0.00     0.001 A 
ATOM     73  C   UNL A   1      44.746  35.042  32.511  1.00  0.00     0.000 A 
ENDBRANCH  55  68
ENDBRANCH  29  30
ENDBRANCH  21  24
ENDBRANCH  19  20
ENDBRANCH   1  19
TORSDOF 11
ENDMDL
MODEL 2
REMARK VINA RESULT:     -10.1      0.826      6.365
REMARK SMILES NC(=[NH2+])N1CCC[C@H]1C(=O)NCCCNC(=O)c1ccc(-c2c3nc(c(-c4ccccc4)c4ccc([nH]4)c(-c4ccccc4)c4nc(c(-c5ccccc5)c5ccc2[nH]5)C=C4)C=C3)cc1
REMARK SMILES IDX 13 1 12 2 11 3 9 4 10 5 8 7 4 8 5 9 6 10 7 11 2 12 3 13 1 16
REMARK SMILES IDX 14 19 15 20 16 21 17 23 18 24 19 25 65 26 20 27 64 28 21 29
REMARK SMILES IDX 22 30 23 31 58 32 24 33 63 34 57 35 59 36 25 37 62 38 56 39
REMARK SMILES IDX 55 40 26 42 48 43 33 44 47 45 34 46 37 47 46 48 60 49 35 50
REMARK SMILES IDX 36 51 45 53 61 54 38 55 27 56 28 57 32 58 29 59 31 60 30 61
REMARK SMILES IDX 49 62 50 63 54 64 51 65 53 66 52 67 39 68 40 69 44 70 41 71
REMARK SMILES IDX 43 72 42 73
REMARK H PARENT 11 6 3 14 3 15 1 17 1 18 15 22 59 41 37 52
REMARK Flexibility Score: inf
ROOT
ATOM      1  C   UNL A   1      38.328  20.267  24.989  1.00  0.00     0.042 C 
ENDROOT
BRANCH   1   2
ATOM      2  C   UNL A   1      37.705  21.664  25.014  1.00  0.00     0.117 C 
BRANCH   2   3
ATOM      3  N   UNL A   1      36.657  21.773  26.011  1.00  0.00    -0.353 N 
ATOM      4  C   UNL A   1      35.305  21.615  25.960  1.00  0.00     0.257 C 
ATOM      5  O   UNL A   1      34.734  21.790  27.046  1.00  0.00    -0.271 OA
ATOM      6  H   UNL A   1      36.991  22.007  26.906  1.00  0.00     0.163 HD
BRANCH   4   7
ATOM      7  C   UNL A   1      34.537  21.124  24.697  1.00  0.00     0.237 C 
ATOM      8  N   UNL A   1      33.430  20.195  25.053  1.00  0.00    -0.253 N 
ATOM      9  C   UNL A   1      32.150  20.733  24.606  1.00  0.00     0.201 C 
ATOM     10  C   UNL A   1      32.536  21.566  23.401  1.00  0.00     0.042 C 
ATOM     11  C   UNL A   1      33.828  22.207  23.870  1.00  0.00     0.055 C 
BRANCH   8  12
ATOM     12  C   UNL A   1      33.565  18.879  25.372  1.00  0.00     0.341 C 
ATOM     13  N   UNL A   1      34.279  18.059  24.680  1.00  0.00    -0.291 N 
ATOM     14  H   UNL A   1      34.346  17.115  24.951  1.00  0.00     0.256 HD
ATOM     15  H   UNL A   1      34.758  18.376  23.880  1.00  0.00     0.256 HD
ATOM     16  N   UNL A   1      32.903  18.461  26.461  1.00  0.00    -0.291 N 
ATOM     17  H   UNL A   1      32.962  17.518  26.742  1.00  0.00     0.256 HD
ATOM     18  H   UNL A   1      32.358  19.096  26.980  1.00  0.00     0.256 HD
ENDBRANCH   8  12
ENDBRANCH   4   7
ENDBRANCH   2   3
ENDBRANCH   1   2
BRANCH   1  19
ATOM     19  C   UNL A   1      39.133  19.916  26.238  1.00  0.00     0.118 C 
BRANCH  19  20
ATOM     20  N   UNL A   1      40.360  19.204  25.926  1.00  0.00    -0.352 N 
ATOM     21  C   UNL A   1      41.657  19.649  25.901  1.00  0.00     0.251 C 
ATOM     22  H   UNL A   1      40.242  18.253  25.697  1.00  0.00     0.163 HD
ATOM     23  O   UNL A   1      42.530  18.926  25.420  1.00  0.00    -0.269 OA
BRANCH  21  24
ATOM     24  C   UNL A   1      42.025  20.984  26.427  1.00  0.00     0.039 A 
ATOM     25  C   UNL A   1      42.297  22.009  25.514  1.00  0.00     0.014 A 
ATOM     26  C   UNL A   1      42.168  21.222  27.796  1.00  0.00     0.014 A 
ATOM     27  C   UNL A   1      42.669  23.277  25.972  1.00  0.00     0.010 A 
ATOM     28  C   UNL A   1      42.476  22.503  28.256  1.00  0.00     0.010 A 
ATOM     29  C   UNL A   1      42.741  23.540  27.349  1.00  0.00    -0.014 A 
BRANCH  29  30
ATOM     30  C   UNL A   1      43.115  24.886  27.854  1.00  0.00     0.031 A 
ATOM     31  C   UNL A   1      42.050  25.908  28.149  1.00  0.00     0.074 A 
ATOM     32  C   UNL A   1      44.414  25.211  27.999  1.00  0.00     0.049 A 
ATOM     33  N   UNL A   1      42.184  27.151  28.540  1.00  0.00    -0.248 NA
ATOM     34  C   UNL A   1      40.654  25.485  27.961  1.00  0.00     0.031 C 
ATOM     35  C   UNL A   1      45.546  24.327  27.717  1.00  0.00     0.029 A 
ATOM     36  N   UNL A   1      45.000  26.381  28.414  1.00  0.00    -0.354 N 
ATOM     37  C   UNL A   1      40.896  27.664  28.618  1.00  0.00     0.074 A 
ATOM     38  C   UNL A   1      39.996  26.610  28.201  1.00  0.00     0.031 C 
ATOM     39  C   UNL A   1      46.690  24.979  27.986  1.00  0.00     0.029 A 
ATOM     40  C   UNL A   1      46.373  26.334  28.427  1.00  0.00     0.049 A 
ATOM     41  H   UNL A   1      44.485  27.178  28.678  1.00  0.00     0.167 HD
ATOM     42  C   UNL A   1      40.493  28.895  29.014  1.00  0.00     0.031 A 
ATOM     43  C   UNL A   1      47.277  27.278  28.751  1.00  0.00     0.031 A 
ATOM     44  C   UNL A   1      41.380  29.940  29.451  1.00  0.00     0.049 A 
ATOM     45  C   UNL A   1      46.805  28.632  29.199  1.00  0.00     0.074 A 
ATOM     46  C   UNL A   1      41.061  31.201  29.925  1.00  0.00     0.029 A 
ATOM     47  N   UNL A   1      42.762  29.843  29.469  1.00  0.00    -0.354 N 
ATOM     48  N   UNL A   1      45.580  29.081  29.320  1.00  0.00    -0.248 NA
ATOM     49  C   UNL A   1      47.844  29.605  29.568  1.00  0.00     0.031 C 
ATOM     50  C   UNL A   1      42.253  31.880  30.197  1.00  0.00     0.029 A 
ATOM     51  C   UNL A   1      43.312  31.026  29.933  1.00  0.00     0.049 A 
ATOM     52  H   UNL A   1      43.278  29.050  29.194  1.00  0.00     0.167 HD
ATOM     53  C   UNL A   1      45.699  30.377  29.803  1.00  0.00     0.074 A 
ATOM     54  C   UNL A   1      47.114  30.638  29.964  1.00  0.00     0.031 C 
ATOM     55  C   UNL A   1      44.722  31.271  30.090  1.00  0.00     0.031 A 
BRANCH  42  56
ATOM     56  C   UNL A   1      39.018  29.181  28.985  1.00  0.00    -0.014 A 
ATOM     57  C   UNL A   1      38.225  29.023  30.133  1.00  0.00     0.009 A 
ATOM     58  C   UNL A   1      38.420  29.644  27.804  1.00  0.00     0.009 A 
ATOM     59  C   UNL A   1      36.855  29.289  30.087  1.00  0.00     0.001 A 
ATOM     60  C   UNL A   1      37.054  29.934  27.768  1.00  0.00     0.001 A 
ATOM     61  C   UNL A   1      36.272  29.747  28.906  1.00  0.00     0.000 A 
ENDBRANCH  42  56
BRANCH  43  62
ATOM     62  C   UNL A   1      48.727  26.966  28.685  1.00  0.00    -0.014 A 
ATOM     63  C   UNL A   1      49.457  27.234  27.516  1.00  0.00     0.009 A 
ATOM     64  C   UNL A   1      49.388  26.399  29.784  1.00  0.00     0.009 A 
ATOM     65  C   UNL A   1      50.816  26.919  27.444  1.00  0.00     0.001 A 
ATOM     66  C   UNL A   1      50.752  26.109  29.718  1.00  0.00     0.001 A 
ATOM     67  C   UNL A   1      51.462  26.361  28.545  1.00  0.00     0.000 A 
ENDBRANCH  43  62
BRANCH  55  68
ATOM     68  C   UNL A   1      45.149  32.601  30.640  1.00  0.00    -0.014 A 
ATOM     69  C   UNL A   1      45.284  33.722  29.808  1.00  0.00     0.009 A 
ATOM     70  C   UNL A   1      45.382  32.739  32.017  1.00  0.00     0.009 A 
ATOM     71  C   UNL A   1      45.676  34.951  30.342  1.00  0.00     0.001 A 
ATOM     72  C   UNL A   1      45.751  33.974  32.551  1.00  0.00     0.001 A 
ATOM     73  C   UNL A   1      45.905  35.077  31.711  1.00  0.00     0.000 A 
ENDBRANCH  55  68
ENDBRANCH  29  30
ENDBRANCH  21  24
ENDBRANCH  19  20
ENDBRANCH   1  19
TORSDOF 11
ENDMDL
MODEL 3
REMARK VINA RESULT:     -10.0      4.707      9.512
REMARK SMILES NC(=[NH2+])N1CCC[C@H]1C(=O)NCCCNC(=O)c1ccc(-c2c3nc(c(-c4ccccc4)c4ccc([nH]4)c(-c4ccccc4)c4nc(c(-c5ccccc5)c5ccc2[nH]5)C=C4)C=C3)cc1
REMARK SMILES IDX 13 1 12 2 11 3 9 4 10 5 8 7 4 8 5 9 6 10 7 11 2 12 3 13 1 16
REMARK SMILES IDX 14 19 15 20 16 21 17 23 18 24 19 25 65 26 20 27 64 28 21 29
REMARK SMILES IDX 22 30 23 31 58 32 24 33 63 34 57 35 59 36 25 37 62 38 56 39
REMARK SMILES IDX 55 40 26 42 48 43 33 44 47 45 34 46 37 47 46 48 60 49 35 50
REMARK SMILES IDX 36 51 45 53 61 54 38 55 27 56 28 57 32 58 29 59 31 60 30 61
REMARK SMILES IDX 49 62 50 63 54 64 51 65 53 66 52 67 39 68 40 69 44 70 41 71
REMARK SMILES IDX 43 72 42 73
REMARK H PARENT 11 6 3 14 3 15 1 17 1 18 15 22 59 41 37 52
REMARK Flexibility Score: inf
ROOT
ATOM      1  C   UNL A   1      31.487  32.130  26.868  1.00  0.00     0.042 C 
ENDROOT
BRANCH   1   2
ATOM      2  C   UNL A   1      31.808  30.634  26.846  1.00  0.00     0.117 C 
BRANCH   2   3
ATOM      3  N   UNL A   1      32.563  30.259  25.666  1.00  0.00    -0.353 N 
ATOM      4  C   UNL A   1      32.333  29.372  24.658  1.00  0.00     0.257 C 
ATOM      5  O   UNL A   1      33.230  29.333  23.804  1.00  0.00    -0.271 OA
ATOM      6  H   UNL A   1      33.414  30.744  25.574  1.00  0.00     0.163 HD
BRANCH   4   7
ATOM      7  C   UNL A   1      31.008  28.568  24.497  1.00  0.00     0.237 C 
ATOM      8  N   UNL A   1      30.651  28.379  23.065  1.00  0.00    -0.253 N 
ATOM      9  C   UNL A   1      30.583  26.958  22.741  1.00  0.00     0.201 C 
ATOM     10  C   UNL A   1      30.189  26.328  24.061  1.00  0.00     0.042 C 
ATOM     11  C   UNL A   1      31.014  27.133  25.046  1.00  0.00     0.055 C 
BRANCH   8  12
ATOM     12  C   UNL A   1      30.077  29.311  22.256  1.00  0.00     0.341 C 
ATOM     13  N   UNL A   1      30.761  30.129  21.533  1.00  0.00    -0.291 N 
ATOM     14  H   UNL A   1      30.299  30.787  20.964  1.00  0.00     0.256 HD
ATOM     15  H   UNL A   1      31.745  30.098  21.550  1.00  0.00     0.256 HD
ATOM     16  N   UNL A   1      28.736  29.345  22.249  1.00  0.00    -0.291 N 
ATOM     17  H   UNL A   1      28.263  29.998  21.682  1.00  0.00     0.256 HD
ATOM     18  H   UNL A   1      28.224  28.717  22.807  1.00  0.00     0.256 HD
ENDBRANCH   8  12
ENDBRANCH   4   7
ENDBRANCH   2   3
ENDBRANCH   1   2
BRANCH   1  19
ATOM     19  C   UNL A   1      32.716  33.035  26.919  1.00  0.00     0.118 C 
BRANCH  19  20
ATOM     20  N   UNL A   1      32.520  34.191  27.777  1.00  0.00    -0.352 N 
ATOM     21  C   UNL A   1      33.208  34.586  28.896  1.00  0.00     0.251 C 
ATOM     22  H   UNL A   1      31.778  34.782  27.515  1.00  0.00     0.163 HD
ATOM     23  O   UNL A   1      32.754  35.496  29.589  1.00  0.00    -0.269 OA
BRANCH  21  24
ATOM     24  C   UNL A   1      34.476  33.931  29.294  1.00  0.00     0.039 A 
ATOM     25  C   UNL A   1      35.635  34.224  28.567  1.00  0.00     0.014 A 
ATOM     26  C   UNL A   1      34.527  32.989  30.325  1.00  0.00     0.014 A 
ATOM     27  C   UNL A   1      36.846  33.609  28.898  1.00  0.00     0.010 A 
ATOM     28  C   UNL A   1      35.747  32.424  30.697  1.00  0.00     0.010 A 
ATOM     29  C   UNL A   1      36.917  32.719  29.980  1.00  0.00    -0.014 A 
BRANCH  29  30
ATOM     30  C   UNL A   1      38.199  32.072  30.359  1.00  0.00     0.031 A 
ATOM     31  C   UNL A   1      39.136  32.750  31.322  1.00  0.00     0.074 A 
ATOM     32  C   UNL A   1      38.548  30.898  29.800  1.00  0.00     0.049 A 
ATOM     33  N   UNL A   1      40.322  32.370  31.727  1.00  0.00    -0.248 NA
ATOM     34  C   UNL A   1      38.691  34.034  31.888  1.00  0.00     0.031 C 
ATOM     35  C   UNL A   1      37.749  30.149  28.828  1.00  0.00     0.029 A 
ATOM     36  N   UNL A   1      39.675  30.131  29.964  1.00  0.00    -0.354 N 
ATOM     37  C   UNL A   1      40.774  33.376  32.571  1.00  0.00     0.074 A 
ATOM     38  C   UNL A   1      39.751  34.400  32.593  1.00  0.00     0.031 C 
ATOM     39  C   UNL A   1      38.401  29.022  28.498  1.00  0.00     0.029 A 
ATOM     40  C   UNL A   1      39.676  28.984  29.208  1.00  0.00     0.049 A 
ATOM     41  H   UNL A   1      40.412  30.379  30.568  1.00  0.00     0.167 HD
ATOM     42  C   UNL A   1      41.928  33.440  33.276  1.00  0.00     0.031 A 
ATOM     43  C   UNL A   1      40.601  28.013  29.094  1.00  0.00     0.031 A 
ATOM     44  C   UNL A   1      42.939  32.417  33.276  1.00  0.00     0.049 A 
ATOM     45  C   UNL A   1      41.869  28.100  29.896  1.00  0.00     0.074 A 
ATOM     46  C   UNL A   1      44.116  32.366  34.003  1.00  0.00     0.029 A 
ATOM     47  N   UNL A   1      42.890  31.261  32.513  1.00  0.00    -0.354 N 
ATOM     48  N   UNL A   1      42.254  29.033  30.731  1.00  0.00    -0.248 NA
ATOM     49  C   UNL A   1      42.823  26.992  29.746  1.00  0.00     0.031 C 
ATOM     50  C   UNL A   1      44.798  31.196  33.652  1.00  0.00     0.029 A 
ATOM     51  C   UNL A   1      44.023  30.498  32.739  1.00  0.00     0.049 A 
ATOM     52  H   UNL A   1      42.158  31.019  31.900  1.00  0.00     0.167 HD
ATOM     53  C   UNL A   1      43.481  28.613  31.227  1.00  0.00     0.074 A 
ATOM     54  C   UNL A   1      43.770  27.335  30.608  1.00  0.00     0.031 C 
ATOM     55  C   UNL A   1      44.295  29.228  32.118  1.00  0.00     0.031 A 
BRANCH  42  56
ATOM     56  C   UNL A   1      42.163  34.670  34.106  1.00  0.00    -0.014 A 
ATOM     57  C   UNL A   1      42.783  35.807  33.562  1.00  0.00     0.009 A 
ATOM     58  C   UNL A   1      41.729  34.706  35.440  1.00  0.00     0.009 A 
ATOM     59  C   UNL A   1      42.997  36.940  34.349  1.00  0.00     0.001 A 
ATOM     60  C   UNL A   1      41.922  35.850  36.218  1.00  0.00     0.001 A 
ATOM     61  C   UNL A   1      42.564  36.962  35.674  1.00  0.00     0.000 A 
ENDBRANCH  42  56
BRANCH  43  62
ATOM     62  C   UNL A   1      40.353  26.858  28.195  1.00  0.00    -0.014 A 
ATOM     63  C   UNL A   1      39.626  25.748  28.652  1.00  0.00     0.009 A 
ATOM     64  C   UNL A   1      40.841  26.856  26.880  1.00  0.00     0.009 A 
ATOM     65  C   UNL A   1      39.412  24.649  27.816  1.00  0.00     0.001 A 
ATOM     66  C   UNL A   1      40.604  25.769  26.038  1.00  0.00     0.001 A 
ATOM     67  C   UNL A   1      39.897  24.663  26.509  1.00  0.00     0.000 A 
ENDBRANCH  43  62
BRANCH  55  68
ATOM     68  C   UNL A   1      45.558  28.513  32.503  1.00  0.00    -0.014 A 
ATOM     69  C   UNL A   1      45.580  27.598  33.566  1.00  0.00     0.009 A 
ATOM     70  C   UNL A   1      46.731  28.732  31.765  1.00  0.00     0.009 A 
ATOM     71  C   UNL A   1      46.763  26.938  33.902  1.00  0.00     0.001 A 
ATOM     72  C   UNL A   1      47.907  28.054  32.089  1.00  0.00     0.001 A 
ATOM     73  C   UNL A   1      47.924  27.164  33.162  1.00  0.00     0.000 A 
ENDBRANCH  55  68
ENDBRANCH  29  30
ENDBRANCH  21  24
ENDBRANCH  19  20
ENDBRANCH   1  19
TORSDOF 11
ENDMDL
