MODEL 1
REMARK VINA RESULT:     -11.4      0.000      0.000
REMARK SMILES O=C(Cc1ccn(-c2ccccc2F)c1)NCCCNC(=O)c1ccc(-c2c3nc(c(-c4ccccc4)c4ccc([nH]4)c(-c4ccccc4)c4nc(c(-c5ccccc5)c5ccc2[nH]5)C=C4)C=C3)cc1
REMARK SMILES IDX 18 1 17 2 16 3 1 4 2 5 3 7 4 8 5 9 15 10 6 11 7 12 8 13 9 14
REMARK SMILES IDX 13 15 10 16 12 17 14 18 11 19 19 20 20 21 21 22 22 24 23 25
REMARK SMILES IDX 24 26 70 27 25 28 69 29 26 30 27 31 28 32 63 33 29 34 68 35
REMARK SMILES IDX 62 36 64 37 30 38 67 39 61 40 60 41 31 43 53 44 38 45 52 46
REMARK SMILES IDX 39 47 42 48 51 49 65 50 40 51 41 52 50 54 66 55 43 56 32 57
REMARK SMILES IDX 33 58 37 59 34 60 36 61 35 62 54 63 55 64 59 65 56 66 58 67
REMARK SMILES IDX 57 68 44 69 45 70 49 71 46 72 48 73 47 74
REMARK H PARENT 16 6 20 23 64 42 42 53
REMARK Flexibility Score: inf
ROOT
ATOM      1  C   UNL A   1      34.223  29.309  26.195  1.00  0.00     0.042 C 
ENDROOT
BRANCH   1   2
ATOM      2  C   UNL A   1      33.453  28.188  25.498  1.00  0.00     0.117 C 
BRANCH   2   3
ATOM      3  N   UNL A   1      33.622  26.899  26.142  1.00  0.00    -0.356 N 
ATOM      4  O   UNL A   1      31.835  25.880  25.125  1.00  0.00    -0.275 OA
ATOM      5  C   UNL A   1      32.837  25.804  25.833  1.00  0.00     0.224 C 
ATOM      6  H   UNL A   1      34.322  26.799  26.826  1.00  0.00     0.163 HD
BRANCH   5   7
ATOM      7  C   UNL A   1      33.266  24.499  26.492  1.00  0.00     0.137 C 
BRANCH   7   8
ATOM      8  C   UNL A   1      33.737  23.425  25.550  1.00  0.00    -0.021 A 
ATOM      9  C   UNL A   1      34.810  23.456  24.616  1.00  0.00     0.024 A 
ATOM     10  C   UNL A   1      33.174  22.164  25.430  1.00  0.00     0.095 A 
ATOM     11  C   UNL A   1      34.937  22.198  24.073  1.00  0.00     0.091 A 
ATOM     12  N   UNL A   1      33.912  21.406  24.542  1.00  0.00    -0.321 N 
BRANCH  12  13
ATOM     13  C   UNL A   1      33.688  20.058  24.185  1.00  0.00     0.081 A 
ATOM     14  C   UNL A   1      34.569  19.065  24.636  1.00  0.00     0.030 A 
ATOM     15  C   UNL A   1      32.607  19.707  23.374  1.00  0.00     0.147 A 
ATOM     16  C   UNL A   1      34.349  17.731  24.284  1.00  0.00     0.002 A 
ATOM     17  C   UNL A   1      32.417  18.382  22.989  1.00  0.00     0.041 A 
ATOM     18  F   UNL A   1      31.776  20.636  22.878  1.00  0.00    -0.205 F 
ATOM     19  C   UNL A   1      33.282  17.391  23.451  1.00  0.00     0.003 A 
ENDBRANCH  12  13
ENDBRANCH   7   8
ENDBRANCH   5   7
ENDBRANCH   2   3
ENDBRANCH   1   2
BRANCH   1  20
ATOM     20  C   UNL A   1      34.275  29.151  27.712  1.00  0.00     0.118 C 
BRANCH  20  21
ATOM     21  N   UNL A   1      34.725  30.367  28.377  1.00  0.00    -0.352 N 
ATOM     22  C   UNL A   1      35.938  30.664  28.943  1.00  0.00     0.251 C 
ATOM     23  H   UNL A   1      34.056  31.087  28.427  1.00  0.00     0.163 HD
ATOM     24  O   UNL A   1      36.007  31.601  29.745  1.00  0.00    -0.269 OA
BRANCH  22  25
ATOM     25  C   UNL A   1      37.162  29.898  28.629  1.00  0.00     0.039 A 
ATOM     26  C   UNL A   1      37.703  29.070  29.624  1.00  0.00     0.014 A 
ATOM     27  C   UNL A   1      37.836  30.059  27.414  1.00  0.00     0.014 A 
ATOM     28  C   UNL A   1      38.878  28.365  29.382  1.00  0.00     0.010 A 
ATOM     29  C   UNL A   1      38.984  29.328  27.150  1.00  0.00     0.010 A 
ATOM     30  C   UNL A   1      39.499  28.478  28.133  1.00  0.00    -0.014 A 
BRANCH  30  31
ATOM     31  C   UNL A   1      40.628  27.592  27.791  1.00  0.00     0.031 A 
ATOM     32  C   UNL A   1      41.962  28.366  27.737  1.00  0.00     0.074 A 
ATOM     33  C   UNL A   1      40.319  26.272  27.608  1.00  0.00     0.049 A 
ATOM     34  N   UNL A   1      43.082  28.056  27.162  1.00  0.00    -0.248 NA
ATOM     35  C   UNL A   1      42.060  29.703  28.394  1.00  0.00     0.031 C 
ATOM     36  C   UNL A   1      38.959  25.696  27.755  1.00  0.00     0.029 A 
ATOM     37  N   UNL A   1      41.048  25.150  27.275  1.00  0.00    -0.354 N 
ATOM     38  C   UNL A   1      44.038  29.043  27.503  1.00  0.00     0.074 A 
ATOM     39  C   UNL A   1      43.330  30.068  28.204  1.00  0.00     0.031 C 
ATOM     40  C   UNL A   1      38.950  24.382  27.442  1.00  0.00     0.029 A 
ATOM     41  C   UNL A   1      40.287  23.969  27.069  1.00  0.00     0.049 A 
ATOM     42  H   UNL A   1      42.027  25.167  27.186  1.00  0.00     0.167 HD
ATOM     43  C   UNL A   1      45.379  28.895  27.281  1.00  0.00     0.031 A 
ATOM     44  C   UNL A   1      40.694  22.757  26.579  1.00  0.00     0.031 A 
ATOM     45  C   UNL A   1      45.624  27.700  26.550  1.00  0.00     0.049 A 
ATOM     46  C   UNL A   1      42.154  22.855  26.446  1.00  0.00     0.074 A 
ATOM     47  C   UNL A   1      45.374  27.339  25.253  1.00  0.00     0.029 A 
ATOM     48  N   UNL A   1      45.857  26.571  27.295  1.00  0.00    -0.354 N 
ATOM     49  N   UNL A   1      42.995  22.844  27.434  1.00  0.00    -0.248 NA
ATOM     50  C   UNL A   1      42.724  23.070  25.111  1.00  0.00     0.031 C 
ATOM     51  C   UNL A   1      44.938  26.002  25.376  1.00  0.00     0.029 A 
ATOM     52  C   UNL A   1      45.167  25.557  26.683  1.00  0.00     0.049 A 
ATOM     53  H   UNL A   1      46.409  26.504  28.107  1.00  0.00     0.167 HD
ATOM     54  C   UNL A   1      44.100  23.435  26.877  1.00  0.00     0.074 A 
ATOM     55  C   UNL A   1      43.999  23.241  25.447  1.00  0.00     0.031 C 
ATOM     56  C   UNL A   1      44.700  24.474  27.511  1.00  0.00     0.031 A 
BRANCH  43  57
ATOM     57  C   UNL A   1      46.578  29.602  27.855  1.00  0.00    -0.014 A 
ATOM     58  C   UNL A   1      46.899  29.342  29.212  1.00  0.00     0.009 A 
ATOM     59  C   UNL A   1      47.174  30.719  27.265  1.00  0.00     0.009 A 
ATOM     60  C   UNL A   1      47.669  30.221  29.975  1.00  0.00     0.001 A 
ATOM     61  C   UNL A   1      47.981  31.585  28.022  1.00  0.00     0.001 A 
ATOM     62  C   UNL A   1      48.196  31.357  29.381  1.00  0.00     0.000 A 
ENDBRANCH  43  57
BRANCH  44  63
ATOM     63  C   UNL A   1      40.071  21.480  26.071  1.00  0.00    -0.014 A 
ATOM     64  C   UNL A   1      40.633  20.204  26.129  1.00  0.00     0.009 A 
ATOM     65  C   UNL A   1      38.750  21.539  25.542  1.00  0.00     0.009 A 
ATOM     66  C   UNL A   1      39.881  19.060  25.779  1.00  0.00     0.001 A 
ATOM     67  C   UNL A   1      37.984  20.410  25.240  1.00  0.00     0.001 A 
ATOM     68  C   UNL A   1      38.550  19.158  25.374  1.00  0.00     0.000 A 
ENDBRANCH  44  63
BRANCH  56  69
ATOM     69  C   UNL A   1      44.435  24.575  29.005  1.00  0.00    -0.014 A 
ATOM     70  C   UNL A   1      44.178  25.824  29.590  1.00  0.00     0.009 A 
ATOM     71  C   UNL A   1      44.525  23.471  29.872  1.00  0.00     0.009 A 
ATOM     72  C   UNL A   1      44.029  25.963  30.977  1.00  0.00     0.001 A 
ATOM     73  C   UNL A   1      44.378  23.604  31.261  1.00  0.00     0.001 A 
ATOM     74  C   UNL A   1      44.129  24.855  31.814  1.00  0.00     0.000 A 
ENDBRANCH  56  69
ENDBRANCH  30  31
ENDBRANCH  22  25
ENDBRANCH  20  21
ENDBRANCH   1  20
TORSDOF 12
ENDMDL
MODEL 2
REMARK VINA RESULT:     -11.3      1.663      2.300
REMARK SMILES O=C(Cc1ccn(-c2ccccc2F)c1)NCCCNC(=O)c1ccc(-c2c3nc(c(-c4ccccc4)c4ccc([nH]4)c(-c4ccccc4)c4nc(c(-c5ccccc5)c5ccc2[nH]5)C=C4)C=C3)cc1
REMARK SMILES IDX 18 1 17 2 16 3 1 4 2 5 3 7 4 8 5 9 15 10 6 11 7 12 8 13 9 14
REMARK SMILES IDX 13 15 10 16 12 17 14 18 11 19 19 20 20 21 21 22 22 24 23 25
REMARK SMILES IDX 24 26 70 27 25 28 69 29 26 30 27 31 28 32 63 33 29 34 68 35
REMARK SMILES IDX 62 36 64 37 30 38 67 39 61 40 60 41 31 43 53 44 38 45 52 46
REMARK SMILES IDX 39 47 42 48 51 49 65 50 40 51 41 52 50 54 66 55 43 56 32 57
REMARK SMILES IDX 33 58 37 59 34 60 36 61 35 62 54 63 55 64 59 65 56 66 58 67
REMARK SMILES IDX 57 68 44 69 45 70 49 71 46 72 48 73 47 74
REMARK H PARENT 16 6 20 23 64 42 42 53
REMARK Flexibility Score: inf
ROOT
ATOM      1  C   UNL A   1      33.818  28.910  25.806  1.00  0.00     0.042 C 
ENDROOT
BRANCH   1   2
ATOM      2  C   UNL A   1      32.301  29.036  25.673  1.00  0.00     0.117 C 
BRANCH   2   3
ATOM      3  N   UNL A   1      31.686  27.872  25.063  1.00  0.00    -0.356 N 
ATOM      4  O   UNL A   1      31.121  26.833  27.029  1.00  0.00    -0.275 OA
ATOM      5  C   UNL A   1      31.058  26.888  25.803  1.00  0.00     0.224 C 
ATOM      6  H   UNL A   1      31.717  27.778  24.083  1.00  0.00     0.163 HD
BRANCH   5   7
ATOM      7  C   UNL A   1      30.334  25.829  24.981  1.00  0.00     0.137 C 
BRANCH   7   8
ATOM      8  C   UNL A   1      31.196  24.704  24.476  1.00  0.00    -0.021 A 
ATOM      9  C   UNL A   1      30.900  23.712  23.500  1.00  0.00     0.024 A 
ATOM     10  C   UNL A   1      32.488  24.435  24.902  1.00  0.00     0.095 A 
ATOM     11  C   UNL A   1      32.043  22.978  23.280  1.00  0.00     0.091 A 
ATOM     12  N   UNL A   1      33.014  23.393  24.164  1.00  0.00    -0.321 N 
BRANCH  12  13
ATOM     13  C   UNL A   1      34.316  22.853  24.265  1.00  0.00     0.081 A 
ATOM     14  C   UNL A   1      35.361  23.421  23.525  1.00  0.00     0.030 A 
ATOM     15  C   UNL A   1      34.566  21.749  25.082  1.00  0.00     0.147 A 
ATOM     16  C   UNL A   1      36.649  22.889  23.623  1.00  0.00     0.002 A 
ATOM     17  C   UNL A   1      35.842  21.194  25.142  1.00  0.00     0.041 A 
ATOM     18  F   UNL A   1      33.579  21.145  25.760  1.00  0.00    -0.205 F 
ATOM     19  C   UNL A   1      36.888  21.768  24.420  1.00  0.00     0.003 A 
ENDBRANCH  12  13
ENDBRANCH   7   8
ENDBRANCH   5   7
ENDBRANCH   2   3
ENDBRANCH   1   2
BRANCH   1  20
ATOM     20  C   UNL A   1      34.284  28.750  27.250  1.00  0.00     0.118 C 
BRANCH  20  21
ATOM     21  N   UNL A   1      34.464  30.035  27.915  1.00  0.00    -0.352 N 
ATOM     22  C   UNL A   1      35.521  30.505  28.650  1.00  0.00     0.251 C 
ATOM     23  H   UNL A   1      33.710  30.661  27.822  1.00  0.00     0.163 HD
ATOM     24  O   UNL A   1      35.340  31.467  29.405  1.00  0.00    -0.269 OA
BRANCH  22  25
ATOM     25  C   UNL A   1      36.866  29.898  28.573  1.00  0.00     0.039 A 
ATOM     26  C   UNL A   1      37.423  29.364  29.744  1.00  0.00     0.014 A 
ATOM     27  C   UNL A   1      37.621  29.938  27.397  1.00  0.00     0.014 A 
ATOM     28  C   UNL A   1      38.704  28.822  29.722  1.00  0.00     0.010 A 
ATOM     29  C   UNL A   1      38.882  29.362  27.357  1.00  0.00     0.010 A 
ATOM     30  C   UNL A   1      39.418  28.800  28.519  1.00  0.00    -0.014 A 
BRANCH  30  31
ATOM     31  C   UNL A   1      40.689  28.056  28.432  1.00  0.00     0.031 A 
ATOM     32  C   UNL A   1      41.907  29.001  28.507  1.00  0.00     0.074 A 
ATOM     33  C   UNL A   1      40.581  26.697  28.325  1.00  0.00     0.049 A 
ATOM     34  N   UNL A   1      43.134  28.808  28.137  1.00  0.00    -0.248 NA
ATOM     35  C   UNL A   1      41.730  30.381  29.047  1.00  0.00     0.031 C 
ATOM     36  C   UNL A   1      39.298  25.950  28.319  1.00  0.00     0.029 A 
ATOM     37  N   UNL A   1      41.489  25.665  28.208  1.00  0.00    -0.354 N 
ATOM     38  C   UNL A   1      43.893  29.940  28.526  1.00  0.00     0.074 A 
ATOM     39  C   UNL A   1      42.958  30.904  29.016  1.00  0.00     0.031 C 
ATOM     40  C   UNL A   1      39.504  24.629  28.129  1.00  0.00     0.029 A 
ATOM     41  C   UNL A   1      40.925  24.379  27.999  1.00  0.00     0.049 A 
ATOM     42  H   UNL A   1      42.460  25.811  28.266  1.00  0.00     0.167 HD
ATOM     43  C   UNL A   1      45.259  29.962  28.521  1.00  0.00     0.031 A 
ATOM     44  C   UNL A   1      41.554  23.203  27.688  1.00  0.00     0.031 A 
ATOM     45  C   UNL A   1      45.767  28.765  27.947  1.00  0.00     0.049 A 
ATOM     46  C   UNL A   1      42.992  23.492  27.767  1.00  0.00     0.074 A 
ATOM     47  C   UNL A   1      45.774  28.282  26.665  1.00  0.00     0.029 A 
ATOM     48  N   UNL A   1      46.016  27.734  28.818  1.00  0.00    -0.354 N 
ATOM     49  N   UNL A   1      43.658  23.667  28.866  1.00  0.00    -0.248 NA
ATOM     50  C   UNL A   1      43.738  23.689  26.518  1.00  0.00     0.031 C 
ATOM     51  C   UNL A   1      45.495  26.910  26.843  1.00  0.00     0.029 A 
ATOM     52  C   UNL A   1      45.566  26.593  28.204  1.00  0.00     0.049 A 
ATOM     53  H   UNL A   1      46.435  27.801  29.706  1.00  0.00     0.167 HD
ATOM     54  C   UNL A   1      44.756  24.364  28.429  1.00  0.00     0.074 A 
ATOM     55  C   UNL A   1      44.911  24.057  27.023  1.00  0.00     0.031 C 
ATOM     56  C   UNL A   1      45.111  25.518  29.048  1.00  0.00     0.031 A 
BRANCH  43  57
ATOM     57  C   UNL A   1      46.253  30.867  29.201  1.00  0.00    -0.014 A 
ATOM     58  C   UNL A   1      46.343  30.788  30.615  1.00  0.00     0.009 A 
ATOM     59  C   UNL A   1      46.830  31.983  28.589  1.00  0.00     0.009 A 
ATOM     60  C   UNL A   1      46.864  31.829  31.385  1.00  0.00     0.001 A 
ATOM     61  C   UNL A   1      47.389  33.014  29.362  1.00  0.00     0.001 A 
ATOM     62  C   UNL A   1      47.372  32.955  30.755  1.00  0.00     0.000 A 
ENDBRANCH  43  57
BRANCH  44  63
ATOM     63  C   UNL A   1      41.185  21.820  27.211  1.00  0.00    -0.014 A 
ATOM     64  C   UNL A   1      40.051  21.474  26.475  1.00  0.00     0.009 A 
ATOM     65  C   UNL A   1      42.100  20.756  27.454  1.00  0.00     0.009 A 
ATOM     66  C   UNL A   1      39.901  20.176  25.936  1.00  0.00     0.001 A 
ATOM     67  C   UNL A   1      41.983  19.486  26.884  1.00  0.00     0.001 A 
ATOM     68  C   UNL A   1      40.881  19.198  26.105  1.00  0.00     0.000 A 
ENDBRANCH  44  63
BRANCH  56  69
ATOM     69  C   UNL A   1      44.599  25.686  30.471  1.00  0.00    -0.014 A 
ATOM     70  C   UNL A   1      43.797  26.787  30.802  1.00  0.00     0.009 A 
ATOM     71  C   UNL A   1      44.971  24.827  31.521  1.00  0.00     0.009 A 
ATOM     72  C   UNL A   1      43.393  27.025  32.123  1.00  0.00     0.001 A 
ATOM     73  C   UNL A   1      44.570  25.059  32.846  1.00  0.00     0.001 A 
ATOM     74  C   UNL A   1      43.779  26.162  33.147  1.00  0.00     0.000 A 
ENDBRANCH  56  69
ENDBRANCH  30  31
ENDBRANCH  22  25
ENDBRANCH  20  21
ENDBRANCH   1  20
TORSDOF 12
ENDMDL
MODEL 3
REMARK VINA RESULT:     -11.1      3.665      5.312
REMARK SMILES O=C(Cc1ccn(-c2ccccc2F)c1)NCCCNC(=O)c1ccc(-c2c3nc(c(-c4ccccc4)c4ccc([nH]4)c(-c4ccccc4)c4nc(c(-c5ccccc5)c5ccc2[nH]5)C=C4)C=C3)cc1
REMARK SMILES IDX 18 1 17 2 16 3 1 4 2 5 3 7 4 8 5 9 15 10 6 11 7 12 8 13 9 14
REMARK SMILES IDX 13 15 10 16 12 17 14 18 11 19 19 20 20 21 21 22 22 24 23 25
REMARK SMILES IDX 24 26 70 27 25 28 69 29 26 30 27 31 28 32 63 33 29 34 68 35
REMARK SMILES IDX 62 36 64 37 30 38 67 39 61 40 60 41 31 43 53 44 38 45 52 46
REMARK SMILES IDX 39 47 42 48 51 49 65 50 40 51 41 52 50 54 66 55 43 56 32 57
REMARK SMILES IDX 33 58 37 59 34 60 36 61 35 62 54 63 55 64 59 65 56 66 58 67
REMARK SMILES IDX 57 68 44 69 45 70 49 71 46 72 48 73 47 74
REMARK H PARENT 16 6 20 23 64 42 42 53
REMARK Flexibility Score: inf
ROOT
ATOM      1  C   UNL A   1      34.856  30.757  27.396  1.00  0.00     0.042 C 
ENDROOT
BRANCH   1   2
ATOM      2  C   UNL A   1      33.392  30.321  27.389  1.00  0.00     0.117 C 
BRANCH   2   3
ATOM      3  N   UNL A   1      33.121  29.260  26.437  1.00  0.00    -0.356 N 
ATOM      4  O   UNL A   1      31.597  28.143  27.739  1.00  0.00    -0.275 OA
ATOM      5  C   UNL A   1      32.164  28.287  26.658  1.00  0.00     0.224 C 
ATOM      6  H   UNL A   1      33.638  29.232  25.600  1.00  0.00     0.163 HD
BRANCH   5   7
ATOM      7  C   UNL A   1      31.910  27.356  25.479  1.00  0.00     0.137 C 
BRANCH   7   8
ATOM      8  C   UNL A   1      30.855  27.816  24.511  1.00  0.00    -0.021 A 
ATOM      9  C   UNL A   1      29.845  27.059  23.853  1.00  0.00     0.024 A 
ATOM     10  C   UNL A   1      30.685  29.122  24.075  1.00  0.00     0.095 A 
ATOM     11  C   UNL A   1      29.037  27.934  23.165  1.00  0.00     0.091 A 
ATOM     12  N   UNL A   1      29.568  29.201  23.266  1.00  0.00    -0.321 N 
BRANCH  12  13
ATOM     13  C   UNL A   1      29.036  30.364  22.665  1.00  0.00     0.081 A 
ATOM     14  C   UNL A   1      28.501  30.293  21.372  1.00  0.00     0.030 A 
ATOM     15  C   UNL A   1      29.055  31.585  23.341  1.00  0.00     0.147 A 
ATOM     16  C   UNL A   1      27.974  31.442  20.775  1.00  0.00     0.002 A 
ATOM     17  C   UNL A   1      28.570  32.737  22.725  1.00  0.00     0.041 A 
ATOM     18  F   UNL A   1      29.611  31.702  24.556  1.00  0.00    -0.205 F 
ATOM     19  C   UNL A   1      28.020  32.665  21.445  1.00  0.00     0.003 A 
ENDBRANCH  12  13
ENDBRANCH   7   8
ENDBRANCH   5   7
ENDBRANCH   2   3
ENDBRANCH   1   2
BRANCH   1  20
ATOM     20  C   UNL A   1      35.797  29.697  27.961  1.00  0.00     0.118 C 
BRANCH  20  21
ATOM     21  N   UNL A   1      35.993  29.845  29.398  1.00  0.00    -0.352 N 
ATOM     22  C   UNL A   1      36.956  29.311  30.214  1.00  0.00     0.251 C 
ATOM     23  H   UNL A   1      35.332  30.415  29.852  1.00  0.00     0.163 HD
ATOM     24  O   UNL A   1      36.751  29.275  31.432  1.00  0.00    -0.269 OA
BRANCH  22  25
ATOM     25  C   UNL A   1      38.227  28.775  29.686  1.00  0.00     0.039 A 
ATOM     26  C   UNL A   1      38.521  28.975  28.329  1.00  0.00     0.014 A 
ATOM     27  C   UNL A   1      39.079  27.997  30.476  1.00  0.00     0.014 A 
ATOM     28  C   UNL A   1      39.688  28.449  27.783  1.00  0.00     0.010 A 
ATOM     29  C   UNL A   1      40.264  27.505  29.950  1.00  0.00     0.010 A 
ATOM     30  C   UNL A   1      40.568  27.737  28.606  1.00  0.00    -0.014 A 
BRANCH  30  31
ATOM     31  C   UNL A   1      41.895  27.344  28.096  1.00  0.00     0.031 A 
ATOM     32  C   UNL A   1      42.832  28.562  27.951  1.00  0.00     0.074 A 
ATOM     33  C   UNL A   1      42.078  26.008  27.865  1.00  0.00     0.049 A 
ATOM     34  N   UNL A   1      43.910  28.704  27.245  1.00  0.00    -0.248 NA
ATOM     35  C   UNL A   1      42.506  29.826  28.675  1.00  0.00     0.031 C 
ATOM     36  C   UNL A   1      41.055  24.962  28.117  1.00  0.00     0.029 A 
ATOM     37  N   UNL A   1      43.125  25.246  27.391  1.00  0.00    -0.354 N 
ATOM     38  C   UNL A   1      44.468  29.971  27.546  1.00  0.00     0.074 A 
ATOM     39  C   UNL A   1      43.518  30.644  28.377  1.00  0.00     0.031 C 
ATOM     40  C   UNL A   1      41.496  23.746  27.726  1.00  0.00     0.029 A 
ATOM     41  C   UNL A   1      42.836  23.870  27.193  1.00  0.00     0.049 A 
ATOM     42  H   UNL A   1      44.010  25.631  27.203  1.00  0.00     0.167 HD
ATOM     43  C   UNL A   1      45.731  30.340  27.178  1.00  0.00     0.031 A 
ATOM     44  C   UNL A   1      43.602  22.909  26.591  1.00  0.00     0.031 A 
ATOM     45  C   UNL A   1      46.313  29.338  26.354  1.00  0.00     0.049 A 
ATOM     46  C   UNL A   1      44.894  23.548  26.314  1.00  0.00     0.074 A 
ATOM     47  C   UNL A   1      46.061  28.933  25.070  1.00  0.00     0.029 A 
ATOM     48  N   UNL A   1      47.033  28.365  27.001  1.00  0.00    -0.354 N 
ATOM     49  N   UNL A   1      45.791  23.835  27.207  1.00  0.00    -0.248 NA
ATOM     50  C   UNL A   1      45.182  23.985  24.942  1.00  0.00     0.031 C 
ATOM     51  C   UNL A   1      46.169  27.528  25.156  1.00  0.00     0.029 A 
ATOM     52  C   UNL A   1      46.699  27.177  26.402  1.00  0.00     0.049 A 
ATOM     53  H   UNL A   1      47.663  28.495  27.746  1.00  0.00     0.167 HD
ATOM     54  C   UNL A   1      46.524  24.807  26.576  1.00  0.00     0.074 A 
ATOM     55  C   UNL A   1      46.334  24.615  25.154  1.00  0.00     0.031 C 
ATOM     56  C   UNL A   1      46.768  25.984  27.207  1.00  0.00     0.031 A 
BRANCH  43  57
ATOM     57  C   UNL A   1      46.642  31.435  27.667  1.00  0.00    -0.014 A 
ATOM     58  C   UNL A   1      47.324  31.214  28.891  1.00  0.00     0.009 A 
ATOM     59  C   UNL A   1      46.603  32.747  27.189  1.00  0.00     0.009 A 
ATOM     60  C   UNL A   1      47.825  32.265  29.662  1.00  0.00     0.001 A 
ATOM     61  C   UNL A   1      47.141  33.801  27.946  1.00  0.00     0.001 A 
ATOM     62  C   UNL A   1      47.715  33.566  29.194  1.00  0.00     0.000 A 
ENDBRANCH  43  57
BRANCH  44  63
ATOM     63  C   UNL A   1      43.439  21.500  26.073  1.00  0.00    -0.014 A 
ATOM     64  C   UNL A   1      44.384  20.770  25.351  1.00  0.00     0.009 A 
ATOM     65  C   UNL A   1      42.246  20.795  26.400  1.00  0.00     0.009 A 
ATOM     66  C   UNL A   1      44.186  19.399  25.070  1.00  0.00     0.001 A 
ATOM     67  C   UNL A   1      42.064  19.429  26.169  1.00  0.00     0.001 A 
ATOM     68  C   UNL A   1      43.050  18.721  25.512  1.00  0.00     0.000 A 
ENDBRANCH  44  63
BRANCH  56  69
ATOM     69  C   UNL A   1      46.663  25.951  28.723  1.00  0.00    -0.014 A 
ATOM     70  C   UNL A   1      45.458  26.296  29.351  1.00  0.00     0.009 A 
ATOM     71  C   UNL A   1      47.762  25.676  29.558  1.00  0.00     0.009 A 
ATOM     72  C   UNL A   1      45.359  26.373  30.748  1.00  0.00     0.001 A 
ATOM     73  C   UNL A   1      47.669  25.752  30.956  1.00  0.00     0.001 A 
ATOM     74  C   UNL A   1      46.463  26.102  31.552  1.00  0.00     0.000 A 
ENDBRANCH  56  69
ENDBRANCH  30  31
ENDBRANCH  22  25
ENDBRANCH  20  21
ENDBRANCH   1  20
TORSDOF 12
ENDMDL
