MODEL 1
REMARK VINA RESULT:     -11.8      0.000      0.000
REMARK SMILES N#C/C(=C\c1ccc(-c2cc(C(F)(F)F)ccc2Cl)o1)C(=O)NCCCNC(=O)c1ccc(-c2c3nc(c(-c4ccccc4)c4ccc([nH]4)c(-c4ccccc4)c4nc(c(-c5ccccc5)c5ccc2[nH]5)C=C4)C=C3)cc1
REMARK SMILES IDX 24 1 23 2 21 3 22 4 3 6 4 7 2 8 1 9 5 10 6 11 20 12 7 13
REMARK SMILES IDX 8 14 9 15 10 16 18 17 11 18 17 19 19 20 16 21 12 22 13 23
REMARK SMILES IDX 14 24 15 25 25 26 26 27 27 28 28 29 29 31 30 32 31 33 77 34
REMARK SMILES IDX 32 35 76 36 33 37 34 38 35 39 70 40 36 41 75 42 69 43 71 44
REMARK SMILES IDX 37 45 74 46 68 47 67 48 38 50 60 51 45 52 59 53 46 54 49 55
REMARK SMILES IDX 58 56 72 57 47 58 48 59 57 61 73 62 50 63 39 64 40 65 44 66
REMARK SMILES IDX 41 67 43 68 42 69 61 70 62 71 66 72 63 73 65 74 64 75 51 76
REMARK SMILES IDX 52 77 56 78 53 79 55 80 54 81
REMARK H PARENT 23 5 27 30 71 49 49 60
REMARK Flexibility Score: inf
ROOT
ATOM      1  C   UNL A   1      36.431  20.645  25.002  1.00  0.00     0.118 C 
ENDROOT
BRANCH   1   2
ATOM      2  N   UNL A   1      35.378  19.644  24.987  1.00  0.00    -0.351 N 
ATOM      3  C   UNL A   1      34.024  19.722  24.885  1.00  0.00     0.262 C 
ATOM      4  O   UNL A   1      33.403  18.659  24.874  1.00  0.00    -0.268 OA
ATOM      5  H   UNL A   1      35.713  18.722  25.067  1.00  0.00     0.163 HD
BRANCH   3   6
ATOM      6  C   UNL A   1      33.286  21.004  24.775  1.00  0.00     0.120 C 
ATOM      7  C   UNL A   1      32.921  21.669  23.648  1.00  0.00     0.072 C 
BRANCH   6   8
ATOM      8  C   UNL A   1      32.957  21.750  26.058  1.00  0.00     0.105 C 
ATOM      9  N   UNL A   1      32.685  22.369  27.122  1.00  0.00    -0.192 NA
ENDBRANCH   6   8
BRANCH   7  10
ATOM     10  C   UNL A   1      32.219  22.929  23.645  1.00  0.00     0.129 A 
ATOM     11  C   UNL A   1      30.878  23.202  23.385  1.00  0.00     0.051 A 
ATOM     12  O   UNL A   1      32.822  24.143  23.962  1.00  0.00    -0.457 OA
ATOM     13  C   UNL A   1      30.676  24.594  23.485  1.00  0.00     0.051 A 
ATOM     14  C   UNL A   1      31.881  25.133  23.868  1.00  0.00     0.136 A 
BRANCH  14  15
ATOM     15  C   UNL A   1      32.275  26.501  24.199  1.00  0.00     0.036 A 
ATOM     16  C   UNL A   1      32.030  27.015  25.487  1.00  0.00     0.026 A 
ATOM     17  C   UNL A   1      33.004  27.296  23.294  1.00  0.00     0.052 A 
ATOM     18  C   UNL A   1      32.524  28.279  25.879  1.00  0.00     0.056 A 
ATOM     19  C   UNL A   1      33.487  28.554  23.671  1.00  0.00     0.022 A 
ATOM     20  Cl  UNL A   1      33.344  26.787  21.673  1.00  0.00    -0.084 Cl
ATOM     21  C   UNL A   1      33.254  29.040  24.956  1.00  0.00     0.014 A 
BRANCH  18  22
ATOM     22  C   UNL A   1      32.285  28.798  27.280  1.00  0.00     0.416 C 
ATOM     23  F   UNL A   1      33.387  28.689  28.071  1.00  0.00    -0.166 F 
ATOM     24  F   UNL A   1      31.934  30.112  27.295  1.00  0.00    -0.166 F 
ATOM     25  F   UNL A   1      31.289  28.140  27.938  1.00  0.00    -0.166 F 
ENDBRANCH  18  22
ENDBRANCH  14  15
ENDBRANCH   7  10
ENDBRANCH   3   6
ENDBRANCH   1   2
BRANCH   1  26
ATOM     26  C   UNL A   1      37.795  20.017  24.716  1.00  0.00     0.042 C 
BRANCH  26  27
ATOM     27  C   UNL A   1      38.818  20.332  25.804  1.00  0.00     0.118 C 
BRANCH  27  28
ATOM     28  N   UNL A   1      39.828  19.284  25.906  1.00  0.00    -0.352 N 
ATOM     29  C   UNL A   1      41.184  19.386  26.093  1.00  0.00     0.251 C 
ATOM     30  H   UNL A   1      39.486  18.365  25.827  1.00  0.00     0.163 HD
ATOM     31  O   UNL A   1      41.906  18.418  25.899  1.00  0.00    -0.269 OA
BRANCH  29  32
ATOM     32  C   UNL A   1      41.764  20.670  26.530  1.00  0.00     0.039 A 
ATOM     33  C   UNL A   1      42.162  21.603  25.568  1.00  0.00     0.014 A 
ATOM     34  C   UNL A   1      41.924  20.940  27.890  1.00  0.00     0.014 A 
ATOM     35  C   UNL A   1      42.664  22.839  25.976  1.00  0.00     0.010 A 
ATOM     36  C   UNL A   1      42.346  22.197  28.293  1.00  0.00     0.010 A 
ATOM     37  C   UNL A   1      42.726  23.157  27.341  1.00  0.00    -0.014 A 
BRANCH  37  38
ATOM     38  C   UNL A   1      43.190  24.479  27.821  1.00  0.00     0.031 A 
ATOM     39  C   UNL A   1      42.181  25.533  28.180  1.00  0.00     0.074 A 
ATOM     40  C   UNL A   1      44.503  24.770  27.809  1.00  0.00     0.049 A 
ATOM     41  N   UNL A   1      42.368  26.798  28.451  1.00  0.00    -0.248 NA
ATOM     42  C   UNL A   1      40.770  25.113  28.195  1.00  0.00     0.031 C 
ATOM     43  C   UNL A   1      45.574  23.840  27.442  1.00  0.00     0.029 A 
ATOM     44  N   UNL A   1      45.159  25.943  28.083  1.00  0.00    -0.354 N 
ATOM     45  C   UNL A   1      41.098  27.333  28.629  1.00  0.00     0.074 A 
ATOM     46  C   UNL A   1      40.151  26.267  28.391  1.00  0.00     0.031 C 
ATOM     47  C   UNL A   1      46.752  24.479  27.517  1.00  0.00     0.029 A 
ATOM     48  C   UNL A   1      46.516  25.872  27.884  1.00  0.00     0.049 A 
ATOM     49  H   UNL A   1      44.701  26.758  28.393  1.00  0.00     0.167 HD
ATOM     50  C   UNL A   1      40.754  28.597  28.968  1.00  0.00     0.031 A 
ATOM     51  C   UNL A   1      47.461  26.827  27.957  1.00  0.00     0.031 A 
ATOM     52  C   UNL A   1      41.707  29.648  29.209  1.00  0.00     0.049 A 
ATOM     53  C   UNL A   1      47.062  28.227  28.329  1.00  0.00     0.074 A 
ATOM     54  C   UNL A   1      41.470  30.942  29.634  1.00  0.00     0.029 A 
ATOM     55  N   UNL A   1      43.077  29.523  29.036  1.00  0.00    -0.354 N 
ATOM     56  N   UNL A   1      45.865  28.703  28.571  1.00  0.00    -0.248 NA
ATOM     57  C   UNL A   1      48.140  29.218  28.447  1.00  0.00     0.031 C 
ATOM     58  C   UNL A   1      42.693  31.622  29.651  1.00  0.00     0.029 A 
ATOM     59  C   UNL A   1      43.697  30.730  29.309  1.00  0.00     0.049 A 
ATOM     60  H   UNL A   1      43.540  28.700  28.759  1.00  0.00     0.167 HD
ATOM     61  C   UNL A   1      46.046  30.041  28.901  1.00  0.00     0.074 A 
ATOM     62  C   UNL A   1      47.471  30.297  28.831  1.00  0.00     0.031 C 
ATOM     63  C   UNL A   1      45.118  30.967  29.238  1.00  0.00     0.031 A 
BRANCH  50  64
ATOM     64  C   UNL A   1      39.286  28.913  29.060  1.00  0.00    -0.014 A 
ATOM     65  C   UNL A   1      38.561  29.384  27.953  1.00  0.00     0.009 A 
ATOM     66  C   UNL A   1      38.616  28.735  30.281  1.00  0.00     0.009 A 
ATOM     67  C   UNL A   1      37.212  29.724  28.082  1.00  0.00     0.001 A 
ATOM     68  C   UNL A   1      37.258  29.040  30.397  1.00  0.00     0.001 A 
ATOM     69  C   UNL A   1      36.563  29.550  29.303  1.00  0.00     0.000 A 
ENDBRANCH  50  64
BRANCH  51  70
ATOM     70  C   UNL A   1      48.877  26.477  27.667  1.00  0.00    -0.014 A 
ATOM     71  C   UNL A   1      49.725  26.026  28.688  1.00  0.00     0.009 A 
ATOM     72  C   UNL A   1      49.373  26.549  26.355  1.00  0.00     0.009 A 
ATOM     73  C   UNL A   1      51.045  25.667  28.405  1.00  0.00     0.001 A 
ATOM     74  C   UNL A   1      50.684  26.162  26.069  1.00  0.00     0.001 A 
ATOM     75  C   UNL A   1      51.521  25.727  27.096  1.00  0.00     0.000 A 
ENDBRANCH  51  70
BRANCH  63  76
ATOM     76  C   UNL A   1      45.603  32.342  29.603  1.00  0.00    -0.014 A 
ATOM     77  C   UNL A   1      45.610  33.389  28.670  1.00  0.00     0.009 A 
ATOM     78  C   UNL A   1      45.970  32.610  30.933  1.00  0.00     0.009 A 
ATOM     79  C   UNL A   1      45.989  34.676  29.061  1.00  0.00     0.001 A 
ATOM     80  C   UNL A   1      46.318  33.902  31.326  1.00  0.00     0.001 A 
ATOM     81  C   UNL A   1      46.333  34.933  30.388  1.00  0.00     0.000 A 
ENDBRANCH  63  76
ENDBRANCH  37  38
ENDBRANCH  29  32
ENDBRANCH  27  28
ENDBRANCH  26  27
ENDBRANCH   1  26
TORSDOF 14
ENDMDL
MODEL 2
REMARK VINA RESULT:     -11.7      5.159      9.800
REMARK SMILES N#C/C(=C\c1ccc(-c2cc(C(F)(F)F)ccc2Cl)o1)C(=O)NCCCNC(=O)c1ccc(-c2c3nc(c(-c4ccccc4)c4ccc([nH]4)c(-c4ccccc4)c4nc(c(-c5ccccc5)c5ccc2[nH]5)C=C4)C=C3)cc1
REMARK SMILES IDX 24 1 23 2 21 3 22 4 3 6 4 7 2 8 1 9 5 10 6 11 20 12 7 13
REMARK SMILES IDX 8 14 9 15 10 16 18 17 11 18 17 19 19 20 16 21 12 22 13 23
REMARK SMILES IDX 14 24 15 25 25 26 26 27 27 28 28 29 29 31 30 32 31 33 77 34
REMARK SMILES IDX 32 35 76 36 33 37 34 38 35 39 70 40 36 41 75 42 69 43 71 44
REMARK SMILES IDX 37 45 74 46 68 47 67 48 38 50 60 51 45 52 59 53 46 54 49 55
REMARK SMILES IDX 58 56 72 57 47 58 48 59 57 61 73 62 50 63 39 64 40 65 44 66
REMARK SMILES IDX 41 67 43 68 42 69 61 70 62 71 66 72 63 73 65 74 64 75 51 76
REMARK SMILES IDX 52 77 56 78 53 79 55 80 54 81
REMARK H PARENT 23 5 27 30 71 49 49 60
REMARK Flexibility Score: inf
ROOT
ATOM      1  C   UNL A   1      31.262  30.424  25.236  1.00  0.00     0.118 C 
ENDROOT
BRANCH   1   2
ATOM      2  N   UNL A   1      30.356  30.424  24.100  1.00  0.00    -0.351 N 
ATOM      3  C   UNL A   1      30.200  29.591  23.037  1.00  0.00     0.262 C 
ATOM      4  O   UNL A   1      29.297  29.861  22.244  1.00  0.00    -0.268 OA
ATOM      5  H   UNL A   1      29.728  31.183  24.100  1.00  0.00     0.163 HD
BRANCH   3   6
ATOM      6  C   UNL A   1      31.042  28.391  22.809  1.00  0.00     0.120 C 
ATOM      7  C   UNL A   1      30.645  27.097  22.692  1.00  0.00     0.072 C 
BRANCH   6   8
ATOM      8  C   UNL A   1      32.551  28.572  22.791  1.00  0.00     0.105 C 
ATOM      9  N   UNL A   1      33.803  28.722  22.777  1.00  0.00    -0.192 NA
ENDBRANCH   6   8
BRANCH   7  10
ATOM     10  C   UNL A   1      31.550  25.991  22.491  1.00  0.00     0.129 A 
ATOM     11  C   UNL A   1      32.323  25.662  21.379  1.00  0.00     0.051 A 
ATOM     12  O   UNL A   1      31.827  25.041  23.469  1.00  0.00    -0.457 OA
ATOM     13  C   UNL A   1      33.028  24.473  21.661  1.00  0.00     0.051 A 
ATOM     14  C   UNL A   1      32.722  24.140  22.959  1.00  0.00     0.136 A 
BRANCH  14  15
ATOM     15  C   UNL A   1      33.198  23.064  23.825  1.00  0.00     0.036 A 
ATOM     16  C   UNL A   1      32.794  21.736  23.591  1.00  0.00     0.026 A 
ATOM     17  C   UNL A   1      34.153  23.299  24.834  1.00  0.00     0.052 A 
ATOM     18  C   UNL A   1      33.346  20.660  24.320  1.00  0.00     0.056 A 
ATOM     19  C   UNL A   1      34.698  22.239  25.568  1.00  0.00     0.022 A 
ATOM     20  Cl  UNL A   1      34.709  24.890  25.235  1.00  0.00    -0.084 Cl
ATOM     21  C   UNL A   1      34.302  20.929  25.309  1.00  0.00     0.014 A 
BRANCH  18  22
ATOM     22  C   UNL A   1      32.929  19.235  24.028  1.00  0.00     0.416 C 
ATOM     23  F   UNL A   1      32.206  19.129  22.879  1.00  0.00    -0.166 F 
ATOM     24  F   UNL A   1      33.992  18.399  23.888  1.00  0.00    -0.166 F 
ATOM     25  F   UNL A   1      32.152  18.688  25.007  1.00  0.00    -0.166 F 
ENDBRANCH  18  22
ENDBRANCH  14  15
ENDBRANCH   7  10
ENDBRANCH   3   6
ENDBRANCH   1   2
BRANCH   1  26
ATOM     26  C   UNL A   1      31.002  31.621  26.151  1.00  0.00     0.042 C 
BRANCH  26  27
ATOM     27  C   UNL A   1      32.265  32.084  26.873  1.00  0.00     0.118 C 
BRANCH  27  28
ATOM     28  N   UNL A   1      32.162  33.479  27.287  1.00  0.00    -0.352 N 
ATOM     29  C   UNL A   1      32.917  34.186  28.190  1.00  0.00     0.251 C 
ATOM     30  H   UNL A   1      31.441  33.991  26.855  1.00  0.00     0.163 HD
ATOM     31  O   UNL A   1      32.528  35.271  28.599  1.00  0.00    -0.269 OA
BRANCH  29  32
ATOM     32  C   UNL A   1      34.197  33.627  28.663  1.00  0.00     0.039 A 
ATOM     33  C   UNL A   1      35.386  34.023  28.044  1.00  0.00     0.014 A 
ATOM     34  C   UNL A   1      34.214  32.702  29.708  1.00  0.00     0.014 A 
ATOM     35  C   UNL A   1      36.604  33.537  28.521  1.00  0.00     0.010 A 
ATOM     36  C   UNL A   1      35.428  32.284  30.232  1.00  0.00     0.010 A 
ATOM     37  C   UNL A   1      36.634  32.691  29.640  1.00  0.00    -0.014 A 
BRANCH  37  38
ATOM     38  C   UNL A   1      37.904  32.201  30.222  1.00  0.00     0.031 A 
ATOM     39  C   UNL A   1      38.531  30.946  29.684  1.00  0.00     0.074 A 
ATOM     40  C   UNL A   1      38.418  32.808  31.308  1.00  0.00     0.049 A 
ATOM     41  N   UNL A   1      39.535  30.255  30.158  1.00  0.00    -0.248 NA
ATOM     42  C   UNL A   1      37.917  30.372  28.476  1.00  0.00     0.031 C 
ATOM     43  C   UNL A   1      37.875  34.011  31.942  1.00  0.00     0.029 A 
ATOM     44  N   UNL A   1      39.495  32.475  32.089  1.00  0.00    -0.354 N 
ATOM     45  C   UNL A   1      39.647  29.146  29.330  1.00  0.00     0.074 A 
ATOM     46  C   UNL A   1      38.583  29.233  28.355  1.00  0.00     0.031 C 
ATOM     47  C   UNL A   1      38.624  34.315  33.014  1.00  0.00     0.029 A 
ATOM     48  C   UNL A   1      39.664  33.303  33.171  1.00  0.00     0.049 A 
ATOM     49  H   UNL A   1      40.090  31.716  31.892  1.00  0.00     0.167 HD
ATOM     50  C   UNL A   1      40.560  28.148  29.374  1.00  0.00     0.031 A 
ATOM     51  C   UNL A   1      40.536  33.238  34.194  1.00  0.00     0.031 A 
ATOM     52  C   UNL A   1      41.620  28.075  30.345  1.00  0.00     0.049 A 
ATOM     53  C   UNL A   1      41.540  32.120  34.231  1.00  0.00     0.074 A 
ATOM     54  C   UNL A   1      42.645  27.152  30.432  1.00  0.00     0.029 A 
ATOM     55  N   UNL A   1      41.780  28.958  31.402  1.00  0.00    -0.354 N 
ATOM     56  N   UNL A   1      41.686  31.119  33.398  1.00  0.00    -0.248 NA
ATOM     57  C   UNL A   1      42.504  32.128  35.340  1.00  0.00     0.031 C 
ATOM     58  C   UNL A   1      43.386  27.435  31.584  1.00  0.00     0.029 A 
ATOM     59  C   UNL A   1      42.867  28.579  32.170  1.00  0.00     0.049 A 
ATOM     60  H   UNL A   1      41.206  29.738  31.581  1.00  0.00     0.167 HD
ATOM     61  C   UNL A   1      42.776  30.393  33.862  1.00  0.00     0.074 A 
ATOM     62  C   UNL A   1      43.255  31.074  35.049  1.00  0.00     0.031 C 
ATOM     63  C   UNL A   1      43.332  29.270  33.347  1.00  0.00     0.031 A 
BRANCH  50  64
ATOM     64  C   UNL A   1      40.426  27.042  28.364  1.00  0.00    -0.014 A 
ATOM     65  C   UNL A   1      41.065  27.101  27.114  1.00  0.00     0.009 A 
ATOM     66  C   UNL A   1      39.644  25.916  28.669  1.00  0.00     0.009 A 
ATOM     67  C   UNL A   1      40.876  26.086  26.172  1.00  0.00     0.001 A 
ATOM     68  C   UNL A   1      39.487  24.886  27.741  1.00  0.00     0.001 A 
ATOM     69  C   UNL A   1      40.090  24.980  26.488  1.00  0.00     0.000 A 
ENDBRANCH  50  64
BRANCH  51  70
ATOM     70  C   UNL A   1      40.487  34.270  35.263  1.00  0.00    -0.014 A 
ATOM     71  C   UNL A   1      41.188  35.476  35.125  1.00  0.00     0.009 A 
ATOM     72  C   UNL A   1      39.698  34.071  36.408  1.00  0.00     0.009 A 
ATOM     73  C   UNL A   1      41.113  36.457  36.117  1.00  0.00     0.001 A 
ATOM     74  C   UNL A   1      39.601  35.065  37.385  1.00  0.00     0.001 A 
ATOM     75  C   UNL A   1      40.313  36.254  37.241  1.00  0.00     0.000 A 
ENDBRANCH  51  70
BRANCH  63  76
ATOM     76  C   UNL A   1      44.553  28.719  34.030  1.00  0.00    -0.014 A 
ATOM     77  C   UNL A   1      44.459  27.694  34.982  1.00  0.00     0.009 A 
ATOM     78  C   UNL A   1      45.823  29.173  33.638  1.00  0.00     0.009 A 
ATOM     79  C   UNL A   1      45.617  27.145  35.539  1.00  0.00     0.001 A 
ATOM     80  C   UNL A   1      46.977  28.603  34.174  1.00  0.00     0.001 A 
ATOM     81  C   UNL A   1      46.873  27.592  35.128  1.00  0.00     0.000 A 
ENDBRANCH  63  76
ENDBRANCH  37  38
ENDBRANCH  29  32
ENDBRANCH  27  28
ENDBRANCH  26  27
ENDBRANCH   1  26
TORSDOF 14
ENDMDL
MODEL 3
REMARK VINA RESULT:     -11.6      1.357      5.963
REMARK SMILES N#C/C(=C\c1ccc(-c2cc(C(F)(F)F)ccc2Cl)o1)C(=O)NCCCNC(=O)c1ccc(-c2c3nc(c(-c4ccccc4)c4ccc([nH]4)c(-c4ccccc4)c4nc(c(-c5ccccc5)c5ccc2[nH]5)C=C4)C=C3)cc1
REMARK SMILES IDX 24 1 23 2 21 3 22 4 3 6 4 7 2 8 1 9 5 10 6 11 20 12 7 13
REMARK SMILES IDX 8 14 9 15 10 16 18 17 11 18 17 19 19 20 16 21 12 22 13 23
REMARK SMILES IDX 14 24 15 25 25 26 26 27 27 28 28 29 29 31 30 32 31 33 77 34
REMARK SMILES IDX 32 35 76 36 33 37 34 38 35 39 70 40 36 41 75 42 69 43 71 44
REMARK SMILES IDX 37 45 74 46 68 47 67 48 38 50 60 51 45 52 59 53 46 54 49 55
REMARK SMILES IDX 58 56 72 57 47 58 48 59 57 61 73 62 50 63 39 64 40 65 44 66
REMARK SMILES IDX 41 67 43 68 42 69 61 70 62 71 66 72 63 73 65 74 64 75 51 76
REMARK SMILES IDX 52 77 56 78 53 79 55 80 54 81
REMARK H PARENT 23 5 27 30 71 49 49 60
REMARK Flexibility Score: inf
ROOT
ATOM      1  C   UNL A   1      36.477  20.302  25.009  1.00  0.00     0.118 C 
ENDROOT
BRANCH   1   2
ATOM      2  N   UNL A   1      35.392  19.337  24.990  1.00  0.00    -0.351 N 
ATOM      3  C   UNL A   1      34.039  19.461  24.930  1.00  0.00     0.262 C 
ATOM      4  O   UNL A   1      33.384  18.419  24.900  1.00  0.00    -0.268 OA
ATOM      5  H   UNL A   1      35.699  18.402  25.028  1.00  0.00     0.163 HD
BRANCH   3   6
ATOM      6  C   UNL A   1      33.340  20.768  24.886  1.00  0.00     0.120 C 
ATOM      7  C   UNL A   1      33.111  21.633  25.908  1.00  0.00     0.072 C 
BRANCH   6   8
ATOM      8  C   UNL A   1      32.702  21.191  23.573  1.00  0.00     0.105 C 
ATOM      9  N   UNL A   1      32.173  21.543  22.483  1.00  0.00    -0.192 NA
ENDBRANCH   6   8
BRANCH   7  10
ATOM     10  C   UNL A   1      32.398  22.879  25.767  1.00  0.00     0.129 A 
ATOM     11  C   UNL A   1      31.071  23.186  26.064  1.00  0.00     0.051 A 
ATOM     12  O   UNL A   1      32.989  24.053  25.310  1.00  0.00    -0.457 OA
ATOM     13  C   UNL A   1      30.838  24.536  25.731  1.00  0.00     0.051 A 
ATOM     14  C   UNL A   1      32.042  25.041  25.301  1.00  0.00     0.136 A 
BRANCH  14  15
ATOM     15  C   UNL A   1      32.443  26.387  24.894  1.00  0.00     0.036 A 
ATOM     16  C   UNL A   1      32.208  27.482  25.746  1.00  0.00     0.026 A 
ATOM     17  C   UNL A   1      33.171  26.611  23.709  1.00  0.00     0.052 A 
ATOM     18  C   UNL A   1      32.709  28.768  25.445  1.00  0.00     0.056 A 
ATOM     19  C   UNL A   1      33.663  27.884  23.399  1.00  0.00     0.022 A 
ATOM     20  Cl  UNL A   1      33.501  25.351  22.567  1.00  0.00    -0.084 Cl
ATOM     21  C   UNL A   1      33.439  28.954  24.263  1.00  0.00     0.014 A 
BRANCH  18  22
ATOM     22  C   UNL A   1      32.480  29.926  26.392  1.00  0.00     0.416 C 
ATOM     23  F   UNL A   1      33.588  30.702  26.544  1.00  0.00    -0.166 F 
ATOM     24  F   UNL A   1      31.489  30.756  25.970  1.00  0.00    -0.166 F 
ATOM     25  F   UNL A   1      32.125  29.534  27.649  1.00  0.00    -0.166 F 
ENDBRANCH  18  22
ENDBRANCH  14  15
ENDBRANCH   7  10
ENDBRANCH   3   6
ENDBRANCH   1   2
BRANCH   1  26
ATOM     26  C   UNL A   1      37.831  19.617  24.828  1.00  0.00     0.042 C 
BRANCH  26  27
ATOM     27  C   UNL A   1      38.898  20.184  25.761  1.00  0.00     0.118 C 
BRANCH  27  28
ATOM     28  N   UNL A   1      40.014  19.258  25.922  1.00  0.00    -0.352 N 
ATOM     29  C   UNL A   1      41.342  19.515  26.153  1.00  0.00     0.251 C 
ATOM     30  H   UNL A   1      39.779  18.305  25.853  1.00  0.00     0.163 HD
ATOM     31  O   UNL A   1      42.174  18.629  26.007  1.00  0.00    -0.269 OA
BRANCH  29  32
ATOM     32  C   UNL A   1      41.759  20.863  26.579  1.00  0.00     0.039 A 
ATOM     33  C   UNL A   1      42.287  21.746  25.634  1.00  0.00     0.014 A 
ATOM     34  C   UNL A   1      41.640  21.243  27.917  1.00  0.00     0.014 A 
ATOM     35  C   UNL A   1      42.636  23.041  26.021  1.00  0.00     0.010 A 
ATOM     36  C   UNL A   1      41.911  22.553  28.283  1.00  0.00     0.010 A 
ATOM     37  C   UNL A   1      42.417  23.462  27.341  1.00  0.00    -0.014 A 
BRANCH  37  38
ATOM     38  C   UNL A   1      42.710  24.845  27.785  1.00  0.00     0.031 A 
ATOM     39  C   UNL A   1      44.099  25.201  28.231  1.00  0.00     0.074 A 
ATOM     40  C   UNL A   1      41.707  25.733  27.907  1.00  0.00     0.049 A 
ATOM     41  N   UNL A   1      44.526  26.290  28.816  1.00  0.00    -0.248 NA
ATOM     42  C   UNL A   1      45.136  24.176  28.031  1.00  0.00     0.031 C 
ATOM     43  C   UNL A   1      40.310  25.488  27.542  1.00  0.00     0.029 A 
ATOM     44  N   UNL A   1      41.703  27.011  28.405  1.00  0.00    -0.354 N 
ATOM     45  C   UNL A   1      45.870  26.066  29.087  1.00  0.00     0.074 A 
ATOM     46  C   UNL A   1      46.174  24.723  28.645  1.00  0.00     0.031 C 
ATOM     47  C   UNL A   1      39.586  26.582  27.826  1.00  0.00     0.029 A 
ATOM     48  C   UNL A   1      40.455  27.582  28.439  1.00  0.00     0.049 A 
ATOM     49  H   UNL A   1      42.517  27.475  28.707  1.00  0.00     0.167 HD
ATOM     50  C   UNL A   1      46.771  26.907  29.646  1.00  0.00     0.031 A 
ATOM     51  C   UNL A   1      40.048  28.765  28.937  1.00  0.00     0.031 A 
ATOM     52  C   UNL A   1      46.457  28.244  30.074  1.00  0.00     0.049 A 
ATOM     53  C   UNL A   1      41.060  29.685  29.560  1.00  0.00     0.074 A 
ATOM     54  C   UNL A   1      47.311  29.208  30.581  1.00  0.00     0.029 A 
ATOM     55  N   UNL A   1      45.187  28.800  30.054  1.00  0.00    -0.354 N 
ATOM     56  N   UNL A   1      42.344  29.493  29.741  1.00  0.00    -0.248 NA
ATOM     57  C   UNL A   1      40.571  30.985  30.039  1.00  0.00     0.031 C 
ATOM     58  C   UNL A   1      46.543  30.323  30.933  1.00  0.00     0.029 A 
ATOM     59  C   UNL A   1      45.226  30.082  30.575  1.00  0.00     0.049 A 
ATOM     60  H   UNL A   1      44.378  28.350  29.720  1.00  0.00     0.167 HD
ATOM     61  C   UNL A   1      42.825  30.658  30.325  1.00  0.00     0.074 A 
ATOM     62  C   UNL A   1      41.692  31.552  30.464  1.00  0.00     0.031 C 
ATOM     63  C   UNL A   1      44.090  30.960  30.704  1.00  0.00     0.031 A 
BRANCH  50  64
ATOM     64  C   UNL A   1      48.166  26.387  29.855  1.00  0.00    -0.014 A 
ATOM     65  C   UNL A   1      49.157  26.510  28.866  1.00  0.00     0.009 A 
ATOM     66  C   UNL A   1      48.497  25.761  31.068  1.00  0.00     0.009 A 
ATOM     67  C   UNL A   1      50.428  25.967  29.065  1.00  0.00     0.001 A 
ATOM     68  C   UNL A   1      49.780  25.252  31.278  1.00  0.00     0.001 A 
ATOM     69  C   UNL A   1      50.738  25.340  30.270  1.00  0.00     0.000 A 
ENDBRANCH  50  64
BRANCH  51  70
ATOM     70  C   UNL A   1      38.610  29.133  28.862  1.00  0.00    -0.014 A 
ATOM     71  C   UNL A   1      37.774  28.983  29.976  1.00  0.00     0.009 A 
ATOM     72  C   UNL A   1      38.077  29.682  27.683  1.00  0.00     0.009 A 
ATOM     73  C   UNL A   1      36.430  29.361  29.910  1.00  0.00     0.001 A 
ATOM     74  C   UNL A   1      36.741  30.086  27.629  1.00  0.00     0.001 A 
ATOM     75  C   UNL A   1      35.918  29.920  28.741  1.00  0.00     0.000 A 
ENDBRANCH  51  70
BRANCH  63  76
ATOM     76  C   UNL A   1      44.342  32.330  31.268  1.00  0.00    -0.014 A 
ATOM     77  C   UNL A   1      44.393  32.555  32.651  1.00  0.00     0.009 A 
ATOM     78  C   UNL A   1      44.625  33.392  30.392  1.00  0.00     0.009 A 
ATOM     79  C   UNL A   1      44.711  33.823  33.145  1.00  0.00     0.001 A 
ATOM     80  C   UNL A   1      44.970  34.648  30.889  1.00  0.00     0.001 A 
ATOM     81  C   UNL A   1      45.008  34.864  32.265  1.00  0.00     0.000 A 
ENDBRANCH  63  76
ENDBRANCH  37  38
ENDBRANCH  29  32
ENDBRANCH  27  28
ENDBRANCH  26  27
ENDBRANCH   1  26
TORSDOF 14
ENDMDL
