MODEL 1
REMARK VINA RESULT:      -9.8      0.000      0.000
REMARK SMILES CC(C)=CC(=O)Nc1ccc(C(=O)NCCCNC(=O)c2ccc(-c3c4nc(c(-c5ccccc5)c5ccc([nH]5)c(-c5ccccc5)c5nc(c(-c6ccccc6)c6ccc3[nH]6)C=C5)C=C4)cc2)cc1
REMARK SMILES IDX 16 1 15 2 14 3 12 4 13 5 11 7 8 8 9 9 70 10 10 11 69 12 7 13
REMARK SMILES IDX 5 14 6 15 4 17 1 18 2 19 3 20 17 21 18 22 19 23 20 25 21 26
REMARK SMILES IDX 22 27 68 28 23 29 67 30 24 31 25 32 26 33 61 34 27 35 66 36
REMARK SMILES IDX 60 37 62 38 28 39 65 40 59 41 58 42 29 44 51 45 36 46 50 47
REMARK SMILES IDX 37 48 40 49 49 50 63 51 38 52 39 53 48 55 64 56 41 57 30 58
REMARK SMILES IDX 31 59 35 60 32 61 34 62 33 63 52 64 53 65 57 66 54 67 56 68
REMARK SMILES IDX 55 69 42 70 43 71 47 72 44 73 46 74 45 75
REMARK H PARENT 14 6 7 16 18 24 62 43 40 54
REMARK Flexibility Score: inf
ROOT
ATOM      1  C   UNL A   1      44.441  18.871  25.554  1.00  0.00     0.042 C 
ENDROOT
BRANCH   1   2
ATOM      2  C   UNL A   1      44.801  20.353  25.475  1.00  0.00     0.118 C 
BRANCH   2   3
ATOM      3  N   UNL A   1      44.422  20.919  24.189  1.00  0.00    -0.352 N 
ATOM      4  C   UNL A   1      44.553  22.184  23.670  1.00  0.00     0.251 C 
ATOM      5  O   UNL A   1      44.191  22.381  22.512  1.00  0.00    -0.269 OA
ATOM      6  H   UNL A   1      43.992  20.277  23.579  1.00  0.00     0.163 HD
BRANCH   4   7
ATOM      7  C   UNL A   1      45.197  23.286  24.429  1.00  0.00     0.039 A 
ATOM      8  C   UNL A   1      46.404  25.567  25.497  1.00  0.00     0.041 A 
ATOM      9  C   UNL A   1      45.038  25.577  25.210  1.00  0.00     0.027 A 
ATOM     10  C   UNL A   1      47.117  24.372  25.420  1.00  0.00     0.027 A 
ATOM     11  C   UNL A   1      44.444  24.446  24.646  1.00  0.00     0.016 A 
ATOM     12  C   UNL A   1      46.503  23.226  24.913  1.00  0.00     0.016 A 
BRANCH   8  13
ATOM     13  N   UNL A   1      47.016  26.787  25.803  1.00  0.00    -0.323 N 
ATOM     14  C   UNL A   1      48.117  27.370  25.242  1.00  0.00     0.248 C 
ATOM     15  O   UNL A   1      48.637  28.350  25.774  1.00  0.00    -0.270 OA
ATOM     16  H   UNL A   1      46.592  27.301  26.527  1.00  0.00     0.170 HD
BRANCH  14  17
ATOM     17  C   UNL A   1      48.688  26.873  23.957  1.00  0.00     0.070 C 
ATOM     18  C   UNL A   1      47.349  28.292  22.321  1.00  0.00     0.039 C 
ATOM     19  C   UNL A   1      48.382  27.266  22.702  1.00  0.00    -0.071 C 
ATOM     20  C   UNL A   1      49.126  26.695  21.522  1.00  0.00     0.039 C 
ENDBRANCH  14  17
ENDBRANCH   8  13
ENDBRANCH   4   7
ENDBRANCH   2   3
ENDBRANCH   1   2
BRANCH   1  21
ATOM     21  C   UNL A   1      43.406  18.551  26.626  1.00  0.00     0.118 C 
BRANCH  21  22
ATOM     22  N   UNL A   1      42.052  18.515  26.096  1.00  0.00    -0.352 N 
ATOM     23  C   UNL A   1      41.067  19.468  26.147  1.00  0.00     0.251 C 
ATOM     24  H   UNL A   1      41.806  17.683  25.632  1.00  0.00     0.163 HD
ATOM     25  O   UNL A   1      39.922  19.176  25.799  1.00  0.00    -0.269 OA
BRANCH  23  26
ATOM     26  C   UNL A   1      41.354  20.836  26.635  1.00  0.00     0.039 A 
ATOM     27  C   UNL A   1      41.451  21.050  28.014  1.00  0.00     0.014 A 
ATOM     28  C   UNL A   1      41.492  21.913  25.754  1.00  0.00     0.014 A 
ATOM     29  C   UNL A   1      41.739  22.326  28.504  1.00  0.00     0.010 A 
ATOM     30  C   UNL A   1      41.849  23.169  26.239  1.00  0.00     0.010 A 
ATOM     31  C   UNL A   1      41.968  23.391  27.620  1.00  0.00    -0.014 A 
BRANCH  31  32
ATOM     32  C   UNL A   1      42.331  24.741  28.119  1.00  0.00     0.031 A 
ATOM     33  C   UNL A   1      43.742  25.043  28.539  1.00  0.00     0.074 A 
ATOM     34  C   UNL A   1      41.374  25.677  28.265  1.00  0.00     0.049 A 
ATOM     35  N   UNL A   1      44.233  26.142  29.056  1.00  0.00    -0.248 NA
ATOM     36  C   UNL A   1      44.726  23.961  28.380  1.00  0.00     0.031 C 
ATOM     37  C   UNL A   1      39.958  25.500  27.942  1.00  0.00     0.029 A 
ATOM     38  N   UNL A   1      41.451  26.964  28.736  1.00  0.00    -0.354 N 
ATOM     39  C   UNL A   1      45.574  25.874  29.306  1.00  0.00     0.074 A 
ATOM     40  C   UNL A   1      45.807  24.498  28.923  1.00  0.00     0.031 C 
ATOM     41  C   UNL A   1      39.301  26.639  28.212  1.00  0.00     0.029 A 
ATOM     42  C   UNL A   1      40.241  27.614  28.757  1.00  0.00     0.049 A 
ATOM     43  H   UNL A   1      42.292  27.381  29.033  1.00  0.00     0.167 HD
ATOM     44  C   UNL A   1      46.529  26.701  29.796  1.00  0.00     0.031 A 
ATOM     45  C   UNL A   1      39.920  28.853  29.173  1.00  0.00     0.031 A 
ATOM     46  C   UNL A   1      46.303  28.072  30.168  1.00  0.00     0.049 A 
ATOM     47  C   UNL A   1      40.995  29.758  29.702  1.00  0.00     0.074 A 
ATOM     48  C   UNL A   1      47.221  29.009  30.608  1.00  0.00     0.029 A 
ATOM     49  N   UNL A   1      45.067  28.700  30.148  1.00  0.00    -0.354 N 
ATOM     50  N   UNL A   1      42.272  29.513  29.863  1.00  0.00    -0.248 NA
ATOM     51  C   UNL A   1      40.583  31.114  30.094  1.00  0.00     0.031 C 
ATOM     52  C   UNL A   1      46.532  30.193  30.899  1.00  0.00     0.029 A 
ATOM     53  C   UNL A   1      45.193  30.006  30.593  1.00  0.00     0.049 A 
ATOM     54  H   UNL A   1      44.224  28.280  29.861  1.00  0.00     0.167 HD
ATOM     55  C   UNL A   1      42.822  30.688  30.358  1.00  0.00     0.074 A 
ATOM     56  C   UNL A   1      41.742  31.649  30.456  1.00  0.00     0.031 C 
ATOM     57  C   UNL A   1      44.109  30.947  30.698  1.00  0.00     0.031 A 
BRANCH  44  58
ATOM     58  C   UNL A   1      47.907  26.125  29.969  1.00  0.00    -0.014 A 
ATOM     59  C   UNL A   1      48.340  25.632  31.211  1.00  0.00     0.009 A 
ATOM     60  C   UNL A   1      48.783  26.072  28.875  1.00  0.00     0.009 A 
ATOM     61  C   UNL A   1      49.640  25.145  31.365  1.00  0.00     0.001 A 
ATOM     62  C   UNL A   1      50.073  25.557  29.025  1.00  0.00     0.001 A 
ATOM     63  C   UNL A   1      50.504  25.107  30.272  1.00  0.00     0.000 A 
ENDBRANCH  44  58
BRANCH  45  64
ATOM     64  C   UNL A   1      38.510  29.308  29.086  1.00  0.00    -0.014 A 
ATOM     65  C   UNL A   1      37.986  29.770  27.870  1.00  0.00     0.009 A 
ATOM     66  C   UNL A   1      37.671  29.249  30.210  1.00  0.00     0.009 A 
ATOM     67  C   UNL A   1      36.652  30.174  27.783  1.00  0.00     0.001 A 
ATOM     68  C   UNL A   1      36.333  29.631  30.115  1.00  0.00     0.001 A 
ATOM     69  C   UNL A   1      35.825  30.098  28.904  1.00  0.00     0.000 A 
ENDBRANCH  45  64
BRANCH  57  70
ATOM     70  C   UNL A   1      44.420  32.330  31.193  1.00  0.00    -0.014 A 
ATOM     71  C   UNL A   1      44.381  32.638  32.562  1.00  0.00     0.009 A 
ATOM     72  C   UNL A   1      44.796  33.329  30.281  1.00  0.00     0.009 A 
ATOM     73  C   UNL A   1      44.686  33.927  33.004  1.00  0.00     0.001 A 
ATOM     74  C   UNL A   1      45.123  34.609  30.728  1.00  0.00     0.001 A 
ATOM     75  C   UNL A   1      45.060  34.910  32.088  1.00  0.00     0.000 A 
ENDBRANCH  57  70
ENDBRANCH  31  32
ENDBRANCH  23  26
ENDBRANCH  21  22
ENDBRANCH   1  21
TORSDOF 12
ENDMDL
MODEL 2
REMARK VINA RESULT:      -9.7      3.573      8.999
REMARK SMILES CC(C)=CC(=O)Nc1ccc(C(=O)NCCCNC(=O)c2ccc(-c3c4nc(c(-c5ccccc5)c5ccc([nH]5)c(-c5ccccc5)c5nc(c(-c6ccccc6)c6ccc3[nH]6)C=C5)C=C4)cc2)cc1
REMARK SMILES IDX 16 1 15 2 14 3 12 4 13 5 11 7 8 8 9 9 70 10 10 11 69 12 7 13
REMARK SMILES IDX 5 14 6 15 4 17 1 18 2 19 3 20 17 21 18 22 19 23 20 25 21 26
REMARK SMILES IDX 22 27 68 28 23 29 67 30 24 31 25 32 26 33 61 34 27 35 66 36
REMARK SMILES IDX 60 37 62 38 28 39 65 40 59 41 58 42 29 44 51 45 36 46 50 47
REMARK SMILES IDX 37 48 40 49 49 50 63 51 38 52 39 53 48 55 64 56 41 57 30 58
REMARK SMILES IDX 31 59 35 60 32 61 34 62 33 63 52 64 53 65 57 66 54 67 56 68
REMARK SMILES IDX 55 69 42 70 43 71 47 72 44 73 46 74 45 75
REMARK H PARENT 14 6 7 16 18 24 62 43 40 54
REMARK Flexibility Score: inf
ROOT
ATOM      1  C   UNL A   1      38.242  19.583  24.991  1.00  0.00     0.042 C 
ENDROOT
BRANCH   1   2
ATOM      2  C   UNL A   1      37.336  20.784  24.723  1.00  0.00     0.118 C 
BRANCH   2   3
ATOM      3  N   UNL A   1      37.923  22.011  25.240  1.00  0.00    -0.352 N 
ATOM      4  C   UNL A   1      37.367  23.220  25.580  1.00  0.00     0.251 C 
ATOM      5  O   UNL A   1      38.098  24.087  26.054  1.00  0.00    -0.269 OA
ATOM      6  H   UNL A   1      38.898  21.966  25.370  1.00  0.00     0.163 HD
BRANCH   4   7
ATOM      7  C   UNL A   1      35.908  23.475  25.477  1.00  0.00     0.039 A 
ATOM      8  C   UNL A   1      33.264  24.357  25.297  1.00  0.00     0.041 A 
ATOM      9  C   UNL A   1      34.105  24.465  24.189  1.00  0.00     0.027 A 
ATOM     10  C   UNL A   1      33.689  23.650  26.421  1.00  0.00     0.027 A 
ATOM     11  C   UNL A   1      35.436  24.053  24.292  1.00  0.00     0.016 A 
ATOM     12  C   UNL A   1      35.003  23.185  26.496  1.00  0.00     0.016 A 
BRANCH   8  13
ATOM     13  N   UNL A   1      32.033  25.018  25.249  1.00  0.00    -0.323 N 
ATOM     14  C   UNL A   1      31.639  26.166  25.877  1.00  0.00     0.248 C 
ATOM     15  O   UNL A   1      30.453  26.492  25.883  1.00  0.00    -0.270 OA
ATOM     16  H   UNL A   1      31.350  24.596  24.679  1.00  0.00     0.170 HD
BRANCH  14  17
ATOM     17  C   UNL A   1      32.627  27.073  26.527  1.00  0.00     0.070 C 
ATOM     18  C   UNL A   1      33.641  28.150  24.454  1.00  0.00     0.039 C 
ATOM     19  C   UNL A   1      33.480  27.938  25.935  1.00  0.00    -0.071 C 
ATOM     20  C   UNL A   1      34.360  28.832  26.770  1.00  0.00     0.039 C 
ENDBRANCH  14  17
ENDBRANCH   8  13
ENDBRANCH   4   7
ENDBRANCH   2   3
ENDBRANCH   1   2
BRANCH   1  21
ATOM     21  C   UNL A   1      39.284  19.836  26.074  1.00  0.00     0.118 C 
BRANCH  21  22
ATOM     22  N   UNL A   1      40.388  18.891  26.012  1.00  0.00    -0.352 N 
ATOM     23  C   UNL A   1      41.740  19.120  26.064  1.00  0.00     0.251 C 
ATOM     24  H   UNL A   1      40.127  17.947  25.918  1.00  0.00     0.163 HD
ATOM     25  O   UNL A   1      42.520  18.202  25.809  1.00  0.00    -0.269 OA
BRANCH  23  26
ATOM     26  C   UNL A   1      42.273  20.459  26.401  1.00  0.00     0.039 A 
ATOM     27  C   UNL A   1      42.766  21.264  25.368  1.00  0.00     0.014 A 
ATOM     28  C   UNL A   1      42.328  20.914  27.722  1.00  0.00     0.014 A 
ATOM     29  C   UNL A   1      43.260  22.541  25.652  1.00  0.00     0.010 A 
ATOM     30  C   UNL A   1      42.754  22.212  27.996  1.00  0.00     0.010 A 
ATOM     31  C   UNL A   1      43.232  23.036  26.965  1.00  0.00    -0.014 A 
BRANCH  31  32
ATOM     32  C   UNL A   1      43.699  24.410  27.278  1.00  0.00     0.031 A 
ATOM     33  C   UNL A   1      42.719  25.469  27.697  1.00  0.00     0.074 A 
ATOM     34  C   UNL A   1      44.998  24.725  27.116  1.00  0.00     0.049 A 
ATOM     35  N   UNL A   1      42.931  26.737  27.951  1.00  0.00    -0.248 NA
ATOM     36  C   UNL A   1      41.312  25.057  27.822  1.00  0.00     0.031 C 
ATOM     37  C   UNL A   1      46.045  23.805  26.668  1.00  0.00     0.029 A 
ATOM     38  N   UNL A   1      45.655  25.917  27.298  1.00  0.00    -0.354 N 
ATOM     39  C   UNL A   1      41.684  27.277  28.241  1.00  0.00     0.074 A 
ATOM     40  C   UNL A   1      40.718  26.210  28.091  1.00  0.00     0.031 C 
ATOM     41  C   UNL A   1      47.215  24.462  26.623  1.00  0.00     0.029 A 
ATOM     42  C   UNL A   1      46.995  25.854  27.006  1.00  0.00     0.049 A 
ATOM     43  H   UNL A   1      45.209  26.738  27.607  1.00  0.00     0.167 HD
ATOM     44  C   UNL A   1      41.371  28.541  28.613  1.00  0.00     0.031 A 
ATOM     45  C   UNL A   1      47.944  26.809  27.035  1.00  0.00     0.031 A 
ATOM     46  C   UNL A   1      42.330  29.601  28.774  1.00  0.00     0.049 A 
ATOM     47  C   UNL A   1      47.579  28.202  27.461  1.00  0.00     0.074 A 
ATOM     48  C   UNL A   1      42.119  30.897  29.214  1.00  0.00     0.029 A 
ATOM     49  N   UNL A   1      43.683  29.489  28.494  1.00  0.00    -0.354 N 
ATOM     50  N   UNL A   1      46.407  28.677  27.804  1.00  0.00    -0.248 NA
ATOM     51  C   UNL A   1      48.671  29.183  27.516  1.00  0.00     0.031 C 
ATOM     52  C   UNL A   1      43.338  31.582  29.156  1.00  0.00     0.029 A 
ATOM     53  C   UNL A   1      44.316  30.698  28.727  1.00  0.00     0.049 A 
ATOM     54  H   UNL A   1      44.128  28.671  28.175  1.00  0.00     0.167 HD
ATOM     55  C   UNL A   1      46.622  30.009  28.133  1.00  0.00     0.074 A 
ATOM     56  C   UNL A   1      48.038  30.260  27.963  1.00  0.00     0.031 C 
ATOM     57  C   UNL A   1      45.723  30.939  28.541  1.00  0.00     0.031 A 
BRANCH  44  58
ATOM     58  C   UNL A   1      39.918  28.841  28.857  1.00  0.00    -0.014 A 
ATOM     59  C   UNL A   1      39.343  28.677  30.128  1.00  0.00     0.009 A 
ATOM     60  C   UNL A   1      39.113  29.298  27.802  1.00  0.00     0.009 A 
ATOM     61  C   UNL A   1      37.980  28.915  30.325  1.00  0.00     0.001 A 
ATOM     62  C   UNL A   1      37.758  29.564  28.009  1.00  0.00     0.001 A 
ATOM     63  C   UNL A   1      37.191  29.360  29.266  1.00  0.00     0.000 A 
ENDBRANCH  44  58
BRANCH  45  64
ATOM     64  C   UNL A   1      49.337  26.464  26.660  1.00  0.00    -0.014 A 
ATOM     65  C   UNL A   1      50.217  25.925  27.610  1.00  0.00     0.009 A 
ATOM     66  C   UNL A   1      49.784  26.637  25.340  1.00  0.00     0.009 A 
ATOM     67  C   UNL A   1      51.520  25.577  27.250  1.00  0.00     0.001 A 
ATOM     68  C   UNL A   1      51.080  26.267  24.977  1.00  0.00     0.001 A 
ATOM     69  C   UNL A   1      51.948  25.742  25.933  1.00  0.00     0.000 A 
ENDBRANCH  45  64
BRANCH  57  70
ATOM     70  C   UNL A   1      46.252  32.311  28.849  1.00  0.00    -0.014 A 
ATOM     71  C   UNL A   1      46.288  33.312  27.866  1.00  0.00     0.009 A 
ATOM     72  C   UNL A   1      46.682  32.616  30.150  1.00  0.00     0.009 A 
ATOM     73  C   UNL A   1      46.771  34.585  28.175  1.00  0.00     0.001 A 
ATOM     74  C   UNL A   1      47.142  33.896  30.460  1.00  0.00     0.001 A 
ATOM     75  C   UNL A   1      47.194  34.877  29.471  1.00  0.00     0.000 A 
ENDBRANCH  57  70
ENDBRANCH  31  32
ENDBRANCH  23  26
ENDBRANCH  21  22
ENDBRANCH   1  21
TORSDOF 12
ENDMDL
MODEL 3
REMARK VINA RESULT:      -9.6      5.792     11.731
REMARK SMILES CC(C)=CC(=O)Nc1ccc(C(=O)NCCCNC(=O)c2ccc(-c3c4nc(c(-c5ccccc5)c5ccc([nH]5)c(-c5ccccc5)c5nc(c(-c6ccccc6)c6ccc3[nH]6)C=C5)C=C4)cc2)cc1
REMARK SMILES IDX 16 1 15 2 14 3 12 4 13 5 11 7 8 8 9 9 70 10 10 11 69 12 7 13
REMARK SMILES IDX 5 14 6 15 4 17 1 18 2 19 3 20 17 21 18 22 19 23 20 25 21 26
REMARK SMILES IDX 22 27 68 28 23 29 67 30 24 31 25 32 26 33 61 34 27 35 66 36
REMARK SMILES IDX 60 37 62 38 28 39 65 40 59 41 58 42 29 44 51 45 36 46 50 47
REMARK SMILES IDX 37 48 40 49 49 50 63 51 38 52 39 53 48 55 64 56 41 57 30 58
REMARK SMILES IDX 31 59 35 60 32 61 34 62 33 63 52 64 53 65 57 66 54 67 56 68
REMARK SMILES IDX 55 69 42 70 43 71 47 72 44 73 46 74 45 75
REMARK H PARENT 14 6 7 16 18 24 62 43 40 54
REMARK Flexibility Score: inf
ROOT
ATOM      1  C   UNL A   1      31.378  31.821  26.678  1.00  0.00     0.042 C 
ENDROOT
BRANCH   1   2
ATOM      2  C   UNL A   1      31.595  30.331  26.415  1.00  0.00     0.118 C 
BRANCH   2   3
ATOM      3  N   UNL A   1      32.079  30.101  25.063  1.00  0.00    -0.352 N 
ATOM      4  C   UNL A   1      32.185  28.957  24.310  1.00  0.00     0.251 C 
ATOM      5  O   UNL A   1      32.584  29.055  23.151  1.00  0.00    -0.269 OA
ATOM      6  H   UNL A   1      32.388  30.915  24.603  1.00  0.00     0.163 HD
BRANCH   4   7
ATOM      7  C   UNL A   1      31.748  27.633  24.820  1.00  0.00     0.039 A 
ATOM      8  C   UNL A   1      30.640  25.354  25.995  1.00  0.00     0.041 A 
ATOM      9  C   UNL A   1      29.953  26.007  24.971  1.00  0.00     0.027 A 
ATOM     10  C   UNL A   1      31.946  25.732  26.301  1.00  0.00     0.027 A 
ATOM     11  C   UNL A   1      30.494  27.165  24.407  1.00  0.00     0.016 A 
ATOM     12  C   UNL A   1      32.508  26.855  25.691  1.00  0.00     0.016 A 
BRANCH   8  13
ATOM     13  N   UNL A   1      29.956  24.369  26.715  1.00  0.00    -0.323 N 
ATOM     14  C   UNL A   1      30.035  23.009  26.614  1.00  0.00     0.248 C 
ATOM     15  O   UNL A   1      29.209  22.298  27.185  1.00  0.00    -0.270 OA
ATOM     16  H   UNL A   1      29.327  24.704  27.394  1.00  0.00     0.170 HD
BRANCH  14  17
ATOM     17  C   UNL A   1      31.138  22.349  25.858  1.00  0.00     0.070 C 
ATOM     18  C   UNL A   1      32.977  22.452  27.616  1.00  0.00     0.039 C 
ATOM     19  C   UNL A   1      32.396  22.091  26.276  1.00  0.00    -0.071 C 
ATOM     20  C   UNL A   1      33.355  21.342  25.386  1.00  0.00     0.039 C 
ENDBRANCH  14  17
ENDBRANCH   8  13
ENDBRANCH   4   7
ENDBRANCH   2   3
ENDBRANCH   1   2
BRANCH   1  21
ATOM     21  C   UNL A   1      32.664  32.579  26.982  1.00  0.00     0.118 C 
BRANCH  21  22
ATOM     22  N   UNL A   1      32.410  33.897  27.542  1.00  0.00    -0.352 N 
ATOM     23  C   UNL A   1      33.072  34.565  28.541  1.00  0.00     0.251 C 
ATOM     24  H   UNL A   1      31.652  34.382  27.146  1.00  0.00     0.163 HD
ATOM     25  O   UNL A   1      32.589  35.601  29.000  1.00  0.00    -0.269 OA
BRANCH  23  26
ATOM     26  C   UNL A   1      34.346  34.048  29.090  1.00  0.00     0.039 A 
ATOM     27  C   UNL A   1      34.303  33.221  30.218  1.00  0.00     0.014 A 
ATOM     28  C   UNL A   1      35.579  34.397  28.531  1.00  0.00     0.014 A 
ATOM     29  C   UNL A   1      35.488  32.702  30.748  1.00  0.00     0.010 A 
ATOM     30  C   UNL A   1      36.752  33.823  29.017  1.00  0.00     0.010 A 
ATOM     31  C   UNL A   1      36.719  32.977  30.135  1.00  0.00    -0.014 A 
BRANCH  31  32
ATOM     32  C   UNL A   1      37.982  32.389  30.650  1.00  0.00     0.031 A 
ATOM     33  C   UNL A   1      38.529  31.121  30.057  1.00  0.00     0.074 A 
ATOM     34  C   UNL A   1      38.601  32.957  31.702  1.00  0.00     0.049 A 
ATOM     35  N   UNL A   1      39.581  30.428  30.415  1.00  0.00    -0.248 NA
ATOM     36  C   UNL A   1      37.781  30.542  28.930  1.00  0.00     0.031 C 
ATOM     37  C   UNL A   1      38.151  34.161  32.403  1.00  0.00     0.029 A 
ATOM     38  N   UNL A   1      39.739  32.585  32.374  1.00  0.00    -0.354 N 
ATOM     39  C   UNL A   1      39.607  29.322  29.574  1.00  0.00     0.074 A 
ATOM     40  C   UNL A   1      38.443  29.415  28.719  1.00  0.00     0.031 C 
ATOM     41  C   UNL A   1      39.010  34.436  33.398  1.00  0.00     0.029 A 
ATOM     42  C   UNL A   1      40.050  33.413  33.425  1.00  0.00     0.049 A 
ATOM     43  H   UNL A   1      40.279  31.800  32.128  1.00  0.00     0.167 HD
ATOM     44  C   UNL A   1      40.523  28.326  29.508  1.00  0.00     0.031 A 
ATOM     45  C   UNL A   1      41.056  33.354  34.318  1.00  0.00     0.031 A 
ATOM     46  C   UNL A   1      41.687  28.236  30.350  1.00  0.00     0.049 A 
ATOM     47  C   UNL A   1      42.068  32.248  34.221  1.00  0.00     0.074 A 
ATOM     48  C   UNL A   1      42.708  27.303  30.313  1.00  0.00     0.029 A 
ATOM     49  N   UNL A   1      41.980  29.109  31.385  1.00  0.00    -0.354 N 
ATOM     50  N   UNL A   1      42.118  31.250  33.373  1.00  0.00    -0.248 NA
ATOM     51  C   UNL A   1      43.166  32.270  35.197  1.00  0.00     0.031 C 
ATOM     52  C   UNL A   1      43.597  27.586  31.357  1.00  0.00     0.029 A 
ATOM     53  C   UNL A   1      43.153  28.724  32.012  1.00  0.00     0.049 A 
ATOM     54  H   UNL A   1      41.434  29.889  31.638  1.00  0.00     0.167 HD
ATOM     55  C   UNL A   1      43.262  30.535  33.701  1.00  0.00     0.074 A 
ATOM     56  C   UNL A   1      43.883  31.222  34.815  1.00  0.00     0.031 C 
ATOM     57  C   UNL A   1      43.753  29.409  33.127  1.00  0.00     0.031 A 
BRANCH  44  58
ATOM     58  C   UNL A   1      40.283  27.243  28.493  1.00  0.00    -0.014 A 
ATOM     59  C   UNL A   1      39.538  26.096  28.812  1.00  0.00     0.009 A 
ATOM     60  C   UNL A   1      40.805  27.374  27.197  1.00  0.00     0.009 A 
ATOM     61  C   UNL A   1      39.366  25.079  27.871  1.00  0.00     0.001 A 
ATOM     62  C   UNL A   1      40.606  26.368  26.249  1.00  0.00     0.001 A 
ATOM     63  C   UNL A   1      39.898  25.217  26.590  1.00  0.00     0.000 A 
ENDBRANCH  44  58
BRANCH  45  64
ATOM     64  C   UNL A   1      41.157  34.393  35.372  1.00  0.00    -0.014 A 
ATOM     65  C   UNL A   1      41.876  35.574  35.140  1.00  0.00     0.009 A 
ATOM     66  C   UNL A   1      40.502  34.225  36.603  1.00  0.00     0.009 A 
ATOM     67  C   UNL A   1      41.949  36.562  36.124  1.00  0.00     0.001 A 
ATOM     68  C   UNL A   1      40.557  35.224  37.576  1.00  0.00     0.001 A 
ATOM     69  C   UNL A   1      41.284  36.389  37.338  1.00  0.00     0.000 A 
ENDBRANCH  45  64
BRANCH  57  70
ATOM     70  C   UNL A   1      45.036  28.861  33.684  1.00  0.00    -0.014 A 
ATOM     71  C   UNL A   1      46.281  29.292  33.201  1.00  0.00     0.009 A 
ATOM     72  C   UNL A   1      44.998  27.930  34.734  1.00  0.00     0.009 A 
ATOM     73  C   UNL A   1      47.462  28.779  33.740  1.00  0.00     0.001 A 
ATOM     74  C   UNL A   1      46.180  27.438  35.286  1.00  0.00     0.001 A 
ATOM     75  C   UNL A   1      47.411  27.856  34.784  1.00  0.00     0.000 A 
ENDBRANCH  57  70
ENDBRANCH  31  32
ENDBRANCH  23  26
ENDBRANCH  21  22
ENDBRANCH   1  21
TORSDOF 12
ENDMDL
