MODEL 1
REMARK VINA RESULT:     -10.8      0.000      0.000
REMARK SMILES C[C@@H]1CC[C@@]1(SC1CCCCC1)C(=O)NCCCNC(=O)c1ccc(-c2c3nc(c(-c4ccccc4)c4ccc([nH]4)c(-c4ccccc4)c4nc(c(-c5ccccc5)c5ccc2[nH]5)C=C4)C=C3)cc1
REMARK SMILES IDX 17 1 16 2 15 3 13 4 14 5 5 7 1 8 2 9 3 10 4 11 6 12 7 13
REMARK SMILES IDX 8 14 12 15 9 16 11 17 10 18 18 19 19 20 20 21 21 23 22 24
REMARK SMILES IDX 23 25 69 26 24 27 68 28 25 29 26 30 27 31 62 32 28 33 67 34
REMARK SMILES IDX 61 35 63 36 29 37 66 38 60 39 59 40 30 42 52 43 37 44 51 45
REMARK SMILES IDX 38 46 41 47 50 48 64 49 39 50 40 51 49 53 65 54 42 55 31 56
REMARK SMILES IDX 32 57 36 58 33 59 35 60 34 61 53 62 54 63 58 64 55 65 57 66
REMARK SMILES IDX 56 67 43 68 44 69 48 70 45 71 47 72 46 73
REMARK H PARENT 15 6 19 22 63 41 41 52
REMARK Flexibility Score: inf
ROOT
ATOM      1  C   UNL A   1      37.590  19.859  24.999  1.00  0.00     0.042 C 
ENDROOT
BRANCH   1   2
ATOM      2  C   UNL A   1      36.485  20.893  24.895  1.00  0.00     0.117 C 
BRANCH   2   3
ATOM      3  N   UNL A   1      35.917  21.209  26.188  1.00  0.00    -0.355 N 
ATOM      4  C   UNL A   1      34.654  21.639  26.527  1.00  0.00     0.236 C 
ATOM      5  O   UNL A   1      34.431  21.668  27.747  1.00  0.00    -0.273 OA
ATOM      6  H   UNL A   1      36.533  21.097  26.948  1.00  0.00     0.163 HD
BRANCH   4   7
ATOM      7  C   UNL A   1      33.608  22.093  25.437  1.00  0.00     0.097 C 
ATOM      8  C   UNL A   1      31.551  23.505  26.629  1.00  0.00     0.009 C 
ATOM      9  C   UNL A   1      32.887  23.452  25.909  1.00  0.00     0.012 C 
ATOM     10  C   UNL A   1      32.870  23.910  24.442  1.00  0.00     0.007 C 
ATOM     11  C   UNL A   1      33.997  22.910  24.165  1.00  0.00     0.028 C 
BRANCH   7  12
ATOM     12  S   UNL A   1      32.310  20.785  25.094  1.00  0.00    -0.141 SA
BRANCH  12  13
ATOM     13  C   UNL A   1      33.128  19.414  24.201  1.00  0.00     0.047 C 
ATOM     14  C   UNL A   1      33.854  18.440  25.132  1.00  0.00     0.014 C 
ATOM     15  C   UNL A   1      32.293  18.724  23.118  1.00  0.00     0.014 C 
ATOM     16  C   UNL A   1      34.623  17.376  24.350  1.00  0.00     0.001 C 
ATOM     17  C   UNL A   1      33.047  17.598  22.407  1.00  0.00     0.001 C 
ATOM     18  C   UNL A   1      33.704  16.633  23.390  1.00  0.00     0.000 C 
ENDBRANCH  12  13
ENDBRANCH   7  12
ENDBRANCH   4   7
ENDBRANCH   2   3
ENDBRANCH   1   2
BRANCH   1  19
ATOM     19  C   UNL A   1      38.803  20.366  25.766  1.00  0.00     0.118 C 
BRANCH  19  20
ATOM     20  N   UNL A   1      39.865  19.371  25.851  1.00  0.00    -0.352 N 
ATOM     21  C   UNL A   1      41.198  19.539  26.118  1.00  0.00     0.251 C 
ATOM     22  H   UNL A   1      39.583  18.440  25.695  1.00  0.00     0.163 HD
ATOM     23  O   UNL A   1      41.979  18.602  25.957  1.00  0.00    -0.269 OA
BRANCH  21  24
ATOM     24  C   UNL A   1      41.699  20.847  26.583  1.00  0.00     0.039 A 
ATOM     25  C   UNL A   1      42.106  21.790  25.638  1.00  0.00     0.014 A 
ATOM     26  C   UNL A   1      41.778  21.137  27.948  1.00  0.00     0.014 A 
ATOM     27  C   UNL A   1      42.543  23.046  26.063  1.00  0.00     0.010 A 
ATOM     28  C   UNL A   1      42.123  22.416  28.364  1.00  0.00     0.010 A 
ATOM     29  C   UNL A   1      42.527  23.377  27.427  1.00  0.00    -0.014 A 
BRANCH  29  30
ATOM     30  C   UNL A   1      42.953  24.717  27.896  1.00  0.00     0.031 A 
ATOM     31  C   UNL A   1      41.925  25.779  28.176  1.00  0.00     0.074 A 
ATOM     32  C   UNL A   1      44.265  24.995  28.018  1.00  0.00     0.049 A 
ATOM     33  N   UNL A   1      42.101  27.018  28.561  1.00  0.00    -0.248 NA
ATOM     34  C   UNL A   1      40.514  25.412  27.966  1.00  0.00     0.031 C 
ATOM     35  C   UNL A   1      45.360  24.065  27.731  1.00  0.00     0.029 A 
ATOM     36  N   UNL A   1      44.899  26.145  28.415  1.00  0.00    -0.354 N 
ATOM     37  C   UNL A   1      40.831  27.578  28.618  1.00  0.00     0.074 A 
ATOM     38  C   UNL A   1      39.900  26.565  28.174  1.00  0.00     0.031 C 
ATOM     39  C   UNL A   1      46.529  24.671  27.993  1.00  0.00     0.029 A 
ATOM     40  C   UNL A   1      46.269  26.039  28.429  1.00  0.00     0.049 A 
ATOM     41  H   UNL A   1      44.419  26.967  28.666  1.00  0.00     0.167 HD
ATOM     42  C   UNL A   1      40.469  28.818  29.025  1.00  0.00     0.031 A 
ATOM     43  C   UNL A   1      47.210  26.943  28.756  1.00  0.00     0.031 A 
ATOM     44  C   UNL A   1      41.395  29.819  29.478  1.00  0.00     0.049 A 
ATOM     45  C   UNL A   1      46.784  28.313  29.206  1.00  0.00     0.074 A 
ATOM     46  C   UNL A   1      41.127  31.084  29.970  1.00  0.00     0.029 A 
ATOM     47  N   UNL A   1      42.774  29.669  29.488  1.00  0.00    -0.354 N 
ATOM     48  N   UNL A   1      45.574  28.803  29.330  1.00  0.00    -0.248 NA
ATOM     49  C   UNL A   1      47.854  29.247  29.579  1.00  0.00     0.031 C 
ATOM     50  C   UNL A   1      42.345  31.720  30.229  1.00  0.00     0.029 A 
ATOM     51  C   UNL A   1      43.370  30.828  29.956  1.00  0.00     0.049 A 
ATOM     52  H   UNL A   1      43.257  28.859  29.206  1.00  0.00     0.167 HD
ATOM     53  C   UNL A   1      45.735  30.092  29.821  1.00  0.00     0.074 A 
ATOM     54  C   UNL A   1      47.160  30.299  29.987  1.00  0.00     0.031 C 
ATOM     55  C   UNL A   1      44.791  31.020  30.110  1.00  0.00     0.031 A 
BRANCH  42  56
ATOM     56  C   UNL A   1      39.004  29.155  28.986  1.00  0.00    -0.014 A 
ATOM     57  C   UNL A   1      38.412  29.714  27.841  1.00  0.00     0.009 A 
ATOM     58  C   UNL A   1      38.197  28.895  30.105  1.00  0.00     0.009 A 
ATOM     59  C   UNL A   1      37.055  30.046  27.834  1.00  0.00     0.001 A 
ATOM     60  C   UNL A   1      36.834  29.198  30.084  1.00  0.00     0.001 A 
ATOM     61  C   UNL A   1      36.267  29.783  28.953  1.00  0.00     0.000 A 
ENDBRANCH  42  56
BRANCH  43  62
ATOM     62  C   UNL A   1      48.648  26.574  28.694  1.00  0.00    -0.014 A 
ATOM     63  C   UNL A   1      49.296  26.046  29.821  1.00  0.00     0.009 A 
ATOM     64  C   UNL A   1      49.377  26.741  27.507  1.00  0.00     0.009 A 
ATOM     65  C   UNL A   1      50.653  25.717  29.768  1.00  0.00     0.001 A 
ATOM     66  C   UNL A   1      50.726  26.383  27.448  1.00  0.00     0.001 A 
ATOM     67  C   UNL A   1      51.365  25.881  28.580  1.00  0.00     0.000 A 
ENDBRANCH  43  62
BRANCH  55  68
ATOM     68  C   UNL A   1      45.266  32.330  30.670  1.00  0.00    -0.014 A 
ATOM     69  C   UNL A   1      45.554  33.422  29.836  1.00  0.00     0.009 A 
ATOM     70  C   UNL A   1      45.393  32.484  32.060  1.00  0.00     0.009 A 
ATOM     71  C   UNL A   1      45.997  34.629  30.381  1.00  0.00     0.001 A 
ATOM     72  C   UNL A   1      45.804  33.702  32.603  1.00  0.00     0.001 A 
ATOM     73  C   UNL A   1      46.117  34.769  31.764  1.00  0.00     0.000 A 
ENDBRANCH  55  68
ENDBRANCH  29  30
ENDBRANCH  21  24
ENDBRANCH  19  20
ENDBRANCH   1  19
TORSDOF 12
ENDMDL
MODEL 2
REMARK VINA RESULT:     -10.8      5.647     10.448
REMARK SMILES C[C@@H]1CC[C@@]1(SC1CCCCC1)C(=O)NCCCNC(=O)c1ccc(-c2c3nc(c(-c4ccccc4)c4ccc([nH]4)c(-c4ccccc4)c4nc(c(-c5ccccc5)c5ccc2[nH]5)C=C4)C=C3)cc1
REMARK SMILES IDX 17 1 16 2 15 3 13 4 14 5 5 7 1 8 2 9 3 10 4 11 6 12 7 13
REMARK SMILES IDX 8 14 12 15 9 16 11 17 10 18 18 19 19 20 20 21 21 23 22 24
REMARK SMILES IDX 23 25 69 26 24 27 68 28 25 29 26 30 27 31 62 32 28 33 67 34
REMARK SMILES IDX 61 35 63 36 29 37 66 38 60 39 59 40 30 42 52 43 37 44 51 45
REMARK SMILES IDX 38 46 41 47 50 48 64 49 39 50 40 51 49 53 65 54 42 55 31 56
REMARK SMILES IDX 32 57 36 58 33 59 35 60 34 61 53 62 54 63 58 64 55 65 57 66
REMARK SMILES IDX 56 67 43 68 44 69 48 70 45 71 47 72 46 73
REMARK H PARENT 15 6 19 22 63 41 41 52
REMARK Flexibility Score: inf
ROOT
ATOM      1  C   UNL A   1      31.403  32.166  26.805  1.00  0.00     0.042 C 
ENDROOT
BRANCH   1   2
ATOM      2  C   UNL A   1      31.624  30.828  26.127  1.00  0.00     0.117 C 
BRANCH   2   3
ATOM      3  N   UNL A   1      32.927  30.276  26.430  1.00  0.00    -0.355 N 
ATOM      4  C   UNL A   1      33.435  29.015  26.216  1.00  0.00     0.236 C 
ATOM      5  O   UNL A   1      34.649  28.903  26.445  1.00  0.00    -0.273 OA
ATOM      6  H   UNL A   1      33.552  30.906  26.858  1.00  0.00     0.163 HD
BRANCH   4   7
ATOM      7  C   UNL A   1      32.519  27.815  25.756  1.00  0.00     0.097 C 
ATOM      8  C   UNL A   1      34.085  25.671  24.985  1.00  0.00     0.009 C 
ATOM      9  C   UNL A   1      33.275  26.421  26.028  1.00  0.00     0.012 C 
ATOM     10  C   UNL A   1      31.918  25.796  26.390  1.00  0.00     0.007 C 
ATOM     11  C   UNL A   1      31.389  27.211  26.648  1.00  0.00     0.028 C 
BRANCH   7  12
ATOM     12  S   UNL A   1      32.041  27.924  23.947  1.00  0.00    -0.141 SA
BRANCH  12  13
ATOM     13  C   UNL A   1      30.276  28.399  23.870  1.00  0.00     0.047 C 
ATOM     14  C   UNL A   1      30.035  29.684  23.073  1.00  0.00     0.014 C 
ATOM     15  C   UNL A   1      29.291  27.274  23.535  1.00  0.00     0.014 C 
ATOM     16  C   UNL A   1      28.571  30.117  23.126  1.00  0.00     0.001 C 
ATOM     17  C   UNL A   1      27.835  27.745  23.501  1.00  0.00     0.001 C 
ATOM     18  C   UNL A   1      27.654  28.998  22.650  1.00  0.00     0.000 C 
ENDBRANCH  12  13
ENDBRANCH   7  12
ENDBRANCH   4   7
ENDBRANCH   2   3
ENDBRANCH   1   2
BRANCH   1  19
ATOM     19  C   UNL A   1      32.702  32.823  27.250  1.00  0.00     0.118 C 
BRANCH  19  20
ATOM     20  N   UNL A   1      32.517  34.215  27.642  1.00  0.00    -0.352 N 
ATOM     21  C   UNL A   1      33.117  34.925  28.648  1.00  0.00     0.251 C 
ATOM     22  H   UNL A   1      31.866  34.721  27.103  1.00  0.00     0.163 HD
ATOM     23  O   UNL A   1      32.691  36.039  28.952  1.00  0.00    -0.269 OA
BRANCH  21  24
ATOM     24  C   UNL A   1      34.262  34.348  29.378  1.00  0.00     0.039 A 
ATOM     25  C   UNL A   1      34.027  33.662  30.571  1.00  0.00     0.014 A 
ATOM     26  C   UNL A   1      35.565  34.493  28.892  1.00  0.00     0.014 A 
ATOM     27  C   UNL A   1      35.097  33.076  31.250  1.00  0.00     0.010 A 
ATOM     28  C   UNL A   1      36.613  33.831  29.518  1.00  0.00     0.010 A 
ATOM     29  C   UNL A   1      36.393  33.132  30.713  1.00  0.00    -0.014 A 
BRANCH  29  30
ATOM     30  C   UNL A   1      37.536  32.485  31.400  1.00  0.00     0.031 A 
ATOM     31  C   UNL A   1      38.226  31.307  30.767  1.00  0.00     0.074 A 
ATOM     32  C   UNL A   1      37.919  32.923  32.615  1.00  0.00     0.049 A 
ATOM     33  N   UNL A   1      39.220  30.589  31.226  1.00  0.00    -0.248 NA
ATOM     34  C   UNL A   1      37.712  30.857  29.463  1.00  0.00     0.031 C 
ATOM     35  C   UNL A   1      37.299  34.026  33.353  1.00  0.00     0.029 A 
ATOM     36  N   UNL A   1      38.923  32.490  33.442  1.00  0.00    -0.354 N 
ATOM     37  C   UNL A   1      39.433  29.595  30.279  1.00  0.00     0.074 A 
ATOM     38  C   UNL A   1      38.431  29.766  29.251  1.00  0.00     0.031 C 
ATOM     39  C   UNL A   1      37.957  34.203  34.509  1.00  0.00     0.029 A 
ATOM     40  C   UNL A   1      39.018  33.206  34.610  1.00  0.00     0.049 A 
ATOM     41  H   UNL A   1      39.518  31.737  33.221  1.00  0.00     0.167 HD
ATOM     42  C   UNL A   1      40.392  28.639  30.255  1.00  0.00     0.031 A 
ATOM     43  C   UNL A   1      39.865  33.073  35.648  1.00  0.00     0.031 A 
ATOM     44  C   UNL A   1      41.394  28.478  31.273  1.00  0.00     0.049 A 
ATOM     45  C   UNL A   1      40.921  32.005  35.598  1.00  0.00     0.074 A 
ATOM     46  C   UNL A   1      42.447  27.582  31.312  1.00  0.00     0.029 A 
ATOM     47  N   UNL A   1      41.464  29.231  32.435  1.00  0.00    -0.354 N 
ATOM     48  N   UNL A   1      41.161  31.122  34.659  1.00  0.00    -0.248 NA
ATOM     49  C   UNL A   1      41.836  31.928  36.745  1.00  0.00     0.031 C 
ATOM     50  C   UNL A   1      43.124  27.756  32.524  1.00  0.00     0.029 A 
ATOM     51  C   UNL A   1      42.529  28.804  33.210  1.00  0.00     0.049 A 
ATOM     52  H   UNL A   1      40.850  29.963  32.673  1.00  0.00     0.167 HD
ATOM     53  C   UNL A   1      42.268  30.403  35.088  1.00  0.00     0.074 A 
ATOM     54  C   UNL A   1      42.663  30.966  36.364  1.00  0.00     0.031 C 
ATOM     55  C   UNL A   1      42.905  29.372  34.480  1.00  0.00     0.031 A 
BRANCH  42  56
ATOM     56  C   UNL A   1      40.386  27.687  29.090  1.00  0.00    -0.014 A 
ATOM     57  C   UNL A   1      39.651  26.490  29.126  1.00  0.00     0.009 A 
ATOM     58  C   UNL A   1      41.114  27.999  27.930  1.00  0.00     0.009 A 
ATOM     59  C   UNL A   1      39.682  25.607  28.044  1.00  0.00     0.001 A 
ATOM     60  C   UNL A   1      41.116  27.130  26.839  1.00  0.00     0.001 A 
ATOM     61  C   UNL A   1      40.410  25.930  26.901  1.00  0.00     0.000 A 
ENDBRANCH  42  56
BRANCH  43  62
ATOM     62  C   UNL A   1      39.765  33.994  36.810  1.00  0.00    -0.014 A 
ATOM     63  C   UNL A   1      40.426  35.232  36.796  1.00  0.00     0.009 A 
ATOM     64  C   UNL A   1      39.004  33.643  37.935  1.00  0.00     0.009 A 
ATOM     65  C   UNL A   1      40.347  36.089  37.897  1.00  0.00     0.001 A 
ATOM     66  C   UNL A   1      38.902  34.514  39.022  1.00  0.00     0.001 A 
ATOM     67  C   UNL A   1      39.581  35.731  39.007  1.00  0.00     0.000 A 
ENDBRANCH  43  62
BRANCH  55  68
ATOM     68  C   UNL A   1      44.114  28.810  35.171  1.00  0.00    -0.014 A 
ATOM     69  C   UNL A   1      45.397  29.332  34.945  1.00  0.00     0.009 A 
ATOM     70  C   UNL A   1      43.960  27.761  36.093  1.00  0.00     0.009 A 
ATOM     71  C   UNL A   1      46.505  28.789  35.597  1.00  0.00     0.001 A 
ATOM     72  C   UNL A   1      45.065  27.243  36.768  1.00  0.00     0.001 A 
ATOM     73  C   UNL A   1      46.337  27.749  36.512  1.00  0.00     0.000 A 
ENDBRANCH  55  68
ENDBRANCH  29  30
ENDBRANCH  21  24
ENDBRANCH  19  20
ENDBRANCH   1  19
TORSDOF 12
ENDMDL
MODEL 3
REMARK VINA RESULT:     -10.8      5.072      9.692
REMARK SMILES C[C@@H]1CC[C@@]1(SC1CCCCC1)C(=O)NCCCNC(=O)c1ccc(-c2c3nc(c(-c4ccccc4)c4ccc([nH]4)c(-c4ccccc4)c4nc(c(-c5ccccc5)c5ccc2[nH]5)C=C4)C=C3)cc1
REMARK SMILES IDX 17 1 16 2 15 3 13 4 14 5 5 7 1 8 2 9 3 10 4 11 6 12 7 13
REMARK SMILES IDX 8 14 12 15 9 16 11 17 10 18 18 19 19 20 20 21 21 23 22 24
REMARK SMILES IDX 23 25 69 26 24 27 68 28 25 29 26 30 27 31 62 32 28 33 67 34
REMARK SMILES IDX 61 35 63 36 29 37 66 38 60 39 59 40 30 42 52 43 37 44 51 45
REMARK SMILES IDX 38 46 41 47 50 48 64 49 39 50 40 51 49 53 65 54 42 55 31 56
REMARK SMILES IDX 32 57 36 58 33 59 35 60 34 61 53 62 54 63 58 64 55 65 57 66
REMARK SMILES IDX 56 67 43 68 44 69 48 70 45 71 47 72 46 73
REMARK H PARENT 15 6 19 22 63 41 41 52
REMARK Flexibility Score: inf
ROOT
ATOM      1  C   UNL A   1      31.410  32.273  26.585  1.00  0.00     0.042 C 
ENDROOT
BRANCH   1   2
ATOM      2  C   UNL A   1      31.498  30.813  26.184  1.00  0.00     0.117 C 
BRANCH   2   3
ATOM      3  N   UNL A   1      32.836  30.287  26.344  1.00  0.00    -0.355 N 
ATOM      4  C   UNL A   1      33.344  29.039  26.066  1.00  0.00     0.236 C 
ATOM      5  O   UNL A   1      34.577  28.951  26.165  1.00  0.00    -0.273 OA
ATOM      6  H   UNL A   1      33.490  30.927  26.710  1.00  0.00     0.163 HD
BRANCH   4   7
ATOM      7  C   UNL A   1      32.410  27.823  25.693  1.00  0.00     0.097 C 
ATOM      8  C   UNL A   1      33.943  25.627  25.003  1.00  0.00     0.009 C 
ATOM      9  C   UNL A   1      33.163  26.439  26.022  1.00  0.00     0.012 C 
ATOM     10  C   UNL A   1      31.810  25.846  26.450  1.00  0.00     0.007 C 
ATOM     11  C   UNL A   1      31.297  27.277  26.643  1.00  0.00     0.028 C 
BRANCH   7  12
ATOM     12  S   UNL A   1      31.890  27.837  23.893  1.00  0.00    -0.141 SA
BRANCH  12  13
ATOM     13  C   UNL A   1      30.177  28.476  23.817  1.00  0.00     0.047 C 
ATOM     14  C   UNL A   1      30.054  29.769  23.008  1.00  0.00     0.014 C 
ATOM     15  C   UNL A   1      29.089  27.445  23.499  1.00  0.00     0.014 C 
ATOM     16  C   UNL A   1      28.637  30.338  23.062  1.00  0.00     0.001 C 
ATOM     17  C   UNL A   1      27.683  28.050  23.465  1.00  0.00     0.001 C 
ATOM     18  C   UNL A   1      27.616  29.305  22.602  1.00  0.00     0.000 C 
ENDBRANCH  12  13
ENDBRANCH   7  12
ENDBRANCH   4   7
ENDBRANCH   2   3
ENDBRANCH   1   2
BRANCH   1  19
ATOM     19  C   UNL A   1      32.684  32.780  27.246  1.00  0.00     0.118 C 
BRANCH  19  20
ATOM     20  N   UNL A   1      32.528  34.117  27.806  1.00  0.00    -0.352 N 
ATOM     21  C   UNL A   1      33.233  34.731  28.807  1.00  0.00     0.251 C 
ATOM     22  H   UNL A   1      31.811  34.660  27.404  1.00  0.00     0.163 HD
ATOM     23  O   UNL A   1      32.831  35.795  29.277  1.00  0.00    -0.269 OA
BRANCH  21  24
ATOM     24  C   UNL A   1      34.463  34.110  29.333  1.00  0.00     0.039 A 
ATOM     25  C   UNL A   1      34.373  33.254  30.432  1.00  0.00     0.014 A 
ATOM     26  C   UNL A   1      35.705  34.380  28.749  1.00  0.00     0.014 A 
ATOM     27  C   UNL A   1      35.524  32.628  30.913  1.00  0.00     0.010 A 
ATOM     28  C   UNL A   1      36.831  33.685  29.168  1.00  0.00     0.010 A 
ATOM     29  C   UNL A   1      36.756  32.816  30.267  1.00  0.00    -0.014 A 
BRANCH  29  30
ATOM     30  C   UNL A   1      37.983  32.132  30.739  1.00  0.00     0.031 A 
ATOM     31  C   UNL A   1      38.769  32.702  31.888  1.00  0.00     0.074 A 
ATOM     32  C   UNL A   1      38.418  31.028  30.101  1.00  0.00     0.049 A 
ATOM     33  N   UNL A   1      39.883  32.268  32.422  1.00  0.00    -0.248 NA
ATOM     34  C   UNL A   1      38.256  33.941  32.496  1.00  0.00     0.031 C 
ATOM     35  C   UNL A   1      37.770  30.406  28.945  1.00  0.00     0.029 A 
ATOM     36  N   UNL A   1      39.513  30.237  30.337  1.00  0.00    -0.354 N 
ATOM     37  C   UNL A   1      40.209  33.189  33.410  1.00  0.00     0.074 A 
ATOM     38  C   UNL A   1      39.211  34.234  33.363  1.00  0.00     0.031 C 
ATOM     39  C   UNL A   1      38.461  29.310  28.593  1.00  0.00     0.029 A 
ATOM     40  C   UNL A   1      39.618  29.175  29.472  1.00  0.00     0.049 A 
ATOM     41  H   UNL A   1      40.162  30.413  31.056  1.00  0.00     0.167 HD
ATOM     42  C   UNL A   1      41.235  33.156  34.293  1.00  0.00     0.031 A 
ATOM     43  C   UNL A   1      40.544  28.201  29.395  1.00  0.00     0.031 A 
ATOM     44  C   UNL A   1      42.220  32.110  34.346  1.00  0.00     0.049 A 
ATOM     45  C   UNL A   1      41.673  28.185  30.387  1.00  0.00     0.074 A 
ATOM     46  C   UNL A   1      43.262  31.950  35.241  1.00  0.00     0.029 A 
ATOM     47  N   UNL A   1      42.285  31.045  33.460  1.00  0.00    -0.354 N 
ATOM     48  N   UNL A   1      41.925  29.020  31.366  1.00  0.00    -0.248 NA
ATOM     49  C   UNL A   1      42.636  27.082  30.273  1.00  0.00     0.031 C 
ATOM     50  C   UNL A   1      43.991  30.817  34.865  1.00  0.00     0.029 A 
ATOM     51  C   UNL A   1      43.365  30.237  33.773  1.00  0.00     0.049 A 
ATOM     52  H   UNL A   1      41.656  30.886  32.720  1.00  0.00     0.167 HD
ATOM     53  C   UNL A   1      43.057  28.528  32.002  1.00  0.00     0.074 A 
ATOM     54  C   UNL A   1      43.432  27.313  31.306  1.00  0.00     0.031 C 
ATOM     55  C   UNL A   1      43.726  29.034  33.067  1.00  0.00     0.031 A 
BRANCH  42  56
ATOM     56  C   UNL A   1      41.343  34.299  35.266  1.00  0.00    -0.014 A 
ATOM     57  C   UNL A   1      40.698  34.261  36.514  1.00  0.00     0.009 A 
ATOM     58  C   UNL A   1      42.117  35.424  34.939  1.00  0.00     0.009 A 
ATOM     59  C   UNL A   1      40.788  35.344  37.391  1.00  0.00     0.001 A 
ATOM     60  C   UNL A   1      42.232  36.490  35.832  1.00  0.00     0.001 A 
ATOM     61  C   UNL A   1      41.558  36.455  37.052  1.00  0.00     0.000 A 
ENDBRANCH  42  56
BRANCH  43  62
ATOM     62  C   UNL A   1      40.426  27.146  28.356  1.00  0.00    -0.014 A 
ATOM     63  C   UNL A   1      39.687  25.979  28.606  1.00  0.00     0.009 A 
ATOM     64  C   UNL A   1      41.047  27.301  27.107  1.00  0.00     0.009 A 
ATOM     65  C   UNL A   1      39.593  24.979  27.636  1.00  0.00     0.001 A 
ATOM     66  C   UNL A   1      40.926  26.312  26.128  1.00  0.00     0.001 A 
ATOM     67  C   UNL A   1      40.208  25.148  26.396  1.00  0.00     0.000 A 
ENDBRANCH  43  62
BRANCH  55  68
ATOM     68  C   UNL A   1      44.910  28.255  33.566  1.00  0.00    -0.014 A 
ATOM     69  C   UNL A   1      46.208  28.515  33.100  1.00  0.00     0.009 A 
ATOM     70  C   UNL A   1      44.725  27.267  34.547  1.00  0.00     0.009 A 
ATOM     71  C   UNL A   1      47.291  27.775  33.578  1.00  0.00     0.001 A 
ATOM     72  C   UNL A   1      45.813  26.552  35.046  1.00  0.00     0.001 A 
ATOM     73  C   UNL A   1      47.093  26.798  34.554  1.00  0.00     0.000 A 
ENDBRANCH  55  68
ENDBRANCH  29  30
ENDBRANCH  21  24
ENDBRANCH  19  20
ENDBRANCH   1  19
TORSDOF 12
ENDMDL
