MODEL 1
REMARK VINA RESULT:     -12.3      0.000      0.000
REMARK SMILES CC[C@H](C)[C@H](NC(=O)CN1C(=O)/C(=C/c2ccc(C)cc2)SC1=S)C(=O)NCCCNC(=O)c1ccc(-c2c3nc(c(-c4ccccc4)c4ccc([nH]4)c(-c4ccccc4)c4nc(c(-c5ccccc5)c5ccc2[nH]5)C=C4)C=C3)cc1
REMARK SMILES IDX 28 1 27 2 25 3 26 4 5 6 3 7 4 8 2 9 1 10 6 11 7 12 8 14 9 15
REMARK SMILES IDX 10 16 11 17 23 18 12 19 13 20 22 21 24 22 14 23 15 24 16 25
REMARK SMILES IDX 21 26 17 27 20 28 18 29 19 30 29 31 30 32 31 33 32 34 33 36
REMARK SMILES IDX 34 37 35 38 81 39 36 40 80 41 37 42 38 43 39 44 74 45 40 46
REMARK SMILES IDX 79 47 73 48 75 49 41 50 78 51 72 52 71 53 42 55 64 56 49 57
REMARK SMILES IDX 63 58 50 59 53 60 62 61 76 62 51 63 52 64 61 66 77 67 54 68
REMARK SMILES IDX 43 69 44 70 48 71 45 72 47 73 46 74 65 75 66 76 70 77 67 78
REMARK SMILES IDX 69 79 68 80 55 81 56 82 60 83 57 84 59 85 58 86
REMARK H PARENT 27 5 6 13 31 35 75 54 53 65
REMARK Flexibility Score: inf
ROOT
ATOM      1  C   UNL A   1      36.539  20.646  25.271  1.00  0.00     0.117 C 
ENDROOT
BRANCH   1   2
ATOM      2  N   UNL A   1      35.643  21.284  26.222  1.00  0.00    -0.354 N 
ATOM      3  C   UNL A   1      34.277  21.302  26.220  1.00  0.00     0.242 C 
ATOM      4  O   UNL A   1      33.694  21.374  27.306  1.00  0.00    -0.273 OA
ATOM      5  H   UNL A   1      36.077  21.767  26.963  1.00  0.00     0.163 HD
BRANCH   3   6
ATOM      6  C   UNL A   1      33.447  21.132  24.930  1.00  0.00     0.174 C 
BRANCH   6   7
ATOM      7  C   UNL A   1      33.170  19.615  24.545  1.00  0.00     0.018 C 
ATOM      8  C   UNL A   1      32.768  18.695  25.716  1.00  0.00     0.010 C 
BRANCH   7   9
ATOM      9  C   UNL A   1      32.285  19.428  23.273  1.00  0.00     0.002 C 
ATOM     10  C   UNL A   1      32.438  18.118  22.508  1.00  0.00     0.004 C 
ENDBRANCH   7   9
ENDBRANCH   6   7
BRANCH   6  11
ATOM     11  N   UNL A   1      33.979  21.944  23.825  1.00  0.00    -0.342 N 
ATOM     12  C   UNL A   1      33.457  22.958  23.084  1.00  0.00     0.240 C 
ATOM     13  H   UNL A   1      34.900  21.704  23.570  1.00  0.00     0.164 HD
ATOM     14  O   UNL A   1      34.152  23.318  22.125  1.00  0.00    -0.273 OA
BRANCH  12  15
ATOM     15  C   UNL A   1      32.252  23.811  23.496  1.00  0.00     0.227 C 
BRANCH  15  16
ATOM     16  N   UNL A   1      32.499  25.177  23.932  1.00  0.00    -0.283 N 
ATOM     17  C   UNL A   1      32.897  25.400  25.244  1.00  0.00     0.266 C 
ATOM     18  C   UNL A   1      32.673  26.231  23.060  1.00  0.00     0.148 C 
ATOM     19  O   UNL A   1      33.120  24.536  26.081  1.00  0.00    -0.268 OA
ATOM     20  C   UNL A   1      33.126  26.852  25.463  1.00  0.00     0.081 C 
ATOM     21  S   UNL A   1      33.106  27.674  23.950  1.00  0.00    -0.054 SA
ATOM     22  S   UNL A   1      32.514  26.242  21.401  1.00  0.00    -0.052 S 
ATOM     23  C   UNL A   1      33.310  27.400  26.674  1.00  0.00     0.029 C 
BRANCH  23  24
ATOM     24  C   UNL A   1      33.505  28.843  26.867  1.00  0.00    -0.024 A 
ATOM     25  C   UNL A   1      34.779  29.346  27.160  1.00  0.00     0.008 A 
ATOM     26  C   UNL A   1      32.408  29.705  26.877  1.00  0.00     0.008 A 
ATOM     27  C   UNL A   1      34.941  30.680  27.537  1.00  0.00     0.004 A 
ATOM     28  C   UNL A   1      32.573  31.044  27.244  1.00  0.00     0.004 A 
ATOM     29  C   UNL A   1      33.835  31.534  27.605  1.00  0.00    -0.051 A 
ATOM     30  C   UNL A   1      33.984  32.945  28.090  1.00  0.00     0.044 C 
ENDBRANCH  23  24
ENDBRANCH  15  16
ENDBRANCH  12  15
ENDBRANCH   6  11
ENDBRANCH   3   6
ENDBRANCH   1   2
BRANCH   1  31
ATOM     31  C   UNL A   1      37.672  21.529  24.778  1.00  0.00     0.042 C 
BRANCH  31  32
ATOM     32  C   UNL A   1      38.197  22.458  25.855  1.00  0.00     0.118 C 
BRANCH  32  33
ATOM     33  N   UNL A   1      39.631  22.333  26.103  1.00  0.00    -0.352 N 
ATOM     34  C   UNL A   1      40.511  23.308  26.549  1.00  0.00     0.251 C 
ATOM     35  H   UNL A   1      40.022  21.447  25.933  1.00  0.00     0.163 HD
ATOM     36  O   UNL A   1      41.692  23.060  26.716  1.00  0.00    -0.269 OA
BRANCH  34  37
ATOM     37  C   UNL A   1      39.948  24.618  26.952  1.00  0.00     0.039 A 
ATOM     38  C   UNL A   1      40.444  25.751  26.303  1.00  0.00     0.014 A 
ATOM     39  C   UNL A   1      39.221  24.731  28.136  1.00  0.00     0.014 A 
ATOM     40  C   UNL A   1      40.451  26.963  26.983  1.00  0.00     0.010 A 
ATOM     41  C   UNL A   1      39.330  25.903  28.856  1.00  0.00     0.010 A 
ATOM     42  C   UNL A   1      40.010  26.993  28.306  1.00  0.00    -0.014 A 
BRANCH  42  43
ATOM     43  C   UNL A   1      40.327  28.096  29.204  1.00  0.00     0.031 A 
ATOM     44  C   UNL A   1      39.324  29.143  29.464  1.00  0.00     0.074 A 
ATOM     45  C   UNL A   1      41.544  28.177  29.787  1.00  0.00     0.049 A 
ATOM     46  N   UNL A   1      39.611  30.369  29.748  1.00  0.00    -0.248 NA
ATOM     47  C   UNL A   1      37.893  28.893  29.350  1.00  0.00     0.031 C 
ATOM     48  C   UNL A   1      41.966  29.093  30.841  1.00  0.00     0.029 A 
ATOM     49  N   UNL A   1      42.728  27.572  29.354  1.00  0.00    -0.354 N 
ATOM     50  C   UNL A   1      38.444  30.982  30.134  1.00  0.00     0.074 A 
ATOM     51  C   UNL A   1      37.396  30.056  29.775  1.00  0.00     0.031 C 
ATOM     52  C   UNL A   1      43.303  29.211  30.800  1.00  0.00     0.029 A 
ATOM     53  C   UNL A   1      43.771  28.477  29.637  1.00  0.00     0.049 A 
ATOM     54  H   UNL A   1      42.817  26.687  28.933  1.00  0.00     0.167 HD
ATOM     55  C   UNL A   1      38.498  32.140  30.851  1.00  0.00     0.031 A 
ATOM     56  C   UNL A   1      44.550  28.995  28.645  1.00  0.00     0.031 A 
ATOM     57  C   UNL A   1      39.870  32.620  31.010  1.00  0.00     0.049 A 
ATOM     58  C   UNL A   1      44.484  30.503  28.535  1.00  0.00     0.074 A 
ATOM     59  C   UNL A   1      40.778  32.557  32.055  1.00  0.00     0.029 A 
ATOM     60  N   UNL A   1      40.591  33.012  29.888  1.00  0.00    -0.354 N 
ATOM     61  N   UNL A   1      43.564  31.238  29.096  1.00  0.00    -0.248 NA
ATOM     62  C   UNL A   1      45.420  31.296  27.741  1.00  0.00     0.031 C 
ATOM     63  C   UNL A   1      42.065  32.856  31.539  1.00  0.00     0.029 A 
ATOM     64  C   UNL A   1      41.934  33.130  30.190  1.00  0.00     0.049 A 
ATOM     65  H   UNL A   1      40.198  33.182  29.001  1.00  0.00     0.167 HD
ATOM     66  C   UNL A   1      43.746  32.550  28.746  1.00  0.00     0.074 A 
ATOM     67  C   UNL A   1      44.935  32.539  27.914  1.00  0.00     0.031 C 
ATOM     68  C   UNL A   1      42.885  33.529  29.159  1.00  0.00     0.031 A 
BRANCH  55  69
ATOM     69  C   UNL A   1      37.333  32.653  31.665  1.00  0.00    -0.014 A 
ATOM     70  C   UNL A   1      37.297  32.416  33.051  1.00  0.00     0.009 A 
ATOM     71  C   UNL A   1      36.212  33.307  31.128  1.00  0.00     0.009 A 
ATOM     72  C   UNL A   1      36.166  32.709  33.828  1.00  0.00     0.001 A 
ATOM     73  C   UNL A   1      35.061  33.564  31.885  1.00  0.00     0.001 A 
ATOM     74  C   UNL A   1      35.033  33.251  33.235  1.00  0.00     0.000 A 
ENDBRANCH  55  69
BRANCH  56  75
ATOM     75  C   UNL A   1      44.761  28.070  27.499  1.00  0.00    -0.014 A 
ATOM     76  C   UNL A   1      45.476  26.877  27.725  1.00  0.00     0.009 A 
ATOM     77  C   UNL A   1      43.991  28.177  26.333  1.00  0.00     0.009 A 
ATOM     78  C   UNL A   1      45.333  25.781  26.868  1.00  0.00     0.001 A 
ATOM     79  C   UNL A   1      43.859  27.080  25.472  1.00  0.00     0.001 A 
ATOM     80  C   UNL A   1      44.500  25.875  25.758  1.00  0.00     0.000 A 
ENDBRANCH  56  75
BRANCH  68  81
ATOM     81  C   UNL A   1      42.864  34.968  28.698  1.00  0.00    -0.014 A 
ATOM     82  C   UNL A   1      43.218  36.068  29.489  1.00  0.00     0.009 A 
ATOM     83  C   UNL A   1      42.583  35.239  27.337  1.00  0.00     0.009 A 
ATOM     84  C   UNL A   1      43.251  37.368  28.961  1.00  0.00     0.001 A 
ATOM     85  C   UNL A   1      42.659  36.524  26.796  1.00  0.00     0.001 A 
ATOM     86  C   UNL A   1      42.983  37.595  27.614  1.00  0.00     0.000 A 
ENDBRANCH  68  81
ENDBRANCH  42  43
ENDBRANCH  34  37
ENDBRANCH  32  33
ENDBRANCH  31  32
ENDBRANCH   1  31
TORSDOF 16
ENDMDL
MODEL 2
REMARK VINA RESULT:     -12.2      3.366      8.961
REMARK SMILES CC[C@H](C)[C@H](NC(=O)CN1C(=O)/C(=C/c2ccc(C)cc2)SC1=S)C(=O)NCCCNC(=O)c1ccc(-c2c3nc(c(-c4ccccc4)c4ccc([nH]4)c(-c4ccccc4)c4nc(c(-c5ccccc5)c5ccc2[nH]5)C=C4)C=C3)cc1
REMARK SMILES IDX 28 1 27 2 25 3 26 4 5 6 3 7 4 8 2 9 1 10 6 11 7 12 8 14 9 15
REMARK SMILES IDX 10 16 11 17 23 18 12 19 13 20 22 21 24 22 14 23 15 24 16 25
REMARK SMILES IDX 21 26 17 27 20 28 18 29 19 30 29 31 30 32 31 33 32 34 33 36
REMARK SMILES IDX 34 37 35 38 81 39 36 40 80 41 37 42 38 43 39 44 74 45 40 46
REMARK SMILES IDX 79 47 73 48 75 49 41 50 78 51 72 52 71 53 42 55 64 56 49 57
REMARK SMILES IDX 63 58 50 59 53 60 62 61 76 62 51 63 52 64 61 66 77 67 54 68
REMARK SMILES IDX 43 69 44 70 48 71 45 72 47 73 46 74 65 75 66 76 70 77 67 78
REMARK SMILES IDX 69 79 68 80 55 81 56 82 60 83 57 84 59 85 58 86
REMARK H PARENT 27 5 6 13 31 35 75 54 53 65
REMARK Flexibility Score: inf
ROOT
ATOM      1  C   UNL A   1      31.851  30.115  26.062  1.00  0.00     0.117 C 
ENDROOT
BRANCH   1   2
ATOM      2  N   UNL A   1      32.730  29.542  25.055  1.00  0.00    -0.354 N 
ATOM      3  C   UNL A   1      32.390  28.897  23.900  1.00  0.00     0.242 C 
ATOM      4  O   UNL A   1      33.163  28.974  22.941  1.00  0.00    -0.273 OA
ATOM      5  H   UNL A   1      33.696  29.629  25.230  1.00  0.00     0.163 HD
BRANCH   3   6
ATOM      6  C   UNL A   1      31.040  28.171  23.723  1.00  0.00     0.174 C 
BRANCH   6   7
ATOM      7  C   UNL A   1      29.890  29.098  23.137  1.00  0.00     0.018 C 
ATOM      8  C   UNL A   1      30.240  29.853  21.839  1.00  0.00     0.010 C 
BRANCH   7   9
ATOM      9  C   UNL A   1      28.479  28.430  23.107  1.00  0.00     0.002 C 
ATOM     10  C   UNL A   1      27.272  29.359  23.073  1.00  0.00     0.004 C 
ENDBRANCH   7   9
ENDBRANCH   6   7
BRANCH   6  11
ATOM     11  N   UNL A   1      30.654  27.427  24.931  1.00  0.00    -0.342 N 
ATOM     12  C   UNL A   1      30.454  26.105  25.182  1.00  0.00     0.240 C 
ATOM     13  H   UNL A   1      30.511  28.002  25.717  1.00  0.00     0.164 HD
ATOM     14  O   UNL A   1      29.990  25.848  26.300  1.00  0.00    -0.273 OA
BRANCH  12  15
ATOM     15  C   UNL A   1      30.984  24.960  24.311  1.00  0.00     0.227 C 
BRANCH  15  16
ATOM     16  N   UNL A   1      32.182  24.264  24.755  1.00  0.00    -0.283 N 
ATOM     17  C   UNL A   1      33.422  24.725  24.329  1.00  0.00     0.266 C 
ATOM     18  C   UNL A   1      32.198  23.380  25.813  1.00  0.00     0.148 C 
ATOM     19  O   UNL A   1      33.619  25.719  23.643  1.00  0.00    -0.268 OA
ATOM     20  C   UNL A   1      34.503  23.896  24.925  1.00  0.00     0.081 C 
ATOM     21  S   UNL A   1      33.840  22.874  26.143  1.00  0.00    -0.054 SA
ATOM     22  S   UNL A   1      30.911  22.808  26.706  1.00  0.00    -0.052 S 
ATOM     23  C   UNL A   1      35.786  23.959  24.538  1.00  0.00     0.029 C 
BRANCH  23  24
ATOM     24  C   UNL A   1      36.829  23.107  25.121  1.00  0.00    -0.024 A 
ATOM     25  C   UNL A   1      37.726  23.637  26.058  1.00  0.00     0.008 A 
ATOM     26  C   UNL A   1      37.010  21.802  24.661  1.00  0.00     0.008 A 
ATOM     27  C   UNL A   1      38.836  22.897  26.470  1.00  0.00     0.004 A 
ATOM     28  C   UNL A   1      38.117  21.058  25.082  1.00  0.00     0.004 A 
ATOM     29  C   UNL A   1      39.053  21.611  25.965  1.00  0.00    -0.051 A 
ATOM     30  C   UNL A   1      40.285  20.840  26.334  1.00  0.00     0.044 C 
ENDBRANCH  23  24
ENDBRANCH  15  16
ENDBRANCH  12  15
ENDBRANCH   6  11
ENDBRANCH   3   6
ENDBRANCH   1   2
BRANCH   1  31
ATOM     31  C   UNL A   1      32.514  31.131  26.976  1.00  0.00     0.042 C 
BRANCH  31  32
ATOM     32  C   UNL A   1      33.785  30.602  27.610  1.00  0.00     0.118 C 
BRANCH  32  33
ATOM     33  N   UNL A   1      34.375  31.497  28.601  1.00  0.00    -0.352 N 
ATOM     34  C   UNL A   1      35.572  31.349  29.284  1.00  0.00     0.251 C 
ATOM     35  H   UNL A   1      33.858  32.308  28.810  1.00  0.00     0.163 HD
ATOM     36  O   UNL A   1      35.945  32.185  30.088  1.00  0.00    -0.269 OA
BRANCH  34  37
ATOM     37  C   UNL A   1      36.452  30.219  28.904  1.00  0.00     0.039 A 
ATOM     38  C   UNL A   1      36.762  29.290  29.901  1.00  0.00     0.014 A 
ATOM     39  C   UNL A   1      37.189  30.274  27.723  1.00  0.00     0.014 A 
ATOM     40  C   UNL A   1      37.972  28.612  29.832  1.00  0.00     0.010 A 
ATOM     41  C   UNL A   1      38.440  29.691  27.708  1.00  0.00     0.010 A 
ATOM     42  C   UNL A   1      38.857  28.921  28.798  1.00  0.00    -0.014 A 
BRANCH  42  43
ATOM     43  C   UNL A   1      40.268  28.561  28.851  1.00  0.00     0.031 A 
ATOM     44  C   UNL A   1      40.720  27.280  28.282  1.00  0.00     0.074 A 
ATOM     45  C   UNL A   1      41.164  29.386  29.435  1.00  0.00     0.049 A 
ATOM     46  N   UNL A   1      41.737  26.613  28.714  1.00  0.00    -0.248 NA
ATOM     47  C   UNL A   1      39.999  26.609  27.208  1.00  0.00     0.031 C 
ATOM     48  C   UNL A   1      42.619  29.277  29.415  1.00  0.00     0.029 A 
ATOM     49  N   UNL A   1      40.902  30.384  30.380  1.00  0.00    -0.354 N 
ATOM     50  C   UNL A   1      41.976  25.604  27.813  1.00  0.00     0.074 A 
ATOM     51  C   UNL A   1      40.815  25.583  26.954  1.00  0.00     0.031 C 
ATOM     52  C   UNL A   1      43.117  29.943  30.469  1.00  0.00     0.029 A 
ATOM     53  C   UNL A   1      41.992  30.392  31.272  1.00  0.00     0.049 A 
ATOM     54  H   UNL A   1      40.109  30.966  30.415  1.00  0.00     0.167 HD
ATOM     55  C   UNL A   1      43.194  24.993  27.795  1.00  0.00     0.031 A 
ATOM     56  C   UNL A   1      41.825  30.133  32.600  1.00  0.00     0.031 A 
ATOM     57  C   UNL A   1      44.061  25.470  28.871  1.00  0.00     0.049 A 
ATOM     58  C   UNL A   1      42.592  28.924  33.091  1.00  0.00     0.074 A 
ATOM     59  C   UNL A   1      45.110  26.375  28.907  1.00  0.00     0.029 A 
ATOM     60  N   UNL A   1      43.704  25.230  30.193  1.00  0.00    -0.354 N 
ATOM     61  N   UNL A   1      43.115  28.021  32.308  1.00  0.00    -0.248 NA
ATOM     62  C   UNL A   1      42.783  28.610  34.506  1.00  0.00     0.031 C 
ATOM     63  C   UNL A   1      45.343  26.724  30.264  1.00  0.00     0.029 A 
ATOM     64  C   UNL A   1      44.457  26.011  31.049  1.00  0.00     0.049 A 
ATOM     65  H   UNL A   1      43.010  24.593  30.479  1.00  0.00     0.167 HD
ATOM     66  C   UNL A   1      43.677  27.025  33.065  1.00  0.00     0.074 A 
ATOM     67  C   UNL A   1      43.462  27.451  34.435  1.00  0.00     0.031 C 
ATOM     68  C   UNL A   1      44.251  25.926  32.490  1.00  0.00     0.031 A 
BRANCH  55  69
ATOM     69  C   UNL A   1      43.693  24.198  26.610  1.00  0.00    -0.014 A 
ATOM     70  C   UNL A   1      43.342  22.841  26.488  1.00  0.00     0.009 A 
ATOM     71  C   UNL A   1      44.563  24.695  25.626  1.00  0.00     0.009 A 
ATOM     72  C   UNL A   1      43.913  22.008  25.514  1.00  0.00     0.001 A 
ATOM     73  C   UNL A   1      45.174  23.863  24.677  1.00  0.00     0.001 A 
ATOM     74  C   UNL A   1      44.858  22.514  24.630  1.00  0.00     0.000 A 
ENDBRANCH  55  69
BRANCH  56  75
ATOM     75  C   UNL A   1      40.515  30.583  33.142  1.00  0.00    -0.014 A 
ATOM     76  C   UNL A   1      40.259  31.967  33.210  1.00  0.00     0.009 A 
ATOM     77  C   UNL A   1      39.434  29.697  33.247  1.00  0.00     0.009 A 
ATOM     78  C   UNL A   1      38.949  32.453  33.266  1.00  0.00     0.001 A 
ATOM     79  C   UNL A   1      38.124  30.189  33.313  1.00  0.00     0.001 A 
ATOM     80  C   UNL A   1      37.881  31.562  33.286  1.00  0.00     0.000 A 
ENDBRANCH  56  75
BRANCH  68  81
ATOM     81  C   UNL A   1      44.734  24.682  33.201  1.00  0.00    -0.014 A 
ATOM     82  C   UNL A   1      46.015  24.514  33.739  1.00  0.00     0.009 A 
ATOM     83  C   UNL A   1      43.805  23.646  33.457  1.00  0.00     0.009 A 
ATOM     84  C   UNL A   1      46.361  23.358  34.458  1.00  0.00     0.001 A 
ATOM     85  C   UNL A   1      44.129  22.515  34.211  1.00  0.00     0.001 A 
ATOM     86  C   UNL A   1      45.416  22.366  34.703  1.00  0.00     0.000 A 
ENDBRANCH  68  81
ENDBRANCH  42  43
ENDBRANCH  34  37
ENDBRANCH  32  33
ENDBRANCH  31  32
ENDBRANCH   1  31
TORSDOF 16
ENDMDL
MODEL 3
REMARK VINA RESULT:     -12.2      3.258      9.391
REMARK SMILES CC[C@H](C)[C@H](NC(=O)CN1C(=O)/C(=C/c2ccc(C)cc2)SC1=S)C(=O)NCCCNC(=O)c1ccc(-c2c3nc(c(-c4ccccc4)c4ccc([nH]4)c(-c4ccccc4)c4nc(c(-c5ccccc5)c5ccc2[nH]5)C=C4)C=C3)cc1
REMARK SMILES IDX 28 1 27 2 25 3 26 4 5 6 3 7 4 8 2 9 1 10 6 11 7 12 8 14 9 15
REMARK SMILES IDX 10 16 11 17 23 18 12 19 13 20 22 21 24 22 14 23 15 24 16 25
REMARK SMILES IDX 21 26 17 27 20 28 18 29 19 30 29 31 30 32 31 33 32 34 33 36
REMARK SMILES IDX 34 37 35 38 81 39 36 40 80 41 37 42 38 43 39 44 74 45 40 46
REMARK SMILES IDX 79 47 73 48 75 49 41 50 78 51 72 52 71 53 42 55 64 56 49 57
REMARK SMILES IDX 63 58 50 59 53 60 62 61 76 62 51 63 52 64 61 66 77 67 54 68
REMARK SMILES IDX 43 69 44 70 48 71 45 72 47 73 46 74 65 75 66 76 70 77 67 78
REMARK SMILES IDX 69 79 68 80 55 81 56 82 60 83 57 84 59 85 58 86
REMARK H PARENT 27 5 6 13 31 35 75 54 53 65
REMARK Flexibility Score: inf
ROOT
ATOM      1  C   UNL A   1      31.975  29.904  25.613  1.00  0.00     0.117 C 
ENDROOT
BRANCH   1   2
ATOM      2  N   UNL A   1      33.090  29.809  24.685  1.00  0.00    -0.354 N 
ATOM      3  C   UNL A   1      33.263  28.931  23.653  1.00  0.00     0.242 C 
ATOM      4  O   UNL A   1      33.915  29.305  22.673  1.00  0.00    -0.273 OA
ATOM      5  H   UNL A   1      33.816  30.462  24.818  1.00  0.00     0.163 HD
BRANCH   3   6
ATOM      6  C   UNL A   1      32.592  27.542  23.625  1.00  0.00     0.174 C 
BRANCH   6   7
ATOM      7  C   UNL A   1      31.081  27.573  23.133  1.00  0.00     0.018 C 
ATOM      8  C   UNL A   1      30.030  27.164  24.185  1.00  0.00     0.010 C 
BRANCH   7   9
ATOM      9  C   UNL A   1      30.694  28.857  22.332  1.00  0.00     0.002 C 
ATOM     10  C   UNL A   1      29.473  29.631  22.812  1.00  0.00     0.004 C 
ENDBRANCH   7   9
ENDBRANCH   6   7
BRANCH   6  11
ATOM     11  N   UNL A   1      32.799  26.808  24.882  1.00  0.00    -0.342 N 
ATOM     12  C   UNL A   1      33.242  25.552  25.162  1.00  0.00     0.240 C 
ATOM     13  H   UNL A   1      32.569  27.332  25.684  1.00  0.00     0.164 HD
ATOM     14  O   UNL A   1      33.151  25.217  26.350  1.00  0.00    -0.273 OA
BRANCH  12  15
ATOM     15  C   UNL A   1      34.044  24.674  24.195  1.00  0.00     0.227 C 
BRANCH  15  16
ATOM     16  N   UNL A   1      34.112  23.246  24.468  1.00  0.00    -0.283 N 
ATOM     17  C   UNL A   1      33.216  22.398  23.828  1.00  0.00     0.266 C 
ATOM     18  C   UNL A   1      35.197  22.639  25.065  1.00  0.00     0.148 C 
ATOM     19  O   UNL A   1      32.386  22.732  22.994  1.00  0.00    -0.268 OA
ATOM     20  C   UNL A   1      33.484  20.989  24.220  1.00  0.00     0.081 C 
ATOM     21  S   UNL A   1      34.977  20.903  25.075  1.00  0.00    -0.054 SA
ATOM     22  S   UNL A   1      36.556  23.352  25.717  1.00  0.00    -0.052 S 
ATOM     23  C   UNL A   1      32.658  19.970  23.938  1.00  0.00     0.029 C 
BRANCH  23  24
ATOM     24  C   UNL A   1      32.932  18.592  24.363  1.00  0.00    -0.024 A 
ATOM     25  C   UNL A   1      33.482  17.674  23.459  1.00  0.00     0.008 A 
ATOM     26  C   UNL A   1      32.536  18.155  25.629  1.00  0.00     0.008 A 
ATOM     27  C   UNL A   1      33.563  16.320  23.789  1.00  0.00     0.004 A 
ATOM     28  C   UNL A   1      32.628  16.800  25.962  1.00  0.00     0.004 A 
ATOM     29  C   UNL A   1      33.113  15.869  25.034  1.00  0.00    -0.051 A 
ATOM     30  C   UNL A   1      33.116  14.407  25.368  1.00  0.00     0.044 C 
ENDBRANCH  23  24
ENDBRANCH  15  16
ENDBRANCH  12  15
ENDBRANCH   6  11
ENDBRANCH   3   6
ENDBRANCH   1   2
BRANCH   1  31
ATOM     31  C   UNL A   1      32.293  30.620  26.914  1.00  0.00     0.042 C 
BRANCH  31  32
ATOM     32  C   UNL A   1      33.676  30.288  27.439  1.00  0.00     0.118 C 
BRANCH  32  33
ATOM     33  N   UNL A   1      34.244  31.312  28.311  1.00  0.00    -0.352 N 
ATOM     34  C   UNL A   1      35.453  31.284  28.990  1.00  0.00     0.251 C 
ATOM     35  H   UNL A   1      33.701  32.123  28.433  1.00  0.00     0.163 HD
ATOM     36  O   UNL A   1      35.805  32.220  29.686  1.00  0.00    -0.269 OA
BRANCH  34  37
ATOM     37  C   UNL A   1      36.368  30.148  28.730  1.00  0.00     0.039 A 
ATOM     38  C   UNL A   1      36.680  29.321  29.811  1.00  0.00     0.014 A 
ATOM     39  C   UNL A   1      37.128  30.117  27.562  1.00  0.00     0.014 A 
ATOM     40  C   UNL A   1      37.908  28.672  29.826  1.00  0.00     0.010 A 
ATOM     41  C   UNL A   1      38.392  29.568  27.623  1.00  0.00     0.010 A 
ATOM     42  C   UNL A   1      38.807  28.910  28.785  1.00  0.00    -0.014 A 
BRANCH  42  43
ATOM     43  C   UNL A   1      40.224  28.593  28.896  1.00  0.00     0.031 A 
ATOM     44  C   UNL A   1      40.742  27.335  28.332  1.00  0.00     0.074 A 
ATOM     45  C   UNL A   1      41.067  29.438  29.530  1.00  0.00     0.049 A 
ATOM     46  N   UNL A   1      41.760  26.694  28.800  1.00  0.00    -0.248 NA
ATOM     47  C   UNL A   1      40.091  26.658  27.217  1.00  0.00     0.031 C 
ATOM     48  C   UNL A   1      42.524  29.374  29.573  1.00  0.00     0.029 A 
ATOM     49  N   UNL A   1      40.731  30.413  30.475  1.00  0.00    -0.354 N 
ATOM     50  C   UNL A   1      42.069  25.706  27.897  1.00  0.00     0.074 A 
ATOM     51  C   UNL A   1      40.949  25.662  26.987  1.00  0.00     0.031 C 
ATOM     52  C   UNL A   1      42.953  30.041  30.657  1.00  0.00     0.029 A 
ATOM     53  C   UNL A   1      41.781  30.442  31.415  1.00  0.00     0.049 A 
ATOM     54  H   UNL A   1      39.920  30.970  30.483  1.00  0.00     0.167 HD
ATOM     55  C   UNL A   1      43.306  25.134  27.925  1.00  0.00     0.031 A 
ATOM     56  C   UNL A   1      41.563  30.159  32.731  1.00  0.00     0.031 A 
ATOM     57  C   UNL A   1      44.109  25.623  29.045  1.00  0.00     0.049 A 
ATOM     58  C   UNL A   1      42.346  28.968  33.240  1.00  0.00     0.074 A 
ATOM     59  C   UNL A   1      45.126  26.559  29.140  1.00  0.00     0.029 A 
ATOM     60  N   UNL A   1      43.702  25.353  30.346  1.00  0.00    -0.354 N 
ATOM     61  N   UNL A   1      42.932  28.093  32.470  1.00  0.00    -0.248 NA
ATOM     62  C   UNL A   1      42.484  28.640  34.657  1.00  0.00     0.031 C 
ATOM     63  C   UNL A   1      45.288  26.896  30.510  1.00  0.00     0.029 A 
ATOM     64  C   UNL A   1      44.392  26.144  31.246  1.00  0.00     0.049 A 
ATOM     65  H   UNL A   1      43.017  24.690  30.593  1.00  0.00     0.167 HD
ATOM     66  C   UNL A   1      43.491  27.105  33.237  1.00  0.00     0.074 A 
ATOM     67  C   UNL A   1      43.203  27.503  34.603  1.00  0.00     0.031 C 
ATOM     68  C   UNL A   1      44.125  26.033  32.675  1.00  0.00     0.031 A 
BRANCH  55  69
ATOM     69  C   UNL A   1      43.882  24.372  26.754  1.00  0.00    -0.014 A 
ATOM     70  C   UNL A   1      45.022  24.867  26.096  1.00  0.00     0.009 A 
ATOM     71  C   UNL A   1      43.316  23.210  26.204  1.00  0.00     0.009 A 
ATOM     72  C   UNL A   1      45.496  24.306  24.901  1.00  0.00     0.001 A 
ATOM     73  C   UNL A   1      43.754  22.667  24.988  1.00  0.00     0.001 A 
ATOM     74  C   UNL A   1      44.838  23.225  24.328  1.00  0.00     0.000 A 
ENDBRANCH  55  69
BRANCH  56  75
ATOM     75  C   UNL A   1      40.216  30.560  33.220  1.00  0.00    -0.014 A 
ATOM     76  C   UNL A   1      39.921  31.935  33.315  1.00  0.00     0.009 A 
ATOM     77  C   UNL A   1      39.155  29.645  33.246  1.00  0.00     0.009 A 
ATOM     78  C   UNL A   1      38.598  32.386  33.319  1.00  0.00     0.001 A 
ATOM     79  C   UNL A   1      37.831  30.102  33.260  1.00  0.00     0.001 A 
ATOM     80  C   UNL A   1      37.554  31.468  33.261  1.00  0.00     0.000 A 
ENDBRANCH  56  75
BRANCH  68  81
ATOM     81  C   UNL A   1      44.615  24.794  33.390  1.00  0.00    -0.014 A 
ATOM     82  C   UNL A   1      43.855  23.638  33.602  1.00  0.00     0.009 A 
ATOM     83  C   UNL A   1      45.975  24.730  33.777  1.00  0.00     0.009 A 
ATOM     84  C   UNL A   1      44.410  22.497  34.203  1.00  0.00     0.001 A 
ATOM     85  C   UNL A   1      46.545  23.582  34.332  1.00  0.00     0.001 A 
ATOM     86  C   UNL A   1      45.756  22.465  34.557  1.00  0.00     0.000 A 
ENDBRANCH  68  81
ENDBRANCH  42  43
ENDBRANCH  34  37
ENDBRANCH  32  33
ENDBRANCH  31  32
ENDBRANCH   1  31
TORSDOF 16
ENDMDL
