MODEL 1
REMARK VINA RESULT:     -11.3      0.000      0.000
REMARK SMILES CC(C)(CC(=O)NCCCNC(=O)c1ccc(-c2c3nc(c(-c4ccccc4)c4ccc([nH]4)c(-c4ccccc4)c4nc(c(-c5ccccc5)c5ccc2[nH]5)C=C4)C=C3)cc1)NC(=O)c1nc(C(C)(C)C)n[nH]1
REMARK SMILES IDX 8 1 7 2 5 3 6 4 4 6 2 7 1 8 3 9 62 10 63 11 64 13 65 14
REMARK SMILES IDX 66 15 73 16 67 17 72 18 68 20 69 21 70 22 71 23 9 24 10 25
REMARK SMILES IDX 11 26 12 27 13 29 14 30 15 31 61 32 16 33 60 34 17 35 18 36
REMARK SMILES IDX 19 37 54 38 20 39 59 40 53 41 55 42 21 43 58 44 52 45 51 46
REMARK SMILES IDX 22 48 44 49 29 50 43 51 30 52 33 53 42 54 56 55 31 56 32 57
REMARK SMILES IDX 41 59 57 60 34 61 23 62 24 63 28 64 25 65 27 66 26 67 45 68
REMARK SMILES IDX 46 69 50 70 47 71 49 72 48 73 35 74 36 75 40 76 37 77 39 78
REMARK SMILES IDX 38 79
REMARK H PARENT 7 5 62 12 73 19 11 28 55 47 33 58
REMARK Flexibility Score: inf
ROOT
ATOM      1  C   UNL A   1      31.378  30.130  25.703  1.00  0.00     0.117 C 
ENDROOT
BRANCH   1   2
ATOM      2  N   UNL A   1      32.433  29.940  24.723  1.00  0.00    -0.356 N 
ATOM      3  C   UNL A   1      32.792  28.861  23.975  1.00  0.00     0.222 C 
ATOM      4  O   UNL A   1      33.694  29.012  23.148  1.00  0.00    -0.275 OA
ATOM      5  H   UNL A   1      32.991  30.737  24.572  1.00  0.00     0.163 HD
BRANCH   3   6
ATOM      6  C   UNL A   1      32.072  27.533  24.106  1.00  0.00     0.127 C 
BRANCH   6   7
ATOM      7  C   UNL A   1      31.288  27.101  22.845  1.00  0.00     0.044 C 
ATOM      8  C   UNL A   1      30.271  26.010  23.192  1.00  0.00     0.035 C 
ATOM      9  C   UNL A   1      30.462  28.325  22.373  1.00  0.00     0.035 C 
BRANCH   7  10
ATOM     10  N   UNL A   1      32.217  26.806  21.734  1.00  0.00    -0.344 N 
ATOM     11  C   UNL A   1      32.760  25.648  21.237  1.00  0.00     0.289 C 
ATOM     12  H   UNL A   1      32.509  27.610  21.248  1.00  0.00     0.164 HD
ATOM     13  O   UNL A   1      32.894  25.580  20.013  1.00  0.00    -0.266 OA
BRANCH  11  14
ATOM     14  C   UNL A   1      33.187  24.568  22.091  1.00  0.00     0.214 A 
ATOM     15  N   UNL A   1      34.210  24.535  22.924  1.00  0.00    -0.207 NA
ATOM     16  N   UNL A   1      32.654  23.317  22.015  1.00  0.00    -0.255 N 
ATOM     17  C   UNL A   1      34.261  23.219  23.327  1.00  0.00     0.156 A 
ATOM     18  N   UNL A   1      33.282  22.453  22.829  1.00  0.00    -0.158 NA
ATOM     19  H   UNL A   1      31.898  23.074  21.434  1.00  0.00     0.192 HD
BRANCH  17  20
ATOM     20  C   UNL A   1      35.359  22.704  24.226  1.00  0.00     0.024 C 
ATOM     21  C   UNL A   1      35.038  21.309  24.801  1.00  0.00     0.019 C 
ATOM     22  C   UNL A   1      36.668  22.593  23.417  1.00  0.00     0.019 C 
ATOM     23  C   UNL A   1      35.572  23.677  25.399  1.00  0.00     0.019 C 
ENDBRANCH  17  20
ENDBRANCH  11  14
ENDBRANCH   7  10
ENDBRANCH   6   7
ENDBRANCH   3   6
ENDBRANCH   1   2
BRANCH   1  24
ATOM     24  C   UNL A   1      31.233  31.584  26.150  1.00  0.00     0.042 C 
BRANCH  24  25
ATOM     25  C   UNL A   1      32.437  32.134  26.912  1.00  0.00     0.118 C 
BRANCH  25  26
ATOM     26  N   UNL A   1      32.229  33.489  27.390  1.00  0.00    -0.352 N 
ATOM     27  C   UNL A   1      32.991  34.198  28.290  1.00  0.00     0.251 C 
ATOM     28  H   UNL A   1      31.444  33.960  27.024  1.00  0.00     0.163 HD
ATOM     29  O   UNL A   1      32.594  35.277  28.720  1.00  0.00    -0.269 OA
BRANCH  27  30
ATOM     30  C   UNL A   1      34.284  33.651  28.761  1.00  0.00     0.039 A 
ATOM     31  C   UNL A   1      35.445  33.950  28.040  1.00  0.00     0.014 A 
ATOM     32  C   UNL A   1      34.352  32.816  29.881  1.00  0.00     0.014 A 
ATOM     33  C   UNL A   1      36.682  33.457  28.469  1.00  0.00     0.010 A 
ATOM     34  C   UNL A   1      35.589  32.343  30.320  1.00  0.00     0.010 A 
ATOM     35  C   UNL A   1      36.765  32.664  29.624  1.00  0.00    -0.014 A 
BRANCH  35  36
ATOM     36  C   UNL A   1      38.069  32.163  30.121  1.00  0.00     0.031 A 
ATOM     37  C   UNL A   1      38.675  30.917  29.542  1.00  0.00     0.074 A 
ATOM     38  C   UNL A   1      38.675  32.778  31.154  1.00  0.00     0.049 A 
ATOM     39  N   UNL A   1      39.733  30.255  29.938  1.00  0.00    -0.248 NA
ATOM     40  C   UNL A   1      37.987  30.321  28.386  1.00  0.00     0.031 C 
ATOM     41  C   UNL A   1      38.174  33.962  31.854  1.00  0.00     0.029 A 
ATOM     42  N   UNL A   1      39.842  32.472  31.808  1.00  0.00    -0.354 N 
ATOM     43  C   UNL A   1      39.799  29.131  29.127  1.00  0.00     0.074 A 
ATOM     44  C   UNL A   1      38.695  29.218  28.193  1.00  0.00     0.031 C 
ATOM     45  C   UNL A   1      39.027  34.280  32.842  1.00  0.00     0.029 A 
ATOM     46  C   UNL A   1      40.129  33.323  32.845  1.00  0.00     0.049 A 
ATOM     47  H   UNL A   1      40.418  31.714  31.556  1.00  0.00     0.167 HD
ATOM     48  C   UNL A   1      40.687  28.110  29.165  1.00  0.00     0.031 A 
ATOM     49  C   UNL A   1      41.164  33.332  33.703  1.00  0.00     0.031 A 
ATOM     50  C   UNL A   1      41.824  28.037  30.038  1.00  0.00     0.049 A 
ATOM     51  C   UNL A   1      42.237  32.290  33.599  1.00  0.00     0.074 A 
ATOM     52  C   UNL A   1      42.790  27.049  30.122  1.00  0.00     0.029 A 
ATOM     53  N   UNL A   1      42.163  29.009  30.964  1.00  0.00    -0.354 N 
ATOM     54  N   UNL A   1      42.288  31.240  32.818  1.00  0.00    -0.248 NA
ATOM     55  C   UNL A   1      43.399  32.444  34.487  1.00  0.00     0.031 C 
ATOM     56  C   UNL A   1      43.728  27.433  31.091  1.00  0.00     0.029 A 
ATOM     57  C   UNL A   1      43.338  28.658  31.607  1.00  0.00     0.049 A 
ATOM     58  H   UNL A   1      41.646  29.827  31.139  1.00  0.00     0.167 HD
ATOM     59  C   UNL A   1      43.484  30.605  33.122  1.00  0.00     0.074 A 
ATOM     60  C   UNL A   1      44.136  31.393  34.148  1.00  0.00     0.031 C 
ATOM     61  C   UNL A   1      43.988  29.461  32.603  1.00  0.00     0.031 A 
BRANCH  48  62
ATOM     62  C   UNL A   1      40.437  26.964  28.233  1.00  0.00    -0.014 A 
ATOM     63  C   UNL A   1      41.032  26.924  26.965  1.00  0.00     0.009 A 
ATOM     64  C   UNL A   1      39.607  25.908  28.640  1.00  0.00     0.009 A 
ATOM     65  C   UNL A   1      40.786  25.848  26.110  1.00  0.00     0.001 A 
ATOM     66  C   UNL A   1      39.368  24.833  27.784  1.00  0.00     0.001 A 
ATOM     67  C   UNL A   1      39.954  24.806  26.519  1.00  0.00     0.000 A 
ENDBRANCH  48  62
BRANCH  49  68
ATOM     68  C   UNL A   1      41.247  34.385  34.741  1.00  0.00    -0.014 A 
ATOM     69  C   UNL A   1      40.702  34.167  36.014  1.00  0.00     0.009 A 
ATOM     70  C   UNL A   1      41.873  35.607  34.458  1.00  0.00     0.009 A 
ATOM     71  C   UNL A   1      40.771  35.164  36.987  1.00  0.00     0.001 A 
ATOM     72  C   UNL A   1      41.943  36.601  35.436  1.00  0.00     0.001 A 
ATOM     73  C   UNL A   1      41.391  36.380  36.697  1.00  0.00     0.000 A 
ENDBRANCH  49  68
BRANCH  61  74
ATOM     74  C   UNL A   1      45.315  29.009  33.125  1.00  0.00    -0.014 A 
ATOM     75  C   UNL A   1      46.502  29.408  32.490  1.00  0.00     0.009 A 
ATOM     76  C   UNL A   1      45.384  28.196  34.264  1.00  0.00     0.009 A 
ATOM     77  C   UNL A   1      47.737  28.987  32.983  1.00  0.00     0.001 A 
ATOM     78  C   UNL A   1      46.623  27.777  34.755  1.00  0.00     0.001 A 
ATOM     79  C   UNL A   1      47.797  28.171  34.114  1.00  0.00     0.000 A 
ENDBRANCH  61  74
ENDBRANCH  35  36
ENDBRANCH  27  30
ENDBRANCH  25  26
ENDBRANCH  24  25
ENDBRANCH   1  24
TORSDOF 14
ENDMDL
MODEL 2
REMARK VINA RESULT:     -11.2      4.034      9.081
REMARK SMILES CC(C)(CC(=O)NCCCNC(=O)c1ccc(-c2c3nc(c(-c4ccccc4)c4ccc([nH]4)c(-c4ccccc4)c4nc(c(-c5ccccc5)c5ccc2[nH]5)C=C4)C=C3)cc1)NC(=O)c1nc(C(C)(C)C)n[nH]1
REMARK SMILES IDX 8 1 7 2 5 3 6 4 4 6 2 7 1 8 3 9 62 10 63 11 64 13 65 14
REMARK SMILES IDX 66 15 73 16 67 17 72 18 68 20 69 21 70 22 71 23 9 24 10 25
REMARK SMILES IDX 11 26 12 27 13 29 14 30 15 31 61 32 16 33 60 34 17 35 18 36
REMARK SMILES IDX 19 37 54 38 20 39 59 40 53 41 55 42 21 43 58 44 52 45 51 46
REMARK SMILES IDX 22 48 44 49 29 50 43 51 30 52 33 53 42 54 56 55 31 56 32 57
REMARK SMILES IDX 41 59 57 60 34 61 23 62 24 63 28 64 25 65 27 66 26 67 45 68
REMARK SMILES IDX 46 69 50 70 47 71 49 72 48 73 35 74 36 75 40 76 37 77 39 78
REMARK SMILES IDX 38 79
REMARK H PARENT 7 5 62 12 73 19 11 28 55 47 33 58
REMARK Flexibility Score: inf
ROOT
ATOM      1  C   UNL A   1      36.562  20.952  24.860  1.00  0.00     0.117 C 
ENDROOT
BRANCH   1   2
ATOM      2  N   UNL A   1      35.889  21.220  26.120  1.00  0.00    -0.356 N 
ATOM      3  C   UNL A   1      34.699  21.816  26.403  1.00  0.00     0.222 C 
ATOM      4  O   UNL A   1      34.334  21.836  27.580  1.00  0.00    -0.275 OA
ATOM      5  H   UNL A   1      36.385  20.916  26.914  1.00  0.00     0.163 HD
BRANCH   3   6
ATOM      6  C   UNL A   1      33.819  22.385  25.307  1.00  0.00     0.127 C 
BRANCH   6   7
ATOM      7  C   UNL A   1      32.396  21.781  25.247  1.00  0.00     0.044 C 
ATOM      8  C   UNL A   1      31.738  22.086  23.899  1.00  0.00     0.035 C 
ATOM      9  C   UNL A   1      32.547  20.240  25.314  1.00  0.00     0.035 C 
BRANCH   7  10
ATOM     10  N   UNL A   1      31.627  22.150  26.454  1.00  0.00    -0.344 N 
ATOM     11  C   UNL A   1      30.750  23.165  26.743  1.00  0.00     0.289 C 
ATOM     12  H   UNL A   1      31.775  21.539  27.212  1.00  0.00     0.164 HD
ATOM     13  O   UNL A   1      29.793  22.880  27.466  1.00  0.00    -0.266 OA
BRANCH  11  14
ATOM     14  C   UNL A   1      30.941  24.510  26.261  1.00  0.00     0.214 A 
ATOM     15  N   UNL A   1      31.714  25.458  26.755  1.00  0.00    -0.207 NA
ATOM     16  N   UNL A   1      30.175  25.051  25.272  1.00  0.00    -0.255 N 
ATOM     17  C   UNL A   1      31.367  26.574  26.027  1.00  0.00     0.156 A 
ATOM     18  N   UNL A   1      30.462  26.347  25.068  1.00  0.00    -0.158 NA
ATOM     19  H   UNL A   1      29.492  24.553  24.768  1.00  0.00     0.192 HD
BRANCH  17  20
ATOM     20  C   UNL A   1      31.949  27.934  26.330  1.00  0.00     0.024 C 
ATOM     21  C   UNL A   1      33.490  27.943  26.246  1.00  0.00     0.019 C 
ATOM     22  C   UNL A   1      31.413  28.956  25.306  1.00  0.00     0.019 C 
ATOM     23  C   UNL A   1      31.536  28.375  27.745  1.00  0.00     0.019 C 
ENDBRANCH  17  20
ENDBRANCH  11  14
ENDBRANCH   7  10
ENDBRANCH   6   7
ENDBRANCH   3   6
ENDBRANCH   1   2
BRANCH   1  24
ATOM     24  C   UNL A   1      37.670  19.908  24.986  1.00  0.00     0.042 C 
BRANCH  24  25
ATOM     25  C   UNL A   1      38.894  20.377  25.769  1.00  0.00     0.118 C 
BRANCH  25  26
ATOM     26  N   UNL A   1      39.968  19.400  25.772  1.00  0.00    -0.352 N 
ATOM     27  C   UNL A   1      41.294  19.597  26.080  1.00  0.00     0.251 C 
ATOM     28  H   UNL A   1      39.716  18.480  25.523  1.00  0.00     0.163 HD
ATOM     29  O   UNL A   1      42.114  18.707  25.877  1.00  0.00    -0.269 OA
BRANCH  27  30
ATOM     30  C   UNL A   1      41.743  20.894  26.637  1.00  0.00     0.039 A 
ATOM     31  C   UNL A   1      42.102  21.919  25.755  1.00  0.00     0.014 A 
ATOM     32  C   UNL A   1      41.850  21.091  28.017  1.00  0.00     0.014 A 
ATOM     33  C   UNL A   1      42.518  23.157  26.253  1.00  0.00     0.010 A 
ATOM     34  C   UNL A   1      42.245  22.334  28.513  1.00  0.00     0.010 A 
ATOM     35  C   UNL A   1      42.575  23.380  27.638  1.00  0.00    -0.014 A 
BRANCH  35  36
ATOM     36  C   UNL A   1      42.974  24.698  28.189  1.00  0.00     0.031 A 
ATOM     37  C   UNL A   1      41.936  25.736  28.503  1.00  0.00     0.074 A 
ATOM     38  C   UNL A   1      44.279  24.999  28.330  1.00  0.00     0.049 A 
ATOM     39  N   UNL A   1      42.102  26.986  28.860  1.00  0.00    -0.248 NA
ATOM     40  C   UNL A   1      40.529  25.328  28.370  1.00  0.00     0.031 C 
ATOM     41  C   UNL A   1      45.397  24.111  28.010  1.00  0.00     0.029 A 
ATOM     42  N   UNL A   1      44.880  26.152  28.765  1.00  0.00    -0.354 N 
ATOM     43  C   UNL A   1      40.828  27.529  28.928  1.00  0.00     0.074 A 
ATOM     44  C   UNL A   1      39.895  26.467  28.610  1.00  0.00     0.031 C 
ATOM     45  C   UNL A   1      46.551  24.754  28.256  1.00  0.00     0.029 A 
ATOM     46  C   UNL A   1      46.251  26.096  28.748  1.00  0.00     0.049 A 
ATOM     47  H   UNL A   1      44.376  26.945  29.061  1.00  0.00     0.167 HD
ATOM     48  C   UNL A   1      40.464  28.802  29.213  1.00  0.00     0.031 A 
ATOM     49  C   UNL A   1      47.166  27.022  29.088  1.00  0.00     0.031 A 
ATOM     50  C   UNL A   1      41.366  29.853  29.594  1.00  0.00     0.049 A 
ATOM     51  C   UNL A   1      46.726  28.367  29.582  1.00  0.00     0.074 A 
ATOM     52  C   UNL A   1      41.077  31.165  29.927  1.00  0.00     0.029 A 
ATOM     53  N   UNL A   1      42.736  29.700  29.720  1.00  0.00    -0.354 N 
ATOM     54  N   UNL A   1      45.515  28.861  29.650  1.00  0.00    -0.248 NA
ATOM     55  C   UNL A   1      47.781  29.275  30.057  1.00  0.00     0.031 C 
ATOM     56  C   UNL A   1      42.275  31.804  30.272  1.00  0.00     0.029 A 
ATOM     57  C   UNL A   1      43.305  30.886  30.149  1.00  0.00     0.049 A 
ATOM     58  H   UNL A   1      43.232  28.871  29.531  1.00  0.00     0.167 HD
ATOM     59  C   UNL A   1      45.661  30.138  30.172  1.00  0.00     0.074 A 
ATOM     60  C   UNL A   1      47.074  30.340  30.416  1.00  0.00     0.031 C 
ATOM     61  C   UNL A   1      44.704  31.065  30.414  1.00  0.00     0.031 A 
BRANCH  48  62
ATOM     62  C   UNL A   1      39.007  29.129  29.096  1.00  0.00    -0.014 A 
ATOM     63  C   UNL A   1      38.447  29.492  27.864  1.00  0.00     0.009 A 
ATOM     64  C   UNL A   1      38.188  29.057  30.233  1.00  0.00     0.009 A 
ATOM     65  C   UNL A   1      37.087  29.794  27.776  1.00  0.00     0.001 A 
ATOM     66  C   UNL A   1      36.828  29.356  30.139  1.00  0.00     0.001 A 
ATOM     67  C   UNL A   1      36.280  29.728  28.912  1.00  0.00     0.000 A 
ENDBRANCH  48  62
BRANCH  49  68
ATOM     68  C   UNL A   1      48.607  26.700  28.988  1.00  0.00    -0.014 A 
ATOM     69  C   UNL A   1      49.287  26.872  27.774  1.00  0.00     0.009 A 
ATOM     70  C   UNL A   1      49.304  26.221  30.106  1.00  0.00     0.009 A 
ATOM     71  C   UNL A   1      50.642  26.558  27.678  1.00  0.00     0.001 A 
ATOM     72  C   UNL A   1      50.661  25.912  30.007  1.00  0.00     0.001 A 
ATOM     73  C   UNL A   1      51.328  26.078  28.794  1.00  0.00     0.000 A 
ENDBRANCH  49  68
BRANCH  61  74
ATOM     74  C   UNL A   1      45.158  32.371  30.987  1.00  0.00    -0.014 A 
ATOM     75  C   UNL A   1      45.215  32.555  32.377  1.00  0.00     0.009 A 
ATOM     76  C   UNL A   1      45.546  33.416  30.138  1.00  0.00     0.009 A 
ATOM     77  C   UNL A   1      45.642  33.773  32.907  1.00  0.00     0.001 A 
ATOM     78  C   UNL A   1      45.973  34.634  30.672  1.00  0.00     0.001 A 
ATOM     79  C   UNL A   1      46.020  34.811  32.055  1.00  0.00     0.000 A 
ENDBRANCH  61  74
ENDBRANCH  35  36
ENDBRANCH  27  30
ENDBRANCH  25  26
ENDBRANCH  24  25
ENDBRANCH   1  24
TORSDOF 14
ENDMDL
MODEL 3
REMARK VINA RESULT:     -11.0      3.691      8.768
REMARK SMILES CC(C)(CC(=O)NCCCNC(=O)c1ccc(-c2c3nc(c(-c4ccccc4)c4ccc([nH]4)c(-c4ccccc4)c4nc(c(-c5ccccc5)c5ccc2[nH]5)C=C4)C=C3)cc1)NC(=O)c1nc(C(C)(C)C)n[nH]1
REMARK SMILES IDX 8 1 7 2 5 3 6 4 4 6 2 7 1 8 3 9 62 10 63 11 64 13 65 14
REMARK SMILES IDX 66 15 73 16 67 17 72 18 68 20 69 21 70 22 71 23 9 24 10 25
REMARK SMILES IDX 11 26 12 27 13 29 14 30 15 31 61 32 16 33 60 34 17 35 18 36
REMARK SMILES IDX 19 37 54 38 20 39 59 40 53 41 55 42 21 43 58 44 52 45 51 46
REMARK SMILES IDX 22 48 44 49 29 50 43 51 30 52 33 53 42 54 56 55 31 56 32 57
REMARK SMILES IDX 41 59 57 60 34 61 23 62 24 63 28 64 25 65 27 66 26 67 45 68
REMARK SMILES IDX 46 69 50 70 47 71 49 72 48 73 35 74 36 75 40 76 37 77 39 78
REMARK SMILES IDX 38 79
REMARK H PARENT 7 5 62 12 73 19 11 28 55 47 33 58
REMARK Flexibility Score: inf
ROOT
ATOM      1  C   UNL A   1      36.354  20.220  25.038  1.00  0.00     0.117 C 
ENDROOT
BRANCH   1   2
ATOM      2  N   UNL A   1      36.330  21.634  25.370  1.00  0.00    -0.356 N 
ATOM      3  C   UNL A   1      35.517  22.647  24.965  1.00  0.00     0.222 C 
ATOM      4  O   UNL A   1      35.680  23.754  25.481  1.00  0.00    -0.275 OA
ATOM      5  H   UNL A   1      37.031  21.911  26.004  1.00  0.00     0.163 HD
BRANCH   3   6
ATOM      6  C   UNL A   1      34.408  22.415  23.957  1.00  0.00     0.127 C 
BRANCH   6   7
ATOM      7  C   UNL A   1      33.020  22.141  24.582  1.00  0.00     0.044 C 
ATOM      8  C   UNL A   1      31.926  22.889  23.815  1.00  0.00     0.035 C 
ATOM      9  C   UNL A   1      32.721  20.631  24.395  1.00  0.00     0.035 C 
BRANCH   7  10
ATOM     10  N   UNL A   1      33.060  22.351  26.045  1.00  0.00    -0.344 N 
ATOM     11  C   UNL A   1      32.349  23.148  26.905  1.00  0.00     0.289 C 
ATOM     12  H   UNL A   1      33.742  21.804  26.497  1.00  0.00     0.164 HD
ATOM     13  O   UNL A   1      32.082  22.670  28.010  1.00  0.00    -0.266 OA
BRANCH  11  14
ATOM     14  C   UNL A   1      31.954  24.491  26.564  1.00  0.00     0.214 A 
ATOM     15  N   UNL A   1      32.721  25.537  26.321  1.00  0.00    -0.207 NA
ATOM     16  N   UNL A   1      30.658  24.911  26.615  1.00  0.00    -0.255 N 
ATOM     17  C   UNL A   1      31.830  26.584  26.240  1.00  0.00     0.156 A 
ATOM     18  N   UNL A   1      30.546  26.225  26.361  1.00  0.00    -0.158 NA
ATOM     19  H   UNL A   1      29.895  24.323  26.815  1.00  0.00     0.192 HD
BRANCH  17  20
ATOM     20  C   UNL A   1      32.293  28.011  26.064  1.00  0.00     0.024 C 
ATOM     21  C   UNL A   1      31.536  28.735  24.932  1.00  0.00     0.019 C 
ATOM     22  C   UNL A   1      32.045  28.790  27.373  1.00  0.00     0.019 C 
ATOM     23  C   UNL A   1      33.797  28.035  25.740  1.00  0.00     0.019 C 
ENDBRANCH  17  20
ENDBRANCH  11  14
ENDBRANCH   7  10
ENDBRANCH   6   7
ENDBRANCH   3   6
ENDBRANCH   1   2
BRANCH   1  24
ATOM     24  C   UNL A   1      37.758  19.701  24.734  1.00  0.00     0.042 C 
BRANCH  24  25
ATOM     25  C   UNL A   1      38.834  20.183  25.704  1.00  0.00     0.118 C 
BRANCH  25  26
ATOM     26  N   UNL A   1      39.963  19.274  25.790  1.00  0.00    -0.352 N 
ATOM     27  C   UNL A   1      41.262  19.565  26.135  1.00  0.00     0.251 C 
ATOM     28  H   UNL A   1      39.775  18.331  25.574  1.00  0.00     0.163 HD
ATOM     29  O   UNL A   1      42.140  18.718  26.002  1.00  0.00    -0.269 OA
BRANCH  27  30
ATOM     30  C   UNL A   1      41.612  20.910  26.647  1.00  0.00     0.039 A 
ATOM     31  C   UNL A   1      42.106  21.865  25.752  1.00  0.00     0.014 A 
ATOM     32  C   UNL A   1      41.496  21.219  28.006  1.00  0.00     0.014 A 
ATOM     33  C   UNL A   1      42.434  23.146  26.206  1.00  0.00     0.010 A 
ATOM     34  C   UNL A   1      41.802  22.505  28.454  1.00  0.00     0.010 A 
ATOM     35  C   UNL A   1      42.266  23.481  27.559  1.00  0.00    -0.014 A 
BRANCH  35  36
ATOM     36  C   UNL A   1      42.569  24.846  28.056  1.00  0.00     0.031 A 
ATOM     37  C   UNL A   1      43.962  25.207  28.482  1.00  0.00     0.074 A 
ATOM     38  C   UNL A   1      41.574  25.741  28.208  1.00  0.00     0.049 A 
ATOM     39  N   UNL A   1      44.388  26.300  29.067  1.00  0.00    -0.248 NA
ATOM     40  C   UNL A   1      45.009  24.201  28.247  1.00  0.00     0.031 C 
ATOM     41  C   UNL A   1      40.164  25.509  27.892  1.00  0.00     0.029 A 
ATOM     42  N   UNL A   1      41.603  27.025  28.690  1.00  0.00    -0.354 N 
ATOM     43  C   UNL A   1      45.733  26.085  29.331  1.00  0.00     0.074 A 
ATOM     44  C   UNL A   1      46.063  24.774  28.812  1.00  0.00     0.031 C 
ATOM     45  C   UNL A   1      39.462  26.615  28.191  1.00  0.00     0.029 A 
ATOM     46  C   UNL A   1      40.371  27.627  28.721  1.00  0.00     0.049 A 
ATOM     47  H   UNL A   1      42.430  27.472  28.985  1.00  0.00     0.167 HD
ATOM     48  C   UNL A   1      46.612  26.897  29.964  1.00  0.00     0.031 A 
ATOM     49  C   UNL A   1      40.012  28.856  29.131  1.00  0.00     0.031 A 
ATOM     50  C   UNL A   1      46.322  28.225  30.427  1.00  0.00     0.049 A 
ATOM     51  C   UNL A   1      41.046  29.806  29.655  1.00  0.00     0.074 A 
ATOM     52  C   UNL A   1      47.165  29.127  31.055  1.00  0.00     0.029 A 
ATOM     53  N   UNL A   1      45.096  28.852  30.288  1.00  0.00    -0.354 N 
ATOM     54  N   UNL A   1      42.316  29.590  29.887  1.00  0.00    -0.248 NA
ATOM     55  C   UNL A   1      40.596  31.173  29.959  1.00  0.00     0.031 C 
ATOM     56  C   UNL A   1      46.450  30.311  31.280  1.00  0.00     0.029 A 
ATOM     57  C   UNL A   1      45.165  30.139  30.794  1.00  0.00     0.049 A 
ATOM     58  H   UNL A   1      44.294  28.444  29.889  1.00  0.00     0.167 HD
ATOM     59  C   UNL A   1      42.818  30.790  30.369  1.00  0.00     0.074 A 
ATOM     60  C   UNL A   1      41.721  31.736  30.383  1.00  0.00     0.031 C 
ATOM     61  C   UNL A   1      44.077  31.076  30.777  1.00  0.00     0.031 A 
BRANCH  48  62
ATOM     62  C   UNL A   1      47.982  26.346  30.211  1.00  0.00    -0.014 A 
ATOM     63  C   UNL A   1      48.316  25.770  31.444  1.00  0.00     0.009 A 
ATOM     64  C   UNL A   1      48.942  26.392  29.188  1.00  0.00     0.009 A 
ATOM     65  C   UNL A   1      49.599  25.262  31.656  1.00  0.00     0.001 A 
ATOM     66  C   UNL A   1      50.222  25.878  29.403  1.00  0.00     0.001 A 
ATOM     67  C   UNL A   1      50.550  25.318  30.637  1.00  0.00     0.000 A 
ENDBRANCH  48  62
BRANCH  49  68
ATOM     68  C   UNL A   1      38.593  29.272  29.046  1.00  0.00    -0.014 A 
ATOM     69  C   UNL A   1      38.067  29.744  27.835  1.00  0.00     0.009 A 
ATOM     70  C   UNL A   1      37.766  29.196  30.175  1.00  0.00     0.009 A 
ATOM     71  C   UNL A   1      36.733  30.147  27.759  1.00  0.00     0.001 A 
ATOM     72  C   UNL A   1      36.431  29.595  30.093  1.00  0.00     0.001 A 
ATOM     73  C   UNL A   1      35.917  30.072  28.888  1.00  0.00     0.000 A 
ENDBRANCH  49  68
BRANCH  61  74
ATOM     74  C   UNL A   1      44.334  32.471  31.252  1.00  0.00    -0.014 A 
ATOM     75  C   UNL A   1      44.159  32.804  32.604  1.00  0.00     0.009 A 
ATOM     76  C   UNL A   1      44.770  33.453  30.352  1.00  0.00     0.009 A 
ATOM     77  C   UNL A   1      44.404  34.106  33.043  1.00  0.00     0.001 A 
ATOM     78  C   UNL A   1      45.014  34.754  30.796  1.00  0.00     0.001 A 
ATOM     79  C   UNL A   1      44.830  35.080  32.140  1.00  0.00     0.000 A 
ENDBRANCH  61  74
ENDBRANCH  35  36
ENDBRANCH  27  30
ENDBRANCH  25  26
ENDBRANCH  24  25
ENDBRANCH   1  24
TORSDOF 14
ENDMDL
