MODEL 1
REMARK VINA RESULT:     -11.5      0.000      0.000
REMARK SMILES Cc1ccc(F)cc1NC(=O)c1nn(C)cc1C(=O)NCCCNC(=O)c1ccc(-c2c3nc(c(-c4ccccc4)c4ccc([nH]4)c(-c4ccccc4)c4nc(c(-c5ccccc5)c5ccc2[nH]5)C=C4)C=C3)cc1
REMARK SMILES IDX 22 1 21 2 20 3 18 4 19 5 17 7 12 8 13 9 14 10 16 11 15 12
REMARK SMILES IDX 10 13 9 14 11 16 8 17 1 18 2 19 3 20 4 21 7 22 5 23 6 24
REMARK SMILES IDX 23 25 24 26 25 27 26 29 27 30 28 31 74 32 29 33 73 34 30 35
REMARK SMILES IDX 31 36 32 37 67 38 33 39 72 40 66 41 68 42 34 43 71 44 65 45
REMARK SMILES IDX 64 46 35 48 57 49 42 50 56 51 43 52 46 53 55 54 69 55 44 56
REMARK SMILES IDX 45 57 54 59 70 60 47 61 36 62 37 63 41 64 38 65 40 66 39 67
REMARK SMILES IDX 58 68 59 69 63 70 60 71 62 72 61 73 48 74 49 75 53 76 50 77
REMARK SMILES IDX 52 78 51 79
REMARK H PARENT 20 6 9 15 24 28 68 47 46 58
REMARK Flexibility Score: inf
ROOT
ATOM      1  C   UNL A   1      32.037  27.947  27.534  1.00  0.00     0.042 C 
ENDROOT
BRANCH   1   2
ATOM      2  C   UNL A   1      31.518  27.086  26.385  1.00  0.00     0.118 C 
BRANCH   2   3
ATOM      3  N   UNL A   1      31.121  25.749  26.786  1.00  0.00    -0.352 N 
ATOM      4  C   UNL A   1      31.657  24.499  26.609  1.00  0.00     0.255 C 
ATOM      5  O   UNL A   1      31.045  23.574  27.149  1.00  0.00    -0.269 OA
ATOM      6  H   UNL A   1      30.281  25.737  27.300  1.00  0.00     0.163 HD
BRANCH   4   7
ATOM      7  C   UNL A   1      32.845  24.239  25.807  1.00  0.00     0.090 A 
ATOM      8  C   UNL A   1      32.849  23.956  24.391  1.00  0.00     0.163 A 
ATOM      9  N   UNL A   1      34.101  23.766  23.928  1.00  0.00    -0.167 NA
ATOM     10  N   UNL A   1      34.876  23.897  25.005  1.00  0.00    -0.274 N 
ATOM     11  C   UNL A   1      34.182  24.154  26.150  1.00  0.00     0.123 A 
ATOM     12  C   UNL A   1      36.307  23.776  24.864  1.00  0.00     0.173 C 
BRANCH   8  13
ATOM     13  C   UNL A   1      31.715  23.858  23.463  1.00  0.00     0.277 C 
ATOM     14  N   UNL A   1      31.231  24.963  22.791  1.00  0.00    -0.320 N 
ATOM     15  H   UNL A   1      30.424  24.771  22.261  1.00  0.00     0.170 HD
ATOM     16  O   UNL A   1      31.146  22.781  23.257  1.00  0.00    -0.267 OA
BRANCH  14  17
ATOM     17  C   UNL A   1      31.647  26.305  22.704  1.00  0.00     0.047 A 
ATOM     18  C   UNL A   1      29.314  27.118  23.483  1.00  0.00     0.046 C 
ATOM     19  C   UNL A   1      30.755  27.333  23.092  1.00  0.00    -0.027 A 
ATOM     20  C   UNL A   1      31.208  28.669  23.117  1.00  0.00     0.008 A 
ATOM     21  C   UNL A   1      32.508  28.993  22.744  1.00  0.00     0.039 A 
ATOM     22  C   UNL A   1      32.919  26.666  22.246  1.00  0.00     0.065 A 
ATOM     23  C   UNL A   1      33.345  27.988  22.295  1.00  0.00     0.125 A 
ATOM     24  F   UNL A   1      34.590  28.292  21.904  1.00  0.00    -0.207 F 
ENDBRANCH  14  17
ENDBRANCH   8  13
ENDBRANCH   4   7
ENDBRANCH   2   3
ENDBRANCH   1   2
BRANCH   1  25
ATOM     25  C   UNL A   1      33.431  28.541  27.313  1.00  0.00     0.118 C 
BRANCH  25  26
ATOM     26  N   UNL A   1      33.481  29.974  27.575  1.00  0.00    -0.352 N 
ATOM     27  C   UNL A   1      34.423  30.771  28.172  1.00  0.00     0.251 C 
ATOM     28  H   UNL A   1      32.686  30.463  27.263  1.00  0.00     0.163 HD
ATOM     29  O   UNL A   1      34.112  31.924  28.465  1.00  0.00    -0.269 OA
BRANCH  27  30
ATOM     30  C   UNL A   1      35.795  30.298  28.472  1.00  0.00     0.039 A 
ATOM     31  C   UNL A   1      36.746  30.335  27.445  1.00  0.00     0.014 A 
ATOM     32  C   UNL A   1      36.138  29.728  29.701  1.00  0.00     0.014 A 
ATOM     33  C   UNL A   1      38.038  29.848  27.660  1.00  0.00     0.010 A 
ATOM     34  C   UNL A   1      37.448  29.302  29.937  1.00  0.00     0.010 A 
ATOM     35  C   UNL A   1      38.410  29.351  28.918  1.00  0.00    -0.014 A 
BRANCH  35  36
ATOM     36  C   UNL A   1      39.803  28.899  29.172  1.00  0.00     0.031 A 
ATOM     37  C   UNL A   1      40.809  29.807  29.829  1.00  0.00     0.074 A 
ATOM     38  C   UNL A   1      40.180  27.668  28.770  1.00  0.00     0.049 A 
ATOM     39  N   UNL A   1      42.064  29.574  30.120  1.00  0.00    -0.248 NA
ATOM     40  C   UNL A   1      40.353  31.160  30.184  1.00  0.00     0.031 C 
ATOM     41  C   UNL A   1      39.323  26.706  28.073  1.00  0.00     0.029 A 
ATOM     42  N   UNL A   1      41.383  27.017  28.885  1.00  0.00    -0.354 N 
ATOM     43  C   UNL A   1      42.552  30.752  30.672  1.00  0.00     0.074 A 
ATOM     44  C   UNL A   1      41.469  31.711  30.643  1.00  0.00     0.031 C 
ATOM     45  C   UNL A   1      40.019  25.580  27.847  1.00  0.00     0.029 A 
ATOM     46  C   UNL A   1      41.376  25.750  28.354  1.00  0.00     0.049 A 
ATOM     47  H   UNL A   1      42.175  27.420  29.310  1.00  0.00     0.167 HD
ATOM     48  C   UNL A   1      43.785  31.010  31.171  1.00  0.00     0.031 A 
ATOM     49  C   UNL A   1      42.352  24.825  28.282  1.00  0.00     0.031 A 
ATOM     50  C   UNL A   1      44.859  30.052  31.226  1.00  0.00     0.049 A 
ATOM     51  C   UNL A   1      43.700  25.127  28.872  1.00  0.00     0.074 A 
ATOM     52  C   UNL A   1      46.116  30.198  31.786  1.00  0.00     0.029 A 
ATOM     53  N   UNL A   1      44.803  28.771  30.700  1.00  0.00    -0.354 N 
ATOM     54  N   UNL A   1      44.115  26.217  29.468  1.00  0.00    -0.248 NA
ATOM     55  C   UNL A   1      44.709  24.061  28.792  1.00  0.00     0.031 C 
ATOM     56  C   UNL A   1      46.838  29.021  31.560  1.00  0.00     0.029 A 
ATOM     57  C   UNL A   1      46.012  28.126  30.901  1.00  0.00     0.049 A 
ATOM     58  H   UNL A   1      44.020  28.379  30.251  1.00  0.00     0.167 HD
ATOM     59  C   UNL A   1      45.425  25.962  29.850  1.00  0.00     0.074 A 
ATOM     60  C   UNL A   1      45.728  24.607  29.440  1.00  0.00     0.031 C 
ATOM     61  C   UNL A   1      46.302  26.781  30.480  1.00  0.00     0.031 A 
BRANCH  48  62
ATOM     62  C   UNL A   1      44.050  32.391  31.701  1.00  0.00    -0.014 A 
ATOM     63  C   UNL A   1      44.524  33.414  30.864  1.00  0.00     0.009 A 
ATOM     64  C   UNL A   1      43.762  32.691  33.042  1.00  0.00     0.009 A 
ATOM     65  C   UNL A   1      44.731  34.700  31.365  1.00  0.00     0.001 A 
ATOM     66  C   UNL A   1      43.946  33.984  33.534  1.00  0.00     0.001 A 
ATOM     67  C   UNL A   1      44.436  34.986  32.698  1.00  0.00     0.000 A 
ENDBRANCH  48  62
BRANCH  49  68
ATOM     68  C   UNL A   1      42.086  23.513  27.638  1.00  0.00    -0.014 A 
ATOM     69  C   UNL A   1      42.419  23.298  26.292  1.00  0.00     0.009 A 
ATOM     70  C   UNL A   1      41.483  22.474  28.364  1.00  0.00     0.009 A 
ATOM     71  C   UNL A   1      42.128  22.078  25.678  1.00  0.00     0.001 A 
ATOM     72  C   UNL A   1      41.218  21.246  27.754  1.00  0.00     0.001 A 
ATOM     73  C   UNL A   1      41.531  21.053  26.409  1.00  0.00     0.000 A 
ENDBRANCH  49  68
BRANCH  61  74
ATOM     74  C   UNL A   1      47.663  26.221  30.779  1.00  0.00    -0.014 A 
ATOM     75  C   UNL A   1      47.973  25.711  32.050  1.00  0.00     0.009 A 
ATOM     76  C   UNL A   1      48.640  26.184  29.772  1.00  0.00     0.009 A 
ATOM     77  C   UNL A   1      49.249  25.212  32.317  1.00  0.00     0.001 A 
ATOM     78  C   UNL A   1      49.905  25.659  30.034  1.00  0.00     0.001 A 
ATOM     79  C   UNL A   1      50.213  25.183  31.309  1.00  0.00     0.000 A 
ENDBRANCH  61  74
ENDBRANCH  35  36
ENDBRANCH  27  30
ENDBRANCH  25  26
ENDBRANCH   1  25
TORSDOF 12
ENDMDL
MODEL 2
REMARK VINA RESULT:     -11.4      1.460      2.128
REMARK SMILES Cc1ccc(F)cc1NC(=O)c1nn(C)cc1C(=O)NCCCNC(=O)c1ccc(-c2c3nc(c(-c4ccccc4)c4ccc([nH]4)c(-c4ccccc4)c4nc(c(-c5ccccc5)c5ccc2[nH]5)C=C4)C=C3)cc1
REMARK SMILES IDX 22 1 21 2 20 3 18 4 19 5 17 7 12 8 13 9 14 10 16 11 15 12
REMARK SMILES IDX 10 13 9 14 11 16 8 17 1 18 2 19 3 20 4 21 7 22 5 23 6 24
REMARK SMILES IDX 23 25 24 26 25 27 26 29 27 30 28 31 74 32 29 33 73 34 30 35
REMARK SMILES IDX 31 36 32 37 67 38 33 39 72 40 66 41 68 42 34 43 71 44 65 45
REMARK SMILES IDX 64 46 35 48 57 49 42 50 56 51 43 52 46 53 55 54 69 55 44 56
REMARK SMILES IDX 45 57 54 59 70 60 47 61 36 62 37 63 41 64 38 65 40 66 39 67
REMARK SMILES IDX 58 68 59 69 63 70 60 71 62 72 61 73 48 74 49 75 53 76 50 77
REMARK SMILES IDX 52 78 51 79
REMARK H PARENT 20 6 9 15 24 28 68 47 46 58
REMARK Flexibility Score: inf
ROOT
ATOM      1  C   UNL A   1      33.609  28.183  25.745  1.00  0.00     0.042 C 
ENDROOT
BRANCH   1   2
ATOM      2  C   UNL A   1      33.650  26.699  25.385  1.00  0.00     0.118 C 
BRANCH   2   3
ATOM      3  N   UNL A   1      33.745  26.444  23.960  1.00  0.00    -0.352 N 
ATOM      4  C   UNL A   1      33.999  25.328  23.203  1.00  0.00     0.255 C 
ATOM      5  O   UNL A   1      33.950  25.488  21.981  1.00  0.00    -0.269 OA
ATOM      6  H   UNL A   1      33.590  27.249  23.415  1.00  0.00     0.163 HD
BRANCH   4   7
ATOM      7  C   UNL A   1      34.349  24.033  23.772  1.00  0.00     0.090 A 
ATOM      8  C   UNL A   1      33.642  22.797  23.527  1.00  0.00     0.163 A 
ATOM      9  N   UNL A   1      34.206  21.766  24.187  1.00  0.00    -0.167 NA
ATOM     10  N   UNL A   1      35.223  22.315  24.853  1.00  0.00    -0.274 N 
ATOM     11  C   UNL A   1      35.339  23.660  24.663  1.00  0.00     0.123 A 
ATOM     12  C   UNL A   1      36.074  21.475  25.661  1.00  0.00     0.173 C 
BRANCH   8  13
ATOM     13  C   UNL A   1      32.457  22.558  22.695  1.00  0.00     0.277 C 
ATOM     14  N   UNL A   1      31.236  23.132  22.991  1.00  0.00    -0.320 N 
ATOM     15  H   UNL A   1      30.511  22.829  22.397  1.00  0.00     0.170 HD
ATOM     16  O   UNL A   1      32.507  21.824  21.703  1.00  0.00    -0.267 OA
BRANCH  14  17
ATOM     17  C   UNL A   1      30.808  24.058  23.961  1.00  0.00     0.047 A 
ATOM     18  C   UNL A   1      31.023  22.267  25.820  1.00  0.00     0.046 C 
ATOM     19  C   UNL A   1      30.764  23.667  25.320  1.00  0.00    -0.027 A 
ATOM     20  C   UNL A   1      30.449  24.625  26.305  1.00  0.00     0.008 A 
ATOM     21  C   UNL A   1      30.158  25.941  25.961  1.00  0.00     0.039 A 
ATOM     22  C   UNL A   1      30.422  25.362  23.631  1.00  0.00     0.065 A 
ATOM     23  C   UNL A   1      30.130  26.291  24.623  1.00  0.00     0.125 A 
ATOM     24  F   UNL A   1      29.823  27.548  24.276  1.00  0.00    -0.207 F 
ENDBRANCH  14  17
ENDBRANCH   8  13
ENDBRANCH   4   7
ENDBRANCH   2   3
ENDBRANCH   1   2
BRANCH   1  25
ATOM     25  C   UNL A   1      33.492  28.476  27.243  1.00  0.00     0.118 C 
BRANCH  25  26
ATOM     26  N   UNL A   1      33.526  29.902  27.542  1.00  0.00    -0.352 N 
ATOM     27  C   UNL A   1      34.458  30.694  28.161  1.00  0.00     0.251 C 
ATOM     28  H   UNL A   1      32.726  30.390  27.243  1.00  0.00     0.163 HD
ATOM     29  O   UNL A   1      34.133  31.836  28.484  1.00  0.00    -0.269 OA
BRANCH  27  30
ATOM     30  C   UNL A   1      35.835  30.230  28.450  1.00  0.00     0.039 A 
ATOM     31  C   UNL A   1      36.773  30.256  27.410  1.00  0.00     0.014 A 
ATOM     32  C   UNL A   1      36.195  29.677  29.682  1.00  0.00     0.014 A 
ATOM     33  C   UNL A   1      38.069  29.776  27.615  1.00  0.00     0.010 A 
ATOM     34  C   UNL A   1      37.509  29.258  29.907  1.00  0.00     0.010 A 
ATOM     35  C   UNL A   1      38.459  29.297  28.876  1.00  0.00    -0.014 A 
BRANCH  35  36
ATOM     36  C   UNL A   1      39.856  28.852  29.118  1.00  0.00     0.031 A 
ATOM     37  C   UNL A   1      40.862  29.766  29.765  1.00  0.00     0.074 A 
ATOM     38  C   UNL A   1      40.236  27.623  28.713  1.00  0.00     0.049 A 
ATOM     39  N   UNL A   1      42.122  29.539  30.046  1.00  0.00    -0.248 NA
ATOM     40  C   UNL A   1      40.403  31.117  30.124  1.00  0.00     0.031 C 
ATOM     41  C   UNL A   1      39.379  26.656  28.025  1.00  0.00     0.029 A 
ATOM     42  N   UNL A   1      41.444  26.978  28.819  1.00  0.00    -0.354 N 
ATOM     43  C   UNL A   1      42.608  30.721  30.592  1.00  0.00     0.074 A 
ATOM     44  C   UNL A   1      41.520  31.674  30.572  1.00  0.00     0.031 C 
ATOM     45  C   UNL A   1      40.078  25.533  27.794  1.00  0.00     0.029 A 
ATOM     46  C   UNL A   1      41.439  25.710  28.289  1.00  0.00     0.049 A 
ATOM     47  H   UNL A   1      42.237  27.386  29.237  1.00  0.00     0.167 HD
ATOM     48  C   UNL A   1      43.844  30.985  31.081  1.00  0.00     0.031 A 
ATOM     49  C   UNL A   1      42.419  24.790  28.210  1.00  0.00     0.031 A 
ATOM     50  C   UNL A   1      44.923  30.033  31.128  1.00  0.00     0.049 A 
ATOM     51  C   UNL A   1      43.770  25.100  28.788  1.00  0.00     0.074 A 
ATOM     52  C   UNL A   1      46.185  30.187  31.677  1.00  0.00     0.029 A 
ATOM     53  N   UNL A   1      44.870  28.752  30.604  1.00  0.00    -0.354 N 
ATOM     54  N   UNL A   1      44.185  26.193  29.379  1.00  0.00    -0.248 NA
ATOM     55  C   UNL A   1      44.784  24.040  28.700  1.00  0.00     0.031 C 
ATOM     56  C   UNL A   1      46.910  29.013  31.446  1.00  0.00     0.029 A 
ATOM     57  C   UNL A   1      46.083  28.113  30.795  1.00  0.00     0.049 A 
ATOM     58  H   UNL A   1      44.085  28.355  30.161  1.00  0.00     0.167 HD
ATOM     59  C   UNL A   1      45.499  25.946  29.750  1.00  0.00     0.074 A 
ATOM     60  C   UNL A   1      45.805  24.591  29.339  1.00  0.00     0.031 C 
ATOM     61  C   UNL A   1      46.377  26.769  30.372  1.00  0.00     0.031 A 
BRANCH  48  62
ATOM     62  C   UNL A   1      44.106  32.369  31.608  1.00  0.00    -0.014 A 
ATOM     63  C   UNL A   1      44.573  33.391  30.766  1.00  0.00     0.009 A 
ATOM     64  C   UNL A   1      43.823  32.670  32.949  1.00  0.00     0.009 A 
ATOM     65  C   UNL A   1      44.777  34.680  31.264  1.00  0.00     0.001 A 
ATOM     66  C   UNL A   1      44.005  33.965  33.438  1.00  0.00     0.001 A 
ATOM     67  C   UNL A   1      44.488  34.966  32.598  1.00  0.00     0.000 A 
ENDBRANCH  48  62
BRANCH  49  68
ATOM     68  C   UNL A   1      42.154  23.477  27.569  1.00  0.00    -0.014 A 
ATOM     69  C   UNL A   1      41.548  22.439  28.292  1.00  0.00     0.009 A 
ATOM     70  C   UNL A   1      42.520  23.252  26.233  1.00  0.00     0.009 A 
ATOM     71  C   UNL A   1      41.340  21.191  27.699  1.00  0.00     0.001 A 
ATOM     72  C   UNL A   1      42.286  22.011  25.635  1.00  0.00     0.001 A 
ATOM     73  C   UNL A   1      41.706  20.980  26.371  1.00  0.00     0.000 A 
ENDBRANCH  49  68
BRANCH  61  74
ATOM     74  C   UNL A   1      47.743  26.216  30.660  1.00  0.00    -0.014 A 
ATOM     75  C   UNL A   1      48.737  26.189  29.670  1.00  0.00     0.009 A 
ATOM     76  C   UNL A   1      48.045  25.735  31.944  1.00  0.00     0.009 A 
ATOM     77  C   UNL A   1      49.996  25.654  29.949  1.00  0.00     0.001 A 
ATOM     78  C   UNL A   1      49.313  25.226  32.227  1.00  0.00     0.001 A 
ATOM     79  C   UNL A   1      50.284  25.176  31.227  1.00  0.00     0.000 A 
ENDBRANCH  61  74
ENDBRANCH  35  36
ENDBRANCH  27  30
ENDBRANCH  25  26
ENDBRANCH   1  25
TORSDOF 12
ENDMDL
MODEL 3
REMARK VINA RESULT:     -11.4      2.520      7.305
REMARK SMILES Cc1ccc(F)cc1NC(=O)c1nn(C)cc1C(=O)NCCCNC(=O)c1ccc(-c2c3nc(c(-c4ccccc4)c4ccc([nH]4)c(-c4ccccc4)c4nc(c(-c5ccccc5)c5ccc2[nH]5)C=C4)C=C3)cc1
REMARK SMILES IDX 22 1 21 2 20 3 18 4 19 5 17 7 12 8 13 9 14 10 16 11 15 12
REMARK SMILES IDX 10 13 9 14 11 16 8 17 1 18 2 19 3 20 4 21 7 22 5 23 6 24
REMARK SMILES IDX 23 25 24 26 25 27 26 29 27 30 28 31 74 32 29 33 73 34 30 35
REMARK SMILES IDX 31 36 32 37 67 38 33 39 72 40 66 41 68 42 34 43 71 44 65 45
REMARK SMILES IDX 64 46 35 48 57 49 42 50 56 51 43 52 46 53 55 54 69 55 44 56
REMARK SMILES IDX 45 57 54 59 70 60 47 61 36 62 37 63 41 64 38 65 40 66 39 67
REMARK SMILES IDX 58 68 59 69 63 70 60 71 62 72 61 73 48 74 49 75 53 76 50 77
REMARK SMILES IDX 52 78 51 79
REMARK H PARENT 20 6 9 15 24 28 68 47 46 58
REMARK Flexibility Score: inf
ROOT
ATOM      1  C   UNL A   1      36.025  23.715  25.941  1.00  0.00     0.042 C 
ENDROOT
BRANCH   1   2
ATOM      2  C   UNL A   1      35.747  22.391  26.650  1.00  0.00     0.118 C 
BRANCH   2   3
ATOM      3  N   UNL A   1      34.608  22.433  27.547  1.00  0.00    -0.352 N 
ATOM      4  C   UNL A   1      33.248  22.406  27.369  1.00  0.00     0.255 C 
ATOM      5  O   UNL A   1      32.573  22.412  28.401  1.00  0.00    -0.269 OA
ATOM      6  H   UNL A   1      34.869  22.493  28.495  1.00  0.00     0.163 HD
BRANCH   4   7
ATOM      7  C   UNL A   1      32.609  22.411  26.060  1.00  0.00     0.090 A 
ATOM      8  C   UNL A   1      31.359  23.063  25.745  1.00  0.00     0.163 A 
ATOM      9  N   UNL A   1      31.028  22.898  24.449  1.00  0.00    -0.167 NA
ATOM     10  N   UNL A   1      32.010  22.148  23.948  1.00  0.00    -0.274 N 
ATOM     11  C   UNL A   1      32.961  21.810  24.865  1.00  0.00     0.123 A 
ATOM     12  C   UNL A   1      31.986  21.793  22.550  1.00  0.00     0.173 C 
BRANCH   8  13
ATOM     13  C   UNL A   1      30.471  23.835  26.623  1.00  0.00     0.277 C 
ATOM     14  N   UNL A   1      30.538  25.212  26.692  1.00  0.00    -0.320 N 
ATOM     15  H   UNL A   1      29.939  25.596  27.374  1.00  0.00     0.170 HD
ATOM     16  O   UNL A   1      29.636  23.276  27.341  1.00  0.00    -0.267 OA
BRANCH  14  17
ATOM     17  C   UNL A   1      31.280  26.185  25.995  1.00  0.00     0.047 A 
ATOM     18  C   UNL A   1      29.404  26.396  24.220  1.00  0.00     0.046 C 
ATOM     19  C   UNL A   1      30.715  26.796  24.850  1.00  0.00    -0.027 A 
ATOM     20  C   UNL A   1      31.406  27.852  24.219  1.00  0.00     0.008 A 
ATOM     21  C   UNL A   1      32.641  28.285  24.689  1.00  0.00     0.039 A 
ATOM     22  C   UNL A   1      32.562  26.575  26.393  1.00  0.00     0.065 A 
ATOM     23  C   UNL A   1      33.215  27.628  25.762  1.00  0.00     0.125 A 
ATOM     24  F   UNL A   1      34.418  28.016  26.207  1.00  0.00    -0.207 F 
ENDBRANCH  14  17
ENDBRANCH   8  13
ENDBRANCH   4   7
ENDBRANCH   2   3
ENDBRANCH   1   2
BRANCH   1  25
ATOM     25  C   UNL A   1      37.190  23.681  24.949  1.00  0.00     0.118 C 
BRANCH  25  26
ATOM     26  N   UNL A   1      38.245  22.758  25.351  1.00  0.00    -0.352 N 
ATOM     27  C   UNL A   1      39.424  22.941  26.025  1.00  0.00     0.251 C 
ATOM     28  H   UNL A   1      38.078  21.825  25.087  1.00  0.00     0.163 HD
ATOM     29  O   UNL A   1      40.241  22.021  26.036  1.00  0.00    -0.269 OA
BRANCH  27  30
ATOM     30  C   UNL A   1      39.749  24.198  26.740  1.00  0.00     0.039 A 
ATOM     31  C   UNL A   1      39.230  24.378  28.029  1.00  0.00     0.014 A 
ATOM     32  C   UNL A   1      40.461  25.239  26.139  1.00  0.00     0.014 A 
ATOM     33  C   UNL A   1      39.459  25.568  28.723  1.00  0.00     0.010 A 
ATOM     34  C   UNL A   1      40.747  26.403  26.858  1.00  0.00     0.010 A 
ATOM     35  C   UNL A   1      40.244  26.584  28.154  1.00  0.00    -0.014 A 
BRANCH  35  36
ATOM     36  C   UNL A   1      40.549  27.822  28.918  1.00  0.00     0.031 A 
ATOM     37  C   UNL A   1      41.856  27.982  29.648  1.00  0.00     0.074 A 
ATOM     38  C   UNL A   1      39.623  28.798  28.988  1.00  0.00     0.049 A 
ATOM     39  N   UNL A   1      42.283  28.993  30.364  1.00  0.00    -0.248 NA
ATOM     40  C   UNL A   1      42.798  26.854  29.587  1.00  0.00     0.031 C 
ATOM     41  C   UNL A   1      38.294  28.751  28.374  1.00  0.00     0.029 A 
ATOM     42  N   UNL A   1      39.655  30.021  29.612  1.00  0.00    -0.354 N 
ATOM     43  C   UNL A   1      43.527  28.616  30.853  1.00  0.00     0.074 A 
ATOM     44  C   UNL A   1      43.773  27.270  30.383  1.00  0.00     0.031 C 
ATOM     45  C   UNL A   1      37.650  29.901  28.628  1.00  0.00     0.029 A 
ATOM     46  C   UNL A   1      38.504  30.754  29.446  1.00  0.00     0.049 A 
ATOM     47  H   UNL A   1      40.430  30.343  30.127  1.00  0.00     0.167 HD
ATOM     48  C   UNL A   1      44.394  29.329  31.612  1.00  0.00     0.031 A 
ATOM     49  C   UNL A   1      38.171  31.976  29.901  1.00  0.00     0.031 A 
ATOM     50  C   UNL A   1      44.165  30.677  32.061  1.00  0.00     0.049 A 
ATOM     51  C   UNL A   1      39.164  32.756  30.715  1.00  0.00     0.074 A 
ATOM     52  C   UNL A   1      45.019  31.507  32.768  1.00  0.00     0.029 A 
ATOM     53  N   UNL A   1      42.997  31.393  31.852  1.00  0.00    -0.354 N 
ATOM     54  N   UNL A   1      40.371  32.416  31.093  1.00  0.00    -0.248 NA
ATOM     55  C   UNL A   1      38.751  34.098  31.150  1.00  0.00     0.031 C 
ATOM     56  C   UNL A   1      44.352  32.710  33.023  1.00  0.00     0.029 A 
ATOM     57  C   UNL A   1      43.099  32.645  32.435  1.00  0.00     0.049 A 
ATOM     58  H   UNL A   1      42.211  31.060  31.360  1.00  0.00     0.167 HD
ATOM     59  C   UNL A   1      40.868  33.506  31.794  1.00  0.00     0.074 A 
ATOM     60  C   UNL A   1      39.842  34.528  31.767  1.00  0.00     0.031 C 
ATOM     61  C   UNL A   1      42.067  33.647  32.409  1.00  0.00     0.031 A 
BRANCH  48  62
ATOM     62  C   UNL A   1      45.681  28.664  32.015  1.00  0.00    -0.014 A 
ATOM     63  C   UNL A   1      45.772  27.912  33.197  1.00  0.00     0.009 A 
ATOM     64  C   UNL A   1      46.799  28.740  31.170  1.00  0.00     0.009 A 
ATOM     65  C   UNL A   1      46.966  27.272  33.537  1.00  0.00     0.001 A 
ATOM     66  C   UNL A   1      47.983  28.078  31.500  1.00  0.00     0.001 A 
ATOM     67  C   UNL A   1      48.068  27.351  32.687  1.00  0.00     0.000 A 
ENDBRANCH  48  62
BRANCH  49  68
ATOM     68  C   UNL A   1      36.838  32.549  29.585  1.00  0.00    -0.014 A 
ATOM     69  C   UNL A   1      35.758  32.374  30.464  1.00  0.00     0.009 A 
ATOM     70  C   UNL A   1      36.636  33.261  28.392  1.00  0.00     0.009 A 
ATOM     71  C   UNL A   1      34.496  32.877  30.141  1.00  0.00     0.001 A 
ATOM     72  C   UNL A   1      35.378  33.786  28.086  1.00  0.00     0.001 A 
ATOM     73  C   UNL A   1      34.307  33.585  28.956  1.00  0.00     0.000 A 
ENDBRANCH  49  68
BRANCH  61  74
ATOM     74  C   UNL A   1      42.336  34.961  33.085  1.00  0.00    -0.014 A 
ATOM     75  C   UNL A   1      41.820  35.239  34.360  1.00  0.00     0.009 A 
ATOM     76  C   UNL A   1      43.131  35.925  32.446  1.00  0.00     0.009 A 
ATOM     77  C   UNL A   1      42.063  36.472  34.966  1.00  0.00     0.001 A 
ATOM     78  C   UNL A   1      43.396  37.147  33.066  1.00  0.00     0.001 A 
ATOM     79  C   UNL A   1      42.853  37.424  34.321  1.00  0.00     0.000 A 
ENDBRANCH  61  74
ENDBRANCH  35  36
ENDBRANCH  27  30
ENDBRANCH  25  26
ENDBRANCH   1  25
TORSDOF 12
ENDMDL
