MODEL 1
REMARK VINA RESULT:     -13.9      0.000      0.000
REMARK SMILES Cc1cnn(C2(C(=O)NCCCNC(=O)c3ccc(-c4c5nc(c(-c6ccccc6)c6ccc([nH]6)c(-c6ccccc6)c6nc(c(-c7ccccc7)c7ccc4[nH]7)C=C6)C=C5)cc3)CCN(C(=O)c3cc4ccccc4[nH]3)CC2)c1
REMARK SMILES IDX 11 1 10 2 9 3 7 4 8 5 6 7 64 8 79 9 65 10 78 11 66 12 67 13
REMARK SMILES IDX 68 14 5 15 1 16 2 17 3 18 80 19 4 20 69 21 70 22 77 23 71 24
REMARK SMILES IDX 76 25 72 27 75 28 73 29 74 30 12 31 13 32 14 33 15 35 16 36
REMARK SMILES IDX 17 37 63 38 18 39 62 40 19 41 20 42 21 43 56 44 22 45 61 46
REMARK SMILES IDX 55 47 57 48 23 49 60 50 54 51 53 52 24 54 46 55 31 56 45 57
REMARK SMILES IDX 32 58 35 59 44 60 58 61 33 62 34 63 43 65 59 66 36 67 25 68
REMARK SMILES IDX 26 69 30 70 27 71 29 72 28 73 47 74 48 75 52 76 49 77 51 78
REMARK SMILES IDX 50 79 37 80 38 81 42 82 39 83 41 84 40 85
REMARK H PARENT 9 6 77 26 13 34 57 53 35 64
REMARK Flexibility Score: inf
ROOT
ATOM      1  C   UNL A   1      32.866  28.274  27.614  1.00  0.00     0.042 C 
ENDROOT
BRANCH   1   2
ATOM      2  C   UNL A   1      31.778  28.162  26.541  1.00  0.00     0.117 C 
BRANCH   2   3
ATOM      3  N   UNL A   1      30.861  27.036  26.732  1.00  0.00    -0.354 N 
ATOM      4  C   UNL A   1      30.824  25.747  26.232  1.00  0.00     0.248 C 
ATOM      5  O   UNL A   1      29.828  25.111  26.582  1.00  0.00    -0.272 OA
ATOM      6  H   UNL A   1      30.115  27.239  27.343  1.00  0.00     0.163 HD
BRANCH   4   7
ATOM      7  C   UNL A   1      31.932  25.228  25.258  1.00  0.00     0.144 C 
ATOM      8  C   UNL A   1      33.241  25.273  26.091  1.00  0.00     0.062 C 
ATOM      9  C   UNL A   1      31.480  23.844  24.735  1.00  0.00     0.062 C 
ATOM     10  C   UNL A   1      34.243  24.166  25.820  1.00  0.00     0.123 C 
ATOM     11  C   UNL A   1      32.608  22.852  24.507  1.00  0.00     0.123 C 
ATOM     12  N   UNL A   1      33.614  22.884  25.565  1.00  0.00    -0.337 N 
ATOM     13  C   UNL A   1      34.074  21.766  26.269  1.00  0.00     0.270 C 
ATOM     14  O   UNL A   1      34.648  21.884  27.350  1.00  0.00    -0.267 OA
BRANCH   7  15
ATOM     15  N   UNL A   1      32.154  26.058  24.028  1.00  0.00    -0.257 N 
ATOM     16  C   UNL A   1      34.076  28.307  21.861  1.00  0.00     0.048 C 
ATOM     17  C   UNL A   1      33.150  27.369  22.531  1.00  0.00    -0.013 A 
ATOM     18  C   UNL A   1      32.039  26.687  22.001  1.00  0.00     0.138 A 
ATOM     19  C   UNL A   1      33.193  26.944  23.839  1.00  0.00     0.113 A 
ATOM     20  N   UNL A   1      31.473  25.861  22.883  1.00  0.00    -0.180 NA
ENDBRANCH   7  15
BRANCH  13  21
ATOM     21  C   UNL A   1      33.813  20.461  25.704  1.00  0.00     0.105 A 
ATOM     22  C   UNL A   1      32.677  19.670  25.728  1.00  0.00     0.042 A 
ATOM     23  N   UNL A   1      34.736  19.785  24.940  1.00  0.00    -0.351 N 
ATOM     24  C   UNL A   1      33.016  18.398  25.205  1.00  0.00     0.000 A 
ATOM     25  C   UNL A   1      34.312  18.497  24.705  1.00  0.00     0.046 A 
ATOM     26  H   UNL A   1      35.580  20.167  24.609  1.00  0.00     0.167 HD
ATOM     27  C   UNL A   1      32.341  17.167  25.127  1.00  0.00     0.010 A 
ATOM     28  C   UNL A   1      34.967  17.421  24.098  1.00  0.00     0.026 A 
ATOM     29  C   UNL A   1      32.995  16.072  24.556  1.00  0.00     0.001 A 
ATOM     30  C   UNL A   1      34.284  16.202  24.042  1.00  0.00     0.002 A 
ENDBRANCH  13  21
ENDBRANCH   4   7
ENDBRANCH   2   3
ENDBRANCH   1   2
BRANCH   1  31
ATOM     31  C   UNL A   1      34.209  28.707  27.063  1.00  0.00     0.118 C 
BRANCH  31  32
ATOM     32  N   UNL A   1      34.331  30.154  26.897  1.00  0.00    -0.352 N 
ATOM     33  C   UNL A   1      35.221  31.005  27.535  1.00  0.00     0.251 C 
ATOM     34  H   UNL A   1      33.710  30.574  26.258  1.00  0.00     0.163 HD
ATOM     35  O   UNL A   1      35.033  32.205  27.576  1.00  0.00    -0.269 OA
BRANCH  33  36
ATOM     36  C   UNL A   1      36.400  30.402  28.187  1.00  0.00     0.039 A 
ATOM     37  C   UNL A   1      36.310  29.824  29.455  1.00  0.00     0.014 A 
ATOM     38  C   UNL A   1      37.583  30.345  27.458  1.00  0.00     0.014 A 
ATOM     39  C   UNL A   1      37.398  29.100  29.938  1.00  0.00     0.010 A 
ATOM     40  C   UNL A   1      38.581  29.492  27.858  1.00  0.00     0.010 A 
ATOM     41  C   UNL A   1      38.524  28.909  29.119  1.00  0.00    -0.014 A 
BRANCH  41  42
ATOM     42  C   UNL A   1      39.609  28.022  29.535  1.00  0.00     0.031 A 
ATOM     43  C   UNL A   1      39.956  28.079  30.977  1.00  0.00     0.074 A 
ATOM     44  C   UNL A   1      40.130  27.057  28.747  1.00  0.00     0.049 A 
ATOM     45  N   UNL A   1      41.029  28.563  31.510  1.00  0.00    -0.248 NA
ATOM     46  C   UNL A   1      38.950  27.639  31.957  1.00  0.00     0.031 C 
ATOM     47  C   UNL A   1      39.660  26.627  27.422  1.00  0.00     0.029 A 
ATOM     48  N   UNL A   1      41.128  26.165  29.014  1.00  0.00    -0.354 N 
ATOM     49  C   UNL A   1      40.935  28.287  32.872  1.00  0.00     0.074 A 
ATOM     50  C   UNL A   1      39.569  27.895  33.111  1.00  0.00     0.031 C 
ATOM     51  C   UNL A   1      40.187  25.422  27.121  1.00  0.00     0.029 A 
ATOM     52  C   UNL A   1      41.193  25.108  28.117  1.00  0.00     0.049 A 
ATOM     53  H   UNL A   1      41.747  26.262  29.773  1.00  0.00     0.167 HD
ATOM     54  C   UNL A   1      42.055  28.116  33.627  1.00  0.00     0.031 A 
ATOM     55  C   UNL A   1      42.028  24.046  28.155  1.00  0.00     0.031 A 
ATOM     56  C   UNL A   1      43.239  28.504  32.904  1.00  0.00     0.049 A 
ATOM     57  C   UNL A   1      43.204  24.422  28.961  1.00  0.00     0.074 A 
ATOM     58  C   UNL A   1      43.884  29.670  32.560  1.00  0.00     0.029 A 
ATOM     59  N   UNL A   1      43.735  27.509  32.105  1.00  0.00    -0.354 N 
ATOM     60  N   UNL A   1      44.049  25.345  28.599  1.00  0.00    -0.248 NA
ATOM     61  C   UNL A   1      43.298  23.995  30.351  1.00  0.00     0.031 C 
ATOM     62  C   UNL A   1      44.658  29.366  31.397  1.00  0.00     0.029 A 
ATOM     63  C   UNL A   1      44.489  28.019  31.084  1.00  0.00     0.049 A 
ATOM     64  H   UNL A   1      43.571  26.549  32.247  1.00  0.00     0.167 HD
ATOM     65  C   UNL A   1      44.458  25.912  29.789  1.00  0.00     0.074 A 
ATOM     66  C   UNL A   1      44.129  24.933  30.817  1.00  0.00     0.031 C 
ATOM     67  C   UNL A   1      44.715  27.247  29.880  1.00  0.00     0.031 A 
BRANCH  54  68
ATOM     68  C   UNL A   1      42.171  27.141  34.782  1.00  0.00    -0.014 A 
ATOM     69  C   UNL A   1      42.402  25.782  34.489  1.00  0.00     0.009 A 
ATOM     70  C   UNL A   1      41.768  27.437  36.098  1.00  0.00     0.009 A 
ATOM     71  C   UNL A   1      42.179  24.776  35.439  1.00  0.00     0.001 A 
ATOM     72  C   UNL A   1      41.579  26.438  37.060  1.00  0.00     0.001 A 
ATOM     73  C   UNL A   1      41.759  25.104  36.722  1.00  0.00     0.000 A 
ENDBRANCH  54  68
BRANCH  55  74
ATOM     74  C   UNL A   1      41.820  22.677  27.656  1.00  0.00    -0.014 A 
ATOM     75  C   UNL A   1      40.526  22.171  27.468  1.00  0.00     0.009 A 
ATOM     76  C   UNL A   1      42.899  21.968  27.096  1.00  0.00     0.009 A 
ATOM     77  C   UNL A   1      40.313  21.024  26.695  1.00  0.00     0.001 A 
ATOM     78  C   UNL A   1      42.684  20.823  26.324  1.00  0.00     0.001 A 
ATOM     79  C   UNL A   1      41.388  20.362  26.107  1.00  0.00     0.000 A 
ENDBRANCH  55  74
BRANCH  67  80
ATOM     80  C   UNL A   1      45.051  27.982  28.615  1.00  0.00    -0.014 A 
ATOM     81  C   UNL A   1      44.086  28.502  27.737  1.00  0.00     0.009 A 
ATOM     82  C   UNL A   1      46.405  28.210  28.333  1.00  0.00     0.009 A 
ATOM     83  C   UNL A   1      44.472  29.209  26.593  1.00  0.00     0.001 A 
ATOM     84  C   UNL A   1      46.790  28.932  27.203  1.00  0.00     0.001 A 
ATOM     85  C   UNL A   1      45.825  29.426  26.330  1.00  0.00     0.000 A 
ENDBRANCH  67  80
ENDBRANCH  41  42
ENDBRANCH  33  36
ENDBRANCH  31  32
ENDBRANCH   1  31
TORSDOF 12
ENDMDL
MODEL 2
REMARK VINA RESULT:     -13.8      2.381      7.875
REMARK SMILES Cc1cnn(C2(C(=O)NCCCNC(=O)c3ccc(-c4c5nc(c(-c6ccccc6)c6ccc([nH]6)c(-c6ccccc6)c6nc(c(-c7ccccc7)c7ccc4[nH]7)C=C6)C=C5)cc3)CCN(C(=O)c3cc4ccccc4[nH]3)CC2)c1
REMARK SMILES IDX 11 1 10 2 9 3 7 4 8 5 6 7 64 8 79 9 65 10 78 11 66 12 67 13
REMARK SMILES IDX 68 14 5 15 1 16 2 17 3 18 80 19 4 20 69 21 70 22 77 23 71 24
REMARK SMILES IDX 76 25 72 27 75 28 73 29 74 30 12 31 13 32 14 33 15 35 16 36
REMARK SMILES IDX 17 37 63 38 18 39 62 40 19 41 20 42 21 43 56 44 22 45 61 46
REMARK SMILES IDX 55 47 57 48 23 49 60 50 54 51 53 52 24 54 46 55 31 56 45 57
REMARK SMILES IDX 32 58 35 59 44 60 58 61 33 62 34 63 43 65 59 66 36 67 25 68
REMARK SMILES IDX 26 69 30 70 27 71 29 72 28 73 47 74 48 75 52 76 49 77 51 78
REMARK SMILES IDX 50 79 37 80 38 81 42 82 39 83 41 84 40 85
REMARK H PARENT 9 6 77 26 13 34 57 53 35 64
REMARK Flexibility Score: inf
ROOT
ATOM      1  C   UNL A   1      37.855  19.822  25.002  1.00  0.00     0.042 C 
ENDROOT
BRANCH   1   2
ATOM      2  C   UNL A   1      36.727  20.854  25.106  1.00  0.00     0.117 C 
BRANCH   2   3
ATOM      3  N   UNL A   1      36.745  21.871  24.052  1.00  0.00    -0.354 N 
ATOM      4  C   UNL A   1      35.812  22.785  23.600  1.00  0.00     0.248 C 
ATOM      5  O   UNL A   1      36.190  23.434  22.623  1.00  0.00    -0.272 OA
ATOM      6  H   UNL A   1      37.600  21.913  23.565  1.00  0.00     0.163 HD
BRANCH   4   7
ATOM      7  C   UNL A   1      34.397  22.887  24.259  1.00  0.00     0.144 C 
ATOM      8  C   UNL A   1      34.638  23.638  25.596  1.00  0.00     0.062 C 
ATOM      9  C   UNL A   1      33.453  23.561  23.235  1.00  0.00     0.062 C 
ATOM     10  C   UNL A   1      33.536  24.581  26.040  1.00  0.00     0.123 C 
ATOM     11  C   UNL A   1      32.399  24.469  23.845  1.00  0.00     0.123 C 
ATOM     12  N   UNL A   1      32.918  25.290  24.935  1.00  0.00    -0.337 N 
ATOM     13  C   UNL A   1      32.776  26.678  25.031  1.00  0.00     0.270 C 
ATOM     14  O   UNL A   1      33.504  27.344  25.764  1.00  0.00    -0.267 OA
BRANCH   7  15
ATOM     15  N   UNL A   1      33.742  21.578  24.592  1.00  0.00    -0.257 N 
ATOM     16  C   UNL A   1      32.349  18.282  23.791  1.00  0.00     0.048 C 
ATOM     17  C   UNL A   1      32.899  19.532  24.357  1.00  0.00    -0.013 A 
ATOM     18  C   UNL A   1      33.202  19.844  25.695  1.00  0.00     0.138 A 
ATOM     19  C   UNL A   1      33.255  20.672  23.673  1.00  0.00     0.113 A 
ATOM     20  N   UNL A   1      33.755  21.051  25.830  1.00  0.00    -0.180 NA
ENDBRANCH   7  15
BRANCH  13  21
ATOM     21  C   UNL A   1      31.773  27.311  24.205  1.00  0.00     0.105 A 
ATOM     22  C   UNL A   1      31.886  28.260  23.204  1.00  0.00     0.042 A 
ATOM     23  N   UNL A   1      30.439  26.979  24.271  1.00  0.00    -0.351 N 
ATOM     24  C   UNL A   1      30.582  28.693  22.859  1.00  0.00     0.000 A 
ATOM     25  C   UNL A   1      29.688  27.866  23.534  1.00  0.00     0.046 A 
ATOM     26  H   UNL A   1      30.074  26.216  24.774  1.00  0.00     0.167 HD
ATOM     27  C   UNL A   1      30.083  29.726  22.046  1.00  0.00     0.010 A 
ATOM     28  C   UNL A   1      28.302  28.002  23.414  1.00  0.00     0.026 A 
ATOM     29  C   UNL A   1      28.700  29.898  21.943  1.00  0.00     0.001 A 
ATOM     30  C   UNL A   1      27.825  29.043  22.611  1.00  0.00     0.002 A 
ENDBRANCH  13  21
ENDBRANCH   4   7
ENDBRANCH   2   3
ENDBRANCH   1   2
BRANCH   1  31
ATOM     31  C   UNL A   1      39.108  20.224  25.753  1.00  0.00     0.118 C 
BRANCH  31  32
ATOM     32  N   UNL A   1      40.157  19.207  25.722  1.00  0.00    -0.352 N 
ATOM     33  C   UNL A   1      41.518  19.392  25.912  1.00  0.00     0.251 C 
ATOM     34  H   UNL A   1      39.864  18.284  25.543  1.00  0.00     0.163 HD
ATOM     35  O   UNL A   1      42.328  18.561  25.552  1.00  0.00    -0.269 OA
BRANCH  33  36
ATOM     36  C   UNL A   1      41.957  20.648  26.552  1.00  0.00     0.039 A 
ATOM     37  C   UNL A   1      42.455  21.710  25.795  1.00  0.00     0.014 A 
ATOM     38  C   UNL A   1      41.771  20.774  27.925  1.00  0.00     0.014 A 
ATOM     39  C   UNL A   1      42.669  22.935  26.424  1.00  0.00     0.010 A 
ATOM     40  C   UNL A   1      41.817  22.018  28.500  1.00  0.00     0.010 A 
ATOM     41  C   UNL A   1      42.317  23.094  27.774  1.00  0.00    -0.014 A 
BRANCH  41  42
ATOM     42  C   UNL A   1      42.380  24.407  28.414  1.00  0.00     0.031 A 
ATOM     43  C   UNL A   1      41.240  25.311  28.117  1.00  0.00     0.074 A 
ATOM     44  C   UNL A   1      43.271  24.728  29.377  1.00  0.00     0.049 A 
ATOM     45  N   UNL A   1      41.255  26.387  27.404  1.00  0.00    -0.248 NA
ATOM     46  C   UNL A   1      39.899  24.923  28.584  1.00  0.00     0.031 C 
ATOM     47  C   UNL A   1      44.234  23.839  30.043  1.00  0.00     0.029 A 
ATOM     48  N   UNL A   1      43.428  25.902  30.055  1.00  0.00    -0.354 N 
ATOM     49  C   UNL A   1      39.979  26.934  27.514  1.00  0.00     0.074 A 
ATOM     50  C   UNL A   1      39.147  25.906  28.086  1.00  0.00     0.031 C 
ATOM     51  C   UNL A   1      44.680  24.419  31.177  1.00  0.00     0.029 A 
ATOM     52  C   UNL A   1      44.213  25.792  31.195  1.00  0.00     0.049 A 
ATOM     53  H   UNL A   1      43.023  26.750  29.763  1.00  0.00     0.167 HD
ATOM     54  C   UNL A   1      39.785  28.278  27.405  1.00  0.00     0.031 A 
ATOM     55  C   UNL A   1      44.497  26.759  32.095  1.00  0.00     0.031 A 
ATOM     56  C   UNL A   1      40.971  28.941  26.928  1.00  0.00     0.049 A 
ATOM     57  C   UNL A   1      44.307  28.064  31.434  1.00  0.00     0.074 A 
ATOM     58  C   UNL A   1      41.616  29.134  25.728  1.00  0.00     0.029 A 
ATOM     59  N   UNL A   1      41.860  29.242  27.925  1.00  0.00    -0.354 N 
ATOM     60  N   UNL A   1      45.045  28.473  30.442  1.00  0.00    -0.248 NA
ATOM     61  C   UNL A   1      43.081  28.820  31.659  1.00  0.00     0.031 C 
ATOM     62  C   UNL A   1      42.985  29.387  26.050  1.00  0.00     0.029 A 
ATOM     63  C   UNL A   1      43.131  29.376  27.436  1.00  0.00     0.049 A 
ATOM     64  H   UNL A   1      41.616  29.349  28.873  1.00  0.00     0.167 HD
ATOM     65  C   UNL A   1      44.183  29.224  29.670  1.00  0.00     0.074 A 
ATOM     66  C   UNL A   1      43.071  29.563  30.548  1.00  0.00     0.031 C 
ATOM     67  C   UNL A   1      44.275  29.222  28.310  1.00  0.00     0.031 A 
BRANCH  54  68
ATOM     68  C   UNL A   1      38.754  29.063  28.192  1.00  0.00    -0.014 A 
ATOM     69  C   UNL A   1      38.736  28.923  29.594  1.00  0.00     0.009 A 
ATOM     70  C   UNL A   1      37.632  29.681  27.610  1.00  0.00     0.009 A 
ATOM     71  C   UNL A   1      37.630  29.319  30.359  1.00  0.00     0.001 A 
ATOM     72  C   UNL A   1      36.540  30.110  28.375  1.00  0.00     0.001 A 
ATOM     73  C   UNL A   1      36.528  29.905  29.747  1.00  0.00     0.000 A 
ENDBRANCH  54  68
BRANCH  55  74
ATOM     74  C   UNL A   1      44.791  26.639  33.533  1.00  0.00    -0.014 A 
ATOM     75  C   UNL A   1      45.878  27.316  34.101  1.00  0.00     0.009 A 
ATOM     76  C   UNL A   1      43.829  26.082  34.396  1.00  0.00     0.009 A 
ATOM     77  C   UNL A   1      45.971  27.482  35.488  1.00  0.00     0.001 A 
ATOM     78  C   UNL A   1      43.923  26.249  35.780  1.00  0.00     0.001 A 
ATOM     79  C   UNL A   1      44.984  26.966  36.325  1.00  0.00     0.000 A 
ENDBRANCH  55  74
BRANCH  67  80
ATOM     80  C   UNL A   1      45.591  28.838  27.699  1.00  0.00    -0.014 A 
ATOM     81  C   UNL A   1      46.647  29.741  27.492  1.00  0.00     0.009 A 
ATOM     82  C   UNL A   1      45.790  27.488  27.375  1.00  0.00     0.009 A 
ATOM     83  C   UNL A   1      47.861  29.303  26.951  1.00  0.00     0.001 A 
ATOM     84  C   UNL A   1      47.007  27.049  26.854  1.00  0.00     0.001 A 
ATOM     85  C   UNL A   1      48.040  27.956  26.636  1.00  0.00     0.000 A 
ENDBRANCH  67  80
ENDBRANCH  41  42
ENDBRANCH  33  36
ENDBRANCH  31  32
ENDBRANCH   1  31
TORSDOF 12
ENDMDL
MODEL 3
REMARK VINA RESULT:     -13.6      3.016      8.599
REMARK SMILES Cc1cnn(C2(C(=O)NCCCNC(=O)c3ccc(-c4c5nc(c(-c6ccccc6)c6ccc([nH]6)c(-c6ccccc6)c6nc(c(-c7ccccc7)c7ccc4[nH]7)C=C6)C=C5)cc3)CCN(C(=O)c3cc4ccccc4[nH]3)CC2)c1
REMARK SMILES IDX 11 1 10 2 9 3 7 4 8 5 6 7 64 8 79 9 65 10 78 11 66 12 67 13
REMARK SMILES IDX 68 14 5 15 1 16 2 17 3 18 80 19 4 20 69 21 70 22 77 23 71 24
REMARK SMILES IDX 76 25 72 27 75 28 73 29 74 30 12 31 13 32 14 33 15 35 16 36
REMARK SMILES IDX 17 37 63 38 18 39 62 40 19 41 20 42 21 43 56 44 22 45 61 46
REMARK SMILES IDX 55 47 57 48 23 49 60 50 54 51 53 52 24 54 46 55 31 56 45 57
REMARK SMILES IDX 32 58 35 59 44 60 58 61 33 62 34 63 43 65 59 66 36 67 25 68
REMARK SMILES IDX 26 69 30 70 27 71 29 72 28 73 47 74 48 75 52 76 49 77 51 78
REMARK SMILES IDX 50 79 37 80 38 81 42 82 39 83 41 84 40 85
REMARK H PARENT 9 6 77 26 13 34 57 53 35 64
REMARK Flexibility Score: inf
ROOT
ATOM      1  C   UNL A   1      38.586  21.645  25.734  1.00  0.00     0.042 C 
ENDROOT
BRANCH   1   2
ATOM      2  C   UNL A   1      37.523  22.732  25.547  1.00  0.00     0.117 C 
BRANCH   2   3
ATOM      3  N   UNL A   1      37.115  22.939  24.155  1.00  0.00    -0.354 N 
ATOM      4  C   UNL A   1      35.915  23.281  23.560  1.00  0.00     0.248 C 
ATOM      5  O   UNL A   1      35.960  23.287  22.328  1.00  0.00    -0.272 OA
ATOM      6  H   UNL A   1      37.847  22.808  23.510  1.00  0.00     0.163 HD
BRANCH   4   7
ATOM      7  C   UNL A   1      34.635  23.549  24.418  1.00  0.00     0.144 C 
ATOM      8  C   UNL A   1      35.091  24.566  25.498  1.00  0.00     0.062 C 
ATOM      9  C   UNL A   1      33.514  24.004  23.454  1.00  0.00     0.062 C 
ATOM     10  C   UNL A   1      34.065  25.602  25.915  1.00  0.00     0.123 C 
ATOM     11  C   UNL A   1      32.565  25.041  24.029  1.00  0.00     0.123 C 
ATOM     12  N   UNL A   1      33.250  26.068  24.808  1.00  0.00    -0.337 N 
ATOM     13  C   UNL A   1      33.101  27.446  24.626  1.00  0.00     0.270 C 
ATOM     14  O   UNL A   1      33.932  28.241  25.061  1.00  0.00    -0.267 OA
BRANCH   7  15
ATOM     15  N   UNL A   1      34.074  22.355  25.134  1.00  0.00    -0.257 N 
ATOM     16  C   UNL A   1      32.916  18.883  25.365  1.00  0.00     0.048 C 
ATOM     17  C   UNL A   1      33.378  20.278  25.528  1.00  0.00    -0.013 A 
ATOM     18  C   UNL A   1      33.658  20.990  26.709  1.00  0.00     0.138 A 
ATOM     19  C   UNL A   1      33.652  21.188  24.532  1.00  0.00     0.113 A 
ATOM     20  N   UNL A   1      34.125  22.217  26.472  1.00  0.00    -0.180 NA
ENDBRANCH   7  15
BRANCH  13  21
ATOM     21  C   UNL A   1      31.956  27.905  23.872  1.00  0.00     0.105 A 
ATOM     22  C   UNL A   1      31.867  28.750  22.779  1.00  0.00     0.042 A 
ATOM     23  N   UNL A   1      30.675  27.475  24.130  1.00  0.00    -0.351 N 
ATOM     24  C   UNL A   1      30.498  29.037  22.555  1.00  0.00     0.000 A 
ATOM     25  C   UNL A   1      29.766  28.216  23.409  1.00  0.00     0.046 A 
ATOM     26  H   UNL A   1      30.440  26.743  24.745  1.00  0.00     0.167 HD
ATOM     27  C   UNL A   1      29.817  29.934  21.714  1.00  0.00     0.010 A 
ATOM     28  C   UNL A   1      28.369  28.226  23.446  1.00  0.00     0.026 A 
ATOM     29  C   UNL A   1      28.421  29.983  21.763  1.00  0.00     0.001 A 
ATOM     30  C   UNL A   1      27.710  29.135  22.611  1.00  0.00     0.002 A 
ENDBRANCH  13  21
ENDBRANCH   4   7
ENDBRANCH   2   3
ENDBRANCH   1   2
BRANCH   1  31
ATOM     31  C   UNL A   1      39.658  22.020  26.738  1.00  0.00     0.118 C 
BRANCH  31  32
ATOM     32  N   UNL A   1      41.005  22.035  26.172  1.00  0.00    -0.352 N 
ATOM     33  C   UNL A   1      41.840  23.131  26.011  1.00  0.00     0.251 C 
ATOM     34  H   UNL A   1      41.361  21.168  25.869  1.00  0.00     0.163 HD
ATOM     35  O   UNL A   1      42.788  23.100  25.251  1.00  0.00    -0.269 OA
BRANCH  33  36
ATOM     36  C   UNL A   1      41.528  24.351  26.780  1.00  0.00     0.039 A 
ATOM     37  C   UNL A   1      42.063  24.562  28.052  1.00  0.00     0.014 A 
ATOM     38  C   UNL A   1      40.756  25.327  26.159  1.00  0.00     0.014 A 
ATOM     39  C   UNL A   1      41.895  25.810  28.649  1.00  0.00     0.010 A 
ATOM     40  C   UNL A   1      40.741  26.601  26.668  1.00  0.00     0.010 A 
ATOM     41  C   UNL A   1      41.259  26.840  27.937  1.00  0.00    -0.014 A 
BRANCH  41  42
ATOM     42  C   UNL A   1      41.211  28.200  28.471  1.00  0.00     0.031 A 
ATOM     43  C   UNL A   1      42.332  29.083  28.058  1.00  0.00     0.074 A 
ATOM     44  C   UNL A   1      40.139  28.716  29.112  1.00  0.00     0.049 A 
ATOM     45  N   UNL A   1      43.293  29.531  28.796  1.00  0.00    -0.248 NA
ATOM     46  C   UNL A   1      42.461  29.430  26.634  1.00  0.00     0.031 C 
ATOM     47  C   UNL A   1      38.816  28.100  29.287  1.00  0.00     0.029 A 
ATOM     48  N   UNL A   1      39.964  29.960  29.644  1.00  0.00    -0.354 N 
ATOM     49  C   UNL A   1      44.023  30.396  27.985  1.00  0.00     0.074 A 
ATOM     50  C   UNL A   1      43.585  30.150  26.634  1.00  0.00     0.031 C 
ATOM     51  C   UNL A   1      37.919  29.043  29.643  1.00  0.00     0.029 A 
ATOM     52  C   UNL A   1      38.641  30.265  29.935  1.00  0.00     0.049 A 
ATOM     53  H   UNL A   1      40.707  30.584  29.809  1.00  0.00     0.167 HD
ATOM     54  C   UNL A   1      44.704  31.446  28.522  1.00  0.00     0.031 A 
ATOM     55  C   UNL A   1      38.152  31.431  30.411  1.00  0.00     0.031 A 
ATOM     56  C   UNL A   1      44.761  31.354  29.958  1.00  0.00     0.049 A 
ATOM     57  C   UNL A   1      39.254  32.148  31.078  1.00  0.00     0.074 A 
ATOM     58  C   UNL A   1      45.475  30.657  30.906  1.00  0.00     0.029 A 
ATOM     59  N   UNL A   1      43.655  31.873  30.577  1.00  0.00    -0.354 N 
ATOM     60  N   UNL A   1      39.840  31.708  32.155  1.00  0.00    -0.248 NA
ATOM     61  C   UNL A   1      39.947  33.225  30.383  1.00  0.00     0.031 C 
ATOM     62  C   UNL A   1      44.656  30.628  32.077  1.00  0.00     0.029 A 
ATOM     63  C   UNL A   1      43.483  31.334  31.823  1.00  0.00     0.049 A 
ATOM     64  H   UNL A   1      43.060  32.548  30.177  1.00  0.00     0.167 HD
ATOM     65  C   UNL A   1      41.148  32.127  32.022  1.00  0.00     0.074 A 
ATOM     66  C   UNL A   1      41.111  33.202  31.039  1.00  0.00     0.031 C 
ATOM     67  C   UNL A   1      42.182  31.354  32.459  1.00  0.00     0.031 A 
BRANCH  54  68
ATOM     68  C   UNL A   1      44.868  32.796  27.852  1.00  0.00    -0.014 A 
ATOM     69  C   UNL A   1      43.775  33.686  27.867  1.00  0.00     0.009 A 
ATOM     70  C   UNL A   1      45.915  33.105  26.963  1.00  0.00     0.009 A 
ATOM     71  C   UNL A   1      43.707  34.783  26.997  1.00  0.00     0.001 A 
ATOM     72  C   UNL A   1      45.866  34.220  26.118  1.00  0.00     0.001 A 
ATOM     73  C   UNL A   1      44.750  35.045  26.117  1.00  0.00     0.000 A 
ENDBRANCH  54  68
BRANCH  55  74
ATOM     74  C   UNL A   1      36.825  32.037  30.212  1.00  0.00    -0.014 A 
ATOM     75  C   UNL A   1      35.907  32.117  31.268  1.00  0.00     0.009 A 
ATOM     76  C   UNL A   1      36.571  32.793  29.052  1.00  0.00     0.009 A 
ATOM     77  C   UNL A   1      34.801  32.971  31.191  1.00  0.00     0.001 A 
ATOM     78  C   UNL A   1      35.466  33.645  28.976  1.00  0.00     0.001 A 
ATOM     79  C   UNL A   1      34.592  33.749  30.054  1.00  0.00     0.000 A 
ENDBRANCH  55  74
BRANCH  67  80
ATOM     80  C   UNL A   1      41.891  30.331  33.517  1.00  0.00    -0.014 A 
ATOM     81  C   UNL A   1      41.587  28.987  33.239  1.00  0.00     0.009 A 
ATOM     82  C   UNL A   1      41.989  30.731  34.857  1.00  0.00     0.009 A 
ATOM     83  C   UNL A   1      41.363  28.079  34.279  1.00  0.00     0.001 A 
ATOM     84  C   UNL A   1      41.785  29.821  35.894  1.00  0.00     0.001 A 
ATOM     85  C   UNL A   1      41.466  28.497  35.605  1.00  0.00     0.000 A 
ENDBRANCH  67  80
ENDBRANCH  41  42
ENDBRANCH  33  36
ENDBRANCH  31  32
ENDBRANCH   1  31
TORSDOF 12
ENDMDL
