MODEL 1
REMARK VINA RESULT:     -12.4      0.000      0.000
REMARK SMILES C[C@H]1CC[C@H]([NH2+]Cc2c(C(=O)NCCCNC(=O)c3ccc(-c4c5nc(c(-c6ccccc6)c6ccc([nH]6)c(-c6ccccc6)c6nc(c(-c7ccccc7)c7ccc4[nH]7)C=C6)C=C5)cc3)n(Cc3ccccc3F)c3ccccc23)CC1
REMARK SMILES IDX 13 1 12 2 10 3 11 4 9 6 8 7 81 8 67 9 76 10 80 11 77 12
REMARK SMILES IDX 79 13 78 14 7 15 6 16 5 19 1 20 2 21 3 22 83 23 4 24 82 25
REMARK SMILES IDX 68 26 69 27 70 28 74 29 71 30 73 31 75 32 72 33 14 34 15 35
REMARK SMILES IDX 16 36 17 37 18 39 19 40 20 41 66 42 21 43 65 44 22 45 23 46
REMARK SMILES IDX 24 47 59 48 25 49 64 50 58 51 60 52 26 53 63 54 57 55 56 56
REMARK SMILES IDX 27 58 49 59 34 60 48 61 35 62 38 63 47 64 61 65 36 66 37 67
REMARK SMILES IDX 46 69 62 70 39 71 28 72 29 73 33 74 30 75 32 76 31 77 50 78
REMARK SMILES IDX 51 79 55 80 52 81 54 82 53 83 40 84 41 85 45 86 42 87 44 88
REMARK SMILES IDX 43 89
REMARK H PARENT 12 5 6 17 6 18 16 38 60 57 38 68
REMARK Flexibility Score: inf
ROOT
ATOM      1  C   UNL A   1      33.739  29.065  26.638  1.00  0.00     0.118 C 
ENDROOT
BRANCH   1   2
ATOM      2  N   UNL A   1      34.045  28.839  25.252  1.00  0.00    -0.351 N 
ATOM      3  C   UNL A   1      33.630  27.835  24.405  1.00  0.00     0.268 C 
ATOM      4  O   UNL A   1      33.943  28.048  23.223  1.00  0.00    -0.268 OA
ATOM      5  H   UNL A   1      34.644  29.506  24.844  1.00  0.00     0.163 HD
BRANCH   3   6
ATOM      6  C   UNL A   1      32.949  26.596  24.817  1.00  0.00     0.117 A 
ATOM      7  C   UNL A   1      31.715  25.997  24.482  1.00  0.00     0.045 A 
ATOM      8  C   UNL A   1      31.440  25.049  25.522  1.00  0.00     0.009 A 
ATOM      9  N   UNL A   1      33.591  25.586  25.585  1.00  0.00    -0.331 N 
ATOM     10  C   UNL A   1      32.669  24.634  26.001  1.00  0.00     0.049 A 
ATOM     11  C   UNL A   1      30.272  24.385  25.958  1.00  0.00     0.011 A 
ATOM     12  C   UNL A   1      32.789  23.437  26.732  1.00  0.00     0.027 A 
ATOM     13  C   UNL A   1      30.374  23.307  26.839  1.00  0.00     0.001 A 
ATOM     14  C   UNL A   1      31.623  22.811  27.183  1.00  0.00     0.002 A 
BRANCH   7  15
ATOM     15  C   UNL A   1      30.721  26.120  23.360  1.00  0.00     0.300 C 
BRANCH  15  16
ATOM     16  N   UNL A   1      29.581  26.987  23.571  1.00  0.00    -0.340 N 
ATOM     17  H   UNL A   1      28.767  26.373  23.597  1.00  0.00     0.346 HD
ATOM     18  H   UNL A   1      29.877  27.497  24.403  1.00  0.00     0.346 HD
BRANCH  16  19
ATOM     19  C   UNL A   1      29.218  28.091  22.684  1.00  0.00     0.182 C 
ATOM     20  C   UNL A   1      28.212  32.363  22.052  1.00  0.00     0.007 C 
ATOM     21  C   UNL A   1      28.677  31.027  22.616  1.00  0.00    -0.014 C 
ATOM     22  C   UNL A   1      29.770  30.402  21.743  1.00  0.00     0.009 C 
ATOM     23  C   UNL A   1      27.519  30.039  22.750  1.00  0.00     0.009 C 
ATOM     24  C   UNL A   1      30.300  29.138  22.408  1.00  0.00     0.065 C 
ATOM     25  C   UNL A   1      27.997  28.736  23.382  1.00  0.00     0.065 C 
ENDBRANCH  16  19
ENDBRANCH  15  16
ENDBRANCH   7  15
BRANCH   9  26
ATOM     26  C   UNL A   1      35.037  25.437  25.839  1.00  0.00     0.161 C 
BRANCH  26  27
ATOM     27  C   UNL A   1      35.691  24.270  25.132  1.00  0.00     0.008 A 
ATOM     28  C   UNL A   1      35.230  23.779  23.898  1.00  0.00     0.008 A 
ATOM     29  C   UNL A   1      36.847  23.681  25.652  1.00  0.00     0.128 A 
ATOM     30  C   UNL A   1      35.862  22.720  23.241  1.00  0.00     0.001 A 
ATOM     31  C   UNL A   1      37.480  22.615  25.010  1.00  0.00     0.039 A 
ATOM     32  F   UNL A   1      37.407  24.163  26.768  1.00  0.00    -0.207 F 
ATOM     33  C   UNL A   1      36.982  22.127  23.806  1.00  0.00     0.003 A 
ENDBRANCH  26  27
ENDBRANCH   9  26
ENDBRANCH   3   6
ENDBRANCH   1   2
BRANCH   1  34
ATOM     34  C   UNL A   1      34.780  29.790  27.483  1.00  0.00     0.042 C 
BRANCH  34  35
ATOM     35  C   UNL A   1      34.574  31.308  27.658  1.00  0.00     0.118 C 
BRANCH  35  36
ATOM     36  N   UNL A   1      34.406  31.795  29.022  1.00  0.00    -0.352 N 
ATOM     37  C   UNL A   1      35.285  32.099  30.029  1.00  0.00     0.251 C 
ATOM     38  H   UNL A   1      33.464  31.934  29.273  1.00  0.00     0.163 HD
ATOM     39  O   UNL A   1      34.953  32.992  30.813  1.00  0.00    -0.269 OA
BRANCH  37  40
ATOM     40  C   UNL A   1      36.525  31.334  30.322  1.00  0.00     0.039 A 
ATOM     41  C   UNL A   1      37.801  31.783  29.999  1.00  0.00     0.014 A 
ATOM     42  C   UNL A   1      36.365  30.004  30.764  1.00  0.00     0.014 A 
ATOM     43  C   UNL A   1      38.873  30.898  29.993  1.00  0.00     0.010 A 
ATOM     44  C   UNL A   1      37.435  29.116  30.772  1.00  0.00     0.010 A 
ATOM     45  C   UNL A   1      38.677  29.552  30.325  1.00  0.00    -0.014 A 
BRANCH  45  46
ATOM     46  C   UNL A   1      39.833  28.667  30.228  1.00  0.00     0.031 A 
ATOM     47  C   UNL A   1      40.567  28.433  31.502  1.00  0.00     0.074 A 
ATOM     48  C   UNL A   1      40.208  28.038  29.097  1.00  0.00     0.049 A 
ATOM     49  N   UNL A   1      41.802  28.710  31.775  1.00  0.00    -0.248 NA
ATOM     50  C   UNL A   1      39.802  27.905  32.640  1.00  0.00     0.031 C 
ATOM     51  C   UNL A   1      39.481  27.910  27.833  1.00  0.00     0.029 A 
ATOM     52  N   UNL A   1      41.316  27.272  28.893  1.00  0.00    -0.354 N 
ATOM     53  C   UNL A   1      42.014  28.290  33.087  1.00  0.00     0.074 A 
ATOM     54  C   UNL A   1      40.727  27.892  33.600  1.00  0.00     0.031 C 
ATOM     55  C   UNL A   1      40.044  26.922  27.097  1.00  0.00     0.029 A 
ATOM     56  C   UNL A   1      41.246  26.459  27.772  1.00  0.00     0.049 A 
ATOM     57  H   UNL A   1      42.098  27.293  29.491  1.00  0.00     0.167 HD
ATOM     58  C   UNL A   1      43.259  28.165  33.627  1.00  0.00     0.031 A 
ATOM     59  C   UNL A   1      42.072  25.424  27.483  1.00  0.00     0.031 A 
ATOM     60  C   UNL A   1      44.252  28.874  32.868  1.00  0.00     0.049 A 
ATOM     61  C   UNL A   1      43.328  25.623  28.244  1.00  0.00     0.074 A 
ATOM     62  C   UNL A   1      44.465  30.205  32.565  1.00  0.00     0.029 A 
ATOM     63  N   UNL A   1      45.030  28.161  31.989  1.00  0.00    -0.354 N 
ATOM     64  N   UNL A   1      44.172  26.585  28.006  1.00  0.00    -0.248 NA
ATOM     65  C   UNL A   1      43.443  25.001  29.554  1.00  0.00     0.031 C 
ATOM     66  C   UNL A   1      44.941  30.200  31.224  1.00  0.00     0.029 A 
ATOM     67  C   UNL A   1      45.043  28.868  30.814  1.00  0.00     0.049 A 
ATOM     68  H   UNL A   1      45.489  27.308  32.167  1.00  0.00     0.167 HD
ATOM     69  C   UNL A   1      44.619  26.981  29.259  1.00  0.00     0.074 A 
ATOM     70  C   UNL A   1      44.216  25.905  30.162  1.00  0.00     0.031 C 
ATOM     71  C   UNL A   1      45.019  28.265  29.499  1.00  0.00     0.031 A 
BRANCH  58  72
ATOM     72  C   UNL A   1      43.624  27.168  34.692  1.00  0.00    -0.014 A 
ATOM     73  C   UNL A   1      44.045  27.543  35.982  1.00  0.00     0.009 A 
ATOM     74  C   UNL A   1      43.305  25.810  34.504  1.00  0.00     0.009 A 
ATOM     75  C   UNL A   1      44.136  26.623  37.030  1.00  0.00     0.001 A 
ATOM     76  C   UNL A   1      43.355  24.893  35.561  1.00  0.00     0.001 A 
ATOM     77  C   UNL A   1      43.767  25.302  36.826  1.00  0.00     0.000 A 
ENDBRANCH  58  72
BRANCH  59  78
ATOM     78  C   UNL A   1      41.687  24.102  26.937  1.00  0.00    -0.014 A 
ATOM     79  C   UNL A   1      40.636  23.373  27.523  1.00  0.00     0.009 A 
ATOM     80  C   UNL A   1      42.531  23.426  26.042  1.00  0.00     0.009 A 
ATOM     81  C   UNL A   1      40.462  22.010  27.265  1.00  0.00     0.001 A 
ATOM     82  C   UNL A   1      42.361  22.058  25.788  1.00  0.00     0.001 A 
ATOM     83  C   UNL A   1      41.338  21.348  26.413  1.00  0.00     0.000 A 
ENDBRANCH  59  78
BRANCH  71  84
ATOM     84  C   UNL A   1      45.143  29.217  28.331  1.00  0.00    -0.014 A 
ATOM     85  C   UNL A   1      46.425  29.532  27.853  1.00  0.00     0.009 A 
ATOM     86  C   UNL A   1      44.055  29.963  27.841  1.00  0.00     0.009 A 
ATOM     87  C   UNL A   1      46.617  30.567  26.933  1.00  0.00     0.001 A 
ATOM     88  C   UNL A   1      44.243  30.982  26.901  1.00  0.00     0.001 A 
ATOM     89  C   UNL A   1      45.526  31.291  26.457  1.00  0.00     0.000 A 
ENDBRANCH  71  84
ENDBRANCH  45  46
ENDBRANCH  37  40
ENDBRANCH  35  36
ENDBRANCH  34  35
ENDBRANCH   1  34
TORSDOF 15
ENDMDL
MODEL 2
REMARK VINA RESULT:     -12.2      2.642      6.420
REMARK SMILES C[C@H]1CC[C@H]([NH2+]Cc2c(C(=O)NCCCNC(=O)c3ccc(-c4c5nc(c(-c6ccccc6)c6ccc([nH]6)c(-c6ccccc6)c6nc(c(-c7ccccc7)c7ccc4[nH]7)C=C6)C=C5)cc3)n(Cc3ccccc3F)c3ccccc23)CC1
REMARK SMILES IDX 13 1 12 2 10 3 11 4 9 6 8 7 81 8 67 9 76 10 80 11 77 12
REMARK SMILES IDX 79 13 78 14 7 15 6 16 5 19 1 20 2 21 3 22 83 23 4 24 82 25
REMARK SMILES IDX 68 26 69 27 70 28 74 29 71 30 73 31 75 32 72 33 14 34 15 35
REMARK SMILES IDX 16 36 17 37 18 39 19 40 20 41 66 42 21 43 65 44 22 45 23 46
REMARK SMILES IDX 24 47 59 48 25 49 64 50 58 51 60 52 26 53 63 54 57 55 56 56
REMARK SMILES IDX 27 58 49 59 34 60 48 61 35 62 38 63 47 64 61 65 36 66 37 67
REMARK SMILES IDX 46 69 62 70 39 71 28 72 29 73 33 74 30 75 32 76 31 77 50 78
REMARK SMILES IDX 51 79 55 80 52 81 54 82 53 83 40 84 41 85 45 86 42 87 44 88
REMARK SMILES IDX 43 89
REMARK H PARENT 12 5 6 17 6 18 16 38 60 57 38 68
REMARK Flexibility Score: inf
ROOT
ATOM      1  C   UNL A   1      32.967  23.910  26.589  1.00  0.00     0.118 C 
ENDROOT
BRANCH   1   2
ATOM      2  N   UNL A   1      31.577  23.968  26.947  1.00  0.00    -0.351 N 
ATOM      3  C   UNL A   1      30.573  24.789  26.480  1.00  0.00     0.268 C 
ATOM      4  O   UNL A   1      29.450  24.444  26.878  1.00  0.00    -0.268 OA
ATOM      5  H   UNL A   1      31.296  23.319  27.633  1.00  0.00     0.163 HD
BRANCH   3   6
ATOM      6  C   UNL A   1      30.770  25.992  25.653  1.00  0.00     0.117 A 
ATOM      7  C   UNL A   1      31.364  27.252  25.878  1.00  0.00     0.045 A 
ATOM      8  C   UNL A   1      30.859  28.118  24.853  1.00  0.00     0.009 A 
ATOM      9  N   UNL A   1      30.513  26.010  24.253  1.00  0.00    -0.331 N 
ATOM     10  C   UNL A   1      30.585  27.309  23.765  1.00  0.00     0.049 A 
ATOM     11  C   UNL A   1      30.790  29.520  24.702  1.00  0.00     0.011 A 
ATOM     12  C   UNL A   1      30.458  27.858  22.476  1.00  0.00     0.027 A 
ATOM     13  C   UNL A   1      30.477  30.070  23.458  1.00  0.00     0.001 A 
ATOM     14  C   UNL A   1      30.359  29.246  22.348  1.00  0.00     0.002 A 
BRANCH   7  15
ATOM     15  C   UNL A   1      32.338  27.827  26.870  1.00  0.00     0.300 C 
BRANCH  15  16
ATOM     16  N   UNL A   1      33.695  28.052  26.419  1.00  0.00    -0.340 N 
ATOM     17  H   UNL A   1      34.260  27.333  26.871  1.00  0.00     0.346 HD
ATOM     18  H   UNL A   1      33.565  28.054  25.407  1.00  0.00     0.346 HD
BRANCH  16  19
ATOM     19  C   UNL A   1      34.423  29.306  26.607  1.00  0.00     0.182 C 
ATOM     20  C   UNL A   1      35.564  32.760  29.141  1.00  0.00     0.007 C 
ATOM     21  C   UNL A   1      35.053  31.428  28.612  1.00  0.00    -0.014 C 
ATOM     22  C   UNL A   1      36.166  30.638  27.917  1.00  0.00     0.009 C 
ATOM     23  C   UNL A   1      33.891  31.618  27.636  1.00  0.00     0.009 C 
ATOM     24  C   UNL A   1      35.650  29.260  27.520  1.00  0.00     0.065 C 
ATOM     25  C   UNL A   1      33.352  30.268  27.176  1.00  0.00     0.065 C 
ENDBRANCH  16  19
ENDBRANCH  15  16
ENDBRANCH   7  15
BRANCH   9  26
ATOM     26  C   UNL A   1      30.318  24.850  23.363  1.00  0.00     0.161 C 
BRANCH  26  27
ATOM     27  C   UNL A   1      31.511  23.926  23.249  1.00  0.00     0.008 A 
ATOM     28  C   UNL A   1      31.407  22.535  23.427  1.00  0.00     0.008 A 
ATOM     29  C   UNL A   1      32.763  24.422  22.879  1.00  0.00     0.128 A 
ATOM     30  C   UNL A   1      32.511  21.689  23.289  1.00  0.00     0.001 A 
ATOM     31  C   UNL A   1      33.875  23.587  22.749  1.00  0.00     0.039 A 
ATOM     32  F   UNL A   1      32.917  25.720  22.589  1.00  0.00    -0.207 F 
ATOM     33  C   UNL A   1      33.751  22.218  22.964  1.00  0.00     0.003 A 
ENDBRANCH  26  27
ENDBRANCH   9  26
ENDBRANCH   3   6
ENDBRANCH   1   2
BRANCH   1  34
ATOM     34  C   UNL A   1      33.648  22.546  26.615  1.00  0.00     0.042 C 
BRANCH  34  35
ATOM     35  C   UNL A   1      35.186  22.557  26.706  1.00  0.00     0.118 C 
BRANCH  35  36
ATOM     36  N   UNL A   1      35.916  22.002  25.573  1.00  0.00    -0.352 N 
ATOM     37  C   UNL A   1      37.228  21.661  25.373  1.00  0.00     0.251 C 
ATOM     38  H   UNL A   1      35.347  21.839  24.786  1.00  0.00     0.163 HD
ATOM     39  O   UNL A   1      37.453  20.726  24.599  1.00  0.00    -0.269 OA
BRANCH  37  40
ATOM     40  C   UNL A   1      38.386  22.427  25.903  1.00  0.00     0.039 A 
ATOM     41  C   UNL A   1      39.443  21.843  26.595  1.00  0.00     0.014 A 
ATOM     42  C   UNL A   1      38.290  23.833  25.870  1.00  0.00     0.014 A 
ATOM     43  C   UNL A   1      40.309  22.633  27.342  1.00  0.00     0.010 A 
ATOM     44  C   UNL A   1      39.162  24.630  26.605  1.00  0.00     0.010 A 
ATOM     45  C   UNL A   1      40.133  24.021  27.391  1.00  0.00    -0.014 A 
BRANCH  45  46
ATOM     46  C   UNL A   1      41.036  24.777  28.251  1.00  0.00     0.031 A 
ATOM     47  C   UNL A   1      40.631  26.185  28.521  1.00  0.00     0.074 A 
ATOM     48  C   UNL A   1      42.137  24.259  28.831  1.00  0.00     0.049 A 
ATOM     49  N   UNL A   1      41.275  27.270  28.233  1.00  0.00    -0.248 NA
ATOM     50  C   UNL A   1      39.302  26.409  29.105  1.00  0.00     0.031 C 
ATOM     51  C   UNL A   1      42.554  22.859  28.923  1.00  0.00     0.029 A 
ATOM     52  N   UNL A   1      43.080  24.910  29.569  1.00  0.00    -0.354 N 
ATOM     53  C   UNL A   1      40.491  28.324  28.699  1.00  0.00     0.074 A 
ATOM     54  C   UNL A   1      39.248  27.741  29.138  1.00  0.00     0.031 C 
ATOM     55  C   UNL A   1      43.513  22.745  29.872  1.00  0.00     0.029 A 
ATOM     56  C   UNL A   1      43.873  24.074  30.338  1.00  0.00     0.049 A 
ATOM     57  H   UNL A   1      43.187  25.889  29.556  1.00  0.00     0.167 HD
ATOM     58  C   UNL A   1      40.965  29.595  28.822  1.00  0.00     0.031 A 
ATOM     59  C   UNL A   1      44.694  24.458  31.347  1.00  0.00     0.031 A 
ATOM     60  C   UNL A   1      42.170  29.800  28.067  1.00  0.00     0.049 A 
ATOM     61  C   UNL A   1      45.003  25.895  31.155  1.00  0.00     0.074 A 
ATOM     62  C   UNL A   1      42.484  29.763  26.723  1.00  0.00     0.029 A 
ATOM     63  N   UNL A   1      43.371  29.746  28.733  1.00  0.00    -0.354 N 
ATOM     64  N   UNL A   1      45.719  26.354  30.170  1.00  0.00    -0.248 NA
ATOM     65  C   UNL A   1      44.160  26.874  31.825  1.00  0.00     0.031 C 
ATOM     66  C   UNL A   1      43.781  29.181  26.669  1.00  0.00     0.029 A 
ATOM     67  C   UNL A   1      44.201  28.954  27.981  1.00  0.00     0.049 A 
ATOM     68  H   UNL A   1      43.593  30.189  29.584  1.00  0.00     0.167 HD
ATOM     69  C   UNL A   1      45.106  27.547  29.815  1.00  0.00     0.074 A 
ATOM     70  C   UNL A   1      44.218  27.865  30.931  1.00  0.00     0.031 C 
ATOM     71  C   UNL A   1      45.158  28.021  28.534  1.00  0.00     0.031 A 
BRANCH  58  72
ATOM     72  C   UNL A   1      40.486  30.581  29.853  1.00  0.00    -0.014 A 
ATOM     73  C   UNL A   1      39.204  31.160  29.824  1.00  0.00     0.009 A 
ATOM     74  C   UNL A   1      41.231  30.759  31.034  1.00  0.00     0.009 A 
ATOM     75  C   UNL A   1      38.683  31.869  30.909  1.00  0.00     0.001 A 
ATOM     76  C   UNL A   1      40.697  31.433  32.140  1.00  0.00     0.001 A 
ATOM     77  C   UNL A   1      39.422  31.985  32.078  1.00  0.00     0.000 A 
ENDBRANCH  58  72
BRANCH  59  78
ATOM     78  C   UNL A   1      44.875  23.785  32.654  1.00  0.00    -0.014 A 
ATOM     79  C   UNL A   1      43.795  23.122  33.266  1.00  0.00     0.009 A 
ATOM     80  C   UNL A   1      46.012  24.041  33.438  1.00  0.00     0.009 A 
ATOM     81  C   UNL A   1      43.825  22.773  34.619  1.00  0.00     0.001 A 
ATOM     82  C   UNL A   1      46.041  23.696  34.796  1.00  0.00     0.001 A 
ATOM     83  C   UNL A   1      44.941  23.078  35.389  1.00  0.00     0.000 A 
ENDBRANCH  59  78
BRANCH  71  84
ATOM     84  C   UNL A   1      46.050  27.317  27.536  1.00  0.00    -0.014 A 
ATOM     85  C   UNL A   1      47.260  27.926  27.168  1.00  0.00     0.009 A 
ATOM     86  C   UNL A   1      45.628  26.192  26.803  1.00  0.00     0.009 A 
ATOM     87  C   UNL A   1      48.013  27.443  26.095  1.00  0.00     0.001 A 
ATOM     88  C   UNL A   1      46.395  25.691  25.745  1.00  0.00     0.001 A 
ATOM     89  C   UNL A   1      47.581  26.326  25.384  1.00  0.00     0.000 A 
ENDBRANCH  71  84
ENDBRANCH  45  46
ENDBRANCH  37  40
ENDBRANCH  35  36
ENDBRANCH  34  35
ENDBRANCH   1  34
TORSDOF 15
ENDMDL
MODEL 3
REMARK VINA RESULT:     -11.8      1.745      5.756
REMARK SMILES C[C@H]1CC[C@H]([NH2+]Cc2c(C(=O)NCCCNC(=O)c3ccc(-c4c5nc(c(-c6ccccc6)c6ccc([nH]6)c(-c6ccccc6)c6nc(c(-c7ccccc7)c7ccc4[nH]7)C=C6)C=C5)cc3)n(Cc3ccccc3F)c3ccccc23)CC1
REMARK SMILES IDX 13 1 12 2 10 3 11 4 9 6 8 7 81 8 67 9 76 10 80 11 77 12
REMARK SMILES IDX 79 13 78 14 7 15 6 16 5 19 1 20 2 21 3 22 83 23 4 24 82 25
REMARK SMILES IDX 68 26 69 27 70 28 74 29 71 30 73 31 75 32 72 33 14 34 15 35
REMARK SMILES IDX 16 36 17 37 18 39 19 40 20 41 66 42 21 43 65 44 22 45 23 46
REMARK SMILES IDX 24 47 59 48 25 49 64 50 58 51 60 52 26 53 63 54 57 55 56 56
REMARK SMILES IDX 27 58 49 59 34 60 48 61 35 62 38 63 47 64 61 65 36 66 37 67
REMARK SMILES IDX 46 69 62 70 39 71 28 72 29 73 33 74 30 75 32 76 31 77 50 78
REMARK SMILES IDX 51 79 55 80 52 81 54 82 53 83 40 84 41 85 45 86 42 87 44 88
REMARK SMILES IDX 43 89
REMARK H PARENT 12 5 6 17 6 18 16 38 60 57 38 68
REMARK Flexibility Score: inf
ROOT
ATOM      1  C   UNL A   1      32.659  29.365  25.966  1.00  0.00     0.118 C 
ENDROOT
BRANCH   1   2
ATOM      2  N   UNL A   1      33.246  28.971  24.714  1.00  0.00    -0.351 N 
ATOM      3  C   UNL A   1      33.187  27.767  24.046  1.00  0.00     0.268 C 
ATOM      4  O   UNL A   1      33.659  27.833  22.901  1.00  0.00    -0.268 OA
ATOM      5  H   UNL A   1      33.771  29.671  24.262  1.00  0.00     0.163 HD
BRANCH   3   6
ATOM      6  C   UNL A   1      32.689  26.501  24.610  1.00  0.00     0.117 A 
ATOM      7  C   UNL A   1      31.496  25.762  24.460  1.00  0.00     0.045 A 
ATOM      8  C   UNL A   1      31.439  24.869  25.580  1.00  0.00     0.009 A 
ATOM      9  N   UNL A   1      33.515  25.617  25.358  1.00  0.00    -0.331 N 
ATOM     10  C   UNL A   1      32.750  24.612  25.936  1.00  0.00     0.049 A 
ATOM     11  C   UNL A   1      30.402  24.127  26.190  1.00  0.00     0.011 A 
ATOM     12  C   UNL A   1      33.075  23.488  26.719  1.00  0.00     0.027 A 
ATOM     13  C   UNL A   1      30.713  23.131  27.116  1.00  0.00     0.001 A 
ATOM     14  C   UNL A   1      32.038  22.786  27.341  1.00  0.00     0.002 A 
BRANCH   7  15
ATOM     15  C   UNL A   1      30.376  25.706  23.456  1.00  0.00     0.300 C 
BRANCH  15  16
ATOM     16  N   UNL A   1      29.279  26.634  23.629  1.00  0.00    -0.340 N 
ATOM     17  H   UNL A   1      28.446  26.141  23.307  1.00  0.00     0.346 HD
ATOM     18  H   UNL A   1      29.390  26.885  24.611  1.00  0.00     0.346 HD
BRANCH  16  19
ATOM     19  C   UNL A   1      29.222  27.957  23.009  1.00  0.00     0.182 C 
ATOM     20  C   UNL A   1      27.850  32.173  23.034  1.00  0.00     0.007 C 
ATOM     21  C   UNL A   1      28.210  30.740  23.398  1.00  0.00    -0.014 C 
ATOM     22  C   UNL A   1      29.700  30.462  23.174  1.00  0.00     0.009 C 
ATOM     23  C   UNL A   1      27.387  29.731  22.595  1.00  0.00     0.009 C 
ATOM     24  C   UNL A   1      30.044  29.065  23.673  1.00  0.00     0.065 C 
ATOM     25  C   UNL A   1      27.715  28.307  23.029  1.00  0.00     0.065 C 
ENDBRANCH  16  19
ENDBRANCH  15  16
ENDBRANCH   7  15
BRANCH   9  26
ATOM     26  C   UNL A   1      34.987  25.628  25.448  1.00  0.00     0.161 C 
BRANCH  26  27
ATOM     27  C   UNL A   1      35.664  24.351  24.999  1.00  0.00     0.008 A 
ATOM     28  C   UNL A   1      36.510  23.608  25.841  1.00  0.00     0.008 A 
ATOM     29  C   UNL A   1      35.403  23.815  23.736  1.00  0.00     0.128 A 
ATOM     30  C   UNL A   1      37.104  22.414  25.423  1.00  0.00     0.001 A 
ATOM     31  C   UNL A   1      36.000  22.629  23.303  1.00  0.00     0.039 A 
ATOM     32  F   UNL A   1      34.525  24.410  22.917  1.00  0.00    -0.207 F 
ATOM     33  C   UNL A   1      36.860  21.931  24.145  1.00  0.00     0.003 A 
ENDBRANCH  26  27
ENDBRANCH   9  26
ENDBRANCH   3   6
ENDBRANCH   1   2
BRANCH   1  34
ATOM     34  C   UNL A   1      33.343  28.895  27.245  1.00  0.00     0.042 C 
BRANCH  34  35
ATOM     35  C   UNL A   1      34.787  29.387  27.462  1.00  0.00     0.118 C 
BRANCH  35  36
ATOM     36  N   UNL A   1      35.174  29.707  28.831  1.00  0.00    -0.352 N 
ATOM     37  C   UNL A   1      36.379  29.947  29.437  1.00  0.00     0.251 C 
ATOM     38  H   UNL A   1      34.410  29.762  29.449  1.00  0.00     0.163 HD
ATOM     39  O   UNL A   1      36.380  30.725  30.395  1.00  0.00    -0.269 OA
BRANCH  37  40
ATOM     40  C   UNL A   1      37.640  29.228  29.117  1.00  0.00     0.039 A 
ATOM     41  C   UNL A   1      38.253  28.328  29.982  1.00  0.00     0.014 A 
ATOM     42  C   UNL A   1      38.337  29.644  27.964  1.00  0.00     0.014 A 
ATOM     43  C   UNL A   1      39.574  27.949  29.775  1.00  0.00     0.010 A 
ATOM     44  C   UNL A   1      39.656  29.259  27.744  1.00  0.00     0.010 A 
ATOM     45  C   UNL A   1      40.291  28.460  28.687  1.00  0.00    -0.014 A 
BRANCH  45  46
ATOM     46  C   UNL A   1      41.694  28.075  28.573  1.00  0.00     0.031 A 
ATOM     47  C   UNL A   1      41.950  26.807  27.835  1.00  0.00     0.074 A 
ATOM     48  C   UNL A   1      42.720  28.816  29.036  1.00  0.00     0.049 A 
ATOM     49  N   UNL A   1      42.512  25.727  28.274  1.00  0.00    -0.248 NA
ATOM     50  C   UNL A   1      41.434  26.703  26.464  1.00  0.00     0.031 C 
ATOM     51  C   UNL A   1      42.708  30.193  29.530  1.00  0.00     0.029 A 
ATOM     52  N   UNL A   1      44.044  28.493  29.055  1.00  0.00    -0.354 N 
ATOM     53  C   UNL A   1      42.530  24.834  27.204  1.00  0.00     0.074 A 
ATOM     54  C   UNL A   1      41.768  25.452  26.147  1.00  0.00     0.031 C 
ATOM     55  C   UNL A   1      43.978  30.663  29.561  1.00  0.00     0.029 A 
ATOM     56  C   UNL A   1      44.889  29.578  29.233  1.00  0.00     0.049 A 
ATOM     57  H   UNL A   1      44.371  27.571  28.950  1.00  0.00     0.167 HD
ATOM     58  C   UNL A   1      43.284  23.700  27.204  1.00  0.00     0.031 A 
ATOM     59  C   UNL A   1      46.229  29.587  29.030  1.00  0.00     0.031 A 
ATOM     60  C   UNL A   1      43.715  23.336  28.525  1.00  0.00     0.049 A 
ATOM     61  C   UNL A   1      46.706  28.187  29.102  1.00  0.00     0.074 A 
ATOM     62  C   UNL A   1      43.062  22.957  29.682  1.00  0.00     0.029 A 
ATOM     63  N   UNL A   1      44.991  23.672  28.909  1.00  0.00    -0.354 N 
ATOM     64  N   UNL A   1      46.705  27.478  30.195  1.00  0.00    -0.248 NA
ATOM     65  C   UNL A   1      46.794  27.426  27.865  1.00  0.00     0.031 C 
ATOM     66  C   UNL A   1      43.803  23.567  30.733  1.00  0.00     0.029 A 
ATOM     67  C   UNL A   1      44.891  24.228  30.159  1.00  0.00     0.049 A 
ATOM     68  H   UNL A   1      45.816  23.539  28.389  1.00  0.00     0.167 HD
ATOM     69  C   UNL A   1      46.352  26.200  29.787  1.00  0.00     0.074 A 
ATOM     70  C   UNL A   1      46.520  26.206  28.335  1.00  0.00     0.031 C 
ATOM     71  C   UNL A   1      45.688  25.345  30.620  1.00  0.00     0.031 A 
BRANCH  58  72
ATOM     72  C   UNL A   1      43.867  23.071  25.968  1.00  0.00    -0.014 A 
ATOM     73  C   UNL A   1      44.776  23.737  25.124  1.00  0.00     0.009 A 
ATOM     74  C   UNL A   1      43.712  21.688  25.759  1.00  0.00     0.009 A 
ATOM     75  C   UNL A   1      45.498  23.066  24.133  1.00  0.00     0.001 A 
ATOM     76  C   UNL A   1      44.464  21.004  24.796  1.00  0.00     0.001 A 
ATOM     77  C   UNL A   1      45.360  21.694  23.986  1.00  0.00     0.000 A 
ENDBRANCH  58  72
BRANCH  59  78
ATOM     78  C   UNL A   1      47.024  30.654  28.379  1.00  0.00    -0.014 A 
ATOM     79  C   UNL A   1      47.958  31.398  29.124  1.00  0.00     0.009 A 
ATOM     80  C   UNL A   1      46.660  31.143  27.114  1.00  0.00     0.009 A 
ATOM     81  C   UNL A   1      48.472  32.607  28.649  1.00  0.00     0.001 A 
ATOM     82  C   UNL A   1      47.171  32.359  26.640  1.00  0.00     0.001 A 
ATOM     83  C   UNL A   1      48.063  33.098  27.414  1.00  0.00     0.000 A 
ENDBRANCH  59  78
BRANCH  71  84
ATOM     84  C   UNL A   1      45.496  25.742  32.066  1.00  0.00    -0.014 A 
ATOM     85  C   UNL A   1      46.308  25.141  33.042  1.00  0.00     0.009 A 
ATOM     86  C   UNL A   1      44.409  26.522  32.501  1.00  0.00     0.009 A 
ATOM     87  C   UNL A   1      46.032  25.296  34.403  1.00  0.00     0.001 A 
ATOM     88  C   UNL A   1      44.148  26.699  33.864  1.00  0.00     0.001 A 
ATOM     89  C   UNL A   1      44.952  26.075  34.814  1.00  0.00     0.000 A 
ENDBRANCH  71  84
ENDBRANCH  45  46
ENDBRANCH  37  40
ENDBRANCH  35  36
ENDBRANCH  34  35
ENDBRANCH   1  34
TORSDOF 15
ENDMDL
