MODEL 1
REMARK VINA RESULT:     -11.6      0.000      0.000
REMARK SMILES Cc1ccc(NS(=O)(=O)N2CCCC[C@@H]2C(=O)NCCCNC(=O)c2ccc(-c3c4nc(c(-c5ccccc5)c5ccc([nH]5)c(-c5ccccc5)c5nc(c(-c6ccccc6)c6ccc3[nH]6)C=C5)C=C4)cc2)c(C)n1
REMARK SMILES IDX 19 1 18 2 16 3 17 4 15 6 10 7 11 8 12 9 14 10 13 11 7 12
REMARK SMILES IDX 8 13 9 14 6 15 5 17 1 18 2 19 3 20 75 21 4 22 73 23 74 24
REMARK SMILES IDX 20 25 21 26 22 27 23 28 24 30 25 31 26 32 72 33 27 34 71 35
REMARK SMILES IDX 28 36 29 37 30 38 65 39 31 40 70 41 64 42 66 43 32 44 69 45
REMARK SMILES IDX 63 46 62 47 33 49 55 50 40 51 54 52 41 53 44 54 53 55 67 56
REMARK SMILES IDX 42 57 43 58 52 60 68 61 45 62 34 63 35 64 39 65 36 66 38 67
REMARK SMILES IDX 37 68 56 69 57 70 61 71 58 72 60 73 59 74 46 75 47 76 51 77
REMARK SMILES IDX 48 78 50 79 49 80
REMARK H PARENT 18 5 6 16 22 29 66 48 44 59
REMARK Flexibility Score: inf
ROOT
ATOM      1  C   UNL A   1      34.778  23.678  25.719  1.00  0.00     0.117 C 
ENDROOT
BRANCH   1   2
ATOM      2  N   UNL A   1      34.391  24.561  24.627  1.00  0.00    -0.355 N 
ATOM      3  C   UNL A   1      33.896  25.821  24.545  1.00  0.00     0.238 C 
ATOM      4  O   UNL A   1      33.909  26.291  23.397  1.00  0.00    -0.273 OA
ATOM      5  H   UNL A   1      34.519  24.147  23.744  1.00  0.00     0.163 HD
BRANCH   3   6
ATOM      6  C   UNL A   1      33.325  26.652  25.701  1.00  0.00     0.163 C 
ATOM      7  N   UNL A   1      31.871  27.057  25.624  1.00  0.00    -0.172 NA
ATOM      8  C   UNL A   1      31.438  27.735  26.891  1.00  0.00     0.105 C 
ATOM      9  C   UNL A   1      32.280  28.977  27.140  1.00  0.00     0.017 C 
ATOM     10  C   UNL A   1      34.218  27.854  26.050  1.00  0.00     0.030 C 
ATOM     11  C   UNL A   1      33.744  28.598  27.293  1.00  0.00     0.004 C 
BRANCH   7  12
ATOM     12  S   UNL A   1      30.785  25.800  25.224  1.00  0.00     0.302 S 
ATOM     13  O   UNL A   1      29.695  25.777  26.171  1.00  0.00    -0.189 OA
ATOM     14  O   UNL A   1      31.550  24.599  24.998  1.00  0.00    -0.189 OA
BRANCH  12  15
ATOM     15  N   UNL A   1      30.178  26.291  23.770  1.00  0.00    -0.269 N 
ATOM     16  H   UNL A   1      30.070  25.590  23.087  1.00  0.00     0.181 HD
BRANCH  15  17
ATOM     17  C   UNL A   1      29.785  27.619  23.381  1.00  0.00     0.071 A 
ATOM     18  C   UNL A   1      27.972  30.662  21.020  1.00  0.00     0.067 C 
ATOM     19  C   UNL A   1      28.562  29.714  22.015  1.00  0.00     0.038 A 
ATOM     20  C   UNL A   1      27.774  28.860  22.761  1.00  0.00     0.026 A 
ATOM     21  N   UNL A   1      29.905  29.623  22.025  1.00  0.00    -0.256 NA
ATOM     22  C   UNL A   1      28.390  27.802  23.425  1.00  0.00     0.030 A 
ATOM     23  C   UNL A   1      30.517  28.624  22.728  1.00  0.00     0.062 A 
ATOM     24  C   UNL A   1      31.999  28.762  22.653  1.00  0.00     0.069 C 
ENDBRANCH  15  17
ENDBRANCH  12  15
ENDBRANCH   7  12
ENDBRANCH   3   6
ENDBRANCH   1   2
BRANCH   1  25
ATOM     25  C   UNL A   1      36.245  23.837  26.136  1.00  0.00     0.042 C 
BRANCH  25  26
ATOM     26  C   UNL A   1      37.278  23.642  25.025  1.00  0.00     0.118 C 
BRANCH  26  27
ATOM     27  N   UNL A   1      38.436  22.839  25.390  1.00  0.00    -0.352 N 
ATOM     28  C   UNL A   1      39.536  23.108  26.167  1.00  0.00     0.251 C 
ATOM     29  H   UNL A   1      38.429  21.932  25.007  1.00  0.00     0.163 HD
ATOM     30  O   UNL A   1      40.416  22.257  26.285  1.00  0.00    -0.269 OA
BRANCH  28  31
ATOM     31  C   UNL A   1      39.711  24.411  26.842  1.00  0.00     0.039 A 
ATOM     32  C   UNL A   1      40.431  25.424  26.191  1.00  0.00     0.014 A 
ATOM     33  C   UNL A   1      39.252  24.616  28.139  1.00  0.00     0.014 A 
ATOM     34  C   UNL A   1      40.637  26.658  26.821  1.00  0.00     0.010 A 
ATOM     35  C   UNL A   1      39.381  25.865  28.731  1.00  0.00     0.010 A 
ATOM     36  C   UNL A   1      40.093  26.891  28.089  1.00  0.00    -0.014 A 
BRANCH  36  37
ATOM     37  C   UNL A   1      40.300  28.149  28.845  1.00  0.00     0.031 A 
ATOM     38  C   UNL A   1      41.434  28.212  29.832  1.00  0.00     0.074 A 
ATOM     39  C   UNL A   1      39.395  29.143  28.775  1.00  0.00     0.049 A 
ATOM     40  N   UNL A   1      41.624  29.037  30.827  1.00  0.00    -0.248 NA
ATOM     41  C   UNL A   1      42.459  27.160  29.715  1.00  0.00     0.031 C 
ATOM     42  C   UNL A   1      38.244  29.188  27.872  1.00  0.00     0.029 A 
ATOM     43  N   UNL A   1      39.281  30.289  29.521  1.00  0.00    -0.354 N 
ATOM     44  C   UNL A   1      42.745  28.560  31.498  1.00  0.00     0.074 A 
ATOM     45  C   UNL A   1      43.182  27.368  30.804  1.00  0.00     0.031 C 
ATOM     46  C   UNL A   1      37.530  30.296  28.129  1.00  0.00     0.029 A 
ATOM     47  C   UNL A   1      38.144  31.008  29.244  1.00  0.00     0.049 A 
ATOM     48  H   UNL A   1      39.949  30.568  30.188  1.00  0.00     0.167 HD
ATOM     49  C   UNL A   1      43.352  29.071  32.594  1.00  0.00     0.031 A 
ATOM     50  C   UNL A   1      37.637  32.099  29.849  1.00  0.00     0.031 A 
ATOM     51  C   UNL A   1      42.941  30.290  33.237  1.00  0.00     0.049 A 
ATOM     52  C   UNL A   1      38.366  32.687  31.026  1.00  0.00     0.074 A 
ATOM     53  C   UNL A   1      43.536  30.950  34.297  1.00  0.00     0.029 A 
ATOM     54  N   UNL A   1      41.837  31.039  32.862  1.00  0.00    -0.354 N 
ATOM     55  N   UNL A   1      39.443  32.249  31.631  1.00  0.00    -0.248 NA
ATOM     56  C   UNL A   1      37.811  33.921  31.599  1.00  0.00     0.031 C 
ATOM     57  C   UNL A   1      42.772  32.086  34.584  1.00  0.00     0.029 A 
ATOM     58  C   UNL A   1      41.728  32.153  33.675  1.00  0.00     0.049 A 
ATOM     59  H   UNL A   1      41.223  30.814  32.127  1.00  0.00     0.167 HD
ATOM     60  C   UNL A   1      39.710  33.166  32.640  1.00  0.00     0.074 A 
ATOM     61  C   UNL A   1      38.690  34.191  32.554  1.00  0.00     0.031 C 
ATOM     62  C   UNL A   1      40.706  33.160  33.560  1.00  0.00     0.031 A 
BRANCH  49  63
ATOM     63  C   UNL A   1      44.511  28.308  33.174  1.00  0.00    -0.014 A 
ATOM     64  C   UNL A   1      44.329  27.361  34.195  1.00  0.00     0.009 A 
ATOM     65  C   UNL A   1      45.803  28.521  32.670  1.00  0.00     0.009 A 
ATOM     66  C   UNL A   1      45.424  26.674  34.725  1.00  0.00     0.001 A 
ATOM     67  C   UNL A   1      46.892  27.810  33.180  1.00  0.00     0.001 A 
ATOM     68  C   UNL A   1      46.702  26.895  34.215  1.00  0.00     0.000 A 
ENDBRANCH  49  63
BRANCH  50  69
ATOM     69  C   UNL A   1      36.372  32.704  29.358  1.00  0.00    -0.014 A 
ATOM     70  C   UNL A   1      36.404  33.744  28.416  1.00  0.00     0.009 A 
ATOM     71  C   UNL A   1      35.128  32.247  29.822  1.00  0.00     0.009 A 
ATOM     72  C   UNL A   1      35.218  34.331  27.968  1.00  0.00     0.001 A 
ATOM     73  C   UNL A   1      33.943  32.818  29.351  1.00  0.00     0.001 A 
ATOM     74  C   UNL A   1      33.989  33.865  28.432  1.00  0.00     0.000 A 
ENDBRANCH  50  69
BRANCH  62  75
ATOM     75  C   UNL A   1      40.759  34.316  34.515  1.00  0.00    -0.014 A 
ATOM     76  C   UNL A   1      40.018  34.308  35.705  1.00  0.00     0.009 A 
ATOM     77  C   UNL A   1      41.599  35.405  34.238  1.00  0.00     0.009 A 
ATOM     78  C   UNL A   1      40.097  35.385  36.589  1.00  0.00     0.001 A 
ATOM     79  C   UNL A   1      41.694  36.469  35.135  1.00  0.00     0.001 A 
ATOM     80  C   UNL A   1      40.937  36.461  36.305  1.00  0.00     0.000 A 
ENDBRANCH  62  75
ENDBRANCH  36  37
ENDBRANCH  28  31
ENDBRANCH  26  27
ENDBRANCH  25  26
ENDBRANCH   1  25
TORSDOF 13
ENDMDL
MODEL 2
REMARK VINA RESULT:     -11.4      3.683      8.785
REMARK SMILES Cc1ccc(NS(=O)(=O)N2CCCC[C@@H]2C(=O)NCCCNC(=O)c2ccc(-c3c4nc(c(-c5ccccc5)c5ccc([nH]5)c(-c5ccccc5)c5nc(c(-c6ccccc6)c6ccc3[nH]6)C=C5)C=C4)cc2)c(C)n1
REMARK SMILES IDX 19 1 18 2 16 3 17 4 15 6 10 7 11 8 12 9 14 10 13 11 7 12
REMARK SMILES IDX 8 13 9 14 6 15 5 17 1 18 2 19 3 20 75 21 4 22 73 23 74 24
REMARK SMILES IDX 20 25 21 26 22 27 23 28 24 30 25 31 26 32 72 33 27 34 71 35
REMARK SMILES IDX 28 36 29 37 30 38 65 39 31 40 70 41 64 42 66 43 32 44 69 45
REMARK SMILES IDX 63 46 62 47 33 49 55 50 40 51 54 52 41 53 44 54 53 55 67 56
REMARK SMILES IDX 42 57 43 58 52 60 68 61 45 62 34 63 35 64 39 65 36 66 38 67
REMARK SMILES IDX 37 68 56 69 57 70 61 71 58 72 60 73 59 74 46 75 47 76 51 77
REMARK SMILES IDX 48 78 50 79 49 80
REMARK H PARENT 18 5 6 16 22 29 66 48 44 59
REMARK Flexibility Score: inf
ROOT
ATOM      1  C   UNL A   1      31.854  27.005  27.105  1.00  0.00     0.117 C 
ENDROOT
BRANCH   1   2
ATOM      2  N   UNL A   1      30.639  26.670  26.375  1.00  0.00    -0.355 N 
ATOM      3  C   UNL A   1      30.350  26.368  25.085  1.00  0.00     0.238 C 
ATOM      4  O   UNL A   1      29.203  25.925  24.919  1.00  0.00    -0.273 OA
ATOM      5  H   UNL A   1      29.842  26.661  26.953  1.00  0.00     0.163 HD
BRANCH   3   6
ATOM      6  C   UNL A   1      31.278  26.553  23.878  1.00  0.00     0.163 C 
ATOM      7  N   UNL A   1      32.500  25.668  23.790  1.00  0.00    -0.172 NA
ATOM      8  C   UNL A   1      33.217  25.876  22.487  1.00  0.00     0.105 C 
ATOM      9  C   UNL A   1      33.650  27.328  22.348  1.00  0.00     0.017 C 
ATOM     10  C   UNL A   1      31.642  28.029  23.646  1.00  0.00     0.030 C 
ATOM     11  C   UNL A   1      32.438  28.243  22.363  1.00  0.00     0.004 C 
BRANCH   7  12
ATOM     12  S   UNL A   1      32.216  24.004  24.050  1.00  0.00     0.302 S 
ATOM     13  O   UNL A   1      31.156  23.549  23.181  1.00  0.00    -0.189 OA
ATOM     14  O   UNL A   1      32.109  23.782  25.471  1.00  0.00    -0.189 OA
BRANCH  12  15
ATOM     15  N   UNL A   1      33.620  23.308  23.536  1.00  0.00    -0.269 N 
ATOM     16  H   UNL A   1      33.881  23.494  22.605  1.00  0.00     0.181 HD
BRANCH  15  17
ATOM     17  C   UNL A   1      34.511  22.462  24.285  1.00  0.00     0.071 A 
ATOM     18  C   UNL A   1      37.773  19.821  24.996  1.00  0.00     0.067 C 
ATOM     19  C   UNL A   1      36.665  20.824  24.940  1.00  0.00     0.038 A 
ATOM     20  C   UNL A   1      36.905  22.156  24.671  1.00  0.00     0.026 A 
ATOM     21  N   UNL A   1      35.414  20.331  25.000  1.00  0.00    -0.256 NA
ATOM     22  C   UNL A   1      35.825  22.966  24.323  1.00  0.00     0.030 A 
ATOM     23  C   UNL A   1      34.347  21.138  24.724  1.00  0.00     0.062 A 
ATOM     24  C   UNL A   1      33.067  20.401  24.922  1.00  0.00     0.069 C 
ENDBRANCH  15  17
ENDBRANCH  12  15
ENDBRANCH   7  12
ENDBRANCH   3   6
ENDBRANCH   1   2
BRANCH   1  25
ATOM     25  C   UNL A   1      32.207  28.496  27.043  1.00  0.00     0.042 C 
BRANCH  25  26
ATOM     26  C   UNL A   1      33.617  28.867  27.505  1.00  0.00     0.118 C 
BRANCH  26  27
ATOM     27  N   UNL A   1      33.768  30.227  28.000  1.00  0.00    -0.352 N 
ATOM     28  C   UNL A   1      34.844  30.904  28.520  1.00  0.00     0.251 C 
ATOM     29  H   UNL A   1      32.944  30.762  27.953  1.00  0.00     0.163 HD
ATOM     30  O   UNL A   1      34.697  32.059  28.916  1.00  0.00    -0.269 OA
BRANCH  28  31
ATOM     31  C   UNL A   1      36.172  30.270  28.650  1.00  0.00     0.039 A 
ATOM     32  C   UNL A   1      36.539  29.703  29.879  1.00  0.00     0.014 A 
ATOM     33  C   UNL A   1      37.091  30.308  27.606  1.00  0.00     0.014 A 
ATOM     34  C   UNL A   1      37.804  29.122  30.038  1.00  0.00     0.010 A 
ATOM     35  C   UNL A   1      38.312  29.659  27.733  1.00  0.00     0.010 A 
ATOM     36  C   UNL A   1      38.690  29.079  28.955  1.00  0.00    -0.014 A 
BRANCH  36  37
ATOM     37  C   UNL A   1      40.062  28.526  29.048  1.00  0.00     0.031 A 
ATOM     38  C   UNL A   1      41.205  29.479  29.271  1.00  0.00     0.074 A 
ATOM     39  C   UNL A   1      40.294  27.230  28.769  1.00  0.00     0.049 A 
ATOM     40  N   UNL A   1      42.483  29.307  29.063  1.00  0.00    -0.248 NA
ATOM     41  C   UNL A   1      40.844  30.831  29.734  1.00  0.00     0.031 C 
ATOM     42  C   UNL A   1      39.271  26.214  28.516  1.00  0.00     0.029 A 
ATOM     43  N   UNL A   1      41.481  26.560  28.601  1.00  0.00    -0.354 N 
ATOM     44  C   UNL A   1      43.068  30.547  29.296  1.00  0.00     0.074 A 
ATOM     45  C   UNL A   1      42.006  31.462  29.648  1.00  0.00     0.031 C 
ATOM     46  C   UNL A   1      39.873  25.054  28.208  1.00  0.00     0.029 A 
ATOM     47  C   UNL A   1      41.318  25.259  28.192  1.00  0.00     0.049 A 
ATOM     48  H   UNL A   1      42.360  26.972  28.758  1.00  0.00     0.167 HD
ATOM     49  C   UNL A   1      44.376  30.888  29.221  1.00  0.00     0.031 A 
ATOM     50  C   UNL A   1      42.233  24.347  27.812  1.00  0.00     0.031 A 
ATOM     51  C   UNL A   1      45.428  29.953  28.928  1.00  0.00     0.049 A 
ATOM     52  C   UNL A   1      43.686  24.731  27.800  1.00  0.00     0.074 A 
ATOM     53  C   UNL A   1      46.795  30.166  28.915  1.00  0.00     0.029 A 
ATOM     54  N   UNL A   1      45.225  28.618  28.614  1.00  0.00    -0.354 N 
ATOM     55  N   UNL A   1      44.234  25.895  28.055  1.00  0.00    -0.248 NA
ATOM     56  C   UNL A   1      44.648  23.675  27.452  1.00  0.00     0.031 C 
ATOM     57  C   UNL A   1      47.419  28.965  28.563  1.00  0.00     0.029 A 
ATOM     58  C   UNL A   1      46.441  27.996  28.398  1.00  0.00     0.049 A 
ATOM     59  H   UNL A   1      44.347  28.178  28.555  1.00  0.00     0.167 HD
ATOM     60  C   UNL A   1      45.603  25.707  27.923  1.00  0.00     0.074 A 
ATOM     61  C   UNL A   1      45.803  24.314  27.581  1.00  0.00     0.031 C 
ATOM     62  C   UNL A   1      46.608  26.605  28.067  1.00  0.00     0.031 A 
BRANCH  49  63
ATOM     63  C   UNL A   1      44.738  32.330  29.444  1.00  0.00    -0.014 A 
ATOM     64  C   UNL A   1      45.064  32.818  30.719  1.00  0.00     0.009 A 
ATOM     65  C   UNL A   1      44.780  33.211  28.351  1.00  0.00     0.009 A 
ATOM     66  C   UNL A   1      45.386  34.164  30.901  1.00  0.00     0.001 A 
ATOM     67  C   UNL A   1      45.132  34.550  28.530  1.00  0.00     0.001 A 
ATOM     68  C   UNL A   1      45.424  35.028  29.807  1.00  0.00     0.000 A 
ENDBRANCH  49  63
BRANCH  50  69
ATOM     69  C   UNL A   1      41.803  22.983  27.408  1.00  0.00    -0.014 A 
ATOM     70  C   UNL A   1      41.547  22.003  28.380  1.00  0.00     0.009 A 
ATOM     71  C   UNL A   1      41.642  22.652  26.052  1.00  0.00     0.009 A 
ATOM     72  C   UNL A   1      41.165  20.714  28.002  1.00  0.00     0.001 A 
ATOM     73  C   UNL A   1      41.233  21.369  25.681  1.00  0.00     0.001 A 
ATOM     74  C   UNL A   1      41.004  20.399  26.655  1.00  0.00     0.000 A 
ENDBRANCH  50  69
BRANCH  62  75
ATOM     75  C   UNL A   1      48.008  26.095  27.893  1.00  0.00    -0.014 A 
ATOM     76  C   UNL A   1      48.635  26.110  26.638  1.00  0.00     0.009 A 
ATOM     77  C   UNL A   1      48.723  25.639  29.011  1.00  0.00     0.009 A 
ATOM     78  C   UNL A   1      49.945  25.649  26.502  1.00  0.00     0.001 A 
ATOM     79  C   UNL A   1      50.041  25.203  28.875  1.00  0.00     0.001 A 
ATOM     80  C   UNL A   1      50.647  25.200  27.621  1.00  0.00     0.000 A 
ENDBRANCH  62  75
ENDBRANCH  36  37
ENDBRANCH  28  31
ENDBRANCH  26  27
ENDBRANCH  25  26
ENDBRANCH   1  25
TORSDOF 13
ENDMDL
MODEL 3
REMARK VINA RESULT:     -11.3      3.984      8.789
REMARK SMILES Cc1ccc(NS(=O)(=O)N2CCCC[C@@H]2C(=O)NCCCNC(=O)c2ccc(-c3c4nc(c(-c5ccccc5)c5ccc([nH]5)c(-c5ccccc5)c5nc(c(-c6ccccc6)c6ccc3[nH]6)C=C5)C=C4)cc2)c(C)n1
REMARK SMILES IDX 19 1 18 2 16 3 17 4 15 6 10 7 11 8 12 9 14 10 13 11 7 12
REMARK SMILES IDX 8 13 9 14 6 15 5 17 1 18 2 19 3 20 75 21 4 22 73 23 74 24
REMARK SMILES IDX 20 25 21 26 22 27 23 28 24 30 25 31 26 32 72 33 27 34 71 35
REMARK SMILES IDX 28 36 29 37 30 38 65 39 31 40 70 41 64 42 66 43 32 44 69 45
REMARK SMILES IDX 63 46 62 47 33 49 55 50 40 51 54 52 41 53 44 54 53 55 67 56
REMARK SMILES IDX 42 57 43 58 52 60 68 61 45 62 34 63 35 64 39 65 36 66 38 67
REMARK SMILES IDX 37 68 56 69 57 70 61 71 58 72 60 73 59 74 46 75 47 76 51 77
REMARK SMILES IDX 48 78 50 79 49 80
REMARK H PARENT 18 5 6 16 22 29 66 48 44 59
REMARK Flexibility Score: inf
ROOT
ATOM      1  C   UNL A   1      33.215  27.181  26.468  1.00  0.00     0.117 C 
ENDROOT
BRANCH   1   2
ATOM      2  N   UNL A   1      32.119  26.233  26.611  1.00  0.00    -0.355 N 
ATOM      3  C   UNL A   1      31.581  25.265  25.827  1.00  0.00     0.238 C 
ATOM      4  O   UNL A   1      30.782  24.526  26.421  1.00  0.00    -0.273 OA
ATOM      5  H   UNL A   1      31.662  26.312  27.479  1.00  0.00     0.163 HD
BRANCH   3   6
ATOM      6  C   UNL A   1      31.852  25.050  24.333  1.00  0.00     0.163 C 
ATOM      7  N   UNL A   1      33.227  24.567  23.931  1.00  0.00    -0.172 NA
ATOM      8  C   UNL A   1      33.281  24.273  22.461  1.00  0.00     0.105 C 
ATOM      9  C   UNL A   1      32.946  25.521  21.659  1.00  0.00     0.017 C 
ATOM     10  C   UNL A   1      31.418  26.256  23.484  1.00  0.00     0.030 C 
ATOM     11  C   UNL A   1      31.541  25.996  21.987  1.00  0.00     0.004 C 
BRANCH   7  12
ATOM     12  S   UNL A   1      33.821  23.237  24.824  1.00  0.00     0.302 S 
ATOM     13  O   UNL A   1      34.180  23.664  26.156  1.00  0.00    -0.189 OA
ATOM     14  O   UNL A   1      34.799  22.552  24.015  1.00  0.00    -0.189 OA
BRANCH  12  15
ATOM     15  N   UNL A   1      32.498  22.260  24.949  1.00  0.00    -0.269 N 
ATOM     16  H   UNL A   1      31.696  22.665  25.352  1.00  0.00     0.181 HD
BRANCH  15  17
ATOM     17  C   UNL A   1      32.373  20.886  24.537  1.00  0.00     0.071 A 
ATOM     18  C   UNL A   1      33.613  16.924  23.600  1.00  0.00     0.067 C 
ATOM     19  C   UNL A   1      32.999  18.228  23.997  1.00  0.00     0.038 A 
ATOM     20  C   UNL A   1      32.976  18.649  25.312  1.00  0.00     0.026 A 
ATOM     21  N   UNL A   1      32.621  19.038  22.991  1.00  0.00    -0.256 NA
ATOM     22  C   UNL A   1      32.682  19.986  25.574  1.00  0.00     0.030 A 
ATOM     23  C   UNL A   1      32.269  20.333  23.252  1.00  0.00     0.062 A 
ATOM     24  C   UNL A   1      31.821  21.015  22.004  1.00  0.00     0.069 C 
ENDBRANCH  15  17
ENDBRANCH  12  15
ENDBRANCH   7  12
ENDBRANCH   3   6
ENDBRANCH   1   2
BRANCH   1  25
ATOM     25  C   UNL A   1      32.985  28.492  27.229  1.00  0.00     0.042 C 
BRANCH  25  26
ATOM     26  C   UNL A   1      34.017  29.594  26.985  1.00  0.00     0.118 C 
BRANCH  26  27
ATOM     27  N   UNL A   1      34.021  30.667  27.967  1.00  0.00    -0.352 N 
ATOM     28  C   UNL A   1      34.969  31.090  28.867  1.00  0.00     0.251 C 
ATOM     29  H   UNL A   1      33.187  31.188  27.993  1.00  0.00     0.163 HD
ATOM     30  O   UNL A   1      34.705  32.012  29.637  1.00  0.00    -0.269 OA
BRANCH  28  31
ATOM     31  C   UNL A   1      36.293  30.441  28.962  1.00  0.00     0.039 A 
ATOM     32  C   UNL A   1      36.683  29.862  30.179  1.00  0.00     0.014 A 
ATOM     33  C   UNL A   1      37.189  30.476  27.898  1.00  0.00     0.014 A 
ATOM     34  C   UNL A   1      37.945  29.267  30.305  1.00  0.00     0.010 A 
ATOM     35  C   UNL A   1      38.405  29.814  27.993  1.00  0.00     0.010 A 
ATOM     36  C   UNL A   1      38.805  29.222  29.202  1.00  0.00    -0.014 A 
BRANCH  36  37
ATOM     37  C   UNL A   1      40.173  28.655  29.259  1.00  0.00     0.031 A 
ATOM     38  C   UNL A   1      41.329  29.592  29.479  1.00  0.00     0.074 A 
ATOM     39  C   UNL A   1      40.388  27.362  28.951  1.00  0.00     0.049 A 
ATOM     40  N   UNL A   1      42.602  29.412  29.245  1.00  0.00    -0.248 NA
ATOM     41  C   UNL A   1      40.990  30.938  29.974  1.00  0.00     0.031 C 
ATOM     42  C   UNL A   1      39.350  26.361  28.698  1.00  0.00     0.029 A 
ATOM     43  N   UNL A   1      41.564  26.684  28.749  1.00  0.00    -0.354 N 
ATOM     44  C   UNL A   1      43.203  30.642  29.491  1.00  0.00     0.074 A 
ATOM     45  C   UNL A   1      42.156  31.560  29.879  1.00  0.00     0.031 C 
ATOM     46  C   UNL A   1      39.936  25.201  28.357  1.00  0.00     0.029 A 
ATOM     47  C   UNL A   1      41.381  25.393  28.319  1.00  0.00     0.049 A 
ATOM     48  H   UNL A   1      42.451  27.085  28.898  1.00  0.00     0.167 HD
ATOM     49  C   UNL A   1      44.512  30.972  29.398  1.00  0.00     0.031 A 
ATOM     50  C   UNL A   1      42.280  24.479  27.905  1.00  0.00     0.031 A 
ATOM     51  C   UNL A   1      45.550  30.032  29.069  1.00  0.00     0.049 A 
ATOM     52  C   UNL A   1      43.737  24.850  27.874  1.00  0.00     0.074 A 
ATOM     53  C   UNL A   1      46.919  30.233  29.035  1.00  0.00     0.029 A 
ATOM     54  N   UNL A   1      45.328  28.706  28.733  1.00  0.00    -0.354 N 
ATOM     55  N   UNL A   1      44.300  26.004  28.141  1.00  0.00    -0.248 NA
ATOM     56  C   UNL A   1      44.682  23.792  27.489  1.00  0.00     0.031 C 
ATOM     57  C   UNL A   1      47.524  29.033  28.648  1.00  0.00     0.029 A 
ATOM     58  C   UNL A   1      46.534  28.077  28.483  1.00  0.00     0.049 A 
ATOM     59  H   UNL A   1      44.445  28.275  28.682  1.00  0.00     0.167 HD
ATOM     60  C   UNL A   1      45.665  25.805  27.980  1.00  0.00     0.074 A 
ATOM     61  C   UNL A   1      45.845  24.417  27.608  1.00  0.00     0.031 C 
ATOM     62  C   UNL A   1      46.681  26.691  28.123  1.00  0.00     0.031 A 
BRANCH  49  63
ATOM     63  C   UNL A   1      44.892  32.406  29.641  1.00  0.00    -0.014 A 
ATOM     64  C   UNL A   1      44.830  33.366  28.618  1.00  0.00     0.009 A 
ATOM     65  C   UNL A   1      45.293  32.810  30.924  1.00  0.00     0.009 A 
ATOM     66  C   UNL A   1      45.200  34.690  28.867  1.00  0.00     0.001 A 
ATOM     67  C   UNL A   1      45.633  34.140  31.178  1.00  0.00     0.001 A 
ATOM     68  C   UNL A   1      45.596  35.077  30.146  1.00  0.00     0.000 A 
ENDBRANCH  49  63
BRANCH  50  69
ATOM     69  C   UNL A   1      41.830  23.128  27.483  1.00  0.00    -0.014 A 
ATOM     70  C   UNL A   1      41.555  22.862  26.133  1.00  0.00     0.009 A 
ATOM     71  C   UNL A   1      41.674  22.095  28.423  1.00  0.00     0.009 A 
ATOM     72  C   UNL A   1      41.109  21.599  25.735  1.00  0.00     0.001 A 
ATOM     73  C   UNL A   1      41.255  20.826  28.017  1.00  0.00     0.001 A 
ATOM     74  C   UNL A   1      40.964  20.582  26.676  1.00  0.00     0.000 A 
ENDBRANCH  50  69
BRANCH  62  75
ATOM     75  C   UNL A   1      48.074  26.172  27.914  1.00  0.00    -0.014 A 
ATOM     76  C   UNL A   1      48.808  25.620  28.973  1.00  0.00     0.009 A 
ATOM     77  C   UNL A   1      48.635  26.194  26.628  1.00  0.00     0.009 A 
ATOM     78  C   UNL A   1      50.094  25.125  28.752  1.00  0.00     0.001 A 
ATOM     79  C   UNL A   1      49.911  25.675  26.406  1.00  0.00     0.001 A 
ATOM     80  C   UNL A   1      50.642  25.149  27.469  1.00  0.00     0.000 A 
ENDBRANCH  62  75
ENDBRANCH  36  37
ENDBRANCH  28  31
ENDBRANCH  26  27
ENDBRANCH  25  26
ENDBRANCH   1  25
TORSDOF 13
ENDMDL
