MODEL 1
REMARK VINA RESULT:     -10.7      0.000      0.000
REMARK SMILES O=C(C[C@@H]1C(=O)NC(=S)N1c1ccccc1)NCCCNC(=O)c1ccc(-c2c3nc(c(-c4ccccc4)c4ccc([nH]4)c(-c4ccccc4)c4nc(c(-c5ccccc5)c5ccc2[nH]5)C=C4)C=C3)cc1
REMARK SMILES IDX 19 1 18 2 17 3 1 4 2 5 3 7 4 8 5 9 10 10 6 11 7 12 8 13 9 15
REMARK SMILES IDX 11 16 12 17 16 18 13 19 15 20 14 21 20 22 21 23 22 24 23 26
REMARK SMILES IDX 24 27 25 28 71 29 26 30 70 31 27 32 28 33 29 34 64 35 30 36
REMARK SMILES IDX 69 37 63 38 65 39 31 40 68 41 62 42 61 43 32 45 54 46 39 47
REMARK SMILES IDX 53 48 40 49 43 50 52 51 66 52 41 53 42 54 51 56 67 57 44 58
REMARK SMILES IDX 33 59 34 60 38 61 35 62 37 63 36 64 55 65 56 66 60 67 57 68
REMARK SMILES IDX 59 69 58 70 45 71 46 72 50 73 47 74 49 75 48 76
REMARK H PARENT 17 6 7 14 21 25 65 44 43 55
REMARK Flexibility Score: inf
ROOT
ATOM      1  C   UNL A   1      31.187  31.052  26.197  1.00  0.00     0.042 C 
ENDROOT
BRANCH   1   2
ATOM      2  C   UNL A   1      31.495  30.054  25.089  1.00  0.00     0.117 C 
BRANCH   2   3
ATOM      3  N   UNL A   1      31.914  28.762  25.604  1.00  0.00    -0.356 N 
ATOM      4  O   UNL A   1      33.913  28.751  24.491  1.00  0.00    -0.275 OA
ATOM      5  C   UNL A   1      33.150  28.243  25.310  1.00  0.00     0.222 C 
ATOM      6  H   UNL A   1      31.299  28.247  26.175  1.00  0.00     0.163 HD
BRANCH   5   7
ATOM      7  C   UNL A   1      33.507  26.931  25.972  1.00  0.00     0.135 C 
BRANCH   7   8
ATOM      8  C   UNL A   1      32.736  25.680  25.572  1.00  0.00     0.188 C 
ATOM      9  C   UNL A   1      31.446  25.449  26.362  1.00  0.00     0.249 C 
ATOM     10  N   UNL A   1      33.426  24.409  25.843  1.00  0.00    -0.306 N 
ATOM     11  O   UNL A   1      30.459  26.170  26.358  1.00  0.00    -0.272 OA
ATOM     12  N   UNL A   1      31.537  24.279  27.040  1.00  0.00    -0.301 N 
ATOM     13  C   UNL A   1      32.686  23.616  26.734  1.00  0.00     0.180 C 
ATOM     14  H   UNL A   1      30.860  23.949  27.673  1.00  0.00     0.172 HD
ATOM     15  S   UNL A   1      33.038  22.146  27.422  1.00  0.00    -0.040 S 
BRANCH  10  16
ATOM     16  C   UNL A   1      34.561  23.990  25.101  1.00  0.00     0.044 A 
ATOM     17  C   UNL A   1      34.415  23.491  23.800  1.00  0.00     0.026 A 
ATOM     18  C   UNL A   1      35.844  24.035  25.656  1.00  0.00     0.026 A 
ATOM     19  C   UNL A   1      35.521  23.026  23.083  1.00  0.00     0.002 A 
ATOM     20  C   UNL A   1      36.949  23.552  24.947  1.00  0.00     0.002 A 
ATOM     21  C   UNL A   1      36.787  23.047  23.661  1.00  0.00     0.000 A 
ENDBRANCH  10  16
ENDBRANCH   7   8
ENDBRANCH   5   7
ENDBRANCH   2   3
ENDBRANCH   1   2
BRANCH   1  22
ATOM     22  C   UNL A   1      32.418  31.643  26.871  1.00  0.00     0.118 C 
BRANCH  22  23
ATOM     23  N   UNL A   1      32.229  33.017  27.313  1.00  0.00    -0.352 N 
ATOM     24  C   UNL A   1      33.005  33.805  28.126  1.00  0.00     0.251 C 
ATOM     25  H   UNL A   1      31.413  33.452  26.973  1.00  0.00     0.163 HD
ATOM     26  O   UNL A   1      32.586  34.901  28.489  1.00  0.00    -0.269 OA
BRANCH  24  27
ATOM     27  C   UNL A   1      34.334  33.344  28.590  1.00  0.00     0.039 A 
ATOM     28  C   UNL A   1      34.407  32.593  29.768  1.00  0.00     0.014 A 
ATOM     29  C   UNL A   1      35.506  33.677  27.907  1.00  0.00     0.014 A 
ATOM     30  C   UNL A   1      35.645  32.139  30.231  1.00  0.00     0.010 A 
ATOM     31  C   UNL A   1      36.728  33.153  28.322  1.00  0.00     0.010 A 
ATOM     32  C   UNL A   1      36.816  32.393  29.498  1.00  0.00    -0.014 A 
BRANCH  32  33
ATOM     33  C   UNL A   1      38.137  31.901  29.966  1.00  0.00     0.031 A 
ATOM     34  C   UNL A   1      38.684  30.595  29.452  1.00  0.00     0.074 A 
ATOM     35  C   UNL A   1      38.831  32.604  30.882  1.00  0.00     0.049 A 
ATOM     36  N   UNL A   1      39.801  29.985  29.764  1.00  0.00    -0.248 NA
ATOM     37  C   UNL A   1      37.856  29.864  28.478  1.00  0.00     0.031 C 
ATOM     38  C   UNL A   1      38.402  33.867  31.486  1.00  0.00     0.029 A 
ATOM     39  N   UNL A   1      40.049  32.353  31.464  1.00  0.00    -0.354 N 
ATOM     40  C   UNL A   1      39.799  28.799  29.040  1.00  0.00     0.074 A 
ATOM     41  C   UNL A   1      38.547  28.746  28.320  1.00  0.00     0.031 C 
ATOM     42  C   UNL A   1      39.357  34.297  32.328  1.00  0.00     0.029 A 
ATOM     43  C   UNL A   1      40.444  33.323  32.355  1.00  0.00     0.049 A 
ATOM     44  H   UNL A   1      40.588  31.555  31.263  1.00  0.00     0.167 HD
ATOM     45  C   UNL A   1      40.761  27.849  28.962  1.00  0.00     0.031 A 
ATOM     46  C   UNL A   1      41.554  33.416  33.111  1.00  0.00     0.031 A 
ATOM     47  C   UNL A   1      42.012  27.904  29.670  1.00  0.00     0.049 A 
ATOM     48  C   UNL A   1      42.599  32.339  33.020  1.00  0.00     0.074 A 
ATOM     49  C   UNL A   1      43.072  27.015  29.618  1.00  0.00     0.029 A 
ATOM     50  N   UNL A   1      42.371  28.903  30.562  1.00  0.00    -0.354 N 
ATOM     51  N   UNL A   1      42.611  31.256  32.281  1.00  0.00    -0.248 NA
ATOM     52  C   UNL A   1      43.793  32.506  33.861  1.00  0.00     0.031 C 
ATOM     53  C   UNL A   1      44.050  27.447  30.520  1.00  0.00     0.029 A 
ATOM     54  C   UNL A   1      43.627  28.640  31.083  1.00  0.00     0.049 A 
ATOM     55  H   UNL A   1      41.817  29.684  30.789  1.00  0.00     0.167 HD
ATOM     56  C   UNL A   1      43.826  30.635  32.539  1.00  0.00     0.074 A 
ATOM     57  C   UNL A   1      44.530  31.467  33.492  1.00  0.00     0.031 C 
ATOM     58  C   UNL A   1      44.317  29.479  32.029  1.00  0.00     0.031 A 
BRANCH  45  59
ATOM     59  C   UNL A   1      40.490  26.659  28.081  1.00  0.00    -0.014 A 
ATOM     60  C   UNL A   1      40.986  26.597  26.768  1.00  0.00     0.009 A 
ATOM     61  C   UNL A   1      39.753  25.574  28.579  1.00  0.00     0.009 A 
ATOM     62  C   UNL A   1      40.714  25.490  25.961  1.00  0.00     0.001 A 
ATOM     63  C   UNL A   1      39.511  24.454  27.780  1.00  0.00     0.001 A 
ATOM     64  C   UNL A   1      39.982  24.418  26.469  1.00  0.00     0.000 A 
ENDBRANCH  45  59
BRANCH  46  65
ATOM     65  C   UNL A   1      41.749  34.586  34.009  1.00  0.00    -0.014 A 
ATOM     66  C   UNL A   1      41.279  34.555  35.332  1.00  0.00     0.009 A 
ATOM     67  C   UNL A   1      42.392  35.744  33.546  1.00  0.00     0.009 A 
ATOM     68  C   UNL A   1      41.420  35.672  36.160  1.00  0.00     0.001 A 
ATOM     69  C   UNL A   1      42.560  36.846  34.386  1.00  0.00     0.001 A 
ATOM     70  C   UNL A   1      42.064  36.814  35.688  1.00  0.00     0.000 A 
ENDBRANCH  46  65
BRANCH  58  71
ATOM     71  C   UNL A   1      45.702  29.070  32.452  1.00  0.00    -0.014 A 
ATOM     72  C   UNL A   1      46.842  29.512  31.763  1.00  0.00     0.009 A 
ATOM     73  C   UNL A   1      45.866  28.256  33.584  1.00  0.00     0.009 A 
ATOM     74  C   UNL A   1      48.115  29.115  32.178  1.00  0.00     0.001 A 
ATOM     75  C   UNL A   1      47.141  27.888  34.016  1.00  0.00     0.001 A 
ATOM     76  C   UNL A   1      48.264  28.309  33.306  1.00  0.00     0.000 A 
ENDBRANCH  58  71
ENDBRANCH  32  33
ENDBRANCH  24  27
ENDBRANCH  22  23
ENDBRANCH   1  22
TORSDOF 12
ENDMDL
MODEL 2
REMARK VINA RESULT:     -10.7      2.446      7.031
REMARK SMILES O=C(C[C@@H]1C(=O)NC(=S)N1c1ccccc1)NCCCNC(=O)c1ccc(-c2c3nc(c(-c4ccccc4)c4ccc([nH]4)c(-c4ccccc4)c4nc(c(-c5ccccc5)c5ccc2[nH]5)C=C4)C=C3)cc1
REMARK SMILES IDX 19 1 18 2 17 3 1 4 2 5 3 7 4 8 5 9 10 10 6 11 7 12 8 13 9 15
REMARK SMILES IDX 11 16 12 17 16 18 13 19 15 20 14 21 20 22 21 23 22 24 23 26
REMARK SMILES IDX 24 27 25 28 71 29 26 30 70 31 27 32 28 33 29 34 64 35 30 36
REMARK SMILES IDX 69 37 63 38 65 39 31 40 68 41 62 42 61 43 32 45 54 46 39 47
REMARK SMILES IDX 53 48 40 49 43 50 52 51 66 52 41 53 42 54 51 56 67 57 44 58
REMARK SMILES IDX 33 59 34 60 38 61 35 62 37 63 36 64 55 65 56 66 60 67 57 68
REMARK SMILES IDX 59 69 58 70 45 71 46 72 50 73 47 74 49 75 48 76
REMARK H PARENT 17 6 7 14 21 25 65 44 43 55
REMARK Flexibility Score: inf
ROOT
ATOM      1  C   UNL A   1      33.749  28.143  25.801  1.00  0.00     0.042 C 
ENDROOT
BRANCH   1   2
ATOM      2  C   UNL A   1      32.811  27.070  25.267  1.00  0.00     0.117 C 
BRANCH   2   3
ATOM      3  N   UNL A   1      33.523  25.911  24.756  1.00  0.00    -0.356 N 
ATOM      4  O   UNL A   1      32.320  25.789  22.814  1.00  0.00    -0.275 OA
ATOM      5  C   UNL A   1      33.256  25.404  23.510  1.00  0.00     0.222 C 
ATOM      6  H   UNL A   1      34.210  25.482  25.315  1.00  0.00     0.163 HD
BRANCH   5   7
ATOM      7  C   UNL A   1      34.120  24.249  23.052  1.00  0.00     0.135 C 
BRANCH   7   8
ATOM      8  C   UNL A   1      33.888  22.876  23.669  1.00  0.00     0.188 C 
ATOM      9  C   UNL A   1      32.415  22.510  23.867  1.00  0.00     0.249 C 
ATOM     10  N   UNL A   1      34.372  22.721  25.048  1.00  0.00    -0.306 N 
ATOM     11  O   UNL A   1      31.586  22.356  22.984  1.00  0.00    -0.272 OA
ATOM     12  N   UNL A   1      32.172  22.326  25.187  1.00  0.00    -0.301 N 
ATOM     13  C   UNL A   1      33.316  22.413  25.920  1.00  0.00     0.180 C 
ATOM     14  H   UNL A   1      31.282  22.152  25.569  1.00  0.00     0.172 HD
ATOM     15  S   UNL A   1      33.296  22.214  27.569  1.00  0.00    -0.040 S 
BRANCH  10  16
ATOM     16  C   UNL A   1      35.755  22.669  25.365  1.00  0.00     0.044 A 
ATOM     17  C   UNL A   1      36.405  23.792  25.893  1.00  0.00     0.026 A 
ATOM     18  C   UNL A   1      36.507  21.513  25.130  1.00  0.00     0.026 A 
ATOM     19  C   UNL A   1      37.778  23.766  26.157  1.00  0.00     0.002 A 
ATOM     20  C   UNL A   1      37.884  21.493  25.376  1.00  0.00     0.002 A 
ATOM     21  C   UNL A   1      38.520  22.619  25.888  1.00  0.00     0.000 A 
ENDBRANCH  10  16
ENDBRANCH   7   8
ENDBRANCH   5   7
ENDBRANCH   2   3
ENDBRANCH   1   2
BRANCH   1  22
ATOM     22  C   UNL A   1      33.598  28.427  27.290  1.00  0.00     0.118 C 
BRANCH  22  23
ATOM     23  N   UNL A   1      33.556  29.848  27.604  1.00  0.00    -0.352 N 
ATOM     24  C   UNL A   1      34.507  30.662  28.168  1.00  0.00     0.251 C 
ATOM     25  H   UNL A   1      32.710  30.297  27.375  1.00  0.00     0.163 HD
ATOM     26  O   UNL A   1      34.212  31.814  28.478  1.00  0.00    -0.269 OA
BRANCH  24  27
ATOM     27  C   UNL A   1      35.879  30.167  28.425  1.00  0.00     0.039 A 
ATOM     28  C   UNL A   1      36.814  30.220  27.387  1.00  0.00     0.014 A 
ATOM     29  C   UNL A   1      36.241  29.615  29.656  1.00  0.00     0.014 A 
ATOM     30  C   UNL A   1      38.119  29.766  27.598  1.00  0.00     0.010 A 
ATOM     31  C   UNL A   1      37.562  29.241  29.891  1.00  0.00     0.010 A 
ATOM     32  C   UNL A   1      38.513  29.295  28.860  1.00  0.00    -0.014 A 
BRANCH  32  33
ATOM     33  C   UNL A   1      39.901  28.826  29.107  1.00  0.00     0.031 A 
ATOM     34  C   UNL A   1      40.905  29.742  29.756  1.00  0.00     0.074 A 
ATOM     35  C   UNL A   1      40.274  27.593  28.714  1.00  0.00     0.049 A 
ATOM     36  N   UNL A   1      42.169  29.526  30.026  1.00  0.00    -0.248 NA
ATOM     37  C   UNL A   1      40.436  31.087  30.129  1.00  0.00     0.031 C 
ATOM     38  C   UNL A   1      39.411  26.618  28.044  1.00  0.00     0.029 A 
ATOM     39  N   UNL A   1      41.482  26.949  28.822  1.00  0.00    -0.354 N 
ATOM     40  C   UNL A   1      42.644  30.707  30.582  1.00  0.00     0.074 A 
ATOM     41  C   UNL A   1      41.552  31.655  30.557  1.00  0.00     0.031 C 
ATOM     42  C   UNL A   1      40.107  25.488  27.833  1.00  0.00     0.029 A 
ATOM     43  C   UNL A   1      41.474  25.673  28.312  1.00  0.00     0.049 A 
ATOM     44  H   UNL A   1      42.278  27.363  29.227  1.00  0.00     0.167 HD
ATOM     45  C   UNL A   1      43.871  30.975  31.089  1.00  0.00     0.031 A 
ATOM     46  C   UNL A   1      42.456  24.756  28.235  1.00  0.00     0.031 A 
ATOM     47  C   UNL A   1      44.957  30.032  31.122  1.00  0.00     0.049 A 
ATOM     48  C   UNL A   1      43.815  25.084  28.788  1.00  0.00     0.074 A 
ATOM     49  C   UNL A   1      46.222  30.193  31.660  1.00  0.00     0.029 A 
ATOM     50  N   UNL A   1      44.906  28.751  30.595  1.00  0.00    -0.354 N 
ATOM     51  N   UNL A   1      44.229  26.183  29.370  1.00  0.00    -0.248 NA
ATOM     52  C   UNL A   1      44.840  24.035  28.685  1.00  0.00     0.031 C 
ATOM     53  C   UNL A   1      46.955  29.029  31.409  1.00  0.00     0.029 A 
ATOM     54  C   UNL A   1      46.125  28.119  30.774  1.00  0.00     0.049 A 
ATOM     55  H   UNL A   1      44.120  28.350  30.159  1.00  0.00     0.167 HD
ATOM     56  C   UNL A   1      45.548  25.945  29.735  1.00  0.00     0.074 A 
ATOM     57  C   UNL A   1      45.861  24.593  29.322  1.00  0.00     0.031 C 
ATOM     58  C   UNL A   1      46.422  26.771  30.361  1.00  0.00     0.031 A 
BRANCH  45  59
ATOM     59  C   UNL A   1      44.106  32.355  31.642  1.00  0.00    -0.014 A 
ATOM     60  C   UNL A   1      44.582  33.396  30.827  1.00  0.00     0.009 A 
ATOM     61  C   UNL A   1      43.819  32.626  32.989  1.00  0.00     0.009 A 
ATOM     62  C   UNL A   1      44.806  34.666  31.361  1.00  0.00     0.001 A 
ATOM     63  C   UNL A   1      44.013  33.907  33.511  1.00  0.00     0.001 A 
ATOM     64  C   UNL A   1      44.516  34.923  32.701  1.00  0.00     0.000 A 
ENDBRANCH  45  59
BRANCH  46  65
ATOM     65  C   UNL A   1      42.188  23.424  27.627  1.00  0.00    -0.014 A 
ATOM     66  C   UNL A   1      42.470  23.189  26.272  1.00  0.00     0.009 A 
ATOM     67  C   UNL A   1      41.636  22.386  28.394  1.00  0.00     0.009 A 
ATOM     68  C   UNL A   1      42.173  21.955  25.690  1.00  0.00     0.001 A 
ATOM     69  C   UNL A   1      41.370  21.142  27.817  1.00  0.00     0.001 A 
ATOM     70  C   UNL A   1      41.628  20.932  26.464  1.00  0.00     0.000 A 
ENDBRANCH  46  65
BRANCH  58  71
ATOM     71  C   UNL A   1      47.784  26.221  30.682  1.00  0.00    -0.014 A 
ATOM     72  C   UNL A   1      48.815  26.208  29.730  1.00  0.00     0.009 A 
ATOM     73  C   UNL A   1      48.048  25.741  31.975  1.00  0.00     0.009 A 
ATOM     74  C   UNL A   1      50.070  25.689  30.056  1.00  0.00     0.001 A 
ATOM     75  C   UNL A   1      49.313  25.254  32.308  1.00  0.00     0.001 A 
ATOM     76  C   UNL A   1      50.319  25.218  31.345  1.00  0.00     0.000 A 
ENDBRANCH  58  71
ENDBRANCH  32  33
ENDBRANCH  24  27
ENDBRANCH  22  23
ENDBRANCH   1  22
TORSDOF 12
ENDMDL
MODEL 3
REMARK VINA RESULT:     -10.7      3.893      8.628
REMARK SMILES O=C(C[C@@H]1C(=O)NC(=S)N1c1ccccc1)NCCCNC(=O)c1ccc(-c2c3nc(c(-c4ccccc4)c4ccc([nH]4)c(-c4ccccc4)c4nc(c(-c5ccccc5)c5ccc2[nH]5)C=C4)C=C3)cc1
REMARK SMILES IDX 19 1 18 2 17 3 1 4 2 5 3 7 4 8 5 9 10 10 6 11 7 12 8 13 9 15
REMARK SMILES IDX 11 16 12 17 16 18 13 19 15 20 14 21 20 22 21 23 22 24 23 26
REMARK SMILES IDX 24 27 25 28 71 29 26 30 70 31 27 32 28 33 29 34 64 35 30 36
REMARK SMILES IDX 69 37 63 38 65 39 31 40 68 41 62 42 61 43 32 45 54 46 39 47
REMARK SMILES IDX 53 48 40 49 43 50 52 51 66 52 41 53 42 54 51 56 67 57 44 58
REMARK SMILES IDX 33 59 34 60 38 61 35 62 37 63 36 64 55 65 56 66 60 67 57 68
REMARK SMILES IDX 59 69 58 70 45 71 46 72 50 73 47 74 49 75 48 76
REMARK H PARENT 17 6 7 14 21 25 65 44 43 55
REMARK Flexibility Score: inf
ROOT
ATOM      1  C   UNL A   1      33.290  35.365  32.127  1.00  0.00     0.042 C 
ENDROOT
BRANCH   1   2
ATOM      2  C   UNL A   1      34.336  35.842  33.124  1.00  0.00     0.117 C 
BRANCH   2   3
ATOM      3  N   UNL A   1      35.547  35.041  33.088  1.00  0.00    -0.356 N 
ATOM      4  O   UNL A   1      34.676  33.320  34.316  1.00  0.00    -0.275 OA
ATOM      5  C   UNL A   1      35.589  33.786  33.640  1.00  0.00     0.222 C 
ATOM      6  H   UNL A   1      36.355  35.407  32.660  1.00  0.00     0.163 HD
BRANCH   5   7
ATOM      7  C   UNL A   1      36.879  33.014  33.465  1.00  0.00     0.135 C 
BRANCH   7   8
ATOM      8  C   UNL A   1      37.417  32.218  34.646  1.00  0.00     0.188 C 
ATOM      9  C   UNL A   1      37.891  33.072  35.824  1.00  0.00     0.249 C 
ATOM     10  N   UNL A   1      38.646  31.457  34.378  1.00  0.00    -0.306 N 
ATOM     11  O   UNL A   1      37.193  33.799  36.515  1.00  0.00    -0.272 OA
ATOM     12  N   UNL A   1      39.214  32.860  36.029  1.00  0.00    -0.301 N 
ATOM     13  C   UNL A   1      39.693  31.885  35.210  1.00  0.00     0.180 C 
ATOM     14  H   UNL A   1      39.759  33.348  36.687  1.00  0.00     0.172 HD
ATOM     15  S   UNL A   1      41.288  31.423  35.266  1.00  0.00    -0.040 S 
BRANCH  10  16
ATOM     16  C   UNL A   1      38.659  30.305  33.549  1.00  0.00     0.044 A 
ATOM     17  C   UNL A   1      37.479  29.854  32.942  1.00  0.00     0.026 A 
ATOM     18  C   UNL A   1      39.835  29.575  33.343  1.00  0.00     0.026 A 
ATOM     19  C   UNL A   1      37.472  28.690  32.168  1.00  0.00     0.002 A 
ATOM     20  C   UNL A   1      39.824  28.400  32.585  1.00  0.00     0.002 A 
ATOM     21  C   UNL A   1      38.643  27.956  31.999  1.00  0.00     0.000 A 
ENDBRANCH  10  16
ENDBRANCH   7   8
ENDBRANCH   5   7
ENDBRANCH   2   3
ENDBRANCH   1   2
BRANCH   1  22
ATOM     22  C   UNL A   1      33.321  36.091  30.788  1.00  0.00     0.118 C 
BRANCH  22  23
ATOM     23  N   UNL A   1      32.709  35.332  29.707  1.00  0.00    -0.352 N 
ATOM     24  C   UNL A   1      33.227  34.340  28.912  1.00  0.00     0.251 C 
ATOM     25  H   UNL A   1      31.771  35.568  29.515  1.00  0.00     0.163 HD
ATOM     26  O   UNL A   1      32.576  33.927  27.956  1.00  0.00    -0.269 OA
BRANCH  24  27
ATOM     27  C   UNL A   1      34.569  33.773  29.179  1.00  0.00     0.039 A 
ATOM     28  C   UNL A   1      34.676  32.704  30.075  1.00  0.00     0.014 A 
ATOM     29  C   UNL A   1      35.720  34.305  28.595  1.00  0.00     0.014 A 
ATOM     30  C   UNL A   1      35.927  32.143  30.346  1.00  0.00     0.010 A 
ATOM     31  C   UNL A   1      36.954  33.691  28.800  1.00  0.00     0.010 A 
ATOM     32  C   UNL A   1      37.075  32.614  29.691  1.00  0.00    -0.014 A 
BRANCH  32  33
ATOM     33  C   UNL A   1      38.410  32.015  29.953  1.00  0.00     0.031 A 
ATOM     34  C   UNL A   1      39.432  32.769  30.761  1.00  0.00     0.074 A 
ATOM     35  C   UNL A   1      38.721  30.811  29.434  1.00  0.00     0.049 A 
ATOM     36  N   UNL A   1      40.659  32.428  31.070  1.00  0.00    -0.248 NA
ATOM     37  C   UNL A   1      39.035  34.094  31.268  1.00  0.00     0.031 C 
ATOM     38  C   UNL A   1      37.836  29.989  28.606  1.00  0.00     0.029 A 
ATOM     39  N   UNL A   1      39.872  30.069  29.528  1.00  0.00    -0.354 N 
ATOM     40  C   UNL A   1      41.179  33.497  31.789  1.00  0.00     0.074 A 
ATOM     41  C   UNL A   1      40.159  34.521  31.821  1.00  0.00     0.031 C 
ATOM     42  C   UNL A   1      38.464  28.843  28.298  1.00  0.00     0.029 A 
ATOM     43  C   UNL A   1      39.807  28.866  28.868  1.00  0.00     0.049 A 
ATOM     44  H   UNL A   1      40.668  30.371  30.022  1.00  0.00     0.167 HD
ATOM     45  C   UNL A   1      42.387  33.610  32.390  1.00  0.00     0.031 A 
ATOM     46  C   UNL A   1      40.726  27.891  28.734  1.00  0.00     0.031 A 
ATOM     47  C   UNL A   1      43.401  32.589  32.368  1.00  0.00     0.049 A 
ATOM     48  C   UNL A   1      42.068  28.048  29.395  1.00  0.00     0.074 A 
ATOM     49  C   UNL A   1      44.638  32.590  32.989  1.00  0.00     0.029 A 
ATOM     50  N   UNL A   1      43.294  31.386  31.688  1.00  0.00    -0.354 N 
ATOM     51  N   UNL A   1      42.520  29.038  30.127  1.00  0.00    -0.248 NA
ATOM     52  C   UNL A   1      43.023  26.944  29.221  1.00  0.00     0.031 C 
ATOM     53  C   UNL A   1      45.304  31.410  32.638  1.00  0.00     0.029 A 
ATOM     54  C   UNL A   1      44.454  30.647  31.855  1.00  0.00     0.049 A 
ATOM     55  H   UNL A   1      42.512  31.100  31.165  1.00  0.00     0.167 HD
ATOM     56  C   UNL A   1      43.794  28.659  30.531  1.00  0.00     0.074 A 
ATOM     57  C   UNL A   1      44.038  27.344  29.974  1.00  0.00     0.031 C 
ATOM     58  C   UNL A   1      44.682  29.338  31.298  1.00  0.00     0.031 A 
BRANCH  45  59
ATOM     59  C   UNL A   1      42.682  34.894  33.118  1.00  0.00    -0.014 A 
ATOM     60  C   UNL A   1      42.351  35.056  34.473  1.00  0.00     0.009 A 
ATOM     61  C   UNL A   1      43.325  35.946  32.447  1.00  0.00     0.009 A 
ATOM     62  C   UNL A   1      42.621  36.259  35.129  1.00  0.00     0.001 A 
ATOM     63  C   UNL A   1      43.623  37.136  33.115  1.00  0.00     0.001 A 
ATOM     64  C   UNL A   1      43.261  37.296  34.451  1.00  0.00     0.000 A 
ENDBRANCH  45  59
BRANCH  46  65
ATOM     65  C   UNL A   1      40.406  26.664  27.956  1.00  0.00    -0.014 A 
ATOM     66  C   UNL A   1      39.681  25.616  28.545  1.00  0.00     0.009 A 
ATOM     67  C   UNL A   1      40.837  26.526  26.628  1.00  0.00     0.009 A 
ATOM     68  C   UNL A   1      39.422  24.444  27.830  1.00  0.00     0.001 A 
ATOM     69  C   UNL A   1      40.549  25.367  25.905  1.00  0.00     0.001 A 
ATOM     70  C   UNL A   1      39.853  24.323  26.510  1.00  0.00     0.000 A 
ENDBRANCH  46  65
BRANCH  58  71
ATOM     71  C   UNL A   1      45.980  28.651  31.623  1.00  0.00    -0.014 A 
ATOM     72  C   UNL A   1      46.112  27.822  32.748  1.00  0.00     0.009 A 
ATOM     73  C   UNL A   1      47.080  28.812  30.766  1.00  0.00     0.009 A 
ATOM     74  C   UNL A   1      47.331  27.199  33.026  1.00  0.00     0.001 A 
ATOM     75  C   UNL A   1      48.287  28.162  31.028  1.00  0.00     0.001 A 
ATOM     76  C   UNL A   1      48.414  27.365  32.164  1.00  0.00     0.000 A 
ENDBRANCH  58  71
ENDBRANCH  32  33
ENDBRANCH  24  27
ENDBRANCH  22  23
ENDBRANCH   1  22
TORSDOF 12
ENDMDL
