MODEL 1
REMARK VINA RESULT:     -12.3      0.000      0.000
REMARK SMILES Cc1nc2cc(S(=O)(=O)N3CCC(C(=O)NCCCNC(=O)c4ccc(-c5c6nc(c(-c7ccccc7)c7ccc([nH]7)c(-c7ccccc7)c7nc(c(-c8ccccc8)c8ccc5[nH]8)C=C7)C=C6)cc4)CC3)ccc2n1C1CCCC1
REMARK SMILES IDX 17 1 16 2 14 3 15 4 13 6 10 7 11 8 72 9 12 10 71 11 7 12
REMARK SMILES IDX 8 13 9 14 6 15 1 16 2 17 3 18 76 19 4 20 75 21 5 22 74 23
REMARK SMILES IDX 73 24 77 25 78 26 81 27 79 28 80 29 18 30 19 31 20 32 21 33
REMARK SMILES IDX 22 35 23 36 24 37 70 38 25 39 69 40 26 41 27 42 28 43 63 44
REMARK SMILES IDX 29 45 68 46 62 47 64 48 30 49 67 50 61 51 60 52 31 54 53 55
REMARK SMILES IDX 38 56 52 57 39 58 42 59 51 60 65 61 40 62 41 63 50 65 66 66
REMARK SMILES IDX 43 67 32 68 33 69 37 70 34 71 36 72 35 73 54 74 55 75 59 76
REMARK SMILES IDX 56 77 58 78 57 79 44 80 45 81 49 82 46 83 48 84 47 85
REMARK H PARENT 16 5 20 34 64 53 42 64
REMARK Flexibility Score: inf
ROOT
ATOM      1  C   UNL A   1      31.519  29.775  25.985  1.00  0.00     0.117 C 
ENDROOT
BRANCH   1   2
ATOM      2  N   UNL A   1      31.205  29.878  24.565  1.00  0.00    -0.356 N 
ATOM      3  C   UNL A   1      31.457  29.041  23.523  1.00  0.00     0.223 C 
ATOM      4  O   UNL A   1      31.096  29.387  22.396  1.00  0.00    -0.275 OA
ATOM      5  H   UNL A   1      30.727  30.702  24.314  1.00  0.00     0.163 HD
BRANCH   3   6
ATOM      6  C   UNL A   1      32.147  27.705  23.736  1.00  0.00     0.081 C 
ATOM      7  N   UNL A   1      32.586  24.946  22.965  1.00  0.00    -0.198 NA
ATOM      8  C   UNL A   1      31.692  25.230  24.114  1.00  0.00     0.103 C 
ATOM      9  C   UNL A   1      33.562  25.967  22.516  1.00  0.00     0.103 C 
ATOM     10  C   UNL A   1      31.132  26.633  24.108  1.00  0.00     0.030 C 
ATOM     11  C   UNL A   1      33.032  27.382  22.538  1.00  0.00     0.030 C 
BRANCH   7  12
ATOM     12  S   UNL A   1      33.199  23.332  22.942  1.00  0.00     0.243 S 
ATOM     13  O   UNL A   1      33.641  23.060  21.584  1.00  0.00    -0.207 OA
ATOM     14  O   UNL A   1      32.238  22.491  23.611  1.00  0.00    -0.207 OA
BRANCH  12  15
ATOM     15  C   UNL A   1      34.666  23.350  23.959  1.00  0.00     0.085 A 
ATOM     16  C   UNL A   1      39.766  21.045  26.047  1.00  0.00     0.088 C 
ATOM     17  C   UNL A   1      38.561  21.801  25.620  1.00  0.00     0.106 A 
ATOM     18  N   UNL A   1      37.742  21.380  24.673  1.00  0.00    -0.233 NA
ATOM     19  N   UNL A   1      38.119  22.995  26.157  1.00  0.00    -0.325 N 
ATOM     20  C   UNL A   1      36.723  22.287  24.611  1.00  0.00     0.090 A 
ATOM     21  C   UNL A   1      36.926  23.305  25.535  1.00  0.00     0.068 A 
ATOM     22  C   UNL A   1      35.577  22.297  23.799  1.00  0.00     0.052 A 
ATOM     23  C   UNL A   1      36.027  24.353  25.705  1.00  0.00     0.030 A 
ATOM     24  C   UNL A   1      34.903  24.357  24.896  1.00  0.00     0.024 A 
BRANCH  19  25
ATOM     25  C   UNL A   1      38.728  23.780  27.216  1.00  0.00     0.089 C 
ATOM     26  C   UNL A   1      40.119  23.306  27.656  1.00  0.00     0.025 C 
ATOM     27  C   UNL A   1      38.920  25.257  26.857  1.00  0.00     0.025 C 
ATOM     28  C   UNL A   1      40.733  24.518  28.340  1.00  0.00     0.002 C 
ATOM     29  C   UNL A   1      40.081  25.748  27.715  1.00  0.00     0.002 C 
ENDBRANCH  19  25
ENDBRANCH  12  15
ENDBRANCH   7  12
ENDBRANCH   3   6
ENDBRANCH   1   2
BRANCH   1  30
ATOM     30  C   UNL A   1      32.334  30.964  26.484  1.00  0.00     0.042 C 
BRANCH  30  31
ATOM     31  C   UNL A   1      33.687  30.564  27.064  1.00  0.00     0.118 C 
BRANCH  31  32
ATOM     32  N   UNL A   1      34.010  31.263  28.289  1.00  0.00    -0.352 N 
ATOM     33  C   UNL A   1      35.162  31.538  28.963  1.00  0.00     0.251 C 
ATOM     34  H   UNL A   1      33.212  31.622  28.741  1.00  0.00     0.163 HD
ATOM     35  O   UNL A   1      35.044  32.257  29.959  1.00  0.00    -0.269 OA
BRANCH  33  36
ATOM     36  C   UNL A   1      36.497  30.971  28.648  1.00  0.00     0.039 A 
ATOM     37  C   UNL A   1      36.740  29.720  28.080  1.00  0.00     0.014 A 
ATOM     38  C   UNL A   1      37.590  31.735  29.099  1.00  0.00     0.014 A 
ATOM     39  C   UNL A   1      38.012  29.166  28.141  1.00  0.00     0.010 A 
ATOM     40  C   UNL A   1      38.866  31.202  29.130  1.00  0.00     0.010 A 
ATOM     41  C   UNL A   1      39.048  29.883  28.743  1.00  0.00    -0.014 A 
BRANCH  41  42
ATOM     42  C   UNL A   1      40.329  29.221  28.928  1.00  0.00     0.031 A 
ATOM     43  C   UNL A   1      40.615  28.799  30.325  1.00  0.00     0.074 A 
ATOM     44  C   UNL A   1      41.155  28.951  27.897  1.00  0.00     0.049 A 
ATOM     45  N   UNL A   1      41.580  29.191  31.089  1.00  0.00    -0.248 NA
ATOM     46  C   UNL A   1      39.635  27.929  30.993  1.00  0.00     0.031 C 
ATOM     47  C   UNL A   1      40.905  29.080  26.458  1.00  0.00     0.029 A 
ATOM     48  N   UNL A   1      42.394  28.394  27.933  1.00  0.00    -0.354 N 
ATOM     49  C   UNL A   1      41.422  28.513  32.294  1.00  0.00     0.074 A 
ATOM     50  C   UNL A   1      40.145  27.846  32.221  1.00  0.00     0.031 C 
ATOM     51  C   UNL A   1      41.840  28.378  25.776  1.00  0.00     0.029 A 
ATOM     52  C   UNL A   1      42.837  27.896  26.715  1.00  0.00     0.049 A 
ATOM     53  H   UNL A   1      42.934  28.347  28.755  1.00  0.00     0.167 HD
ATOM     54  C   UNL A   1      42.429  28.407  33.203  1.00  0.00     0.031 A 
ATOM     55  C   UNL A   1      43.912  27.091  26.518  1.00  0.00     0.031 A 
ATOM     56  C   UNL A   1      43.465  29.376  32.968  1.00  0.00     0.049 A 
ATOM     57  C   UNL A   1      44.799  27.251  27.695  1.00  0.00     0.074 A 
ATOM     58  C   UNL A   1      43.524  30.754  33.026  1.00  0.00     0.029 A 
ATOM     59  N   UNL A   1      44.554  28.981  32.228  1.00  0.00    -0.354 N 
ATOM     60  N   UNL A   1      45.415  28.363  27.978  1.00  0.00    -0.248 NA
ATOM     61  C   UNL A   1      44.612  26.335  28.810  1.00  0.00     0.031 C 
ATOM     62  C   UNL A   1      44.330  31.128  31.914  1.00  0.00     0.029 A 
ATOM     63  C   UNL A   1      44.787  29.961  31.296  1.00  0.00     0.049 A 
ATOM     64  H   UNL A   1      45.069  28.151  32.344  1.00  0.00     0.167 HD
ATOM     65  C   UNL A   1      45.299  28.490  29.354  1.00  0.00     0.074 A 
ATOM     66  C   UNL A   1      44.862  27.173  29.820  1.00  0.00     0.031 C 
ATOM     67  C   UNL A   1      45.287  29.713  29.961  1.00  0.00     0.031 A 
BRANCH  54  68
ATOM     68  C   UNL A   1      42.625  27.219  34.103  1.00  0.00    -0.014 A 
ATOM     69  C   UNL A   1      41.745  26.904  35.156  1.00  0.00     0.009 A 
ATOM     70  C   UNL A   1      43.558  26.230  33.742  1.00  0.00     0.009 A 
ATOM     71  C   UNL A   1      41.781  25.669  35.810  1.00  0.00     0.001 A 
ATOM     72  C   UNL A   1      43.571  24.977  34.369  1.00  0.00     0.001 A 
ATOM     73  C   UNL A   1      42.679  24.696  35.399  1.00  0.00     0.000 A 
ENDBRANCH  54  68
BRANCH  55  74
ATOM     74  C   UNL A   1      43.959  25.874  25.669  1.00  0.00    -0.014 A 
ATOM     75  C   UNL A   1      42.827  25.042  25.574  1.00  0.00     0.009 A 
ATOM     76  C   UNL A   1      45.183  25.363  25.206  1.00  0.00     0.009 A 
ATOM     77  C   UNL A   1      42.919  23.737  25.077  1.00  0.00     0.001 A 
ATOM     78  C   UNL A   1      45.275  24.056  24.705  1.00  0.00     0.001 A 
ATOM     79  C   UNL A   1      44.147  23.238  24.658  1.00  0.00     0.000 A 
ENDBRANCH  55  74
BRANCH  67  80
ATOM     80  C   UNL A   1      45.560  30.942  29.118  1.00  0.00    -0.014 A 
ATOM     81  C   UNL A   1      46.814  31.561  29.241  1.00  0.00     0.009 A 
ATOM     82  C   UNL A   1      44.561  31.613  28.389  1.00  0.00     0.009 A 
ATOM     83  C   UNL A   1      47.056  32.816  28.680  1.00  0.00     0.001 A 
ATOM     84  C   UNL A   1      44.812  32.861  27.804  1.00  0.00     0.001 A 
ATOM     85  C   UNL A   1      46.055  33.467  27.963  1.00  0.00     0.000 A 
ENDBRANCH  67  80
ENDBRANCH  41  42
ENDBRANCH  33  36
ENDBRANCH  31  32
ENDBRANCH  30  31
ENDBRANCH   1  30
TORSDOF 13
ENDMDL
MODEL 2
REMARK VINA RESULT:     -12.3      2.085      3.466
REMARK SMILES Cc1nc2cc(S(=O)(=O)N3CCC(C(=O)NCCCNC(=O)c4ccc(-c5c6nc(c(-c7ccccc7)c7ccc([nH]7)c(-c7ccccc7)c7nc(c(-c8ccccc8)c8ccc5[nH]8)C=C7)C=C6)cc4)CC3)ccc2n1C1CCCC1
REMARK SMILES IDX 17 1 16 2 14 3 15 4 13 6 10 7 11 8 72 9 12 10 71 11 7 12
REMARK SMILES IDX 8 13 9 14 6 15 1 16 2 17 3 18 76 19 4 20 75 21 5 22 74 23
REMARK SMILES IDX 73 24 77 25 78 26 81 27 79 28 80 29 18 30 19 31 20 32 21 33
REMARK SMILES IDX 22 35 23 36 24 37 70 38 25 39 69 40 26 41 27 42 28 43 63 44
REMARK SMILES IDX 29 45 68 46 62 47 64 48 30 49 67 50 61 51 60 52 31 54 53 55
REMARK SMILES IDX 38 56 52 57 39 58 42 59 51 60 65 61 40 62 41 63 50 65 66 66
REMARK SMILES IDX 43 67 32 68 33 69 37 70 34 71 36 72 35 73 54 74 55 75 59 76
REMARK SMILES IDX 56 77 58 78 57 79 44 80 45 81 49 82 46 83 48 84 47 85
REMARK H PARENT 16 5 20 34 64 53 42 64
REMARK Flexibility Score: inf
ROOT
ATOM      1  C   UNL A   1      35.079  29.625  27.829  1.00  0.00     0.117 C 
ENDROOT
BRANCH   1   2
ATOM      2  N   UNL A   1      33.674  29.981  27.673  1.00  0.00    -0.356 N 
ATOM      3  C   UNL A   1      32.706  29.491  26.853  1.00  0.00     0.223 C 
ATOM      4  O   UNL A   1      31.583  29.997  26.908  1.00  0.00    -0.275 OA
ATOM      5  H   UNL A   1      33.371  30.707  28.266  1.00  0.00     0.163 HD
BRANCH   3   6
ATOM      6  C   UNL A   1      32.986  28.340  25.904  1.00  0.00     0.081 C 
ATOM      7  N   UNL A   1      32.472  26.941  23.418  1.00  0.00    -0.198 NA
ATOM      8  C   UNL A   1      31.867  26.419  24.667  1.00  0.00     0.103 C 
ATOM      9  C   UNL A   1      33.639  27.853  23.486  1.00  0.00     0.103 C 
ATOM     10  C   UNL A   1      31.757  27.453  25.762  1.00  0.00     0.030 C 
ATOM     11  C   UNL A   1      33.564  28.872  24.599  1.00  0.00     0.030 C 
BRANCH   7  12
ATOM     12  S   UNL A   1      32.565  25.776  22.147  1.00  0.00     0.243 S 
ATOM     13  O   UNL A   1      33.654  26.179  21.274  1.00  0.00    -0.207 OA
ATOM     14  O   UNL A   1      31.228  25.569  21.649  1.00  0.00    -0.207 OA
BRANCH  12  15
ATOM     15  C   UNL A   1      33.071  24.249  22.919  1.00  0.00     0.085 A 
ATOM     16  C   UNL A   1      37.119  20.429  25.089  1.00  0.00     0.088 C 
ATOM     17  C   UNL A   1      35.966  21.256  24.647  1.00  0.00     0.106 A 
ATOM     18  N   UNL A   1      36.096  22.484  24.178  1.00  0.00    -0.233 NA
ATOM     19  N   UNL A   1      34.643  20.861  24.631  1.00  0.00    -0.325 N 
ATOM     20  C   UNL A   1      34.846  22.891  23.808  1.00  0.00     0.090 A 
ATOM     21  C   UNL A   1      33.917  21.892  24.072  1.00  0.00     0.068 A 
ATOM     22  C   UNL A   1      34.431  24.098  23.223  1.00  0.00     0.052 A 
ATOM     23  C   UNL A   1      32.565  22.029  23.770  1.00  0.00     0.030 A 
ATOM     24  C   UNL A   1      32.164  23.225  23.198  1.00  0.00     0.024 A 
BRANCH  19  25
ATOM     25  C   UNL A   1      34.083  19.590  25.057  1.00  0.00     0.089 C 
ATOM     26  C   UNL A   1      32.555  19.491  24.962  1.00  0.00     0.025 C 
ATOM     27  C   UNL A   1      34.597  18.389  24.257  1.00  0.00     0.025 C 
ATOM     28  C   UNL A   1      32.273  17.997  24.946  1.00  0.00     0.002 C 
ATOM     29  C   UNL A   1      33.508  17.327  24.352  1.00  0.00     0.002 C 
ENDBRANCH  19  25
ENDBRANCH  12  15
ENDBRANCH   7  12
ENDBRANCH   3   6
ENDBRANCH   1   2
BRANCH   1  30
ATOM     30  C   UNL A   1      35.979  30.854  27.914  1.00  0.00     0.042 C 
BRANCH  30  31
ATOM     31  C   UNL A   1      35.204  32.156  28.098  1.00  0.00     0.118 C 
BRANCH  31  32
ATOM     32  N   UNL A   1      34.832  32.406  29.474  1.00  0.00    -0.352 N 
ATOM     33  C   UNL A   1      35.432  32.212  30.681  1.00  0.00     0.251 C 
ATOM     34  H   UNL A   1      33.938  32.810  29.555  1.00  0.00     0.163 HD
ATOM     35  O   UNL A   1      34.821  32.646  31.661  1.00  0.00    -0.269 OA
BRANCH  33  36
ATOM     36  C   UNL A   1      36.686  31.450  30.904  1.00  0.00     0.039 A 
ATOM     37  C   UNL A   1      37.982  31.950  30.766  1.00  0.00     0.014 A 
ATOM     38  C   UNL A   1      36.513  30.073  31.143  1.00  0.00     0.014 A 
ATOM     39  C   UNL A   1      39.056  31.075  30.672  1.00  0.00     0.010 A 
ATOM     40  C   UNL A   1      37.584  29.200  31.085  1.00  0.00     0.010 A 
ATOM     41  C   UNL A   1      38.833  29.699  30.750  1.00  0.00    -0.014 A 
BRANCH  41  42
ATOM     42  C   UNL A   1      39.951  28.804  30.498  1.00  0.00     0.031 A 
ATOM     43  C   UNL A   1      40.764  28.470  31.696  1.00  0.00     0.074 A 
ATOM     44  C   UNL A   1      40.181  28.267  29.282  1.00  0.00     0.049 A 
ATOM     45  N   UNL A   1      42.014  28.722  31.902  1.00  0.00    -0.248 NA
ATOM     46  C   UNL A   1      40.068  27.895  32.858  1.00  0.00     0.031 C 
ATOM     47  C   UNL A   1      39.338  28.304  28.083  1.00  0.00     0.029 A 
ATOM     48  N   UNL A   1      41.210  27.467  28.895  1.00  0.00    -0.354 N 
ATOM     49  C   UNL A   1      42.311  28.213  33.163  1.00  0.00     0.074 A 
ATOM     50  C   UNL A   1      41.054  27.826  33.753  1.00  0.00     0.031 C 
ATOM     51  C   UNL A   1      39.758  27.357  27.210  1.00  0.00     0.029 A 
ATOM     52  C   UNL A   1      40.986  26.771  27.715  1.00  0.00     0.049 A 
ATOM     53  H   UNL A   1      42.046  27.389  29.409  1.00  0.00     0.167 HD
ATOM     54  C   UNL A   1      43.591  27.987  33.568  1.00  0.00     0.031 A 
ATOM     55  C   UNL A   1      41.730  25.742  27.235  1.00  0.00     0.031 A 
ATOM     56  C   UNL A   1      44.543  28.688  32.751  1.00  0.00     0.049 A 
ATOM     57  C   UNL A   1      43.061  25.826  27.882  1.00  0.00     0.074 A 
ATOM     58  C   UNL A   1      44.822  30.022  32.530  1.00  0.00     0.029 A 
ATOM     59  N   UNL A   1      45.117  28.003  31.707  1.00  0.00    -0.354 N 
ATOM     60  N   UNL A   1      43.894  26.806  27.675  1.00  0.00    -0.248 NA
ATOM     61  C   UNL A   1      43.259  25.083  29.117  1.00  0.00     0.031 C 
ATOM     62  C   UNL A   1      45.094  30.108  31.135  1.00  0.00     0.029 A 
ATOM     63  C   UNL A   1      45.051  28.816  30.604  1.00  0.00     0.049 A 
ATOM     64  H   UNL A   1      45.502  27.098  31.744  1.00  0.00     0.167 HD
ATOM     65  C   UNL A   1      44.423  27.087  28.925  1.00  0.00     0.074 A 
ATOM     66  C   UNL A   1      44.052  25.944  29.761  1.00  0.00     0.031 C 
ATOM     67  C   UNL A   1      44.862  28.339  29.250  1.00  0.00     0.031 A 
BRANCH  54  68
ATOM     68  C   UNL A   1      43.991  26.878  34.501  1.00  0.00    -0.014 A 
ATOM     69  C   UNL A   1      44.172  27.070  35.884  1.00  0.00     0.009 A 
ATOM     70  C   UNL A   1      43.933  25.547  34.051  1.00  0.00     0.009 A 
ATOM     71  C   UNL A   1      44.280  25.999  36.775  1.00  0.00     0.001 A 
ATOM     72  C   UNL A   1      44.001  24.471  34.945  1.00  0.00     0.001 A 
ATOM     73  C   UNL A   1      44.170  24.698  36.307  1.00  0.00     0.000 A 
ENDBRANCH  54  68
BRANCH  55  74
ATOM     74  C   UNL A   1      41.215  24.466  26.678  1.00  0.00    -0.014 A 
ATOM     75  C   UNL A   1      39.867  24.108  26.876  1.00  0.00     0.009 A 
ATOM     76  C   UNL A   1      42.094  23.466  26.231  1.00  0.00     0.009 A 
ATOM     77  C   UNL A   1      39.423  22.797  26.678  1.00  0.00     0.001 A 
ATOM     78  C   UNL A   1      41.648  22.151  26.029  1.00  0.00     0.001 A 
ATOM     79  C   UNL A   1      40.317  21.814  26.269  1.00  0.00     0.000 A 
ENDBRANCH  55  74
BRANCH  67  80
ATOM     80  C   UNL A   1      44.907  29.395  28.165  1.00  0.00    -0.014 A 
ATOM     81  C   UNL A   1      46.155  29.713  27.606  1.00  0.00     0.009 A 
ATOM     82  C   UNL A   1      43.811  30.216  27.843  1.00  0.00     0.009 A 
ATOM     83  C   UNL A   1      46.311  30.825  26.777  1.00  0.00     0.001 A 
ATOM     84  C   UNL A   1      43.962  31.316  26.990  1.00  0.00     0.001 A 
ATOM     85  C   UNL A   1      45.216  31.628  26.470  1.00  0.00     0.000 A 
ENDBRANCH  67  80
ENDBRANCH  41  42
ENDBRANCH  33  36
ENDBRANCH  31  32
ENDBRANCH  30  31
ENDBRANCH   1  30
TORSDOF 13
ENDMDL
MODEL 3
REMARK VINA RESULT:     -12.2      3.776      9.349
REMARK SMILES Cc1nc2cc(S(=O)(=O)N3CCC(C(=O)NCCCNC(=O)c4ccc(-c5c6nc(c(-c7ccccc7)c7ccc([nH]7)c(-c7ccccc7)c7nc(c(-c8ccccc8)c8ccc5[nH]8)C=C7)C=C6)cc4)CC3)ccc2n1C1CCCC1
REMARK SMILES IDX 17 1 16 2 14 3 15 4 13 6 10 7 11 8 72 9 12 10 71 11 7 12
REMARK SMILES IDX 8 13 9 14 6 15 1 16 2 17 3 18 76 19 4 20 75 21 5 22 74 23
REMARK SMILES IDX 73 24 77 25 78 26 81 27 79 28 80 29 18 30 19 31 20 32 21 33
REMARK SMILES IDX 22 35 23 36 24 37 70 38 25 39 69 40 26 41 27 42 28 43 63 44
REMARK SMILES IDX 29 45 68 46 62 47 64 48 30 49 67 50 61 51 60 52 31 54 53 55
REMARK SMILES IDX 38 56 52 57 39 58 42 59 51 60 65 61 40 62 41 63 50 65 66 66
REMARK SMILES IDX 43 67 32 68 33 69 37 70 34 71 36 72 35 73 54 74 55 75 59 76
REMARK SMILES IDX 56 77 58 78 57 79 44 80 45 81 49 82 46 83 48 84 47 85
REMARK H PARENT 16 5 20 34 64 53 42 64
REMARK Flexibility Score: inf
ROOT
ATOM      1  C   UNL A   1      41.734  28.029  34.233  1.00  0.00     0.117 C 
ENDROOT
BRANCH   1   2
ATOM      2  N   UNL A   1      42.066  27.701  32.852  1.00  0.00    -0.356 N 
ATOM      3  C   UNL A   1      41.709  28.283  31.676  1.00  0.00     0.223 C 
ATOM      4  O   UNL A   1      42.119  27.781  30.627  1.00  0.00    -0.275 OA
ATOM      5  H   UNL A   1      42.654  26.917  32.752  1.00  0.00     0.163 HD
BRANCH   3   6
ATOM      6  C   UNL A   1      40.842  29.530  31.646  1.00  0.00     0.081 C 
ATOM      7  N   UNL A   1      38.729  31.100  30.434  1.00  0.00    -0.198 NA
ATOM      8  C   UNL A   1      40.138  31.469  30.157  1.00  0.00     0.103 C 
ATOM      9  C   UNL A   1      38.400  30.269  31.618  1.00  0.00     0.103 C 
ATOM     10  C   UNL A   1      41.113  30.339  30.384  1.00  0.00     0.030 C 
ATOM     11  C   UNL A   1      39.385  29.154  31.883  1.00  0.00     0.030 C 
BRANCH   7  12
ATOM     12  S   UNL A   1      37.602  32.375  30.138  1.00  0.00     0.243 S 
ATOM     13  O   UNL A   1      38.278  33.363  29.314  1.00  0.00    -0.207 OA
ATOM     14  O   UNL A   1      36.997  32.722  31.400  1.00  0.00    -0.207 OA
BRANCH  12  15
ATOM     15  C   UNL A   1      36.315  31.665  29.126  1.00  0.00     0.085 A 
ATOM     16  C   UNL A   1      31.072  31.785  26.265  1.00  0.00     0.088 C 
ATOM     17  C   UNL A   1      32.414  31.575  26.866  1.00  0.00     0.106 A 
ATOM     18  N   UNL A   1      33.072  32.522  27.512  1.00  0.00    -0.233 NA
ATOM     19  N   UNL A   1      33.127  30.393  26.867  1.00  0.00    -0.325 N 
ATOM     20  C   UNL A   1      34.218  31.945  27.982  1.00  0.00     0.090 A 
ATOM     21  C   UNL A   1      34.276  30.610  27.601  1.00  0.00     0.068 A 
ATOM     22  C   UNL A   1      35.249  32.498  28.757  1.00  0.00     0.052 A 
ATOM     23  C   UNL A   1      35.326  29.773  27.965  1.00  0.00     0.030 A 
ATOM     24  C   UNL A   1      36.342  30.328  28.726  1.00  0.00     0.024 A 
BRANCH  19  25
ATOM     25  C   UNL A   1      32.754  29.121  26.272  1.00  0.00     0.089 C 
ATOM     26  C   UNL A   1      33.916  28.319  25.674  1.00  0.00     0.025 C 
ATOM     27  C   UNL A   1      32.082  28.155  27.253  1.00  0.00     0.025 C 
ATOM     28  C   UNL A   1      33.395  26.891  25.607  1.00  0.00     0.002 C 
ATOM     29  C   UNL A   1      32.351  26.755  26.710  1.00  0.00     0.002 C 
ENDBRANCH  19  25
ENDBRANCH  12  15
ENDBRANCH   7  12
ENDBRANCH   3   6
ENDBRANCH   1   2
BRANCH   1  30
ATOM     30  C   UNL A   1      41.822  26.815  35.152  1.00  0.00     0.042 C 
BRANCH  30  31
ATOM     31  C   UNL A   1      42.929  26.931  36.196  1.00  0.00     0.118 C 
BRANCH  31  32
ATOM     32  N   UNL A   1      43.542  25.660  36.517  1.00  0.00    -0.352 N 
ATOM     33  C   UNL A   1      44.394  24.816  35.871  1.00  0.00     0.251 C 
ATOM     34  H   UNL A   1      43.284  25.330  37.407  1.00  0.00     0.163 HD
ATOM     35  O   UNL A   1      44.777  23.838  36.520  1.00  0.00    -0.269 OA
BRANCH  33  36
ATOM     36  C   UNL A   1      44.806  24.933  34.450  1.00  0.00     0.039 A 
ATOM     37  C   UNL A   1      45.153  26.115  33.794  1.00  0.00     0.014 A 
ATOM     38  C   UNL A   1      44.696  23.748  33.698  1.00  0.00     0.014 A 
ATOM     39  C   UNL A   1      45.193  26.151  32.406  1.00  0.00     0.010 A 
ATOM     40  C   UNL A   1      44.770  23.771  32.317  1.00  0.00     0.010 A 
ATOM     41  C   UNL A   1      44.919  24.993  31.678  1.00  0.00    -0.014 A 
BRANCH  41  42
ATOM     42  C   UNL A   1      44.819  25.094  30.231  1.00  0.00     0.031 A 
ATOM     43  C   UNL A   1      45.819  25.995  29.600  1.00  0.00     0.074 A 
ATOM     44  C   UNL A   1      43.933  24.370  29.519  1.00  0.00     0.049 A 
ATOM     45  N   UNL A   1      45.599  27.070  28.918  1.00  0.00    -0.248 NA
ATOM     46  C   UNL A   1      47.242  25.735  29.868  1.00  0.00     0.031 C 
ATOM     47  C   UNL A   1      43.066  23.274  29.966  1.00  0.00     0.029 A 
ATOM     48  N   UNL A   1      43.696  24.406  28.181  1.00  0.00    -0.354 N 
ATOM     49  C   UNL A   1      46.848  27.554  28.541  1.00  0.00     0.074 A 
ATOM     50  C   UNL A   1      47.823  26.765  29.253  1.00  0.00     0.031 C 
ATOM     51  C   UNL A   1      42.610  22.595  28.888  1.00  0.00     0.029 A 
ATOM     52  C   UNL A   1      43.014  23.302  27.686  1.00  0.00     0.049 A 
ATOM     53  H   UNL A   1      43.983  25.154  27.609  1.00  0.00     0.167 HD
ATOM     54  C   UNL A   1      47.000  28.461  27.537  1.00  0.00     0.031 A 
ATOM     55  C   UNL A   1      42.859  22.971  26.379  1.00  0.00     0.031 A 
ATOM     56  C   UNL A   1      45.764  29.125  27.224  1.00  0.00     0.049 A 
ATOM     57  C   UNL A   1      43.078  24.206  25.588  1.00  0.00     0.074 A 
ATOM     58  C   UNL A   1      44.937  29.989  27.913  1.00  0.00     0.029 A 
ATOM     59  N   UNL A   1      45.010  28.621  26.191  1.00  0.00    -0.354 N 
ATOM     60  N   UNL A   1      42.285  25.237  25.642  1.00  0.00    -0.248 NA
ATOM     61  C   UNL A   1      44.428  24.475  25.117  1.00  0.00     0.031 C 
ATOM     62  C   UNL A   1      43.617  29.573  27.574  1.00  0.00     0.029 A 
ATOM     63  C   UNL A   1      43.715  28.542  26.637  1.00  0.00     0.049 A 
ATOM     64  H   UNL A   1      45.339  28.365  25.300  1.00  0.00     0.167 HD
ATOM     65  C   UNL A   1      43.133  26.334  25.644  1.00  0.00     0.074 A 
ATOM     66  C   UNL A   1      44.437  25.805  25.242  1.00  0.00     0.031 C 
ATOM     67  C   UNL A   1      42.780  27.509  26.244  1.00  0.00     0.031 A 
BRANCH  54  68
ATOM     68  C   UNL A   1      48.195  28.510  26.626  1.00  0.00    -0.014 A 
ATOM     69  C   UNL A   1      49.339  29.281  26.906  1.00  0.00     0.009 A 
ATOM     70  C   UNL A   1      48.308  27.566  25.589  1.00  0.00     0.009 A 
ATOM     71  C   UNL A   1      50.536  29.117  26.203  1.00  0.00     0.001 A 
ATOM     72  C   UNL A   1      49.516  27.371  24.908  1.00  0.00     0.001 A 
ATOM     73  C   UNL A   1      50.631  28.144  25.219  1.00  0.00     0.000 A 
ENDBRANCH  54  68
BRANCH  55  74
ATOM     74  C   UNL A   1      43.038  21.623  25.783  1.00  0.00    -0.014 A 
ATOM     75  C   UNL A   1      42.098  20.609  26.049  1.00  0.00     0.009 A 
ATOM     76  C   UNL A   1      44.267  21.240  25.220  1.00  0.00     0.009 A 
ATOM     77  C   UNL A   1      42.387  19.262  25.803  1.00  0.00     0.001 A 
ATOM     78  C   UNL A   1      44.555  19.889  24.970  1.00  0.00     0.001 A 
ATOM     79  C   UNL A   1      43.622  18.901  25.278  1.00  0.00     0.000 A 
ENDBRANCH  55  74
BRANCH  67  80
ATOM     80  C   UNL A   1      41.371  27.654  26.779  1.00  0.00    -0.014 A 
ATOM     81  C   UNL A   1      40.681  28.846  26.506  1.00  0.00     0.009 A 
ATOM     82  C   UNL A   1      40.803  26.759  27.705  1.00  0.00     0.009 A 
ATOM     83  C   UNL A   1      39.481  29.148  27.154  1.00  0.00     0.001 A 
ATOM     84  C   UNL A   1      39.587  27.050  28.334  1.00  0.00     0.001 A 
ATOM     85  C   UNL A   1      38.935  28.252  28.068  1.00  0.00     0.000 A 
ENDBRANCH  67  80
ENDBRANCH  41  42
ENDBRANCH  33  36
ENDBRANCH  31  32
ENDBRANCH  30  31
ENDBRANCH   1  30
TORSDOF 13
ENDMDL
