MODEL 1
REMARK VINA RESULT:     -10.5      0.000      0.000
REMARK SMILES CC(C)[NH2+][C@]1(C(=O)NCCCNC(=O)c2ccc(-c3c4nc(c(-c5ccccc5)c5ccc([nH]5)c(-c5ccccc5)c5nc(c(-c6ccccc6)c6ccc3[nH]6)C=C5)C=C4)cc2)CCC[C@@H]1CCSc1cnccn1
REMARK SMILES IDX 9 1 8 2 6 3 7 4 5 6 63 7 66 8 64 9 65 10 4 11 2 14 1 15 3 16
REMARK SMILES IDX 67 17 68 18 69 19 70 20 71 21 75 22 72 23 74 24 73 25 10 26
REMARK SMILES IDX 11 27 12 28 13 29 14 31 15 32 16 33 62 34 17 35 61 36 18 37
REMARK SMILES IDX 19 38 20 39 55 40 21 41 60 42 54 43 56 44 22 45 59 46 53 47
REMARK SMILES IDX 52 48 23 50 45 51 30 52 44 53 31 54 34 55 43 56 57 57 32 58
REMARK SMILES IDX 33 59 42 61 58 62 35 63 24 64 25 65 29 66 26 67 28 68 27 69
REMARK SMILES IDX 46 70 47 71 51 72 48 73 50 74 49 75 36 76 37 77 41 78 38 79
REMARK SMILES IDX 40 80 39 81
REMARK H PARENT 8 5 4 12 4 13 12 30 56 49 34 60
REMARK Flexibility Score: inf
ROOT
ATOM      1  C   UNL A   1      33.750  26.920  25.504  1.00  0.00     0.118 C 
ENDROOT
BRANCH   1   2
ATOM      2  N   UNL A   1      32.790  26.067  26.186  1.00  0.00    -0.351 N 
ATOM      3  C   UNL A   1      32.422  24.759  26.075  1.00  0.00     0.281 C 
ATOM      4  O   UNL A   1      31.599  24.390  26.922  1.00  0.00    -0.268 OA
ATOM      5  H   UNL A   1      32.291  26.543  26.887  1.00  0.00     0.163 HD
BRANCH   3   6
ATOM      6  C   UNL A   1      32.910  23.791  24.952  1.00  0.00     0.178 C 
ATOM      7  C   UNL A   1      32.713  22.310  25.366  1.00  0.00     0.079 C 
ATOM      8  C   UNL A   1      31.936  23.834  23.713  1.00  0.00     0.061 C 
ATOM      9  C   UNL A   1      32.427  21.490  24.115  1.00  0.00     0.008 C 
ATOM     10  C   UNL A   1      32.141  22.485  23.010  1.00  0.00     0.011 C 
BRANCH   6  11
ATOM     11  N   UNL A   1      34.337  23.956  24.577  1.00  0.00    -0.331 N 
ATOM     12  H   UNL A   1      34.385  23.872  23.562  1.00  0.00     0.347 HD
ATOM     13  H   UNL A   1      34.581  24.856  24.992  1.00  0.00     0.347 HD
BRANCH  11  14
ATOM     14  C   UNL A   1      35.355  23.056  25.122  1.00  0.00     0.176 C 
ATOM     15  C   UNL A   1      36.113  22.478  23.918  1.00  0.00     0.075 C 
ATOM     16  C   UNL A   1      36.363  23.683  26.081  1.00  0.00     0.075 C 
ENDBRANCH  11  14
ENDBRANCH   6  11
BRANCH   8  17
ATOM     17  C   UNL A   1      32.061  25.013  22.729  1.00  0.00     0.022 C 
BRANCH  17  18
ATOM     18  C   UNL A   1      30.966  26.092  22.829  1.00  0.00     0.077 C 
BRANCH  18  19
ATOM     19  S   UNL A   1      31.521  27.819  22.609  1.00  0.00    -0.105 SA
BRANCH  19  20
ATOM     20  C   UNL A   1      29.970  28.653  22.436  1.00  0.00     0.114 A 
ATOM     21  C   UNL A   1      28.820  28.246  23.106  1.00  0.00     0.146 A 
ATOM     22  N   UNL A   1      29.964  29.750  21.648  1.00  0.00    -0.247 NA
ATOM     23  N   UNL A   1      27.649  28.933  23.053  1.00  0.00    -0.260 NA
ATOM     24  C   UNL A   1      28.802  30.436  21.587  1.00  0.00     0.132 A 
ATOM     25  C   UNL A   1      27.671  30.042  22.278  1.00  0.00     0.131 A 
ENDBRANCH  19  20
ENDBRANCH  18  19
ENDBRANCH  17  18
ENDBRANCH   8  17
ENDBRANCH   3   6
ENDBRANCH   1   2
BRANCH   1  26
ATOM     26  C   UNL A   1      33.636  28.402  25.847  1.00  0.00     0.042 C 
BRANCH  26  27
ATOM     27  C   UNL A   1      33.248  28.677  27.297  1.00  0.00     0.118 C 
BRANCH  27  28
ATOM     28  N   UNL A   1      33.382  30.087  27.634  1.00  0.00    -0.352 N 
ATOM     29  C   UNL A   1      34.408  30.753  28.247  1.00  0.00     0.251 C 
ATOM     30  H   UNL A   1      32.616  30.650  27.381  1.00  0.00     0.163 HD
ATOM     31  O   UNL A   1      34.209  31.895  28.681  1.00  0.00    -0.269 OA
BRANCH  29  32
ATOM     32  C   UNL A   1      35.750  30.149  28.394  1.00  0.00     0.039 A 
ATOM     33  C   UNL A   1      36.122  29.631  29.639  1.00  0.00     0.014 A 
ATOM     34  C   UNL A   1      36.684  30.187  27.355  1.00  0.00     0.014 A 
ATOM     35  C   UNL A   1      37.418  29.145  29.839  1.00  0.00     0.010 A 
ATOM     36  C   UNL A   1      37.956  29.641  27.533  1.00  0.00     0.010 A 
ATOM     37  C   UNL A   1      38.346  29.147  28.787  1.00  0.00    -0.014 A 
BRANCH  37  38
ATOM     38  C   UNL A   1      39.752  28.721  29.009  1.00  0.00     0.031 A 
ATOM     39  C   UNL A   1      40.727  29.662  29.668  1.00  0.00     0.074 A 
ATOM     40  C   UNL A   1      40.166  27.505  28.606  1.00  0.00     0.049 A 
ATOM     41  N   UNL A   1      41.999  29.490  29.927  1.00  0.00    -0.248 NA
ATOM     42  C   UNL A   1      40.208  30.982  30.066  1.00  0.00     0.031 C 
ATOM     43  C   UNL A   1      39.337  26.506  27.930  1.00  0.00     0.029 A 
ATOM     44  N   UNL A   1      41.395  26.904  28.710  1.00  0.00    -0.354 N 
ATOM     45  C   UNL A   1      42.435  30.684  30.490  1.00  0.00     0.074 A 
ATOM     46  C   UNL A   1      41.306  31.586  30.497  1.00  0.00     0.031 C 
ATOM     47  C   UNL A   1      40.074  25.406  27.704  1.00  0.00     0.029 A 
ATOM     48  C   UNL A   1      41.430  25.631  28.196  1.00  0.00     0.049 A 
ATOM     49  H   UNL A   1      42.178  27.344  29.114  1.00  0.00     0.167 HD
ATOM     50  C   UNL A   1      43.659  30.998  30.977  1.00  0.00     0.031 A 
ATOM     51  C   UNL A   1      42.439  24.742  28.136  1.00  0.00     0.031 A 
ATOM     52  C   UNL A   1      44.779  30.097  31.005  1.00  0.00     0.049 A 
ATOM     53  C   UNL A   1      43.779  25.100  28.714  1.00  0.00     0.074 A 
ATOM     54  C   UNL A   1      46.046  30.309  31.520  1.00  0.00     0.029 A 
ATOM     55  N   UNL A   1      44.760  28.806  30.504  1.00  0.00    -0.354 N 
ATOM     56  N   UNL A   1      44.161  26.217  29.285  1.00  0.00    -0.248 NA
ATOM     57  C   UNL A   1      44.822  24.066  28.658  1.00  0.00     0.031 C 
ATOM     58  C   UNL A   1      46.803  29.151  31.307  1.00  0.00     0.029 A 
ATOM     59  C   UNL A   1      45.993  28.209  30.696  1.00  0.00     0.049 A 
ATOM     60  H   UNL A   1      43.984  28.377  30.076  1.00  0.00     0.167 HD
ATOM     61  C   UNL A   1      45.475  26.007  29.685  1.00  0.00     0.074 A 
ATOM     62  C   UNL A   1      45.821  24.655  29.299  1.00  0.00     0.031 C 
ATOM     63  C   UNL A   1      46.318  26.859  30.318  1.00  0.00     0.031 A 
BRANCH  50  64
ATOM     64  C   UNL A   1      43.846  32.387  31.521  1.00  0.00    -0.014 A 
ATOM     65  C   UNL A   1      43.704  32.654  32.893  1.00  0.00     0.009 A 
ATOM     66  C   UNL A   1      44.184  33.438  30.655  1.00  0.00     0.009 A 
ATOM     67  C   UNL A   1      43.858  33.954  33.380  1.00  0.00     0.001 A 
ATOM     68  C   UNL A   1      44.365  34.732  31.150  1.00  0.00     0.001 A 
ATOM     69  C   UNL A   1      44.191  34.990  32.508  1.00  0.00     0.000 A 
ENDBRANCH  50  64
BRANCH  51  70
ATOM     70  C   UNL A   1      42.212  23.400  27.541  1.00  0.00    -0.014 A 
ATOM     71  C   UNL A   1      41.637  22.375  28.306  1.00  0.00     0.009 A 
ATOM     72  C   UNL A   1      42.571  23.138  26.211  1.00  0.00     0.009 A 
ATOM     73  C   UNL A   1      41.449  21.104  27.759  1.00  0.00     0.001 A 
ATOM     74  C   UNL A   1      42.361  21.872  25.659  1.00  0.00     0.001 A 
ATOM     75  C   UNL A   1      41.809  20.854  26.435  1.00  0.00     0.000 A 
ENDBRANCH  51  70
BRANCH  63  76
ATOM     76  C   UNL A   1      47.679  26.336  30.676  1.00  0.00    -0.014 A 
ATOM     77  C   UNL A   1      47.952  25.831  31.955  1.00  0.00     0.009 A 
ATOM     78  C   UNL A   1      48.691  26.321  29.704  1.00  0.00     0.009 A 
ATOM     79  C   UNL A   1      49.226  25.349  32.264  1.00  0.00     0.001 A 
ATOM     80  C   UNL A   1      49.956  25.817  30.009  1.00  0.00     0.001 A 
ATOM     81  C   UNL A   1      50.225  25.340  31.290  1.00  0.00     0.000 A 
ENDBRANCH  63  76
ENDBRANCH  37  38
ENDBRANCH  29  32
ENDBRANCH  27  28
ENDBRANCH  26  27
ENDBRANCH   1  26
TORSDOF 16
ENDMDL
MODEL 2
REMARK VINA RESULT:     -10.2      2.213      4.215
REMARK SMILES CC(C)[NH2+][C@]1(C(=O)NCCCNC(=O)c2ccc(-c3c4nc(c(-c5ccccc5)c5ccc([nH]5)c(-c5ccccc5)c5nc(c(-c6ccccc6)c6ccc3[nH]6)C=C5)C=C4)cc2)CCC[C@@H]1CCSc1cnccn1
REMARK SMILES IDX 9 1 8 2 6 3 7 4 5 6 63 7 66 8 64 9 65 10 4 11 2 14 1 15 3 16
REMARK SMILES IDX 67 17 68 18 69 19 70 20 71 21 75 22 72 23 74 24 73 25 10 26
REMARK SMILES IDX 11 27 12 28 13 29 14 31 15 32 16 33 62 34 17 35 61 36 18 37
REMARK SMILES IDX 19 38 20 39 55 40 21 41 60 42 54 43 56 44 22 45 59 46 53 47
REMARK SMILES IDX 52 48 23 50 45 51 30 52 44 53 31 54 34 55 43 56 57 57 32 58
REMARK SMILES IDX 33 59 42 61 58 62 35 63 24 64 25 65 29 66 26 67 28 68 27 69
REMARK SMILES IDX 46 70 47 71 51 72 48 73 50 74 49 75 36 76 37 77 41 78 38 79
REMARK SMILES IDX 40 80 39 81
REMARK H PARENT 8 5 4 12 4 13 12 30 56 49 34 60
REMARK Flexibility Score: inf
ROOT
ATOM      1  C   UNL A   1      33.072  26.662  25.956  1.00  0.00     0.118 C 
ENDROOT
BRANCH   1   2
ATOM      2  N   UNL A   1      33.311  26.150  24.617  1.00  0.00    -0.351 N 
ATOM      3  C   UNL A   1      33.629  24.930  24.099  1.00  0.00     0.281 C 
ATOM      4  O   UNL A   1      33.666  24.895  22.863  1.00  0.00    -0.268 OA
ATOM      5  H   UNL A   1      33.223  26.843  23.924  1.00  0.00     0.163 HD
BRANCH   3   6
ATOM      6  C   UNL A   1      33.997  23.673  24.950  1.00  0.00     0.178 C 
ATOM      7  C   UNL A   1      34.886  24.058  26.160  1.00  0.00     0.079 C 
ATOM      8  C   UNL A   1      32.736  23.135  25.729  1.00  0.00     0.061 C 
ATOM      9  C   UNL A   1      34.579  23.107  27.310  1.00  0.00     0.008 C 
ATOM     10  C   UNL A   1      33.316  22.367  26.924  1.00  0.00     0.011 C 
BRANCH   6  11
ATOM     11  N   UNL A   1      34.714  22.612  24.199  1.00  0.00    -0.331 N 
ATOM     12  H   UNL A   1      34.312  21.722  24.494  1.00  0.00     0.347 HD
ATOM     13  H   UNL A   1      34.585  22.893  23.226  1.00  0.00     0.347 HD
BRANCH  11  14
ATOM     14  C   UNL A   1      36.167  22.475  24.313  1.00  0.00     0.176 C 
ATOM     15  C   UNL A   1      36.434  21.036  24.775  1.00  0.00     0.075 C 
ATOM     16  C   UNL A   1      36.968  22.738  23.041  1.00  0.00     0.075 C 
ENDBRANCH  11  14
ENDBRANCH   6  11
BRANCH   8  17
ATOM     17  C   UNL A   1      31.707  22.290  24.955  1.00  0.00     0.022 C 
BRANCH  17  18
ATOM     18  C   UNL A   1      31.926  20.765  24.991  1.00  0.00     0.077 C 
BRANCH  18  19
ATOM     19  S   UNL A   1      32.373  19.982  23.401  1.00  0.00    -0.105 SA
BRANCH  19  20
ATOM     20  C   UNL A   1      32.677  18.318  23.918  1.00  0.00     0.114 A 
ATOM     21  C   UNL A   1      33.343  17.392  23.120  1.00  0.00     0.146 A 
ATOM     22  N   UNL A   1      32.267  17.994  25.164  1.00  0.00    -0.247 NA
ATOM     23  N   UNL A   1      33.662  16.142  23.543  1.00  0.00    -0.260 NA
ATOM     24  C   UNL A   1      32.577  16.750  25.590  1.00  0.00     0.132 A 
ATOM     25  C   UNL A   1      33.265  15.845  24.801  1.00  0.00     0.131 A 
ENDBRANCH  19  20
ENDBRANCH  18  19
ENDBRANCH  17  18
ENDBRANCH   8  17
ENDBRANCH   3   6
ENDBRANCH   1   2
BRANCH   1  26
ATOM     26  C   UNL A   1      33.558  28.089  26.184  1.00  0.00     0.042 C 
BRANCH  26  27
ATOM     27  C   UNL A   1      33.213  28.651  27.561  1.00  0.00     0.118 C 
BRANCH  27  28
ATOM     28  N   UNL A   1      33.414  30.092  27.622  1.00  0.00    -0.352 N 
ATOM     29  C   UNL A   1      34.482  30.815  28.078  1.00  0.00     0.251 C 
ATOM     30  H   UNL A   1      32.664  30.631  27.282  1.00  0.00     0.163 HD
ATOM     31  O   UNL A   1      34.341  32.026  28.292  1.00  0.00    -0.269 OA
BRANCH  29  32
ATOM     32  C   UNL A   1      35.802  30.189  28.310  1.00  0.00     0.039 A 
ATOM     33  C   UNL A   1      36.098  29.696  29.586  1.00  0.00     0.014 A 
ATOM     34  C   UNL A   1      36.789  30.182  27.321  1.00  0.00     0.014 A 
ATOM     35  C   UNL A   1      37.371  29.191  29.865  1.00  0.00     0.010 A 
ATOM     36  C   UNL A   1      38.038  29.617  27.580  1.00  0.00     0.010 A 
ATOM     37  C   UNL A   1      38.353  29.148  28.864  1.00  0.00    -0.014 A 
BRANCH  37  38
ATOM     38  C   UNL A   1      39.737  28.701  29.170  1.00  0.00     0.031 A 
ATOM     39  C   UNL A   1      40.662  29.602  29.947  1.00  0.00     0.074 A 
ATOM     40  C   UNL A   1      40.176  27.504  28.739  1.00  0.00     0.049 A 
ATOM     41  N   UNL A   1      41.911  29.408  30.292  1.00  0.00    -0.248 NA
ATOM     42  C   UNL A   1      40.119  30.904  30.370  1.00  0.00     0.031 C 
ATOM     43  C   UNL A   1      39.396  26.546  27.954  1.00  0.00     0.029 A 
ATOM     44  N   UNL A   1      41.391  26.889  28.905  1.00  0.00    -0.354 N 
ATOM     45  C   UNL A   1      42.307  30.569  30.945  1.00  0.00     0.074 A 
ATOM     46  C   UNL A   1      41.183  31.478  30.912  1.00  0.00     0.031 C 
ATOM     47  C   UNL A   1      40.145  25.452  27.730  1.00  0.00     0.029 A 
ATOM     48  C   UNL A   1      41.460  25.643  28.333  1.00  0.00     0.049 A 
ATOM     49  H   UNL A   1      42.143  27.303  29.389  1.00  0.00     0.167 HD
ATOM     50  C   UNL A   1      43.491  30.850  31.538  1.00  0.00     0.031 A 
ATOM     51  C   UNL A   1      42.468  24.751  28.306  1.00  0.00     0.031 A 
ATOM     52  C   UNL A   1      44.602  29.940  31.606  1.00  0.00     0.049 A 
ATOM     53  C   UNL A   1      43.761  25.070  29.001  1.00  0.00     0.074 A 
ATOM     54  C   UNL A   1      45.828  30.117  32.225  1.00  0.00     0.029 A 
ATOM     55  N   UNL A   1      44.617  28.675  31.042  1.00  0.00    -0.354 N 
ATOM     56  N   UNL A   1      44.103  26.154  29.653  1.00  0.00    -0.248 NA
ATOM     57  C   UNL A   1      44.802  24.032  28.972  1.00  0.00     0.031 C 
ATOM     58  C   UNL A   1      46.595  28.966  32.012  1.00  0.00     0.029 A 
ATOM     59  C   UNL A   1      45.830  28.060  31.296  1.00  0.00     0.049 A 
ATOM     60  H   UNL A   1      43.874  28.274  30.535  1.00  0.00     0.167 HD
ATOM     61  C   UNL A   1      45.382  25.915  30.141  1.00  0.00     0.074 A 
ATOM     62  C   UNL A   1      45.751  24.581  29.715  1.00  0.00     0.031 C 
ATOM     63  C   UNL A   1      46.178  26.729  30.877  1.00  0.00     0.031 A 
BRANCH  50  64
ATOM     64  C   UNL A   1      43.641  32.208  32.163  1.00  0.00    -0.014 A 
ATOM     65  C   UNL A   1      43.302  32.430  33.508  1.00  0.00     0.009 A 
ATOM     66  C   UNL A   1      44.145  33.276  31.405  1.00  0.00     0.009 A 
ATOM     67  C   UNL A   1      43.425  33.704  34.068  1.00  0.00     0.001 A 
ATOM     68  C   UNL A   1      44.293  34.542  31.975  1.00  0.00     0.001 A 
ATOM     69  C   UNL A   1      43.923  34.757  33.302  1.00  0.00     0.000 A 
ENDBRANCH  50  64
BRANCH  51  70
ATOM     70  C   UNL A   1      42.281  23.442  27.628  1.00  0.00    -0.014 A 
ATOM     71  C   UNL A   1      42.687  23.270  26.297  1.00  0.00     0.009 A 
ATOM     72  C   UNL A   1      41.694  22.364  28.306  1.00  0.00     0.009 A 
ATOM     73  C   UNL A   1      42.485  22.050  25.647  1.00  0.00     0.001 A 
ATOM     74  C   UNL A   1      41.514  21.137  27.661  1.00  0.00     0.001 A 
ATOM     75  C   UNL A   1      41.901  20.985  26.331  1.00  0.00     0.000 A 
ENDBRANCH  51  70
BRANCH  63  76
ATOM     76  C   UNL A   1      47.506  26.179  31.310  1.00  0.00    -0.014 A 
ATOM     77  C   UNL A   1      48.628  26.239  30.471  1.00  0.00     0.009 A 
ATOM     78  C   UNL A   1      47.638  25.622  32.591  1.00  0.00     0.009 A 
ATOM     79  C   UNL A   1      49.853  25.722  30.898  1.00  0.00     0.001 A 
ATOM     80  C   UNL A   1      48.869  25.126  33.023  1.00  0.00     0.001 A 
ATOM     81  C   UNL A   1      49.973  25.169  32.173  1.00  0.00     0.000 A 
ENDBRANCH  63  76
ENDBRANCH  37  38
ENDBRANCH  29  32
ENDBRANCH  27  28
ENDBRANCH  26  27
ENDBRANCH   1  26
TORSDOF 16
ENDMDL
MODEL 3
REMARK VINA RESULT:     -10.2      2.088      7.072
REMARK SMILES CC(C)[NH2+][C@]1(C(=O)NCCCNC(=O)c2ccc(-c3c4nc(c(-c5ccccc5)c5ccc([nH]5)c(-c5ccccc5)c5nc(c(-c6ccccc6)c6ccc3[nH]6)C=C5)C=C4)cc2)CCC[C@@H]1CCSc1cnccn1
REMARK SMILES IDX 9 1 8 2 6 3 7 4 5 6 63 7 66 8 64 9 65 10 4 11 2 14 1 15 3 16
REMARK SMILES IDX 67 17 68 18 69 19 70 20 71 21 75 22 72 23 74 24 73 25 10 26
REMARK SMILES IDX 11 27 12 28 13 29 14 31 15 32 16 33 62 34 17 35 61 36 18 37
REMARK SMILES IDX 19 38 20 39 55 40 21 41 60 42 54 43 56 44 22 45 59 46 53 47
REMARK SMILES IDX 52 48 23 50 45 51 30 52 44 53 31 54 34 55 43 56 57 57 32 58
REMARK SMILES IDX 33 59 42 61 58 62 35 63 24 64 25 65 29 66 26 67 28 68 27 69
REMARK SMILES IDX 46 70 47 71 51 72 48 73 50 74 49 75 36 76 37 77 41 78 38 79
REMARK SMILES IDX 40 80 39 81
REMARK H PARENT 8 5 4 12 4 13 12 30 56 49 34 60
REMARK Flexibility Score: inf
ROOT
ATOM      1  C   UNL A   1      36.109  20.854  24.906  1.00  0.00     0.118 C 
ENDROOT
BRANCH   1   2
ATOM      2  N   UNL A   1      35.564  21.249  26.195  1.00  0.00    -0.351 N 
ATOM      3  C   UNL A   1      34.399  21.824  26.607  1.00  0.00     0.281 C 
ATOM      4  O   UNL A   1      34.288  21.923  27.835  1.00  0.00    -0.268 OA
ATOM      5  H   UNL A   1      36.177  21.058  26.940  1.00  0.00     0.163 HD
BRANCH   3   6
ATOM      6  C   UNL A   1      33.302  22.392  25.652  1.00  0.00     0.178 C 
ATOM      7  C   UNL A   1      31.881  22.113  26.205  1.00  0.00     0.079 C 
ATOM      8  C   UNL A   1      33.281  23.967  25.698  1.00  0.00     0.061 C 
ATOM      9  C   UNL A   1      30.962  23.251  25.780  1.00  0.00     0.008 C 
ATOM     10  C   UNL A   1      31.862  24.351  25.257  1.00  0.00     0.011 C 
BRANCH   6  11
ATOM     11  N   UNL A   1      33.350  21.850  24.271  1.00  0.00    -0.331 N 
ATOM     12  H   UNL A   1      33.285  22.648  23.640  1.00  0.00     0.347 HD
ATOM     13  H   UNL A   1      34.217  21.310  24.267  1.00  0.00     0.347 HD
BRANCH  11  14
ATOM     14  C   UNL A   1      32.354  20.876  23.821  1.00  0.00     0.176 C 
ATOM     15  C   UNL A   1      32.042  21.217  22.357  1.00  0.00     0.075 C 
ATOM     16  C   UNL A   1      32.763  19.408  23.906  1.00  0.00     0.075 C 
ENDBRANCH  11  14
ENDBRANCH   6  11
BRANCH   8  17
ATOM     17  C   UNL A   1      34.352  24.734  24.897  1.00  0.00     0.022 C 
BRANCH  17  18
ATOM     18  C   UNL A   1      33.828  25.839  23.961  1.00  0.00     0.077 C 
BRANCH  18  19
ATOM     19  S   UNL A   1      33.692  27.510  24.690  1.00  0.00    -0.105 SA
BRANCH  19  20
ATOM     20  C   UNL A   1      32.134  28.037  24.037  1.00  0.00     0.114 A 
ATOM     21  C   UNL A   1      31.483  29.184  24.480  1.00  0.00     0.146 A 
ATOM     22  N   UNL A   1      31.620  27.288  23.036  1.00  0.00    -0.247 NA
ATOM     23  N   UNL A   1      30.335  29.648  23.921  1.00  0.00    -0.260 NA
ATOM     24  C   UNL A   1      30.476  27.741  22.479  1.00  0.00     0.132 A 
ATOM     25  C   UNL A   1      29.850  28.898  22.906  1.00  0.00     0.131 A 
ENDBRANCH  19  20
ENDBRANCH  18  19
ENDBRANCH  17  18
ENDBRANCH   8  17
ENDBRANCH   3   6
ENDBRANCH   1   2
BRANCH   1  26
ATOM     26  C   UNL A   1      37.288  19.890  24.986  1.00  0.00     0.042 C 
BRANCH  26  27
ATOM     27  C   UNL A   1      38.587  20.533  25.466  1.00  0.00     0.118 C 
BRANCH  27  28
ATOM     28  N   UNL A   1      39.636  19.545  25.670  1.00  0.00    -0.352 N 
ATOM     29  C   UNL A   1      40.948  19.713  26.019  1.00  0.00     0.251 C 
ATOM     30  H   UNL A   1      39.359  18.611  25.537  1.00  0.00     0.163 HD
ATOM     31  O   UNL A   1      41.734  18.767  25.876  1.00  0.00    -0.269 OA
BRANCH  29  32
ATOM     32  C   UNL A   1      41.449  20.989  26.573  1.00  0.00     0.039 A 
ATOM     33  C   UNL A   1      41.343  21.213  27.950  1.00  0.00     0.014 A 
ATOM     34  C   UNL A   1      41.920  22.010  25.742  1.00  0.00     0.014 A 
ATOM     35  C   UNL A   1      41.713  22.447  28.492  1.00  0.00     0.010 A 
ATOM     36  C   UNL A   1      42.353  23.218  26.290  1.00  0.00     0.010 A 
ATOM     37  C   UNL A   1      42.221  23.461  27.666  1.00  0.00    -0.014 A 
BRANCH  37  38
ATOM     38  C   UNL A   1      42.531  24.807  28.212  1.00  0.00     0.031 A 
ATOM     39  C   UNL A   1      43.948  25.158  28.584  1.00  0.00     0.074 A 
ATOM     40  C   UNL A   1      41.549  25.710  28.397  1.00  0.00     0.049 A 
ATOM     41  N   UNL A   1      44.420  26.266  29.099  1.00  0.00    -0.248 NA
ATOM     42  C   UNL A   1      44.967  24.116  28.372  1.00  0.00     0.031 C 
ATOM     43  C   UNL A   1      40.131  25.493  28.106  1.00  0.00     0.029 A 
ATOM     44  N   UNL A   1      41.600  26.995  28.874  1.00  0.00    -0.354 N 
ATOM     45  C   UNL A   1      45.777  26.043  29.297  1.00  0.00     0.074 A 
ATOM     46  C   UNL A   1      46.047  24.683  28.887  1.00  0.00     0.031 C 
ATOM     47  C   UNL A   1      39.451  26.617  28.386  1.00  0.00     0.029 A 
ATOM     48  C   UNL A   1      40.379  27.622  28.897  1.00  0.00     0.049 A 
ATOM     49  H   UNL A   1      42.433  27.427  29.171  1.00  0.00     0.167 HD
ATOM     50  C   UNL A   1      46.722  26.897  29.758  1.00  0.00     0.031 A 
ATOM     51  C   UNL A   1      40.045  28.869  29.278  1.00  0.00     0.031 A 
ATOM     52  C   UNL A   1      46.470  28.261  30.137  1.00  0.00     0.049 A 
ATOM     53  C   UNL A   1      41.116  29.811  29.754  1.00  0.00     0.074 A 
ATOM     54  C   UNL A   1      47.370  29.217  30.573  1.00  0.00     0.029 A 
ATOM     55  N   UNL A   1      45.223  28.865  30.113  1.00  0.00    -0.354 N 
ATOM     56  N   UNL A   1      42.402  29.598  29.891  1.00  0.00    -0.248 NA
ATOM     57  C   UNL A   1      40.690  31.172  30.109  1.00  0.00     0.031 C 
ATOM     58  C   UNL A   1      46.662  30.395  30.838  1.00  0.00     0.029 A 
ATOM     59  C   UNL A   1      45.329  30.180  30.528  1.00  0.00     0.049 A 
ATOM     60  H   UNL A   1      44.386  28.422  29.841  1.00  0.00     0.167 HD
ATOM     61  C   UNL A   1      42.942  30.806  30.314  1.00  0.00     0.074 A 
ATOM     62  C   UNL A   1      41.846  31.748  30.404  1.00  0.00     0.031 C 
ATOM     63  C   UNL A   1      44.232  31.107  30.600  1.00  0.00     0.031 A 
BRANCH  50  64
ATOM     64  C   UNL A   1      48.124  26.370  29.879  1.00  0.00    -0.014 A 
ATOM     65  C   UNL A   1      48.578  25.779  31.070  1.00  0.00     0.009 A 
ATOM     66  C   UNL A   1      48.998  26.448  28.785  1.00  0.00     0.009 A 
ATOM     67  C   UNL A   1      49.891  25.315  31.175  1.00  0.00     0.001 A 
ATOM     68  C   UNL A   1      50.302  25.958  28.883  1.00  0.00     0.001 A 
ATOM     69  C   UNL A   1      50.750  25.402  30.080  1.00  0.00     0.000 A 
ENDBRANCH  50  64
BRANCH  51  70
ATOM     70  C   UNL A   1      38.633  29.321  29.185  1.00  0.00    -0.014 A 
ATOM     71  C   UNL A   1      38.139  29.856  27.986  1.00  0.00     0.009 A 
ATOM     72  C   UNL A   1      37.778  29.225  30.292  1.00  0.00     0.009 A 
ATOM     73  C   UNL A   1      36.821  30.310  27.904  1.00  0.00     0.001 A 
ATOM     74  C   UNL A   1      36.453  29.659  30.200  1.00  0.00     0.001 A 
ATOM     75  C   UNL A   1      35.979  30.209  29.010  1.00  0.00     0.000 A 
ENDBRANCH  51  70
BRANCH  63  76
ATOM     76  C   UNL A   1      44.534  32.526  30.990  1.00  0.00    -0.014 A 
ATOM     77  C   UNL A   1      44.835  33.498  30.025  1.00  0.00     0.009 A 
ATOM     78  C   UNL A   1      44.482  32.897  32.342  1.00  0.00     0.009 A 
ATOM     79  C   UNL A   1      45.111  34.811  30.412  1.00  0.00     0.001 A 
ATOM     80  C   UNL A   1      44.736  34.215  32.724  1.00  0.00     0.001 A 
ATOM     81  C   UNL A   1      45.059  35.168  31.760  1.00  0.00     0.000 A 
ENDBRANCH  63  76
ENDBRANCH  37  38
ENDBRANCH  29  32
ENDBRANCH  27  28
ENDBRANCH  26  27
ENDBRANCH   1  26
TORSDOF 16
ENDMDL
