MODEL 1
REMARK VINA RESULT:     -11.7      0.000      0.000
REMARK SMILES Cc1ccc([C@@H](Cc2cccs2)C(=O)NCCCNC(=O)c2ccc(-c3c4nc(c(-c5ccccc5)c5ccc([nH]5)c(-c5ccccc5)c5nc(c(-c6ccccc6)c6ccc3[nH]6)C=C5)C=C4)cc2)cc1
REMARK SMILES IDX 17 1 16 2 15 3 13 4 14 5 6 7 5 8 1 9 2 10 3 11 71 12 4 13
REMARK SMILES IDX 70 14 7 15 8 16 9 17 12 18 10 19 11 20 18 21 19 22 20 23
REMARK SMILES IDX 21 25 22 26 23 27 69 28 24 29 68 30 25 31 26 32 27 33 62 34
REMARK SMILES IDX 28 35 67 36 61 37 63 38 29 39 66 40 60 41 59 42 30 44 52 45
REMARK SMILES IDX 37 46 51 47 38 48 41 49 50 50 64 51 39 52 40 53 49 55 65 56
REMARK SMILES IDX 42 57 31 58 32 59 36 60 33 61 35 62 34 63 53 64 54 65 58 66
REMARK SMILES IDX 55 67 57 68 56 69 43 70 44 71 48 72 45 73 47 74 46 75
REMARK H PARENT 15 6 19 24 63 43 41 54
REMARK Flexibility Score: inf
ROOT
ATOM      1  C   UNL A   1      33.582  31.548  27.789  1.00  0.00     0.042 C 
ENDROOT
BRANCH   1   2
ATOM      2  C   UNL A   1      33.602  30.210  27.079  1.00  0.00     0.117 C 
BRANCH   2   3
ATOM      3  N   UNL A   1      32.666  29.248  27.623  1.00  0.00    -0.355 N 
ATOM      4  C   UNL A   1      32.092  28.121  27.138  1.00  0.00     0.227 C 
ATOM      5  O   UNL A   1      31.382  27.506  27.949  1.00  0.00    -0.274 OA
ATOM      6  H   UNL A   1      32.388  29.458  28.544  1.00  0.00     0.163 HD
BRANCH   4   7
ATOM      7  C   UNL A   1      32.217  27.586  25.701  1.00  0.00     0.113 C 
BRANCH   7   8
ATOM      8  C   UNL A   1      31.109  28.087  24.774  1.00  0.00    -0.035 A 
ATOM      9  C   UNL A   1      28.115  29.585  22.005  1.00  0.00     0.044 C 
ATOM     10  C   UNL A   1      29.141  29.087  22.978  1.00  0.00    -0.051 A 
ATOM     11  C   UNL A   1      29.289  27.719  23.187  1.00  0.00     0.004 A 
ATOM     12  C   UNL A   1      29.988  29.961  23.661  1.00  0.00     0.004 A 
ATOM     13  C   UNL A   1      30.251  27.237  24.081  1.00  0.00     0.005 A 
ATOM     14  C   UNL A   1      30.962  29.466  24.541  1.00  0.00     0.005 A 
ENDBRANCH   7   8
BRANCH   7  15
ATOM     15  C   UNL A   1      33.638  27.260  25.169  1.00  0.00     0.065 C 
BRANCH  15  16
ATOM     16  C   UNL A   1      33.946  25.900  24.604  1.00  0.00     0.006 A 
ATOM     17  C   UNL A   1      34.688  24.870  25.154  1.00  0.00     0.015 A 
ATOM     18  S   UNL A   1      33.515  25.511  22.977  1.00  0.00    -0.149 S 
ATOM     19  C   UNL A   1      34.595  23.669  24.394  1.00  0.00     0.012 A 
ATOM     20  C   UNL A   1      33.942  23.868  23.199  1.00  0.00     0.065 A 
ENDBRANCH  15  16
ENDBRANCH   7  15
ENDBRANCH   4   7
ENDBRANCH   2   3
ENDBRANCH   1   2
BRANCH   1  21
ATOM     21  C   UNL A   1      34.936  32.224  27.859  1.00  0.00     0.118 C 
BRANCH  21  22
ATOM     22  N   UNL A   1      35.398  32.530  29.215  1.00  0.00    -0.352 N 
ATOM     23  C   UNL A   1      36.185  31.743  30.063  1.00  0.00     0.251 C 
ATOM     24  H   UNL A   1      35.119  33.403  29.576  1.00  0.00     0.163 HD
ATOM     25  O   UNL A   1      36.544  32.132  31.139  1.00  0.00    -0.269 OA
BRANCH  23  26
ATOM     26  C   UNL A   1      36.680  30.451  29.509  1.00  0.00     0.039 A 
ATOM     27  C   UNL A   1      36.860  29.420  30.432  1.00  0.00     0.014 A 
ATOM     28  C   UNL A   1      37.363  30.460  28.298  1.00  0.00     0.014 A 
ATOM     29  C   UNL A   1      37.967  28.595  30.293  1.00  0.00     0.010 A 
ATOM     30  C   UNL A   1      38.539  29.739  28.235  1.00  0.00     0.010 A 
ATOM     31  C   UNL A   1      38.886  28.873  29.282  1.00  0.00    -0.014 A 
BRANCH  31  32
ATOM     32  C   UNL A   1      40.280  28.437  29.350  1.00  0.00     0.031 A 
ATOM     33  C   UNL A   1      40.667  27.113  28.820  1.00  0.00     0.074 A 
ATOM     34  C   UNL A   1      41.232  29.237  29.886  1.00  0.00     0.049 A 
ATOM     35  N   UNL A   1      41.732  26.478  29.177  1.00  0.00    -0.248 NA
ATOM     36  C   UNL A   1      39.820  26.344  27.912  1.00  0.00     0.031 C 
ATOM     37  C   UNL A   1      42.684  29.079  29.795  1.00  0.00     0.029 A 
ATOM     38  N   UNL A   1      41.061  30.244  30.837  1.00  0.00    -0.354 N 
ATOM     39  C   UNL A   1      41.867  25.399  28.340  1.00  0.00     0.074 A 
ATOM     40  C   UNL A   1      40.595  25.283  27.674  1.00  0.00     0.031 C 
ATOM     41  C   UNL A   1      43.262  29.751  30.802  1.00  0.00     0.029 A 
ATOM     42  C   UNL A   1      42.202  30.255  31.657  1.00  0.00     0.049 A 
ATOM     43  H   UNL A   1      40.281  30.840  30.918  1.00  0.00     0.167 HD
ATOM     44  C   UNL A   1      43.091  24.822  28.197  1.00  0.00     0.031 A 
ATOM     45  C   UNL A   1      42.117  30.035  33.001  1.00  0.00     0.031 A 
ATOM     46  C   UNL A   1      44.028  25.279  29.226  1.00  0.00     0.049 A 
ATOM     47  C   UNL A   1      42.867  28.807  33.476  1.00  0.00     0.074 A 
ATOM     48  C   UNL A   1      45.128  26.118  29.219  1.00  0.00     0.029 A 
ATOM     49  N   UNL A   1      43.715  25.055  30.564  1.00  0.00    -0.354 N 
ATOM     50  N   UNL A   1      43.342  27.887  32.682  1.00  0.00    -0.248 NA
ATOM     51  C   UNL A   1      43.090  28.490  34.884  1.00  0.00     0.031 C 
ATOM     52  C   UNL A   1      45.428  26.459  30.568  1.00  0.00     0.029 A 
ATOM     53  C   UNL A   1      44.533  25.797  31.390  1.00  0.00     0.049 A 
ATOM     54  H   UNL A   1      43.006  24.448  30.877  1.00  0.00     0.167 HD
ATOM     55  C   UNL A   1      43.872  26.863  33.424  1.00  0.00     0.074 A 
ATOM     56  C   UNL A   1      43.718  27.303  34.800  1.00  0.00     0.031 C 
ATOM     57  C   UNL A   1      44.361  25.730  32.839  1.00  0.00     0.031 A 
BRANCH  44  58
ATOM     58  C   UNL A   1      43.508  24.027  26.976  1.00  0.00    -0.014 A 
ATOM     59  C   UNL A   1      44.146  24.685  25.907  1.00  0.00     0.009 A 
ATOM     60  C   UNL A   1      43.206  22.670  26.753  1.00  0.00     0.009 A 
ATOM     61  C   UNL A   1      44.421  24.041  24.690  1.00  0.00     0.001 A 
ATOM     62  C   UNL A   1      43.487  22.015  25.547  1.00  0.00     0.001 A 
ATOM     63  C   UNL A   1      44.084  22.706  24.508  1.00  0.00     0.000 A 
ENDBRANCH  44  58
BRANCH  45  64
ATOM     64  C   UNL A   1      40.862  30.552  33.611  1.00  0.00    -0.014 A 
ATOM     65  C   UNL A   1      40.738  31.944  33.794  1.00  0.00     0.009 A 
ATOM     66  C   UNL A   1      39.704  29.765  33.655  1.00  0.00     0.009 A 
ATOM     67  C   UNL A   1      39.479  32.543  33.893  1.00  0.00     0.001 A 
ATOM     68  C   UNL A   1      38.444  30.369  33.763  1.00  0.00     0.001 A 
ATOM     69  C   UNL A   1      38.331  31.757  33.844  1.00  0.00     0.000 A 
ENDBRANCH  45  64
BRANCH  57  70
ATOM     70  C   UNL A   1      44.763  24.454  33.546  1.00  0.00    -0.014 A 
ATOM     71  C   UNL A   1      43.922  23.351  33.749  1.00  0.00     0.009 A 
ATOM     72  C   UNL A   1      46.114  24.288  33.929  1.00  0.00     0.009 A 
ATOM     73  C   UNL A   1      44.393  22.168  34.340  1.00  0.00     0.001 A 
ATOM     74  C   UNL A   1      46.600  23.097  34.474  1.00  0.00     0.001 A 
ATOM     75  C   UNL A   1      45.733  22.037  34.692  1.00  0.00     0.000 A 
ENDBRANCH  57  70
ENDBRANCH  31  32
ENDBRANCH  23  26
ENDBRANCH  21  22
ENDBRANCH   1  21
TORSDOF 13
ENDMDL
MODEL 2
REMARK VINA RESULT:     -11.7      4.510      7.656
REMARK SMILES Cc1ccc([C@@H](Cc2cccs2)C(=O)NCCCNC(=O)c2ccc(-c3c4nc(c(-c5ccccc5)c5ccc([nH]5)c(-c5ccccc5)c5nc(c(-c6ccccc6)c6ccc3[nH]6)C=C5)C=C4)cc2)cc1
REMARK SMILES IDX 17 1 16 2 15 3 13 4 14 5 6 7 5 8 1 9 2 10 3 11 71 12 4 13
REMARK SMILES IDX 70 14 7 15 8 16 9 17 12 18 10 19 11 20 18 21 19 22 20 23
REMARK SMILES IDX 21 25 22 26 23 27 69 28 24 29 68 30 25 31 26 32 27 33 62 34
REMARK SMILES IDX 28 35 67 36 61 37 63 38 29 39 66 40 60 41 59 42 30 44 52 45
REMARK SMILES IDX 37 46 51 47 38 48 41 49 50 50 64 51 39 52 40 53 49 55 65 56
REMARK SMILES IDX 42 57 31 58 32 59 36 60 33 61 35 62 34 63 53 64 54 65 58 66
REMARK SMILES IDX 55 67 57 68 56 69 43 70 44 71 48 72 45 73 47 74 46 75
REMARK H PARENT 15 6 19 24 63 43 41 54
REMARK Flexibility Score: inf
ROOT
ATOM      1  C   UNL A   1      38.084  22.105  25.818  1.00  0.00     0.042 C 
ENDROOT
BRANCH   1   2
ATOM      2  C   UNL A   1      37.035  23.196  25.881  1.00  0.00     0.117 C 
BRANCH   2   3
ATOM      3  N   UNL A   1      35.906  22.871  26.728  1.00  0.00    -0.355 N 
ATOM      4  C   UNL A   1      34.654  22.414  26.487  1.00  0.00     0.227 C 
ATOM      5  O   UNL A   1      33.980  22.176  27.502  1.00  0.00    -0.274 OA
ATOM      6  H   UNL A   1      36.088  23.011  27.686  1.00  0.00     0.163 HD
BRANCH   4   7
ATOM      7  C   UNL A   1      34.014  22.211  25.103  1.00  0.00     0.113 C 
BRANCH   7   8
ATOM      8  C   UNL A   1      33.942  20.742  24.684  1.00  0.00    -0.035 A 
ATOM      9  C   UNL A   1      33.757  16.513  23.704  1.00  0.00     0.044 C 
ATOM     10  C   UNL A   1      33.845  17.974  24.030  1.00  0.00    -0.051 A 
ATOM     11  C   UNL A   1      32.736  18.793  23.837  1.00  0.00     0.004 A 
ATOM     12  C   UNL A   1      35.006  18.537  24.563  1.00  0.00     0.004 A 
ATOM     13  C   UNL A   1      32.797  20.155  24.150  1.00  0.00     0.005 A 
ATOM     14  C   UNL A   1      35.049  19.900  24.890  1.00  0.00     0.005 A 
ENDBRANCH   7   8
BRANCH   7  15
ATOM     15  C   UNL A   1      32.957  23.244  24.632  1.00  0.00     0.065 C 
BRANCH  15  16
ATOM     16  C   UNL A   1      33.185  24.717  24.841  1.00  0.00     0.006 A 
ATOM     17  C   UNL A   1      33.230  25.439  26.019  1.00  0.00     0.015 A 
ATOM     18  S   UNL A   1      33.243  25.791  23.489  1.00  0.00    -0.149 S 
ATOM     19  C   UNL A   1      33.655  26.783  25.817  1.00  0.00     0.012 A 
ATOM     20  C   UNL A   1      33.743  27.096  24.480  1.00  0.00     0.065 A 
ENDBRANCH  15  16
ENDBRANCH   7  15
ENDBRANCH   4   7
ENDBRANCH   2   3
ENDBRANCH   1   2
BRANCH   1  21
ATOM     21  C   UNL A   1      39.383  22.466  26.510  1.00  0.00     0.118 C 
BRANCH  21  22
ATOM     22  N   UNL A   1      40.592  22.039  25.802  1.00  0.00    -0.352 N 
ATOM     23  C   UNL A   1      41.921  22.389  26.065  1.00  0.00     0.251 C 
ATOM     24  H   UNL A   1      40.452  21.426  25.044  1.00  0.00     0.163 HD
ATOM     25  O   UNL A   1      42.834  21.926  25.441  1.00  0.00    -0.269 OA
BRANCH  23  26
ATOM     26  C   UNL A   1      42.162  23.255  27.253  1.00  0.00     0.039 A 
ATOM     27  C   UNL A   1      42.167  24.630  27.015  1.00  0.00     0.014 A 
ATOM     28  C   UNL A   1      42.815  22.713  28.354  1.00  0.00     0.014 A 
ATOM     29  C   UNL A   1      43.102  25.412  27.679  1.00  0.00     0.010 A 
ATOM     30  C   UNL A   1      43.839  23.458  28.907  1.00  0.00     0.010 A 
ATOM     31  C   UNL A   1      44.039  24.784  28.498  1.00  0.00    -0.014 A 
BRANCH  31  32
ATOM     32  C   UNL A   1      45.331  25.391  28.817  1.00  0.00     0.031 A 
ATOM     33  C   UNL A   1      46.522  25.055  28.011  1.00  0.00     0.074 A 
ATOM     34  C   UNL A   1      45.452  26.271  29.839  1.00  0.00     0.049 A 
ATOM     35  N   UNL A   1      47.736  25.196  28.428  1.00  0.00    -0.248 NA
ATOM     36  C   UNL A   1      46.440  24.426  26.696  1.00  0.00     0.031 C 
ATOM     37  C   UNL A   1      46.581  27.157  30.123  1.00  0.00     0.029 A 
ATOM     38  N   UNL A   1      44.651  26.367  30.978  1.00  0.00    -0.354 N 
ATOM     39  C   UNL A   1      48.566  24.983  27.356  1.00  0.00     0.074 A 
ATOM     40  C   UNL A   1      47.729  24.376  26.352  1.00  0.00     0.031 C 
ATOM     41  C   UNL A   1      46.547  27.508  31.417  1.00  0.00     0.029 A 
ATOM     42  C   UNL A   1      45.477  26.756  32.048  1.00  0.00     0.049 A 
ATOM     43  H   UNL A   1      43.683  26.193  31.024  1.00  0.00     0.167 HD
ATOM     44  C   UNL A   1      49.830  25.484  27.388  1.00  0.00     0.031 A 
ATOM     45  C   UNL A   1      45.625  25.974  33.156  1.00  0.00     0.031 A 
ATOM     46  C   UNL A   1      50.203  25.925  28.734  1.00  0.00     0.049 A 
ATOM     47  C   UNL A   1      47.042  25.492  33.389  1.00  0.00     0.074 A 
ATOM     48  C   UNL A   1      50.380  27.164  29.325  1.00  0.00     0.029 A 
ATOM     49  N   UNL A   1      50.193  24.995  29.770  1.00  0.00    -0.354 N 
ATOM     50  N   UNL A   1      48.000  25.579  32.507  1.00  0.00    -0.248 NA
ATOM     51  C   UNL A   1      47.477  24.822  34.612  1.00  0.00     0.031 C 
ATOM     52  C   UNL A   1      50.399  26.978  30.736  1.00  0.00     0.029 A 
ATOM     53  C   UNL A   1      50.272  25.624  30.995  1.00  0.00     0.049 A 
ATOM     54  H   UNL A   1      50.138  24.020  29.644  1.00  0.00     0.167 HD
ATOM     55  C   UNL A   1      49.127  24.963  32.986  1.00  0.00     0.074 A 
ATOM     56  C   UNL A   1      48.758  24.532  34.323  1.00  0.00     0.031 C 
ATOM     57  C   UNL A   1      50.253  24.836  32.224  1.00  0.00     0.031 A 
BRANCH  44  58
ATOM     58  C   UNL A   1      50.642  25.799  26.147  1.00  0.00    -0.014 A 
ATOM     59  C   UNL A   1      51.934  25.257  26.010  1.00  0.00     0.009 A 
ATOM     60  C   UNL A   1      50.257  26.703  25.138  1.00  0.00     0.009 A 
ATOM     61  C   UNL A   1      52.792  25.629  24.962  1.00  0.00     0.001 A 
ATOM     62  C   UNL A   1      51.102  27.071  24.083  1.00  0.00     0.001 A 
ATOM     63  C   UNL A   1      52.377  26.543  24.002  1.00  0.00     0.000 A 
ENDBRANCH  44  58
BRANCH  45  64
ATOM     64  C   UNL A   1      44.399  25.210  33.514  1.00  0.00    -0.014 A 
ATOM     65  C   UNL A   1      44.354  23.838  33.197  1.00  0.00     0.009 A 
ATOM     66  C   UNL A   1      43.488  25.710  34.455  1.00  0.00     0.009 A 
ATOM     67  C   UNL A   1      43.508  22.969  33.891  1.00  0.00     0.001 A 
ATOM     68  C   UNL A   1      42.634  24.836  35.143  1.00  0.00     0.001 A 
ATOM     69  C   UNL A   1      42.672  23.465  34.888  1.00  0.00     0.000 A 
ENDBRANCH  45  64
BRANCH  57  70
ATOM     70  C   UNL A   1      51.469  23.995  32.549  1.00  0.00    -0.014 A 
ATOM     71  C   UNL A   1      51.451  22.611  32.770  1.00  0.00     0.009 A 
ATOM     72  C   UNL A   1      52.745  24.605  32.511  1.00  0.00     0.009 A 
ATOM     73  C   UNL A   1      52.635  21.888  32.985  1.00  0.00     0.001 A 
ATOM     74  C   UNL A   1      53.929  23.883  32.677  1.00  0.00     0.001 A 
ATOM     75  C   UNL A   1      53.873  22.520  32.926  1.00  0.00     0.000 A 
ENDBRANCH  57  70
ENDBRANCH  31  32
ENDBRANCH  23  26
ENDBRANCH  21  22
ENDBRANCH   1  21
TORSDOF 13
ENDMDL
MODEL 3
REMARK VINA RESULT:     -11.7      3.567      8.628
REMARK SMILES Cc1ccc([C@@H](Cc2cccs2)C(=O)NCCCNC(=O)c2ccc(-c3c4nc(c(-c5ccccc5)c5ccc([nH]5)c(-c5ccccc5)c5nc(c(-c6ccccc6)c6ccc3[nH]6)C=C5)C=C4)cc2)cc1
REMARK SMILES IDX 17 1 16 2 15 3 13 4 14 5 6 7 5 8 1 9 2 10 3 11 71 12 4 13
REMARK SMILES IDX 70 14 7 15 8 16 9 17 12 18 10 19 11 20 18 21 19 22 20 23
REMARK SMILES IDX 21 25 22 26 23 27 69 28 24 29 68 30 25 31 26 32 27 33 62 34
REMARK SMILES IDX 28 35 67 36 61 37 63 38 29 39 66 40 60 41 59 42 30 44 52 45
REMARK SMILES IDX 37 46 51 47 38 48 41 49 50 50 64 51 39 52 40 53 49 55 65 56
REMARK SMILES IDX 42 57 31 58 32 59 36 60 33 61 35 62 34 63 53 64 54 65 58 66
REMARK SMILES IDX 55 67 57 68 56 69 43 70 44 71 48 72 45 73 47 74 46 75
REMARK H PARENT 15 6 19 24 63 43 41 54
REMARK Flexibility Score: inf
ROOT
ATOM      1  C   UNL A   1      38.656  22.810  26.698  1.00  0.00     0.042 C 
ENDROOT
BRANCH   1   2
ATOM      2  C   UNL A   1      37.930  23.881  25.910  1.00  0.00     0.117 C 
BRANCH   2   3
ATOM      3  N   UNL A   1      37.642  23.503  24.542  1.00  0.00    -0.355 N 
ATOM      4  C   UNL A   1      36.498  23.327  23.839  1.00  0.00     0.227 C 
ATOM      5  O   UNL A   1      36.659  23.070  22.635  1.00  0.00    -0.274 OA
ATOM      6  H   UNL A   1      38.453  23.338  24.008  1.00  0.00     0.163 HD
BRANCH   4   7
ATOM      7  C   UNL A   1      35.068  23.384  24.405  1.00  0.00     0.113 C 
BRANCH   7   8
ATOM      8  C   UNL A   1      34.357  22.031  24.379  1.00  0.00    -0.035 A 
ATOM      9  C   UNL A   1      32.348  18.190  24.087  1.00  0.00     0.044 C 
ATOM     10  C   UNL A   1      33.018  19.526  24.196  1.00  0.00    -0.051 A 
ATOM     11  C   UNL A   1      34.283  19.621  24.770  1.00  0.00     0.004 A 
ATOM     12  C   UNL A   1      32.422  20.688  23.700  1.00  0.00     0.004 A 
ATOM     13  C   UNL A   1      34.928  20.859  24.866  1.00  0.00     0.005 A 
ATOM     14  C   UNL A   1      33.087  21.920  23.786  1.00  0.00     0.005 A 
ENDBRANCH   7   8
BRANCH   7  15
ATOM     15  C   UNL A   1      34.760  24.445  25.494  1.00  0.00     0.065 C 
BRANCH  15  16
ATOM     16  C   UNL A   1      33.446  25.177  25.495  1.00  0.00     0.006 A 
ATOM     17  C   UNL A   1      32.295  24.913  26.214  1.00  0.00     0.015 A 
ATOM     18  S   UNL A   1      33.149  26.439  24.353  1.00  0.00    -0.149 S 
ATOM     19  C   UNL A   1      31.322  25.944  26.082  1.00  0.00     0.012 A 
ATOM     20  C   UNL A   1      31.682  26.867  25.127  1.00  0.00     0.065 A 
ENDBRANCH  15  16
ENDBRANCH   7  15
ENDBRANCH   4   7
ENDBRANCH   2   3
ENDBRANCH   1   2
BRANCH   1  21
ATOM     21  C   UNL A   1      40.159  22.822  26.504  1.00  0.00     0.118 C 
BRANCH  21  22
ATOM     22  N   UNL A   1      40.703  21.622  25.864  1.00  0.00    -0.352 N 
ATOM     23  C   UNL A   1      41.983  21.074  25.993  1.00  0.00     0.251 C 
ATOM     24  H   UNL A   1      40.087  21.138  25.266  1.00  0.00     0.163 HD
ATOM     25  O   UNL A   1      42.292  20.048  25.454  1.00  0.00    -0.269 OA
BRANCH  23  26
ATOM     26  C   UNL A   1      42.906  21.747  26.950  1.00  0.00     0.039 A 
ATOM     27  C   UNL A   1      42.534  21.698  28.294  1.00  0.00     0.014 A 
ATOM     28  C   UNL A   1      43.756  22.739  26.475  1.00  0.00     0.014 A 
ATOM     29  C   UNL A   1      42.733  22.827  29.076  1.00  0.00     0.010 A 
ATOM     30  C   UNL A   1      43.825  23.910  27.204  1.00  0.00     0.010 A 
ATOM     31  C   UNL A   1      43.229  23.981  28.472  1.00  0.00    -0.014 A 
BRANCH  31  32
ATOM     32  C   UNL A   1      43.000  25.315  29.025  1.00  0.00     0.031 A 
ATOM     33  C   UNL A   1      41.856  26.122  28.555  1.00  0.00     0.074 A 
ATOM     34  C   UNL A   1      43.819  25.822  29.977  1.00  0.00     0.049 A 
ATOM     35  N   UNL A   1      41.791  27.407  28.658  1.00  0.00    -0.248 NA
ATOM     36  C   UNL A   1      40.727  25.550  27.827  1.00  0.00     0.031 C 
ATOM     37  C   UNL A   1      43.590  26.998  30.815  1.00  0.00     0.029 A 
ATOM     38  N   UNL A   1      45.155  25.494  30.212  1.00  0.00    -0.354 N 
ATOM     39  C   UNL A   1      40.518  27.784  28.310  1.00  0.00     0.074 A 
ATOM     40  C   UNL A   1      39.948  26.624  27.674  1.00  0.00     0.031 C 
ATOM     41  C   UNL A   1      44.768  27.447  31.272  1.00  0.00     0.029 A 
ATOM     42  C   UNL A   1      45.812  26.662  30.638  1.00  0.00     0.049 A 
ATOM     43  H   UNL A   1      45.564  24.605  30.100  1.00  0.00     0.167 HD
ATOM     44  C   UNL A   1      40.044  28.986  28.737  1.00  0.00     0.031 A 
ATOM     45  C   UNL A   1      46.863  27.183  29.942  1.00  0.00     0.031 A 
ATOM     46  C   UNL A   1      41.115  29.834  29.264  1.00  0.00     0.049 A 
ATOM     47  C   UNL A   1      46.616  28.576  29.398  1.00  0.00     0.074 A 
ATOM     48  C   UNL A   1      41.479  30.245  30.534  1.00  0.00     0.029 A 
ATOM     49  N   UNL A   1      42.171  30.179  28.424  1.00  0.00    -0.354 N 
ATOM     50  N   UNL A   1      45.444  29.148  29.357  1.00  0.00    -0.248 NA
ATOM     51  C   UNL A   1      47.659  29.410  28.806  1.00  0.00     0.031 C 
ATOM     52  C   UNL A   1      42.799  30.772  30.464  1.00  0.00     0.029 A 
ATOM     53  C   UNL A   1      43.218  30.714  29.146  1.00  0.00     0.049 A 
ATOM     54  H   UNL A   1      42.169  30.057  27.447  1.00  0.00     0.167 HD
ATOM     55  C   UNL A   1      45.542  30.357  28.717  1.00  0.00     0.074 A 
ATOM     56  C   UNL A   1      46.957  30.490  28.419  1.00  0.00     0.031 C 
ATOM     57  C   UNL A   1      44.441  31.124  28.462  1.00  0.00     0.031 A 
BRANCH  44  58
ATOM     58  C   UNL A   1      38.570  29.297  28.902  1.00  0.00    -0.014 A 
ATOM     59  C   UNL A   1      37.829  29.742  27.790  1.00  0.00     0.009 A 
ATOM     60  C   UNL A   1      37.875  29.292  30.126  1.00  0.00     0.009 A 
ATOM     61  C   UNL A   1      36.503  30.190  27.908  1.00  0.00     0.001 A 
ATOM     62  C   UNL A   1      36.549  29.725  30.251  1.00  0.00     0.001 A 
ATOM     63  C   UNL A   1      35.865  30.188  29.142  1.00  0.00     0.000 A 
ENDBRANCH  44  58
BRANCH  45  64
ATOM     64  C   UNL A   1      47.712  26.154  29.284  1.00  0.00    -0.014 A 
ATOM     65  C   UNL A   1      47.503  25.897  27.913  1.00  0.00     0.009 A 
ATOM     66  C   UNL A   1      48.910  25.725  29.869  1.00  0.00     0.009 A 
ATOM     67  C   UNL A   1      48.514  25.342  27.126  1.00  0.00     0.001 A 
ATOM     68  C   UNL A   1      49.920  25.160  29.077  1.00  0.00     0.001 A 
ATOM     69  C   UNL A   1      49.735  25.004  27.704  1.00  0.00     0.000 A 
ENDBRANCH  45  64
BRANCH  57  70
ATOM     70  C   UNL A   1      44.387  32.354  27.581  1.00  0.00    -0.014 A 
ATOM     71  C   UNL A   1      44.485  32.343  26.183  1.00  0.00     0.009 A 
ATOM     72  C   UNL A   1      44.092  33.602  28.178  1.00  0.00     0.009 A 
ATOM     73  C   UNL A   1      44.341  33.519  25.429  1.00  0.00     0.001 A 
ATOM     74  C   UNL A   1      43.901  34.767  27.429  1.00  0.00     0.001 A 
ATOM     75  C   UNL A   1      44.038  34.727  26.050  1.00  0.00     0.000 A 
ENDBRANCH  57  70
ENDBRANCH  31  32
ENDBRANCH  23  26
ENDBRANCH  21  22
ENDBRANCH   1  21
TORSDOF 13
ENDMDL
