MODEL 1
REMARK VINA RESULT:     -11.1      0.000      0.000
REMARK SMILES Cc1ccsc1/C=C/C(=O)NC[C@H](CC(C)C)C(=O)NCCCNC(=O)c1ccc(-c2c3nc(c(-c4ccccc4)c4ccc([nH]4)c(-c4ccccc4)c4nc(c(-c5ccccc5)c5ccc2[nH]5)C=C4)C=C3)cc1
REMARK SMILES IDX 21 1 20 2 18 3 19 4 13 6 12 7 11 8 9 9 10 10 8 12 7 13 6 14
REMARK SMILES IDX 1 15 2 16 3 17 4 18 5 19 14 20 15 21 16 22 17 23 22 24 23 25
REMARK SMILES IDX 24 26 25 27 26 29 27 30 28 31 74 32 29 33 73 34 30 35 31 36
REMARK SMILES IDX 32 37 67 38 33 39 72 40 66 41 68 42 34 43 71 44 65 45 64 46
REMARK SMILES IDX 35 48 57 49 42 50 56 51 43 52 46 53 55 54 69 55 44 56 45 57
REMARK SMILES IDX 54 59 70 60 47 61 36 62 37 63 41 64 38 65 40 66 39 67 58 68
REMARK SMILES IDX 59 69 63 70 60 71 62 72 61 73 48 74 49 75 53 76 50 77 52 78
REMARK SMILES IDX 51 79
REMARK H PARENT 20 5 11 11 24 28 68 47 46 58
REMARK Flexibility Score: inf
ROOT
ATOM      1  C   UNL A   1      31.733  30.436  25.889  1.00  0.00     0.117 C 
ENDROOT
BRANCH   1   2
ATOM      2  N   UNL A   1      30.980  30.290  24.658  1.00  0.00    -0.356 N 
ATOM      3  C   UNL A   1      30.690  29.239  23.854  1.00  0.00     0.224 C 
ATOM      4  O   UNL A   1      29.968  29.497  22.883  1.00  0.00    -0.275 OA
ATOM      5  H   UNL A   1      30.597  31.139  24.336  1.00  0.00     0.163 HD
BRANCH   3   6
ATOM      6  C   UNL A   1      31.218  27.810  24.022  1.00  0.00     0.098 C 
BRANCH   6   7
ATOM      7  C   UNL A   1      30.817  26.790  22.961  1.00  0.00     0.129 C 
BRANCH   7   8
ATOM      8  N   UNL A   1      31.634  26.691  21.777  1.00  0.00    -0.352 N 
ATOM      9  C   UNL A   1      32.493  25.691  21.423  1.00  0.00     0.244 C 
ATOM     10  O   UNL A   1      33.075  25.780  20.340  1.00  0.00    -0.270 OA
ATOM     11  H   UNL A   1      31.563  27.441  21.143  1.00  0.00     0.163 HD
BRANCH   9  12
ATOM     12  C   UNL A   1      32.809  24.508  22.293  1.00  0.00     0.072 C 
ATOM     13  C   UNL A   1      33.980  23.950  22.648  1.00  0.00     0.025 C 
BRANCH  13  14
ATOM     14  C   UNL A   1      34.135  22.803  23.506  1.00  0.00     0.030 A 
ATOM     15  C   UNL A   1      36.707  22.743  23.738  1.00  0.00     0.046 C 
ATOM     16  C   UNL A   1      35.322  22.267  24.021  1.00  0.00    -0.033 A 
ATOM     17  C   UNL A   1      35.084  21.153  24.890  1.00  0.00     0.016 A 
ATOM     18  C   UNL A   1      33.753  20.853  25.010  1.00  0.00     0.066 A 
ATOM     19  S   UNL A   1      32.781  21.903  24.092  1.00  0.00    -0.144 S 
ENDBRANCH  13  14
ENDBRANCH   9  12
ENDBRANCH   7   8
ENDBRANCH   6   7
BRANCH   6  20
ATOM     20  C   UNL A   1      31.094  27.284  25.482  1.00  0.00     0.018 C 
BRANCH  20  21
ATOM     21  C   UNL A   1      32.289  26.612  26.189  1.00  0.00    -0.017 C 
ATOM     22  C   UNL A   1      32.251  25.095  26.240  1.00  0.00     0.007 C 
ATOM     23  C   UNL A   1      33.612  27.013  25.528  1.00  0.00     0.007 C 
ENDBRANCH  20  21
ENDBRANCH   6  20
ENDBRANCH   3   6
ENDBRANCH   1   2
BRANCH   1  24
ATOM     24  C   UNL A   1      31.431  31.747  26.607  1.00  0.00     0.042 C 
BRANCH  24  25
ATOM     25  C   UNL A   1      32.639  32.420  27.227  1.00  0.00     0.118 C 
BRANCH  25  26
ATOM     26  N   UNL A   1      32.399  33.817  27.556  1.00  0.00    -0.352 N 
ATOM     27  C   UNL A   1      33.029  34.646  28.449  1.00  0.00     0.251 C 
ATOM     28  H   UNL A   1      31.660  34.235  27.056  1.00  0.00     0.163 HD
ATOM     29  O   UNL A   1      32.529  35.741  28.711  1.00  0.00    -0.269 OA
BRANCH  27  30
ATOM     30  C   UNL A   1      34.279  34.234  29.128  1.00  0.00     0.039 A 
ATOM     31  C   UNL A   1      34.197  33.619  30.382  1.00  0.00     0.014 A 
ATOM     32  C   UNL A   1      35.531  34.459  28.553  1.00  0.00     0.014 A 
ATOM     33  C   UNL A   1      35.355  33.151  31.007  1.00  0.00     0.010 A 
ATOM     34  C   UNL A   1      36.671  33.901  29.123  1.00  0.00     0.010 A 
ATOM     35  C   UNL A   1      36.595  33.237  30.356  1.00  0.00    -0.014 A 
BRANCH  35  36
ATOM     36  C   UNL A   1      37.823  32.632  30.932  1.00  0.00     0.031 A 
ATOM     37  C   UNL A   1      38.427  31.403  30.311  1.00  0.00     0.074 A 
ATOM     38  C   UNL A   1      38.345  33.141  32.066  1.00  0.00     0.049 A 
ATOM     39  N   UNL A   1      39.432  30.675  30.730  1.00  0.00    -0.248 NA
ATOM     40  C   UNL A   1      37.805  30.910  29.070  1.00  0.00     0.031 C 
ATOM     41  C   UNL A   1      37.835  34.312  32.785  1.00  0.00     0.029 A 
ATOM     42  N   UNL A   1      39.416  32.731  32.822  1.00  0.00    -0.354 N 
ATOM     43  C   UNL A   1      39.549  29.634  29.817  1.00  0.00     0.074 A 
ATOM     44  C   UNL A   1      38.483  29.794  28.852  1.00  0.00     0.031 C 
ATOM     45  C   UNL A   1      38.607  34.539  33.860  1.00  0.00     0.029 A 
ATOM     46  C   UNL A   1      39.629  33.503  33.939  1.00  0.00     0.049 A 
ATOM     47  H   UNL A   1      39.977  31.958  32.586  1.00  0.00     0.167 HD
ATOM     48  C   UNL A   1      40.472  28.643  29.775  1.00  0.00     0.031 A 
ATOM     49  C   UNL A   1      40.534  33.380  34.928  1.00  0.00     0.031 A 
ATOM     50  C   UNL A   1      41.532  28.488  30.733  1.00  0.00     0.049 A 
ATOM     51  C   UNL A   1      41.515  32.241  34.886  1.00  0.00     0.074 A 
ATOM     52  C   UNL A   1      42.551  27.552  30.746  1.00  0.00     0.029 A 
ATOM     53  N   UNL A   1      41.705  29.284  31.856  1.00  0.00    -0.354 N 
ATOM     54  N   UNL A   1      41.658  31.309  33.976  1.00  0.00    -0.248 NA
ATOM     55  C   UNL A   1      42.461  32.139  36.007  1.00  0.00     0.031 C 
ATOM     56  C   UNL A   1      43.301  27.740  31.911  1.00  0.00     0.029 A 
ATOM     57  C   UNL A   1      42.789  28.834  32.589  1.00  0.00     0.049 A 
ATOM     58  H   UNL A   1      41.141  30.054  32.095  1.00  0.00     0.167 HD
ATOM     59  C   UNL A   1      42.719  30.522  34.403  1.00  0.00     0.074 A 
ATOM     60  C   UNL A   1      43.197  31.099  35.642  1.00  0.00     0.031 C 
ATOM     61  C   UNL A   1      43.248  29.417  33.824  1.00  0.00     0.031 A 
BRANCH  48  62
ATOM     62  C   UNL A   1      40.366  27.640  28.658  1.00  0.00    -0.014 A 
ATOM     63  C   UNL A   1      41.014  27.843  27.429  1.00  0.00     0.009 A 
ATOM     64  C   UNL A   1      39.639  26.455  28.853  1.00  0.00     0.009 A 
ATOM     65  C   UNL A   1      40.905  26.899  26.406  1.00  0.00     0.001 A 
ATOM     66  C   UNL A   1      39.559  25.497  27.840  1.00  0.00     0.001 A 
ATOM     67  C   UNL A   1      40.183  25.725  26.615  1.00  0.00     0.000 A 
ENDBRANCH  48  62
BRANCH  49  68
ATOM     68  C   UNL A   1      40.549  34.354  36.052  1.00  0.00    -0.014 A 
ATOM     69  C   UNL A   1      39.779  34.126  37.203  1.00  0.00     0.009 A 
ATOM     70  C   UNL A   1      41.328  35.520  35.980  1.00  0.00     0.009 A 
ATOM     71  C   UNL A   1      39.768  35.057  38.244  1.00  0.00     0.001 A 
ATOM     72  C   UNL A   1      41.341  36.433  37.036  1.00  0.00     0.001 A 
ATOM     73  C   UNL A   1      40.553  36.206  38.163  1.00  0.00     0.000 A 
ENDBRANCH  49  68
BRANCH  61  74
ATOM     74  C   UNL A   1      44.415  28.768  34.512  1.00  0.00    -0.014 A 
ATOM     75  C   UNL A   1      45.731  29.182  34.257  1.00  0.00     0.009 A 
ATOM     76  C   UNL A   1      44.190  27.769  35.473  1.00  0.00     0.009 A 
ATOM     77  C   UNL A   1      46.801  28.592  34.933  1.00  0.00     0.001 A 
ATOM     78  C   UNL A   1      45.258  27.202  36.169  1.00  0.00     0.001 A 
ATOM     79  C   UNL A   1      46.563  27.609  35.894  1.00  0.00     0.000 A 
ENDBRANCH  61  74
ENDBRANCH  35  36
ENDBRANCH  27  30
ENDBRANCH  25  26
ENDBRANCH  24  25
ENDBRANCH   1  24
TORSDOF 16
ENDMDL
MODEL 2
REMARK VINA RESULT:     -10.8      3.569      7.620
REMARK SMILES Cc1ccsc1/C=C/C(=O)NC[C@H](CC(C)C)C(=O)NCCCNC(=O)c1ccc(-c2c3nc(c(-c4ccccc4)c4ccc([nH]4)c(-c4ccccc4)c4nc(c(-c5ccccc5)c5ccc2[nH]5)C=C4)C=C3)cc1
REMARK SMILES IDX 21 1 20 2 18 3 19 4 13 6 12 7 11 8 9 9 10 10 8 12 7 13 6 14
REMARK SMILES IDX 1 15 2 16 3 17 4 18 5 19 14 20 15 21 16 22 17 23 22 24 23 25
REMARK SMILES IDX 24 26 25 27 26 29 27 30 28 31 74 32 29 33 73 34 30 35 31 36
REMARK SMILES IDX 32 37 67 38 33 39 72 40 66 41 68 42 34 43 71 44 65 45 64 46
REMARK SMILES IDX 35 48 57 49 42 50 56 51 43 52 46 53 55 54 69 55 44 56 45 57
REMARK SMILES IDX 54 59 70 60 47 61 36 62 37 63 41 64 38 65 40 66 39 67 58 68
REMARK SMILES IDX 59 69 63 70 60 71 62 72 61 73 48 74 49 75 53 76 50 77 52 78
REMARK SMILES IDX 51 79
REMARK H PARENT 20 5 11 11 24 28 68 47 46 58
REMARK Flexibility Score: inf
ROOT
ATOM      1  C   UNL A   1      32.625  28.112  24.936  1.00  0.00     0.117 C 
ENDROOT
BRANCH   1   2
ATOM      2  N   UNL A   1      33.251  27.410  23.831  1.00  0.00    -0.356 N 
ATOM      3  C   UNL A   1      33.368  26.103  23.496  1.00  0.00     0.224 C 
ATOM      4  O   UNL A   1      33.954  25.880  22.428  1.00  0.00    -0.275 OA
ATOM      5  H   UNL A   1      33.684  28.015  23.185  1.00  0.00     0.163 HD
BRANCH   3   6
ATOM      6  C   UNL A   1      32.895  24.915  24.339  1.00  0.00     0.098 C 
BRANCH   6   7
ATOM      7  C   UNL A   1      31.390  24.753  24.531  1.00  0.00     0.129 C 
BRANCH   7   8
ATOM      8  N   UNL A   1      30.911  24.384  25.840  1.00  0.00    -0.352 N 
ATOM      9  C   UNL A   1      30.792  23.134  26.376  1.00  0.00     0.244 C 
ATOM     10  O   UNL A   1      30.393  23.035  27.538  1.00  0.00    -0.270 OA
ATOM     11  H   UNL A   1      30.635  25.129  26.422  1.00  0.00     0.163 HD
BRANCH   9  12
ATOM     12  C   UNL A   1      31.075  21.866  25.621  1.00  0.00     0.072 C 
ATOM     13  C   UNL A   1      32.228  21.230  25.348  1.00  0.00     0.025 C 
BRANCH  13  14
ATOM     14  C   UNL A   1      32.350  20.001  24.607  1.00  0.00     0.030 A 
ATOM     15  C   UNL A   1      31.966  20.869  22.204  1.00  0.00     0.046 C 
ATOM     16  C   UNL A   1      32.264  19.819  23.220  1.00  0.00    -0.033 A 
ATOM     17  C   UNL A   1      32.496  18.459  22.834  1.00  0.00     0.016 A 
ATOM     18  C   UNL A   1      32.732  17.640  23.906  1.00  0.00     0.066 A 
ATOM     19  S   UNL A   1      32.686  18.491  25.377  1.00  0.00    -0.144 S 
ENDBRANCH  13  14
ENDBRANCH   9  12
ENDBRANCH   7   8
ENDBRANCH   6   7
BRANCH   6  20
ATOM     20  C   UNL A   1      33.722  24.728  25.645  1.00  0.00     0.018 C 
BRANCH  20  21
ATOM     21  C   UNL A   1      34.781  23.613  25.761  1.00  0.00    -0.017 C 
ATOM     22  C   UNL A   1      36.214  24.040  25.500  1.00  0.00     0.007 C 
ATOM     23  C   UNL A   1      34.744  22.965  27.149  1.00  0.00     0.007 C 
ENDBRANCH  20  21
ENDBRANCH   6  20
ENDBRANCH   3   6
ENDBRANCH   1   2
BRANCH   1  24
ATOM     24  C   UNL A   1      33.561  29.120  25.593  1.00  0.00     0.042 C 
BRANCH  24  25
ATOM     25  C   UNL A   1      33.539  29.108  27.109  1.00  0.00     0.118 C 
BRANCH  25  26
ATOM     26  N   UNL A   1      33.642  30.440  27.684  1.00  0.00    -0.352 N 
ATOM     27  C   UNL A   1      34.640  31.016  28.430  1.00  0.00     0.251 C 
ATOM     28  H   UNL A   1      32.868  31.023  27.511  1.00  0.00     0.163 HD
ATOM     29  O   UNL A   1      34.430  32.095  28.985  1.00  0.00    -0.269 OA
BRANCH  27  30
ATOM     30  C   UNL A   1      35.950  30.348  28.606  1.00  0.00     0.039 A 
ATOM     31  C   UNL A   1      36.854  30.339  27.539  1.00  0.00     0.014 A 
ATOM     32  C   UNL A   1      36.293  29.718  29.804  1.00  0.00     0.014 A 
ATOM     33  C   UNL A   1      38.125  29.785  27.706  1.00  0.00     0.010 A 
ATOM     34  C   UNL A   1      37.592  29.261  30.004  1.00  0.00     0.010 A 
ATOM     35  C   UNL A   1      38.525  29.293  28.957  1.00  0.00    -0.014 A 
BRANCH  35  36
ATOM     36  C   UNL A   1      39.910  28.819  29.205  1.00  0.00     0.031 A 
ATOM     37  C   UNL A   1      40.936  29.747  29.794  1.00  0.00     0.074 A 
ATOM     38  C   UNL A   1      40.266  27.578  28.817  1.00  0.00     0.049 A 
ATOM     39  N   UNL A   1      42.216  29.547  29.987  1.00  0.00    -0.248 NA
ATOM     40  C   UNL A   1      40.469  31.084  30.198  1.00  0.00     0.031 C 
ATOM     41  C   UNL A   1      39.374  26.590  28.204  1.00  0.00     0.029 A 
ATOM     42  N   UNL A   1      41.480  26.936  28.871  1.00  0.00    -0.354 N 
ATOM     43  C   UNL A   1      42.707  30.735  30.515  1.00  0.00     0.074 A 
ATOM     44  C   UNL A   1      41.601  31.666  30.565  1.00  0.00     0.031 C 
ATOM     45  C   UNL A   1      40.063  25.463  27.964  1.00  0.00     0.029 A 
ATOM     46  C   UNL A   1      41.453  25.664  28.351  1.00  0.00     0.049 A 
ATOM     47  H   UNL A   1      42.291  27.349  29.246  1.00  0.00     0.167 HD
ATOM     48  C   UNL A   1      43.962  31.020  30.937  1.00  0.00     0.031 A 
ATOM     49  C   UNL A   1      42.443  24.765  28.187  1.00  0.00     0.031 A 
ATOM     50  C   UNL A   1      45.059  30.092  30.889  1.00  0.00     0.049 A 
ATOM     51  C   UNL A   1      43.838  25.125  28.616  1.00  0.00     0.074 A 
ATOM     52  C   UNL A   1      46.354  30.265  31.344  1.00  0.00     0.029 A 
ATOM     53  N   UNL A   1      44.993  28.819  30.344  1.00  0.00    -0.354 N 
ATOM     54  N   UNL A   1      44.269  26.226  29.181  1.00  0.00    -0.248 NA
ATOM     55  C   UNL A   1      44.883  24.117  28.385  1.00  0.00     0.031 C 
ATOM     56  C   UNL A   1      47.089  29.122  31.015  1.00  0.00     0.029 A 
ATOM     57  C   UNL A   1      46.235  28.212  30.414  1.00  0.00     0.049 A 
ATOM     58  H   UNL A   1      44.183  28.408  29.963  1.00  0.00     0.167 HD
ATOM     59  C   UNL A   1      45.629  26.037  29.391  1.00  0.00     0.074 A 
ATOM     60  C   UNL A   1      45.946  24.707  28.913  1.00  0.00     0.031 C 
ATOM     61  C   UNL A   1      46.535  26.890  29.928  1.00  0.00     0.031 A 
BRANCH  48  62
ATOM     62  C   UNL A   1      44.218  32.401  31.478  1.00  0.00    -0.014 A 
ATOM     63  C   UNL A   1      44.610  33.454  30.635  1.00  0.00     0.009 A 
ATOM     64  C   UNL A   1      44.023  32.662  32.843  1.00  0.00     0.009 A 
ATOM     65  C   UNL A   1      44.839  34.730  31.156  1.00  0.00     0.001 A 
ATOM     66  C   UNL A   1      44.221  33.947  33.355  1.00  0.00     0.001 A 
ATOM     67  C   UNL A   1      44.638  34.975  32.513  1.00  0.00     0.000 A 
ENDBRANCH  48  62
BRANCH  49  68
ATOM     68  C   UNL A   1      42.154  23.440  27.576  1.00  0.00    -0.014 A 
ATOM     69  C   UNL A   1      41.619  22.399  28.351  1.00  0.00     0.009 A 
ATOM     70  C   UNL A   1      42.415  23.206  26.217  1.00  0.00     0.009 A 
ATOM     71  C   UNL A   1      41.379  21.145  27.784  1.00  0.00     0.001 A 
ATOM     72  C   UNL A   1      42.143  21.961  25.645  1.00  0.00     0.001 A 
ATOM     73  C   UNL A   1      41.635  20.929  26.431  1.00  0.00     0.000 A 
ENDBRANCH  49  68
BRANCH  61  74
ATOM     74  C   UNL A   1      47.953  26.407  30.044  1.00  0.00    -0.014 A 
ATOM     75  C   UNL A   1      48.411  25.772  31.208  1.00  0.00     0.009 A 
ATOM     76  C   UNL A   1      48.825  26.537  28.951  1.00  0.00     0.009 A 
ATOM     77  C   UNL A   1      49.722  25.297  31.284  1.00  0.00     0.001 A 
ATOM     78  C   UNL A   1      50.125  26.034  29.019  1.00  0.00     0.001 A 
ATOM     79  C   UNL A   1      50.574  25.421  30.187  1.00  0.00     0.000 A 
ENDBRANCH  61  74
ENDBRANCH  35  36
ENDBRANCH  27  30
ENDBRANCH  25  26
ENDBRANCH  24  25
ENDBRANCH   1  24
TORSDOF 16
ENDMDL
MODEL 3
REMARK VINA RESULT:     -10.6      3.604      7.490
REMARK SMILES Cc1ccsc1/C=C/C(=O)NC[C@H](CC(C)C)C(=O)NCCCNC(=O)c1ccc(-c2c3nc(c(-c4ccccc4)c4ccc([nH]4)c(-c4ccccc4)c4nc(c(-c5ccccc5)c5ccc2[nH]5)C=C4)C=C3)cc1
REMARK SMILES IDX 21 1 20 2 18 3 19 4 13 6 12 7 11 8 9 9 10 10 8 12 7 13 6 14
REMARK SMILES IDX 1 15 2 16 3 17 4 18 5 19 14 20 15 21 16 22 17 23 22 24 23 25
REMARK SMILES IDX 24 26 25 27 26 29 27 30 28 31 74 32 29 33 73 34 30 35 31 36
REMARK SMILES IDX 32 37 67 38 33 39 72 40 66 41 68 42 34 43 71 44 65 45 64 46
REMARK SMILES IDX 35 48 57 49 42 50 56 51 43 52 46 53 55 54 69 55 44 56 45 57
REMARK SMILES IDX 54 59 70 60 47 61 36 62 37 63 41 64 38 65 40 66 39 67 58 68
REMARK SMILES IDX 59 69 63 70 60 71 62 72 61 73 48 74 49 75 53 76 50 77 52 78
REMARK SMILES IDX 51 79
REMARK H PARENT 20 5 11 11 24 28 68 47 46 58
REMARK Flexibility Score: inf
ROOT
ATOM      1  C   UNL A   1      32.099  28.158  26.089  1.00  0.00     0.117 C 
ENDROOT
BRANCH   1   2
ATOM      2  N   UNL A   1      31.169  28.129  24.977  1.00  0.00    -0.356 N 
ATOM      3  C   UNL A   1      30.606  27.134  24.250  1.00  0.00     0.224 C 
ATOM      4  O   UNL A   1      29.806  27.500  23.379  1.00  0.00    -0.275 OA
ATOM      5  H   UNL A   1      30.886  29.027  24.686  1.00  0.00     0.163 HD
BRANCH   3   6
ATOM      6  C   UNL A   1      30.916  25.639  24.385  1.00  0.00     0.098 C 
BRANCH   6   7
ATOM      7  C   UNL A   1      30.727  24.774  23.143  1.00  0.00     0.129 C 
BRANCH   7   8
ATOM      8  N   UNL A   1      31.522  25.079  21.979  1.00  0.00    -0.352 N 
ATOM      9  C   UNL A   1      32.846  24.823  21.769  1.00  0.00     0.244 C 
ATOM     10  O   UNL A   1      33.333  25.134  20.680  1.00  0.00    -0.270 OA
ATOM     11  H   UNL A   1      31.049  25.529  21.243  1.00  0.00     0.163 HD
BRANCH   9  12
ATOM     12  C   UNL A   1      33.761  24.227  22.800  1.00  0.00     0.072 C 
ATOM     13  C   UNL A   1      34.309  23.003  22.905  1.00  0.00     0.025 C 
BRANCH  13  14
ATOM     14  C   UNL A   1      35.185  22.566  23.961  1.00  0.00     0.030 A 
ATOM     15  C   UNL A   1      33.842  20.556  24.874  1.00  0.00     0.046 C 
ATOM     16  C   UNL A   1      35.015  21.477  24.826  1.00  0.00    -0.033 A 
ATOM     17  C   UNL A   1      36.124  21.311  25.717  1.00  0.00     0.016 A 
ATOM     18  C   UNL A   1      37.092  22.262  25.536  1.00  0.00     0.066 A 
ATOM     19  S   UNL A   1      36.686  23.353  24.297  1.00  0.00    -0.144 S 
ENDBRANCH  13  14
ENDBRANCH   9  12
ENDBRANCH   7   8
ENDBRANCH   6   7
BRANCH   6  20
ATOM     20  C   UNL A   1      30.336  25.013  25.686  1.00  0.00     0.018 C 
BRANCH  20  21
ATOM     21  C   UNL A   1      31.070  23.868  26.413  1.00  0.00    -0.017 C 
ATOM     22  C   UNL A   1      30.857  22.481  25.835  1.00  0.00     0.007 C 
ATOM     23  C   UNL A   1      32.581  24.121  26.448  1.00  0.00     0.007 C 
ENDBRANCH  20  21
ENDBRANCH   6  20
ENDBRANCH   3   6
ENDBRANCH   1   2
BRANCH   1  24
ATOM     24  C   UNL A   1      32.398  29.575  26.565  1.00  0.00     0.042 C 
BRANCH  24  25
ATOM     25  C   UNL A   1      33.792  29.771  27.128  1.00  0.00     0.118 C 
BRANCH  25  26
ATOM     26  N   UNL A   1      33.873  30.893  28.051  1.00  0.00    -0.352 N 
ATOM     27  C   UNL A   1      34.840  31.230  28.965  1.00  0.00     0.251 C 
ATOM     28  H   UNL A   1      33.108  31.512  28.013  1.00  0.00     0.163 HD
ATOM     29  O   UNL A   1      34.608  32.118  29.787  1.00  0.00    -0.269 OA
BRANCH  27  30
ATOM     30  C   UNL A   1      36.140  30.522  29.004  1.00  0.00     0.039 A 
ATOM     31  C   UNL A   1      36.929  30.495  27.849  1.00  0.00     0.014 A 
ATOM     32  C   UNL A   1      36.584  29.873  30.157  1.00  0.00     0.014 A 
ATOM     33  C   UNL A   1      38.194  29.903  27.883  1.00  0.00     0.010 A 
ATOM     34  C   UNL A   1      37.882  29.376  30.221  1.00  0.00     0.010 A 
ATOM     35  C   UNL A   1      38.704  29.389  29.085  1.00  0.00    -0.014 A 
BRANCH  35  36
ATOM     36  C   UNL A   1      40.093  28.872  29.187  1.00  0.00     0.031 A 
ATOM     37  C   UNL A   1      41.215  29.787  29.592  1.00  0.00     0.074 A 
ATOM     38  C   UNL A   1      40.355  27.599  28.831  1.00  0.00     0.049 A 
ATOM     39  N   UNL A   1      42.501  29.546  29.636  1.00  0.00    -0.248 NA
ATOM     40  C   UNL A   1      40.848  31.162  29.972  1.00  0.00     0.031 C 
ATOM     41  C   UNL A   1      39.360  26.617  28.390  1.00  0.00     0.029 A 
ATOM     42  N   UNL A   1      41.543  26.912  28.772  1.00  0.00    -0.354 N 
ATOM     43  C   UNL A   1      43.094  30.739  30.031  1.00  0.00     0.074 A 
ATOM     44  C   UNL A   1      42.036  31.716  30.163  1.00  0.00     0.031 C 
ATOM     45  C   UNL A   1      39.974  25.452  28.133  1.00  0.00     0.029 A 
ATOM     46  C   UNL A   1      41.408  25.616  28.334  1.00  0.00     0.049 A 
ATOM     47  H   UNL A   1      42.408  27.310  29.021  1.00  0.00     0.167 HD
ATOM     48  C   UNL A   1      44.402  30.994  30.279  1.00  0.00     0.031 A 
ATOM     49  C   UNL A   1      42.338  24.670  28.102  1.00  0.00     0.031 A 
ATOM     50  C   UNL A   1      45.452  30.021  30.149  1.00  0.00     0.049 A 
ATOM     51  C   UNL A   1      43.788  24.994  28.335  1.00  0.00     0.074 A 
ATOM     52  C   UNL A   1      46.799  30.165  30.432  1.00  0.00     0.029 A 
ATOM     53  N   UNL A   1      45.274  28.724  29.691  1.00  0.00    -0.354 N 
ATOM     54  N   UNL A   1      44.323  26.105  28.778  1.00  0.00    -0.248 NA
ATOM     55  C   UNL A   1      44.760  23.933  28.036  1.00  0.00     0.031 C 
ATOM     56  C   UNL A   1      47.447  28.977  30.081  1.00  0.00     0.029 A 
ATOM     57  C   UNL A   1      46.494  28.071  29.643  1.00  0.00     0.049 A 
ATOM     58  H   UNL A   1      44.410  28.327  29.438  1.00  0.00     0.167 HD
ATOM     59  C   UNL A   1      45.691  25.872  28.830  1.00  0.00     0.074 A 
ATOM     60  C   UNL A   1      45.900  24.506  28.394  1.00  0.00     0.031 C 
ATOM     61  C   UNL A   1      46.686  26.714  29.201  1.00  0.00     0.031 A 
BRANCH  48  62
ATOM     62  C   UNL A   1      44.770  32.391  30.703  1.00  0.00    -0.014 A 
ATOM     63  C   UNL A   1      45.084  33.382  29.759  1.00  0.00     0.009 A 
ATOM     64  C   UNL A   1      44.761  32.730  32.065  1.00  0.00     0.009 A 
ATOM     65  C   UNL A   1      45.420  34.673  30.173  1.00  0.00     0.001 A 
ATOM     66  C   UNL A   1      45.065  34.030  32.474  1.00  0.00     0.001 A 
ATOM     67  C   UNL A   1      45.404  34.997  31.529  1.00  0.00     0.000 A 
ENDBRANCH  48  62
BRANCH  49  68
ATOM     68  C   UNL A   1      41.930  23.327  27.608  1.00  0.00    -0.014 A 
ATOM     69  C   UNL A   1      41.904  23.051  26.232  1.00  0.00     0.009 A 
ATOM     70  C   UNL A   1      41.558  22.316  28.508  1.00  0.00     0.009 A 
ATOM     71  C   UNL A   1      41.489  21.801  25.768  1.00  0.00     0.001 A 
ATOM     72  C   UNL A   1      41.175  21.056  28.042  1.00  0.00     0.001 A 
ATOM     73  C   UNL A   1      41.131  20.803  26.673  1.00  0.00     0.000 A 
ENDBRANCH  49  68
BRANCH  61  74
ATOM     74  C   UNL A   1      48.090  26.180  29.170  1.00  0.00    -0.014 A 
ATOM     75  C   UNL A   1      48.740  25.777  30.347  1.00  0.00     0.009 A 
ATOM     76  C   UNL A   1      48.748  26.024  27.940  1.00  0.00     0.009 A 
ATOM     77  C   UNL A   1      50.032  25.250  30.293  1.00  0.00     0.001 A 
ATOM     78  C   UNL A   1      50.027  25.467  27.887  1.00  0.00     0.001 A 
ATOM     79  C   UNL A   1      50.670  25.087  29.064  1.00  0.00     0.000 A 
ENDBRANCH  61  74
ENDBRANCH  35  36
ENDBRANCH  27  30
ENDBRANCH  25  26
ENDBRANCH  24  25
ENDBRANCH   1  24
TORSDOF 16
ENDMDL
