MODEL 1
REMARK VINA RESULT:     -12.9      0.000      0.000
REMARK SMILES Nc1ccc(-c2cc(Cl)cc3c2O[C@H](C(F)(F)F)C(C(=O)NCCCNC(=O)c2ccc(-c4c5nc(c(-c6ccccc6)c6ccc([nH]6)c(-c6ccccc6)c6nc(c(-c7ccccc7)c7ccc4[nH]7)C=C6)C=C5)cc2)=C3)cc1
REMARK SMILES IDX 24 1 23 2 22 3 20 4 21 5 19 7 6 8 7 9 12 10 8 11 11 12 13 13
REMARK SMILES IDX 9 14 10 15 77 16 14 17 5 18 2 19 3 20 79 21 4 22 78 23 1 24
REMARK SMILES IDX 15 27 16 28 17 29 18 30 25 31 26 32 27 33 28 35 29 36 30 37
REMARK SMILES IDX 76 38 31 39 75 40 32 41 33 42 34 43 69 44 35 45 74 46 68 47
REMARK SMILES IDX 70 48 36 49 73 50 67 51 66 52 37 54 59 55 44 56 58 57 45 58
REMARK SMILES IDX 48 59 57 60 71 61 46 62 47 63 56 65 72 66 49 67 38 68 39 69
REMARK SMILES IDX 43 70 40 71 42 72 41 73 60 74 61 75 65 76 62 77 64 78 63 79
REMARK SMILES IDX 50 80 51 81 55 82 52 83 54 84 53 85
REMARK H PARENT 22 6 1 25 1 26 26 34 70 53 48 64
REMARK Flexibility Score: inf
ROOT
ATOM      1  C   UNL A   1      37.759  19.888  25.009  1.00  0.00     0.042 C 
ENDROOT
BRANCH   1   2
ATOM      2  C   UNL A   1      36.701  20.979  25.067  1.00  0.00     0.118 C 
BRANCH   2   3
ATOM      3  N   UNL A   1      37.165  22.158  25.783  1.00  0.00    -0.352 N 
ATOM      4  C   UNL A   1      36.650  23.349  26.169  1.00  0.00     0.251 C 
ATOM      5  O   UNL A   1      37.425  24.079  26.794  1.00  0.00    -0.270 OA
ATOM      6  H   UNL A   1      38.105  22.065  26.059  1.00  0.00     0.163 HD
BRANCH   4   7
ATOM      7  C   UNL A   1      35.261  23.814  25.891  1.00  0.00     0.067 C 
ATOM      8  C   UNL A   1      31.345  25.256  25.346  1.00  0.00     0.026 A 
ATOM      9  C   UNL A   1      30.284  24.563  25.944  1.00  0.00     0.033 A 
ATOM     10  C   UNL A   1      32.655  24.813  25.612  1.00  0.00     0.135 A 
ATOM     11  C   UNL A   1      30.533  23.468  26.775  1.00  0.00     0.042 A 
ATOM     12  C   UNL A   1      32.909  23.708  26.436  1.00  0.00     0.019 A 
ATOM     13  O   UNL A   1      33.692  25.540  25.082  1.00  0.00    -0.475 OA
ATOM     14  Cl  UNL A   1      29.213  22.634  27.500  1.00  0.00    -0.084 Cl
ATOM     15  C   UNL A   1      31.837  23.037  27.024  1.00  0.00     0.032 A 
ATOM     16  C   UNL A   1      34.291  23.301  26.674  1.00  0.00     0.025 C 
ATOM     17  C   UNL A   1      34.901  24.789  24.810  1.00  0.00     0.314 C 
BRANCH   8  18
ATOM     18  C   UNL A   1      31.097  26.395  24.447  1.00  0.00    -0.014 A 
ATOM     19  C   UNL A   1      30.779  28.588  22.681  1.00  0.00     0.031 A 
ATOM     20  C   UNL A   1      30.837  27.285  22.191  1.00  0.00     0.026 A 
ATOM     21  C   UNL A   1      30.901  28.789  24.058  1.00  0.00     0.026 A 
ATOM     22  C   UNL A   1      30.975  26.200  23.061  1.00  0.00     0.011 A 
ATOM     23  C   UNL A   1      31.046  27.707  24.934  1.00  0.00     0.011 A 
BRANCH  19  24
ATOM     24  N   UNL A   1      30.737  29.665  21.812  1.00  0.00    -0.399 N 
ATOM     25  H   UNL A   1      30.184  29.618  20.998  1.00  0.00     0.156 HD
ATOM     26  H   UNL A   1      31.258  30.477  22.007  1.00  0.00     0.156 HD
ENDBRANCH  19  24
ENDBRANCH   8  18
BRANCH  17  27
ATOM     27  C   UNL A   1      34.810  24.142  23.413  1.00  0.00     0.429 C 
ATOM     28  F   UNL A   1      34.381  25.048  22.498  1.00  0.00    -0.167 F 
ATOM     29  F   UNL A   1      36.008  23.691  22.973  1.00  0.00    -0.167 F 
ATOM     30  F   UNL A   1      33.960  23.092  23.371  1.00  0.00    -0.167 F 
ENDBRANCH  17  27
ENDBRANCH   4   7
ENDBRANCH   2   3
ENDBRANCH   1   2
BRANCH   1  31
ATOM     31  C   UNL A   1      39.029  20.267  25.757  1.00  0.00     0.118 C 
BRANCH  31  32
ATOM     32  N   UNL A   1      40.016  19.188  25.769  1.00  0.00    -0.352 N 
ATOM     33  C   UNL A   1      41.373  19.222  25.984  1.00  0.00     0.251 C 
ATOM     34  H   UNL A   1      39.649  18.290  25.594  1.00  0.00     0.163 HD
ATOM     35  O   UNL A   1      42.050  18.218  25.782  1.00  0.00    -0.269 OA
BRANCH  33  36
ATOM     36  C   UNL A   1      42.021  20.472  26.430  1.00  0.00     0.039 A 
ATOM     37  C   UNL A   1      42.142  20.759  27.788  1.00  0.00     0.014 A 
ATOM     38  C   UNL A   1      42.500  21.378  25.479  1.00  0.00     0.014 A 
ATOM     39  C   UNL A   1      42.536  22.027  28.187  1.00  0.00     0.010 A 
ATOM     40  C   UNL A   1      43.011  22.613  25.890  1.00  0.00     0.010 A 
ATOM     41  C   UNL A   1      42.977  22.972  27.245  1.00  0.00    -0.014 A 
BRANCH  41  42
ATOM     42  C   UNL A   1      43.387  24.316  27.728  1.00  0.00     0.031 A 
ATOM     43  C   UNL A   1      44.818  24.772  27.636  1.00  0.00     0.074 A 
ATOM     44  C   UNL A   1      42.431  25.169  28.151  1.00  0.00     0.049 A 
ATOM     45  N   UNL A   1      45.318  25.955  27.896  1.00  0.00    -0.248 NA
ATOM     46  C   UNL A   1      45.819  23.785  27.201  1.00  0.00     0.031 C 
ATOM     47  C   UNL A   1      41.008  24.840  28.276  1.00  0.00     0.029 A 
ATOM     48  N   UNL A   1      42.495  26.496  28.491  1.00  0.00    -0.354 N 
ATOM     49  C   UNL A   1      46.687  25.845  27.681  1.00  0.00     0.074 A 
ATOM     50  C   UNL A   1      46.947  24.477  27.293  1.00  0.00     0.031 C 
ATOM     51  C   UNL A   1      40.324  25.955  28.564  1.00  0.00     0.029 A 
ATOM     52  C   UNL A   1      41.263  27.060  28.721  1.00  0.00     0.049 A 
ATOM     53  H   UNL A   1      43.340  26.996  28.563  1.00  0.00     0.167 HD
ATOM     54  C   UNL A   1      47.638  26.803  27.786  1.00  0.00     0.031 A 
ATOM     55  C   UNL A   1      40.916  28.328  29.015  1.00  0.00     0.031 A 
ATOM     56  C   UNL A   1      47.373  28.169  28.153  1.00  0.00     0.049 A 
ATOM     57  C   UNL A   1      41.991  29.370  29.124  1.00  0.00     0.074 A 
ATOM     58  C   UNL A   1      48.274  29.211  28.287  1.00  0.00     0.029 A 
ATOM     59  N   UNL A   1      46.117  28.685  28.432  1.00  0.00    -0.354 N 
ATOM     60  N   UNL A   1      43.280  29.245  28.919  1.00  0.00    -0.248 NA
ATOM     61  C   UNL A   1      41.567  30.724  29.504  1.00  0.00     0.031 C 
ATOM     62  C   UNL A   1      47.570  30.346  28.692  1.00  0.00     0.029 A 
ATOM     63  C   UNL A   1      46.222  30.028  28.748  1.00  0.00     0.049 A 
ATOM     64  H   UNL A   1      45.277  28.172  28.409  1.00  0.00     0.167 HD
ATOM     65  C   UNL A   1      43.820  30.506  29.130  1.00  0.00     0.074 A 
ATOM     66  C   UNL A   1      42.716  31.385  29.457  1.00  0.00     0.031 C 
ATOM     67  C   UNL A   1      45.115  30.893  29.064  1.00  0.00     0.031 A 
BRANCH  54  68
ATOM     68  C   UNL A   1      49.066  26.416  27.515  1.00  0.00    -0.014 A 
ATOM     69  C   UNL A   1      49.543  26.400  26.193  1.00  0.00     0.009 A 
ATOM     70  C   UNL A   1      49.911  25.977  28.546  1.00  0.00     0.009 A 
ATOM     71  C   UNL A   1      50.829  25.940  25.908  1.00  0.00     0.001 A 
ATOM     72  C   UNL A   1      51.208  25.543  28.260  1.00  0.00     0.001 A 
ATOM     73  C   UNL A   1      51.662  25.515  26.942  1.00  0.00     0.000 A 
ENDBRANCH  54  68
BRANCH  55  74
ATOM     74  C   UNL A   1      39.481  28.668  29.200  1.00  0.00    -0.014 A 
ATOM     75  C   UNL A   1      38.720  29.157  28.124  1.00  0.00     0.009 A 
ATOM     76  C   UNL A   1      38.880  28.567  30.463  1.00  0.00     0.009 A 
ATOM     77  C   UNL A   1      37.399  29.564  28.315  1.00  0.00     0.001 A 
ATOM     78  C   UNL A   1      37.546  28.944  30.643  1.00  0.00     0.001 A 
ATOM     79  C   UNL A   1      36.811  29.453  29.573  1.00  0.00     0.000 A 
ENDBRANCH  55  74
BRANCH  67  80
ATOM     80  C   UNL A   1      45.427  32.339  29.326  1.00  0.00    -0.014 A 
ATOM     81  C   UNL A   1      45.677  32.767  30.640  1.00  0.00     0.009 A 
ATOM     82  C   UNL A   1      45.375  33.291  28.297  1.00  0.00     0.009 A 
ATOM     83  C   UNL A   1      45.857  34.121  30.920  1.00  0.00     0.001 A 
ATOM     84  C   UNL A   1      45.583  34.642  28.577  1.00  0.00     0.001 A 
ATOM     85  C   UNL A   1      45.814  35.057  29.889  1.00  0.00     0.000 A 
ENDBRANCH  67  80
ENDBRANCH  41  42
ENDBRANCH  33  36
ENDBRANCH  31  32
ENDBRANCH   1  31
TORSDOF 13
ENDMDL
MODEL 2
REMARK VINA RESULT:     -12.9      4.987      9.918
REMARK SMILES Nc1ccc(-c2cc(Cl)cc3c2O[C@H](C(F)(F)F)C(C(=O)NCCCNC(=O)c2ccc(-c4c5nc(c(-c6ccccc6)c6ccc([nH]6)c(-c6ccccc6)c6nc(c(-c7ccccc7)c7ccc4[nH]7)C=C6)C=C5)cc2)=C3)cc1
REMARK SMILES IDX 24 1 23 2 22 3 20 4 21 5 19 7 6 8 7 9 12 10 8 11 11 12 13 13
REMARK SMILES IDX 9 14 10 15 77 16 14 17 5 18 2 19 3 20 79 21 4 22 78 23 1 24
REMARK SMILES IDX 15 27 16 28 17 29 18 30 25 31 26 32 27 33 28 35 29 36 30 37
REMARK SMILES IDX 76 38 31 39 75 40 32 41 33 42 34 43 69 44 35 45 74 46 68 47
REMARK SMILES IDX 70 48 36 49 73 50 67 51 66 52 37 54 59 55 44 56 58 57 45 58
REMARK SMILES IDX 48 59 57 60 71 61 46 62 47 63 56 65 72 66 49 67 38 68 39 69
REMARK SMILES IDX 43 70 40 71 42 72 41 73 60 74 61 75 65 76 62 77 64 78 63 79
REMARK SMILES IDX 50 80 51 81 55 82 52 83 54 84 53 85
REMARK H PARENT 22 6 1 25 1 26 26 34 70 53 48 64
REMARK Flexibility Score: inf
ROOT
ATOM      1  C   UNL A   1      31.494  31.742  26.502  1.00  0.00     0.042 C 
ENDROOT
BRANCH   1   2
ATOM      2  C   UNL A   1      31.909  30.388  25.949  1.00  0.00     0.118 C 
BRANCH   2   3
ATOM      3  N   UNL A   1      33.278  30.045  26.302  1.00  0.00    -0.352 N 
ATOM      4  C   UNL A   1      34.122  29.005  26.104  1.00  0.00     0.251 C 
ATOM      5  O   UNL A   1      35.249  29.143  26.590  1.00  0.00    -0.270 OA
ATOM      6  H   UNL A   1      33.705  30.760  26.828  1.00  0.00     0.163 HD
BRANCH   4   7
ATOM      7  C   UNL A   1      33.784  27.754  25.367  1.00  0.00     0.067 C 
ATOM      8  C   UNL A   1      33.087  24.214  23.201  1.00  0.00     0.026 A 
ATOM      9  C   UNL A   1      32.817  24.307  21.829  1.00  0.00     0.033 A 
ATOM     10  C   UNL A   1      33.407  25.398  23.892  1.00  0.00     0.135 A 
ATOM     11  C   UNL A   1      32.864  25.544  21.181  1.00  0.00     0.042 A 
ATOM     12  C   UNL A   1      33.445  26.643  23.248  1.00  0.00     0.019 A 
ATOM     13  O   UNL A   1      33.742  25.290  25.219  1.00  0.00    -0.475 OA
ATOM     14  Cl  UNL A   1      32.530  25.632  19.495  1.00  0.00    -0.084 Cl
ATOM     15  C   UNL A   1      33.176  26.711  21.881  1.00  0.00     0.032 A 
ATOM     16  C   UNL A   1      33.785  27.834  24.022  1.00  0.00     0.025 C 
ATOM     17  C   UNL A   1      33.445  26.452  26.031  1.00  0.00     0.314 C 
BRANCH   8  18
ATOM     18  C   UNL A   1      33.014  22.923  23.903  1.00  0.00    -0.014 A 
ATOM     19  C   UNL A   1      32.911  20.514  25.393  1.00  0.00     0.031 A 
ATOM     20  C   UNL A   1      31.824  21.385  25.376  1.00  0.00     0.026 A 
ATOM     21  C   UNL A   1      34.058  20.863  24.675  1.00  0.00     0.026 A 
ATOM     22  C   UNL A   1      31.866  22.565  24.628  1.00  0.00     0.011 A 
ATOM     23  C   UNL A   1      34.107  22.047  23.928  1.00  0.00     0.011 A 
BRANCH  19  24
ATOM     24  N   UNL A   1      32.903  19.394  26.208  1.00  0.00    -0.399 N 
ATOM     25  H   UNL A   1      33.553  19.318  26.944  1.00  0.00     0.156 HD
ATOM     26  H   UNL A   1      32.249  18.676  26.052  1.00  0.00     0.156 HD
ENDBRANCH  19  24
ENDBRANCH   8  18
BRANCH  17  27
ATOM     27  C   UNL A   1      31.986  26.385  26.526  1.00  0.00     0.429 C 
ATOM     28  F   UNL A   1      31.663  25.114  26.875  1.00  0.00    -0.167 F 
ATOM     29  F   UNL A   1      31.776  27.149  27.624  1.00  0.00    -0.167 F 
ATOM     30  F   UNL A   1      31.092  26.787  25.595  1.00  0.00    -0.167 F 
ENDBRANCH  17  27
ENDBRANCH   4   7
ENDBRANCH   2   3
ENDBRANCH   1   2
BRANCH   1  31
ATOM     31  C   UNL A   1      32.616  32.429  27.267  1.00  0.00     0.118 C 
BRANCH  31  32
ATOM     32  N   UNL A   1      32.310  33.824  27.579  1.00  0.00    -0.352 N 
ATOM     33  C   UNL A   1      32.902  34.690  28.469  1.00  0.00     0.251 C 
ATOM     34  H   UNL A   1      31.559  34.206  27.070  1.00  0.00     0.163 HD
ATOM     35  O   UNL A   1      32.381  35.777  28.702  1.00  0.00    -0.269 OA
BRANCH  33  36
ATOM     36  C   UNL A   1      34.145  34.302  29.164  1.00  0.00     0.039 A 
ATOM     37  C   UNL A   1      35.387  34.578  28.596  1.00  0.00     0.014 A 
ATOM     38  C   UNL A   1      34.070  33.638  30.393  1.00  0.00     0.014 A 
ATOM     39  C   UNL A   1      36.529  34.009  29.139  1.00  0.00     0.010 A 
ATOM     40  C   UNL A   1      35.238  33.168  31.002  1.00  0.00     0.010 A 
ATOM     41  C   UNL A   1      36.472  33.297  30.349  1.00  0.00    -0.014 A 
BRANCH  41  42
ATOM     42  C   UNL A   1      37.727  32.706  30.883  1.00  0.00     0.031 A 
ATOM     43  C   UNL A   1      38.289  33.145  32.209  1.00  0.00     0.074 A 
ATOM     44  C   UNL A   1      38.298  31.686  30.212  1.00  0.00     0.049 A 
ATOM     45  N   UNL A   1      39.301  32.646  32.874  1.00  0.00    -0.248 NA
ATOM     46  C   UNL A   1      37.644  34.288  32.876  1.00  0.00     0.031 C 
ATOM     47  C   UNL A   1      37.836  31.169  28.920  1.00  0.00     0.029 A 
ATOM     48  N   UNL A   1      39.341  30.861  30.544  1.00  0.00    -0.354 N 
ATOM     49  C   UNL A   1      39.427  33.425  34.018  1.00  0.00     0.074 A 
ATOM     50  C   UNL A   1      38.406  34.447  33.950  1.00  0.00     0.031 C 
ATOM     51  C   UNL A   1      38.523  30.059  28.621  1.00  0.00     0.029 A 
ATOM     52  C   UNL A   1      39.524  29.828  29.656  1.00  0.00     0.049 A 
ATOM     53  H   UNL A   1      39.905  30.995  31.341  1.00  0.00     0.167 HD
ATOM     54  C   UNL A   1      40.307  33.292  35.039  1.00  0.00     0.031 A 
ATOM     55  C   UNL A   1      40.392  28.798  29.671  1.00  0.00     0.031 A 
ATOM     56  C   UNL A   1      41.308  32.262  35.113  1.00  0.00     0.049 A 
ATOM     57  C   UNL A   1      41.355  28.674  30.815  1.00  0.00     0.074 A 
ATOM     58  C   UNL A   1      42.246  32.047  36.109  1.00  0.00     0.029 A 
ATOM     59  N   UNL A   1      41.495  31.269  34.165  1.00  0.00    -0.354 N 
ATOM     60  N   UNL A   1      41.459  29.421  31.886  1.00  0.00    -0.248 NA
ATOM     61  C   UNL A   1      42.318  27.566  30.755  1.00  0.00     0.031 C 
ATOM     62  C   UNL A   1      43.030  30.953  35.740  1.00  0.00     0.029 A 
ATOM     63  C   UNL A   1      42.541  30.446  34.547  1.00  0.00     0.049 A 
ATOM     64  H   UNL A   1      40.964  31.165  33.342  1.00  0.00     0.167 HD
ATOM     65  C   UNL A   1      42.488  28.869  32.635  1.00  0.00     0.074 A 
ATOM     66  C   UNL A   1      42.961  27.711  31.906  1.00  0.00     0.031 C 
ATOM     67  C   UNL A   1      42.996  29.292  33.817  1.00  0.00     0.031 A 
BRANCH  54  68
ATOM     68  C   UNL A   1      40.244  34.290  36.163  1.00  0.00    -0.014 A 
ATOM     69  C   UNL A   1      39.393  34.053  37.256  1.00  0.00     0.009 A 
ATOM     70  C   UNL A   1      40.947  35.502  36.101  1.00  0.00     0.009 A 
ATOM     71  C   UNL A   1      39.237  35.015  38.255  1.00  0.00     0.001 A 
ATOM     72  C   UNL A   1      40.810  36.451  37.116  1.00  0.00     0.001 A 
ATOM     73  C   UNL A   1      39.949  36.212  38.186  1.00  0.00     0.000 A 
ENDBRANCH  54  68
BRANCH  55  74
ATOM     74  C   UNL A   1      40.359  27.799  28.570  1.00  0.00    -0.014 A 
ATOM     75  C   UNL A   1      39.635  26.604  28.714  1.00  0.00     0.009 A 
ATOM     76  C   UNL A   1      41.098  28.004  27.397  1.00  0.00     0.009 A 
ATOM     77  C   UNL A   1      39.675  25.624  27.721  1.00  0.00     0.001 A 
ATOM     78  C   UNL A   1      41.110  27.036  26.389  1.00  0.00     0.001 A 
ATOM     79  C   UNL A   1      40.409  25.842  26.557  1.00  0.00     0.000 A 
ENDBRANCH  55  74
BRANCH  67  80
ATOM     80  C   UNL A   1      44.112  28.491  34.425  1.00  0.00    -0.014 A 
ATOM     81  C   UNL A   1      45.441  28.779  34.075  1.00  0.00     0.009 A 
ATOM     82  C   UNL A   1      43.848  27.395  35.259  1.00  0.00     0.009 A 
ATOM     83  C   UNL A   1      46.484  27.977  34.539  1.00  0.00     0.001 A 
ATOM     84  C   UNL A   1      44.896  26.611  35.744  1.00  0.00     0.001 A 
ATOM     85  C   UNL A   1      46.211  26.896  35.377  1.00  0.00     0.000 A 
ENDBRANCH  67  80
ENDBRANCH  41  42
ENDBRANCH  33  36
ENDBRANCH  31  32
ENDBRANCH   1  31
TORSDOF 13
ENDMDL
MODEL 3
REMARK VINA RESULT:     -12.7      4.796      9.928
REMARK SMILES Nc1ccc(-c2cc(Cl)cc3c2O[C@H](C(F)(F)F)C(C(=O)NCCCNC(=O)c2ccc(-c4c5nc(c(-c6ccccc6)c6ccc([nH]6)c(-c6ccccc6)c6nc(c(-c7ccccc7)c7ccc4[nH]7)C=C6)C=C5)cc2)=C3)cc1
REMARK SMILES IDX 24 1 23 2 22 3 20 4 21 5 19 7 6 8 7 9 12 10 8 11 11 12 13 13
REMARK SMILES IDX 9 14 10 15 77 16 14 17 5 18 2 19 3 20 79 21 4 22 78 23 1 24
REMARK SMILES IDX 15 27 16 28 17 29 18 30 25 31 26 32 27 33 28 35 29 36 30 37
REMARK SMILES IDX 76 38 31 39 75 40 32 41 33 42 34 43 69 44 35 45 74 46 68 47
REMARK SMILES IDX 70 48 36 49 73 50 67 51 66 52 37 54 59 55 44 56 58 57 45 58
REMARK SMILES IDX 48 59 57 60 71 61 46 62 47 63 56 65 72 66 49 67 38 68 39 69
REMARK SMILES IDX 43 70 40 71 42 72 41 73 60 74 61 75 65 76 62 77 64 78 63 79
REMARK SMILES IDX 50 80 51 81 55 82 52 83 54 84 53 85
REMARK H PARENT 22 6 1 25 1 26 26 34 70 53 48 64
REMARK Flexibility Score: inf
ROOT
ATOM      1  C   UNL A   1      31.452  32.037  26.612  1.00  0.00     0.042 C 
ENDROOT
BRANCH   1   2
ATOM      2  C   UNL A   1      31.741  30.582  26.277  1.00  0.00     0.118 C 
BRANCH   2   3
ATOM      3  N   UNL A   1      31.302  30.229  24.935  1.00  0.00    -0.352 N 
ATOM      4  C   UNL A   1      31.195  29.103  24.192  1.00  0.00     0.251 C 
ATOM      5  O   UNL A   1      30.741  29.265  23.055  1.00  0.00    -0.270 OA
ATOM      6  H   UNL A   1      31.005  31.022  24.433  1.00  0.00     0.163 HD
BRANCH   4   7
ATOM      7  C   UNL A   1      31.580  27.736  24.645  1.00  0.00     0.067 C 
ATOM      8  C   UNL A   1      32.541  23.778  25.704  1.00  0.00     0.026 A 
ATOM      9  C   UNL A   1      31.581  23.010  26.378  1.00  0.00     0.033 A 
ATOM     10  C   UNL A   1      32.171  25.068  25.277  1.00  0.00     0.135 A 
ATOM     11  C   UNL A   1      30.303  23.523  26.615  1.00  0.00     0.042 A 
ATOM     12  C   UNL A   1      30.894  25.591  25.522  1.00  0.00     0.019 A 
ATOM     13  O   UNL A   1      33.091  25.786  24.554  1.00  0.00    -0.475 OA
ATOM     14  Cl  UNL A   1      29.142  22.560  27.443  1.00  0.00    -0.084 Cl
ATOM     15  C   UNL A   1      29.955  24.807  26.191  1.00  0.00     0.032 A 
ATOM     16  C   UNL A   1      30.574  26.936  25.052  1.00  0.00     0.025 C 
ATOM     17  C   UNL A   1      32.990  27.226  24.676  1.00  0.00     0.314 C 
BRANCH   8  18
ATOM     18  C   UNL A   1      33.899  23.262  25.471  1.00  0.00    -0.014 A 
ATOM     19  C   UNL A   1      36.556  22.415  24.968  1.00  0.00     0.031 A 
ATOM     20  C   UNL A   1      36.243  23.115  26.130  1.00  0.00     0.026 A 
ATOM     21  C   UNL A   1      35.536  22.157  24.049  1.00  0.00     0.026 A 
ATOM     22  C   UNL A   1      34.930  23.518  26.390  1.00  0.00     0.011 A 
ATOM     23  C   UNL A   1      34.220  22.563  24.301  1.00  0.00     0.011 A 
BRANCH  19  24
ATOM     24  N   UNL A   1      37.871  22.100  24.669  1.00  0.00    -0.399 N 
ATOM     25  H   UNL A   1      38.489  22.804  24.368  1.00  0.00     0.156 HD
ATOM     26  H   UNL A   1      38.188  21.172  24.758  1.00  0.00     0.156 HD
ENDBRANCH  19  24
ENDBRANCH   8  18
BRANCH  17  27
ATOM     27  C   UNL A   1      33.780  27.702  25.912  1.00  0.00     0.429 C 
ATOM     28  F   UNL A   1      32.957  27.817  26.985  1.00  0.00    -0.167 F 
ATOM     29  F   UNL A   1      34.756  26.833  26.268  1.00  0.00    -0.167 F 
ATOM     30  F   UNL A   1      34.376  28.902  25.730  1.00  0.00    -0.167 F 
ENDBRANCH  17  27
ENDBRANCH   4   7
ENDBRANCH   2   3
ENDBRANCH   1   2
BRANCH   1  31
ATOM     31  C   UNL A   1      32.612  32.711  27.331  1.00  0.00     0.118 C 
BRANCH  31  32
ATOM     32  N   UNL A   1      32.330  34.107  27.663  1.00  0.00    -0.352 N 
ATOM     33  C   UNL A   1      32.938  34.950  28.564  1.00  0.00     0.251 C 
ATOM     34  H   UNL A   1      31.584  34.509  27.162  1.00  0.00     0.163 HD
ATOM     35  O   UNL A   1      32.435  36.041  28.814  1.00  0.00    -0.269 OA
BRANCH  33  36
ATOM     36  C   UNL A   1      34.176  34.532  29.251  1.00  0.00     0.039 A 
ATOM     37  C   UNL A   1      35.420  34.778  28.675  1.00  0.00     0.014 A 
ATOM     38  C   UNL A   1      34.093  33.868  30.479  1.00  0.00     0.014 A 
ATOM     39  C   UNL A   1      36.552  34.181  29.209  1.00  0.00     0.010 A 
ATOM     40  C   UNL A   1      35.253  33.369  31.080  1.00  0.00     0.010 A 
ATOM     41  C   UNL A   1      36.485  33.469  30.420  1.00  0.00    -0.014 A 
BRANCH  41  42
ATOM     42  C   UNL A   1      37.729  32.848  30.945  1.00  0.00     0.031 A 
ATOM     43  C   UNL A   1      38.307  33.267  32.270  1.00  0.00     0.074 A 
ATOM     44  C   UNL A   1      38.274  31.818  30.266  1.00  0.00     0.049 A 
ATOM     45  N   UNL A   1      39.311  32.742  32.928  1.00  0.00    -0.248 NA
ATOM     46  C   UNL A   1      37.690  34.420  32.946  1.00  0.00     0.031 C 
ATOM     47  C   UNL A   1      37.795  31.319  28.973  1.00  0.00     0.029 A 
ATOM     48  N   UNL A   1      39.300  30.968  30.589  1.00  0.00    -0.354 N 
ATOM     49  C   UNL A   1      39.459  33.512  34.075  1.00  0.00     0.074 A 
ATOM     50  C   UNL A   1      38.461  34.557  34.017  1.00  0.00     0.031 C 
ATOM     51  C   UNL A   1      38.456  30.195  28.666  1.00  0.00     0.029 A 
ATOM     52  C   UNL A   1      39.456  29.936  29.695  1.00  0.00     0.049 A 
ATOM     53  H   UNL A   1      39.870  31.086  31.384  1.00  0.00     0.167 HD
ATOM     54  C   UNL A   1      40.339  33.354  35.092  1.00  0.00     0.031 A 
ATOM     55  C   UNL A   1      40.301  28.887  29.701  1.00  0.00     0.031 A 
ATOM     56  C   UNL A   1      41.318  32.301  35.156  1.00  0.00     0.049 A 
ATOM     57  C   UNL A   1      41.266  28.735  30.840  1.00  0.00     0.074 A 
ATOM     58  C   UNL A   1      42.255  32.061  36.147  1.00  0.00     0.029 A 
ATOM     59  N   UNL A   1      41.479  31.309  34.202  1.00  0.00    -0.354 N 
ATOM     60  N   UNL A   1      41.391  29.475  31.914  1.00  0.00    -0.248 NA
ATOM     61  C   UNL A   1      42.204  27.607  30.769  1.00  0.00     0.031 C 
ATOM     62  C   UNL A   1      43.013  30.951  35.769  1.00  0.00     0.029 A 
ATOM     63  C   UNL A   1      42.507  30.461  34.576  1.00  0.00     0.049 A 
ATOM     64  H   UNL A   1      40.942  31.222  33.381  1.00  0.00     0.167 HD
ATOM     65  C   UNL A   1      42.411  28.896  32.656  1.00  0.00     0.074 A 
ATOM     66  C   UNL A   1      42.855  27.731  31.919  1.00  0.00     0.031 C 
ATOM     67  C   UNL A   1      42.933  29.301  33.837  1.00  0.00     0.031 A 
BRANCH  54  68
ATOM     68  C   UNL A   1      40.304  34.347  36.221  1.00  0.00    -0.014 A 
ATOM     69  C   UNL A   1      39.464  34.117  37.324  1.00  0.00     0.009 A 
ATOM     70  C   UNL A   1      41.023  35.551  36.156  1.00  0.00     0.009 A 
ATOM     71  C   UNL A   1      39.334  35.076  38.329  1.00  0.00     0.001 A 
ATOM     72  C   UNL A   1      40.911  36.497  37.177  1.00  0.00     0.001 A 
ATOM     73  C   UNL A   1      40.060  36.263  38.257  1.00  0.00     0.000 A 
ENDBRANCH  54  68
BRANCH  55  74
ATOM     74  C   UNL A   1      40.240  27.895  28.595  1.00  0.00    -0.014 A 
ATOM     75  C   UNL A   1      39.516  26.701  28.748  1.00  0.00     0.009 A 
ATOM     76  C   UNL A   1      40.954  28.106  27.407  1.00  0.00     0.009 A 
ATOM     77  C   UNL A   1      39.532  25.726  27.748  1.00  0.00     0.001 A 
ATOM     78  C   UNL A   1      40.940  27.143  26.394  1.00  0.00     0.001 A 
ATOM     79  C   UNL A   1      40.240  25.950  26.570  1.00  0.00     0.000 A 
ENDBRANCH  55  74
BRANCH  67  80
ATOM     80  C   UNL A   1      44.034  28.473  34.436  1.00  0.00    -0.014 A 
ATOM     81  C   UNL A   1      43.715  27.445  35.339  1.00  0.00     0.009 A 
ATOM     82  C   UNL A   1      45.383  28.769  34.189  1.00  0.00     0.009 A 
ATOM     83  C   UNL A   1      44.725  26.739  35.992  1.00  0.00     0.001 A 
ATOM     84  C   UNL A   1      46.391  28.042  34.824  1.00  0.00     0.001 A 
ATOM     85  C   UNL A   1      46.062  27.035  35.731  1.00  0.00     0.000 A 
ENDBRANCH  67  80
ENDBRANCH  41  42
ENDBRANCH  33  36
ENDBRANCH  31  32
ENDBRANCH   1  31
TORSDOF 13
ENDMDL
