MODEL 1
REMARK VINA RESULT:     -11.4      0.000      0.000
REMARK SMILES C[C@H]1CCC[C@H](S[C@@H]2CCC[C@]([NH3+])(C(=O)NCCCNC(=O)c3ccc(-c4c5nc(c(-c6ccccc6)c6ccc([nH]6)c(-c6ccccc6)c6nc(c(-c7ccccc7)c7ccc4[nH]7)C=C6)C=C5)cc3)C2)C1
REMARK SMILES IDX 18 1 17 2 16 3 14 4 15 5 12 7 8 8 9 9 71 10 10 11 11 12 7 13
REMARK SMILES IDX 6 14 1 15 2 16 3 17 72 18 4 19 5 20 13 21 19 25 20 26 21 27
REMARK SMILES IDX 22 29 23 30 24 31 70 32 25 33 69 34 26 35 27 36 28 37 63 38
REMARK SMILES IDX 29 39 68 40 62 41 64 42 30 43 67 44 61 45 60 46 31 48 53 49
REMARK SMILES IDX 38 50 52 51 39 52 42 53 51 54 65 55 40 56 41 57 50 59 66 60
REMARK SMILES IDX 43 61 32 62 33 63 37 64 34 65 36 66 35 67 54 68 55 69 59 70
REMARK SMILES IDX 56 71 58 72 57 73 44 74 45 75 49 76 46 77 48 78 47 79
REMARK H PARENT 16 6 13 22 13 23 13 24 20 28 64 47 42 58
REMARK Flexibility Score: inf
ROOT
ATOM      1  C   UNL A   1      37.819  19.775  24.819  1.00  0.00     0.042 C 
ENDROOT
BRANCH   1   2
ATOM      2  C   UNL A   1      36.502  20.481  25.099  1.00  0.00     0.118 C 
BRANCH   2   3
ATOM      3  N   UNL A   1      35.372  19.639  24.776  1.00  0.00    -0.351 N 
ATOM      4  C   UNL A   1      34.043  19.758  25.021  1.00  0.00     0.281 C 
ATOM      5  O   UNL A   1      33.375  18.750  24.765  1.00  0.00    -0.268 OA
ATOM      6  H   UNL A   1      35.612  18.821  24.284  1.00  0.00     0.163 HD
BRANCH   4   7
ATOM      7  C   UNL A   1      33.403  21.047  25.646  1.00  0.00     0.175 C 
ATOM      8  C   UNL A   1      33.263  23.586  25.079  1.00  0.00     0.053 C 
ATOM      9  C   UNL A   1      33.618  23.959  26.523  1.00  0.00     0.015 C 
ATOM     10  C   UNL A   1      33.719  22.204  24.681  1.00  0.00     0.093 C 
ATOM     11  C   UNL A   1      33.489  22.789  27.512  1.00  0.00     0.008 C 
ATOM     12  C   UNL A   1      34.031  21.453  26.992  1.00  0.00     0.079 C 
BRANCH   8  13
ATOM     13  S   UNL A   1      33.737  24.862  23.800  1.00  0.00    -0.155 SA
BRANCH  13  14
ATOM     14  C   UNL A   1      32.900  26.513  24.114  1.00  0.00     0.047 C 
ATOM     15  C   UNL A   1      33.849  28.835  27.186  1.00  0.00     0.007 C 
ATOM     16  C   UNL A   1      33.281  27.635  26.430  1.00  0.00    -0.013 C 
ATOM     17  C   UNL A   1      31.779  27.487  26.713  1.00  0.00     0.003 C 
ATOM     18  C   UNL A   1      33.615  27.612  24.937  1.00  0.00     0.017 C 
ATOM     19  C   UNL A   1      31.039  26.459  25.860  1.00  0.00     0.001 C 
ATOM     20  C   UNL A   1      31.399  26.498  24.384  1.00  0.00     0.014 C 
ENDBRANCH  13  14
ENDBRANCH   8  13
BRANCH   7  21
ATOM     21  N   UNL A   1      31.940  20.863  25.734  1.00  0.00    -0.345 N 
ATOM     22  H   UNL A   1      31.472  21.722  25.443  1.00  0.00     0.345 HD
ATOM     23  H   UNL A   1      31.681  20.643  26.695  1.00  0.00     0.345 HD
ATOM     24  H   UNL A   1      31.656  20.097  25.122  1.00  0.00     0.345 HD
ENDBRANCH   7  21
ENDBRANCH   4   7
ENDBRANCH   2   3
ENDBRANCH   1   2
BRANCH   1  25
ATOM     25  C   UNL A   1      38.950  20.213  25.738  1.00  0.00     0.118 C 
BRANCH  25  26
ATOM     26  N   UNL A   1      39.971  19.184  25.893  1.00  0.00    -0.352 N 
ATOM     27  C   UNL A   1      41.323  19.301  26.100  1.00  0.00     0.251 C 
ATOM     28  H   UNL A   1      39.637  18.260  25.841  1.00  0.00     0.163 HD
ATOM     29  O   UNL A   1      42.050  18.324  25.952  1.00  0.00    -0.269 OA
BRANCH  27  30
ATOM     30  C   UNL A   1      41.906  20.604  26.482  1.00  0.00     0.039 A 
ATOM     31  C   UNL A   1      42.305  21.493  25.483  1.00  0.00     0.014 A 
ATOM     32  C   UNL A   1      42.069  20.943  27.826  1.00  0.00     0.014 A 
ATOM     33  C   UNL A   1      42.801  22.750  25.836  1.00  0.00     0.010 A 
ATOM     34  C   UNL A   1      42.452  22.232  28.173  1.00  0.00     0.010 A 
ATOM     35  C   UNL A   1      42.839  23.145  27.183  1.00  0.00    -0.014 A 
BRANCH  35  36
ATOM     36  C   UNL A   1      43.296  24.499  27.585  1.00  0.00     0.031 A 
ATOM     37  C   UNL A   1      42.289  25.552  27.965  1.00  0.00     0.074 A 
ATOM     38  C   UNL A   1      44.608  24.801  27.542  1.00  0.00     0.049 A 
ATOM     39  N   UNL A   1      42.486  26.806  28.281  1.00  0.00    -0.248 NA
ATOM     40  C   UNL A   1      40.872  25.151  27.958  1.00  0.00     0.031 C 
ATOM     41  C   UNL A   1      45.680  23.883  27.146  1.00  0.00     0.029 A 
ATOM     42  N   UNL A   1      45.265  25.969  27.833  1.00  0.00    -0.354 N 
ATOM     43  C   UNL A   1      41.222  27.344  28.489  1.00  0.00     0.074 A 
ATOM     44  C   UNL A   1      40.264  26.302  28.202  1.00  0.00     0.031 C 
ATOM     45  C   UNL A   1      46.861  24.513  27.256  1.00  0.00     0.029 A 
ATOM     46  C   UNL A   1      46.628  25.887  27.682  1.00  0.00     0.049 A 
ATOM     47  H   UNL A   1      44.803  26.789  28.122  1.00  0.00     0.167 HD
ATOM     48  C   UNL A   1      40.888  28.589  28.905  1.00  0.00     0.031 A 
ATOM     49  C   UNL A   1      47.585  26.819  27.861  1.00  0.00     0.031 A 
ATOM     50  C   UNL A   1      41.843  29.622  29.203  1.00  0.00     0.049 A 
ATOM     51  C   UNL A   1      47.186  28.197  28.310  1.00  0.00     0.074 A 
ATOM     52  C   UNL A   1      41.611  30.897  29.686  1.00  0.00     0.029 A 
ATOM     53  N   UNL A   1      43.214  29.495  29.042  1.00  0.00    -0.354 N 
ATOM     54  N   UNL A   1      45.991  28.668  28.572  1.00  0.00    -0.248 NA
ATOM     55  C   UNL A   1      48.272  29.168  28.499  1.00  0.00     0.031 C 
ATOM     56  C   UNL A   1      42.838  31.563  29.765  1.00  0.00     0.029 A 
ATOM     57  C   UNL A   1      43.840  30.680  29.393  1.00  0.00     0.049 A 
ATOM     58  H   UNL A   1      43.674  28.685  28.727  1.00  0.00     0.167 HD
ATOM     59  C   UNL A   1      46.183  29.980  28.986  1.00  0.00     0.074 A 
ATOM     60  C   UNL A   1      47.611  30.223  28.958  1.00  0.00     0.031 C 
ATOM     61  C   UNL A   1      45.262  30.902  29.358  1.00  0.00     0.031 A 
BRANCH  48  62
ATOM     62  C   UNL A   1      39.423  28.899  29.058  1.00  0.00    -0.014 A 
ATOM     63  C   UNL A   1      38.755  28.680  30.274  1.00  0.00     0.009 A 
ATOM     64  C   UNL A   1      38.709  29.446  27.981  1.00  0.00     0.009 A 
ATOM     65  C   UNL A   1      37.393  28.966  30.395  1.00  0.00     0.001 A 
ATOM     66  C   UNL A   1      37.355  29.762  28.115  1.00  0.00     0.001 A 
ATOM     67  C   UNL A   1      36.696  29.512  29.318  1.00  0.00     0.000 A 
ENDBRANCH  48  62
BRANCH  49  68
ATOM     68  C   UNL A   1      49.014  26.477  27.635  1.00  0.00    -0.014 A 
ATOM     69  C   UNL A   1      49.813  26.019  28.694  1.00  0.00     0.009 A 
ATOM     70  C   UNL A   1      49.590  26.616  26.363  1.00  0.00     0.009 A 
ATOM     71  C   UNL A   1      51.167  25.739  28.490  1.00  0.00     0.001 A 
ATOM     72  C   UNL A   1      50.935  26.304  26.154  1.00  0.00     0.001 A 
ATOM     73  C   UNL A   1      51.726  25.878  27.220  1.00  0.00     0.000 A 
ENDBRANCH  49  68
BRANCH  61  74
ATOM     74  C   UNL A   1      45.773  32.244  29.802  1.00  0.00    -0.014 A 
ATOM     75  C   UNL A   1      46.130  32.486  31.138  1.00  0.00     0.009 A 
ATOM     76  C   UNL A   1      45.934  33.270  28.858  1.00  0.00     0.009 A 
ATOM     77  C   UNL A   1      46.605  33.741  31.524  1.00  0.00     0.001 A 
ATOM     78  C   UNL A   1      46.441  34.512  29.240  1.00  0.00     0.001 A 
ATOM     79  C   UNL A   1      46.764  34.751  30.575  1.00  0.00     0.000 A 
ENDBRANCH  61  74
ENDBRANCH  35  36
ENDBRANCH  27  30
ENDBRANCH  25  26
ENDBRANCH   1  25
TORSDOF 13
ENDMDL
MODEL 2
REMARK VINA RESULT:     -11.4      0.653      6.109
REMARK SMILES C[C@H]1CCC[C@H](S[C@@H]2CCC[C@]([NH3+])(C(=O)NCCCNC(=O)c3ccc(-c4c5nc(c(-c6ccccc6)c6ccc([nH]6)c(-c6ccccc6)c6nc(c(-c7ccccc7)c7ccc4[nH]7)C=C6)C=C5)cc3)C2)C1
REMARK SMILES IDX 18 1 17 2 16 3 14 4 15 5 12 7 8 8 9 9 71 10 10 11 11 12 7 13
REMARK SMILES IDX 6 14 1 15 2 16 3 17 72 18 4 19 5 20 13 21 19 25 20 26 21 27
REMARK SMILES IDX 22 29 23 30 24 31 70 32 25 33 69 34 26 35 27 36 28 37 63 38
REMARK SMILES IDX 29 39 68 40 62 41 64 42 30 43 67 44 61 45 60 46 31 48 53 49
REMARK SMILES IDX 38 50 52 51 39 52 42 53 51 54 65 55 40 56 41 57 50 59 66 60
REMARK SMILES IDX 43 61 32 62 33 63 37 64 34 65 36 66 35 67 54 68 55 69 59 70
REMARK SMILES IDX 56 71 58 72 57 73 44 74 45 75 49 76 46 77 48 78 47 79
REMARK H PARENT 16 6 13 22 13 23 13 24 20 28 64 47 42 58
REMARK Flexibility Score: inf
ROOT
ATOM      1  C   UNL A   1      37.823  19.611  24.856  1.00  0.00     0.042 C 
ENDROOT
BRANCH   1   2
ATOM      2  C   UNL A   1      36.509  20.363  25.000  1.00  0.00     0.118 C 
BRANCH   2   3
ATOM      3  N   UNL A   1      35.377  19.506  24.728  1.00  0.00    -0.351 N 
ATOM      4  C   UNL A   1      34.053  19.626  24.998  1.00  0.00     0.281 C 
ATOM      5  O   UNL A   1      33.386  18.608  24.788  1.00  0.00    -0.268 OA
ATOM      6  H   UNL A   1      35.611  18.675  24.256  1.00  0.00     0.163 HD
BRANCH   4   7
ATOM      7  C   UNL A   1      33.420  20.930  25.599  1.00  0.00     0.175 C 
ATOM      8  C   UNL A   1      33.332  23.466  25.008  1.00  0.00     0.053 C 
ATOM      9  C   UNL A   1      33.661  23.846  26.456  1.00  0.00     0.015 C 
ATOM     10  C   UNL A   1      33.775  22.073  24.631  1.00  0.00     0.093 C 
ATOM     11  C   UNL A   1      33.493  22.687  27.451  1.00  0.00     0.008 C 
ATOM     12  C   UNL A   1      34.025  21.338  26.955  1.00  0.00     0.079 C 
BRANCH   8  13
ATOM     13  S   UNL A   1      33.853  24.723  23.729  1.00  0.00    -0.155 SA
BRANCH  13  14
ATOM     14  C   UNL A   1      33.021  26.384  23.998  1.00  0.00     0.047 C 
ATOM     15  C   UNL A   1      33.633  28.574  27.248  1.00  0.00     0.007 C 
ATOM     16  C   UNL A   1      33.136  27.415  26.384  1.00  0.00    -0.013 C 
ATOM     17  C   UNL A   1      31.608  27.297  26.474  1.00  0.00     0.003 C 
ATOM     18  C   UNL A   1      33.652  27.435  24.943  1.00  0.00     0.017 C 
ATOM     19  C   UNL A   1      30.957  26.319  25.498  1.00  0.00     0.001 C 
ATOM     20  C   UNL A   1      31.497  26.399  24.081  1.00  0.00     0.014 C 
ENDBRANCH  13  14
ENDBRANCH   8  13
BRANCH   7  21
ATOM     21  N   UNL A   1      31.953  20.770  25.656  1.00  0.00    -0.345 N 
ATOM     22  H   UNL A   1      31.504  21.633  25.348  1.00  0.00     0.345 HD
ATOM     23  H   UNL A   1      31.670  20.562  26.613  1.00  0.00     0.345 HD
ATOM     24  H   UNL A   1      31.670  20.003  25.045  1.00  0.00     0.345 HD
ENDBRANCH   7  21
ENDBRANCH   4   7
ENDBRANCH   2   3
ENDBRANCH   1   2
BRANCH   1  25
ATOM     25  C   UNL A   1      38.931  20.148  25.751  1.00  0.00     0.118 C 
BRANCH  25  26
ATOM     26  N   UNL A   1      40.032  19.204  25.900  1.00  0.00    -0.352 N 
ATOM     27  C   UNL A   1      41.367  19.428  26.129  1.00  0.00     0.251 C 
ATOM     28  H   UNL A   1      39.777  18.256  25.823  1.00  0.00     0.163 HD
ATOM     29  O   UNL A   1      42.175  18.520  25.971  1.00  0.00    -0.269 OA
BRANCH  27  30
ATOM     30  C   UNL A   1      41.834  20.767  26.546  1.00  0.00     0.039 A 
ATOM     31  C   UNL A   1      42.227  21.688  25.574  1.00  0.00     0.014 A 
ATOM     32  C   UNL A   1      41.895  21.108  27.898  1.00  0.00     0.014 A 
ATOM     33  C   UNL A   1      42.612  22.974  25.957  1.00  0.00     0.010 A 
ATOM     34  C   UNL A   1      42.166  22.419  28.269  1.00  0.00     0.010 A 
ATOM     35  C   UNL A   1      42.544  23.363  27.306  1.00  0.00    -0.014 A 
BRANCH  35  36
ATOM     36  C   UNL A   1      42.881  24.743  27.736  1.00  0.00     0.031 A 
ATOM     37  C   UNL A   1      44.320  25.144  27.918  1.00  0.00     0.074 A 
ATOM     38  C   UNL A   1      41.893  25.612  28.027  1.00  0.00     0.049 A 
ATOM     39  N   UNL A   1      44.814  26.278  28.347  1.00  0.00    -0.248 NA
ATOM     40  C   UNL A   1      45.340  24.127  27.608  1.00  0.00     0.031 C 
ATOM     41  C   UNL A   1      40.458  25.330  27.935  1.00  0.00     0.029 A 
ATOM     42  N   UNL A   1      41.948  26.911  28.463  1.00  0.00    -0.354 N 
ATOM     43  C   UNL A   1      46.191  26.101  28.377  1.00  0.00     0.074 A 
ATOM     44  C   UNL A   1      46.454  24.736  27.984  1.00  0.00     0.031 C 
ATOM     45  C   UNL A   1      39.772  26.436  28.267  1.00  0.00     0.029 A 
ATOM     46  C   UNL A   1      40.712  27.485  28.640  1.00  0.00     0.049 A 
ATOM     47  H   UNL A   1      42.793  27.387  28.633  1.00  0.00     0.167 HD
ATOM     48  C   UNL A   1      47.155  27.003  28.680  1.00  0.00     0.031 A 
ATOM     49  C   UNL A   1      40.375  28.719  29.062  1.00  0.00     0.031 A 
ATOM     50  C   UNL A   1      46.894  28.365  29.058  1.00  0.00     0.049 A 
ATOM     51  C   UNL A   1      41.464  29.696  29.406  1.00  0.00     0.074 A 
ATOM     52  C   UNL A   1      47.801  29.374  29.328  1.00  0.00     0.029 A 
ATOM     53  N   UNL A   1      45.628  28.907  29.219  1.00  0.00    -0.354 N 
ATOM     54  N   UNL A   1      42.764  29.536  29.358  1.00  0.00    -0.248 NA
ATOM     55  C   UNL A   1      41.037  31.030  29.850  1.00  0.00     0.031 C 
ATOM     56  C   UNL A   1      47.085  30.513  29.709  1.00  0.00     0.029 A 
ATOM     57  C   UNL A   1      45.731  30.232  29.612  1.00  0.00     0.049 A 
ATOM     58  H   UNL A   1      44.783  28.424  29.076  1.00  0.00     0.167 HD
ATOM     59  C   UNL A   1      43.311  30.755  29.736  1.00  0.00     0.074 A 
ATOM     60  C   UNL A   1      42.200  31.651  29.992  1.00  0.00     0.031 C 
ATOM     61  C   UNL A   1      44.614  31.106  29.860  1.00  0.00     0.031 A 
BRANCH  48  62
ATOM     62  C   UNL A   1      48.585  26.536  28.618  1.00  0.00    -0.014 A 
ATOM     63  C   UNL A   1      49.342  26.662  27.442  1.00  0.00     0.009 A 
ATOM     64  C   UNL A   1      49.193  25.992  29.760  1.00  0.00     0.009 A 
ATOM     65  C   UNL A   1      50.665  26.216  27.399  1.00  0.00     0.001 A 
ATOM     66  C   UNL A   1      50.525  25.577  29.724  1.00  0.00     0.001 A 
ATOM     67  C   UNL A   1      51.257  25.679  28.542  1.00  0.00     0.000 A 
ENDBRANCH  48  62
BRANCH  49  68
ATOM     68  C   UNL A   1      38.944  29.109  29.166  1.00  0.00    -0.014 A 
ATOM     69  C   UNL A   1      38.270  29.649  28.059  1.00  0.00     0.009 A 
ATOM     70  C   UNL A   1      38.245  28.952  30.373  1.00  0.00     0.009 A 
ATOM     71  C   UNL A   1      36.938  30.055  28.170  1.00  0.00     0.001 A 
ATOM     72  C   UNL A   1      36.904  29.328  30.472  1.00  0.00     0.001 A 
ATOM     73  C   UNL A   1      36.255  29.890  29.374  1.00  0.00     0.000 A 
ENDBRANCH  49  68
BRANCH  61  74
ATOM     74  C   UNL A   1      44.910  32.526  30.252  1.00  0.00    -0.014 A 
ATOM     75  C   UNL A   1      45.033  33.541  29.290  1.00  0.00     0.009 A 
ATOM     76  C   UNL A   1      45.029  32.859  31.610  1.00  0.00     0.009 A 
ATOM     77  C   UNL A   1      45.305  34.853  29.680  1.00  0.00     0.001 A 
ATOM     78  C   UNL A   1      45.268  34.177  31.999  1.00  0.00     0.001 A 
ATOM     79  C   UNL A   1      45.417  35.172  31.033  1.00  0.00     0.000 A 
ENDBRANCH  61  74
ENDBRANCH  35  36
ENDBRANCH  27  30
ENDBRANCH  25  26
ENDBRANCH   1  25
TORSDOF 13
ENDMDL
MODEL 3
REMARK VINA RESULT:     -11.3      1.523      6.302
REMARK SMILES C[C@H]1CCC[C@H](S[C@@H]2CCC[C@]([NH3+])(C(=O)NCCCNC(=O)c3ccc(-c4c5nc(c(-c6ccccc6)c6ccc([nH]6)c(-c6ccccc6)c6nc(c(-c7ccccc7)c7ccc4[nH]7)C=C6)C=C5)cc3)C2)C1
REMARK SMILES IDX 18 1 17 2 16 3 14 4 15 5 12 7 8 8 9 9 71 10 10 11 11 12 7 13
REMARK SMILES IDX 6 14 1 15 2 16 3 17 72 18 4 19 5 20 13 21 19 25 20 26 21 27
REMARK SMILES IDX 22 29 23 30 24 31 70 32 25 33 69 34 26 35 27 36 28 37 63 38
REMARK SMILES IDX 29 39 68 40 62 41 64 42 30 43 67 44 61 45 60 46 31 48 53 49
REMARK SMILES IDX 38 50 52 51 39 52 42 53 51 54 65 55 40 56 41 57 50 59 66 60
REMARK SMILES IDX 43 61 32 62 33 63 37 64 34 65 36 66 35 67 54 68 55 69 59 70
REMARK SMILES IDX 56 71 58 72 57 73 44 74 45 75 49 76 46 77 48 78 47 79
REMARK H PARENT 16 6 13 22 13 23 13 24 20 28 64 47 42 58
REMARK Flexibility Score: inf
ROOT
ATOM      1  C   UNL A   1      37.728  19.606  24.980  1.00  0.00     0.042 C 
ENDROOT
BRANCH   1   2
ATOM      2  C   UNL A   1      36.608  20.598  24.706  1.00  0.00     0.118 C 
BRANCH   2   3
ATOM      3  N   UNL A   1      35.779  20.795  25.874  1.00  0.00    -0.351 N 
ATOM      4  C   UNL A   1      34.715  21.602  26.115  1.00  0.00     0.281 C 
ATOM      5  O   UNL A   1      34.360  21.653  27.298  1.00  0.00    -0.268 OA
ATOM      6  H   UNL A   1      36.035  20.236  26.643  1.00  0.00     0.163 HD
BRANCH   4   7
ATOM      7  C   UNL A   1      34.026  22.462  24.999  1.00  0.00     0.175 C 
ATOM      8  C   UNL A   1      32.129  24.241  24.848  1.00  0.00     0.053 C 
ATOM      9  C   UNL A   1      31.512  23.525  23.640  1.00  0.00     0.015 C 
ATOM     10  C   UNL A   1      32.986  23.347  25.710  1.00  0.00     0.093 C 
ATOM     11  C   UNL A   1      32.449  22.494  22.991  1.00  0.00     0.008 C 
ATOM     12  C   UNL A   1      33.227  21.624  23.984  1.00  0.00     0.079 C 
BRANCH   8  13
ATOM     13  S   UNL A   1      30.923  25.233  25.872  1.00  0.00    -0.155 SA
BRANCH  13  14
ATOM     14  C   UNL A   1      31.205  27.081  25.693  1.00  0.00     0.047 C 
ATOM     15  C   UNL A   1      33.864  28.599  23.173  1.00  0.00     0.007 C 
ATOM     16  C   UNL A   1      33.320  27.856  24.392  1.00  0.00    -0.013 C 
ATOM     17  C   UNL A   1      33.842  28.497  25.686  1.00  0.00     0.003 C 
ATOM     18  C   UNL A   1      31.802  27.662  24.388  1.00  0.00     0.017 C 
ATOM     19  C   UNL A   1      33.212  27.990  26.982  1.00  0.00     0.001 C 
ATOM     20  C   UNL A   1      31.702  27.836  26.922  1.00  0.00     0.014 C 
ENDBRANCH  13  14
ENDBRANCH   8  13
BRANCH   7  21
ATOM     21  N   UNL A   1      35.044  23.317  24.354  1.00  0.00    -0.345 N 
ATOM     22  H   UNL A   1      35.761  23.565  25.037  1.00  0.00     0.345 HD
ATOM     23  H   UNL A   1      34.601  24.165  24.002  1.00  0.00     0.345 HD
ATOM     24  H   UNL A   1      35.472  22.810  23.580  1.00  0.00     0.345 HD
ENDBRANCH   7  21
ENDBRANCH   4   7
ENDBRANCH   2   3
ENDBRANCH   1   2
BRANCH   1  25
ATOM     25  C   UNL A   1      38.903  20.212  25.734  1.00  0.00     0.118 C 
BRANCH  25  26
ATOM     26  N   UNL A   1      40.040  19.304  25.814  1.00  0.00    -0.352 N 
ATOM     27  C   UNL A   1      41.365  19.561  26.066  1.00  0.00     0.251 C 
ATOM     28  H   UNL A   1      39.823  18.355  25.662  1.00  0.00     0.163 HD
ATOM     29  O   UNL A   1      42.209  18.700  25.842  1.00  0.00    -0.269 OA
BRANCH  27  30
ATOM     30  C   UNL A   1      41.778  20.880  26.590  1.00  0.00     0.039 A 
ATOM     31  C   UNL A   1      42.256  21.847  25.704  1.00  0.00     0.014 A 
ATOM     32  C   UNL A   1      41.705  21.157  27.956  1.00  0.00     0.014 A 
ATOM     33  C   UNL A   1      42.591  23.116  26.183  1.00  0.00     0.010 A 
ATOM     34  C   UNL A   1      41.928  22.449  28.413  1.00  0.00     0.010 A 
ATOM     35  C   UNL A   1      42.390  23.439  27.535  1.00  0.00    -0.014 A 
BRANCH  35  36
ATOM     36  C   UNL A   1      42.672  24.799  28.061  1.00  0.00     0.031 A 
ATOM     37  C   UNL A   1      44.068  25.166  28.489  1.00  0.00     0.074 A 
ATOM     38  C   UNL A   1      41.663  25.678  28.215  1.00  0.00     0.049 A 
ATOM     39  N   UNL A   1      44.500  26.275  29.030  1.00  0.00    -0.248 NA
ATOM     40  C   UNL A   1      45.109  24.138  28.316  1.00  0.00     0.031 C 
ATOM     41  C   UNL A   1      40.258  25.428  27.881  1.00  0.00     0.029 A 
ATOM     42  N   UNL A   1      41.664  26.962  28.697  1.00  0.00    -0.354 N 
ATOM     43  C   UNL A   1      45.852  26.071  29.279  1.00  0.00     0.074 A 
ATOM     44  C   UNL A   1      46.155  24.713  28.889  1.00  0.00     0.031 C 
ATOM     45  C   UNL A   1      39.543  26.536  28.133  1.00  0.00     0.029 A 
ATOM     46  C   UNL A   1      40.425  27.555  28.689  1.00  0.00     0.049 A 
ATOM     47  H   UNL A   1      42.477  27.416  29.019  1.00  0.00     0.167 HD
ATOM     48  C   UNL A   1      46.766  26.943  29.765  1.00  0.00     0.031 A 
ATOM     49  C   UNL A   1      40.041  28.782  29.091  1.00  0.00     0.031 A 
ATOM     50  C   UNL A   1      46.467  28.298  30.140  1.00  0.00     0.049 A 
ATOM     51  C   UNL A   1      41.074  29.726  29.641  1.00  0.00     0.074 A 
ATOM     52  C   UNL A   1      47.332  29.280  30.588  1.00  0.00     0.029 A 
ATOM     53  N   UNL A   1      45.200  28.860  30.111  1.00  0.00    -0.354 N 
ATOM     54  N   UNL A   1      42.361  29.542  29.801  1.00  0.00    -0.248 NA
ATOM     55  C   UNL A   1      40.599  31.054  30.054  1.00  0.00     0.031 C 
ATOM     56  C   UNL A   1      46.579  30.421  30.885  1.00  0.00     0.029 A 
ATOM     57  C   UNL A   1      45.256  30.170  30.558  1.00  0.00     0.049 A 
ATOM     58  H   UNL A   1      44.383  28.399  29.815  1.00  0.00     0.167 HD
ATOM     59  C   UNL A   1      42.856  30.738  30.304  1.00  0.00     0.074 A 
ATOM     60  C   UNL A   1      41.732  31.647  30.404  1.00  0.00     0.031 C 
ATOM     61  C   UNL A   1      44.127  31.058  30.651  1.00  0.00     0.031 A 
BRANCH  48  62
ATOM     62  C   UNL A   1      48.180  26.450  29.922  1.00  0.00    -0.014 A 
ATOM     63  C   UNL A   1      49.127  26.616  28.898  1.00  0.00     0.009 A 
ATOM     64  C   UNL A   1      48.578  25.840  31.121  1.00  0.00     0.009 A 
ATOM     65  C   UNL A   1      50.432  26.144  29.057  1.00  0.00     0.001 A 
ATOM     66  C   UNL A   1      49.892  25.399  31.290  1.00  0.00     0.001 A 
ATOM     67  C   UNL A   1      50.815  25.542  30.255  1.00  0.00     0.000 A 
ENDBRANCH  48  62
BRANCH  49  68
ATOM     68  C   UNL A   1      38.618  29.196  28.973  1.00  0.00    -0.014 A 
ATOM     69  C   UNL A   1      37.746  29.070  30.066  1.00  0.00     0.009 A 
ATOM     70  C   UNL A   1      38.119  29.710  27.766  1.00  0.00     0.009 A 
ATOM     71  C   UNL A   1      36.399  29.419  29.943  1.00  0.00     0.001 A 
ATOM     72  C   UNL A   1      36.780  30.090  27.655  1.00  0.00     0.001 A 
ATOM     73  C   UNL A   1      35.918  29.933  28.739  1.00  0.00     0.000 A 
ENDBRANCH  49  68
BRANCH  61  74
ATOM     74  C   UNL A   1      44.375  32.460  31.132  1.00  0.00    -0.014 A 
ATOM     75  C   UNL A   1      44.726  33.489  30.244  1.00  0.00     0.009 A 
ATOM     76  C   UNL A   1      44.217  32.762  32.494  1.00  0.00     0.009 A 
ATOM     77  C   UNL A   1      44.948  34.783  30.717  1.00  0.00     0.001 A 
ATOM     78  C   UNL A   1      44.407  34.063  32.959  1.00  0.00     0.001 A 
ATOM     79  C   UNL A   1      44.784  35.071  32.071  1.00  0.00     0.000 A 
ENDBRANCH  61  74
ENDBRANCH  35  36
ENDBRANCH  27  30
ENDBRANCH  25  26
ENDBRANCH   1  25
TORSDOF 13
ENDMDL
