MODEL 1
REMARK VINA RESULT:     -12.3      0.000      0.000
REMARK SMILES O=C(NCCCNC(=O)c1ccc2c(=O)n(CCC[NH+]3CCOCC3)c(=O)[nH]c2c1)c1ccc(-c2c3nc(c(-c4ccccc4)c4ccc([nH]4)c(-c4ccccc4)c4nc(c(-c5ccccc5)c5ccc2[nH]5)C=C4)C=C3)cc1
REMARK SMILES IDX 6 1 5 2 4 3 3 4 1 5 2 6 31 8 32 9 78 10 33 11 77 12 34 13
REMARK SMILES IDX 35 14 36 15 71 16 37 17 76 18 70 19 72 20 38 21 75 22 69 23
REMARK SMILES IDX 68 24 39 26 61 27 46 28 60 29 47 30 50 31 59 32 73 33 48 34
REMARK SMILES IDX 49 35 58 37 74 38 51 39 40 40 41 41 45 42 42 43 44 44 43 45
REMARK SMILES IDX 62 46 63 47 67 48 64 49 66 50 65 51 52 52 53 53 57 54 54 55
REMARK SMILES IDX 56 56 55 57 7 58 8 59 9 61 10 62 11 63 30 64 12 65 29 66
REMARK SMILES IDX 13 67 28 68 14 69 26 70 15 72 16 73 27 74 17 75 18 76 19 77
REMARK SMILES IDX 20 78 21 79 25 80 22 82 24 83 23 84
REMARK H PARENT 3 7 72 25 50 36 7 60 28 71 20 81
REMARK Flexibility Score: inf
ROOT
ATOM      1  C   UNL A   1      36.353  20.730  25.041  1.00  0.00     0.118 C 
ENDROOT
BRANCH   1   2
ATOM      2  C   UNL A   1      37.605  19.877  24.913  1.00  0.00     0.042 C 
BRANCH   2   3
ATOM      3  C   UNL A   1      38.789  20.382  25.721  1.00  0.00     0.118 C 
BRANCH   3   4
ATOM      4  N   UNL A   1      39.858  19.403  25.826  1.00  0.00    -0.352 N 
ATOM      5  O   UNL A   1      41.957  18.628  26.013  1.00  0.00    -0.269 OA
ATOM      6  C   UNL A   1      41.185  19.577  26.126  1.00  0.00     0.251 C 
ATOM      7  H   UNL A   1      39.588  18.472  25.657  1.00  0.00     0.163 HD
BRANCH   6   8
ATOM      8  C   UNL A   1      41.698  20.890  26.576  1.00  0.00     0.039 A 
ATOM      9  C   UNL A   1      41.734  21.159  27.948  1.00  0.00     0.014 A 
ATOM     10  C   UNL A   1      42.082  21.877  25.664  1.00  0.00     0.014 A 
ATOM     11  C   UNL A   1      42.173  22.403  28.404  1.00  0.00     0.010 A 
ATOM     12  C   UNL A   1      42.599  23.087  26.121  1.00  0.00     0.010 A 
ATOM     13  C   UNL A   1      42.617  23.374  27.493  1.00  0.00    -0.014 A 
BRANCH  13  14
ATOM     14  C   UNL A   1      43.021  24.726  27.945  1.00  0.00     0.031 A 
ATOM     15  C   UNL A   1      41.964  25.759  28.227  1.00  0.00     0.074 A 
ATOM     16  C   UNL A   1      44.324  25.039  28.072  1.00  0.00     0.049 A 
ATOM     17  N   UNL A   1      42.107  27.017  28.561  1.00  0.00    -0.248 NA
ATOM     18  C   UNL A   1      40.561  25.331  28.095  1.00  0.00     0.031 C 
ATOM     19  C   UNL A   1      45.443  24.131  27.817  1.00  0.00     0.029 A 
ATOM     20  N   UNL A   1      44.926  26.214  28.449  1.00  0.00    -0.354 N 
ATOM     21  C   UNL A   1      40.820  27.529  28.655  1.00  0.00     0.074 A 
ATOM     22  C   UNL A   1      39.909  26.465  28.299  1.00  0.00     0.031 C 
ATOM     23  C   UNL A   1      46.594  24.773  28.076  1.00  0.00     0.029 A 
ATOM     24  C   UNL A   1      46.297  26.146  28.474  1.00  0.00     0.049 A 
ATOM     25  H   UNL A   1      44.422  27.028  28.680  1.00  0.00     0.167 HD
ATOM     26  C   UNL A   1      40.428  28.769  29.030  1.00  0.00     0.031 A 
ATOM     27  C   UNL A   1      47.214  27.084  28.782  1.00  0.00     0.031 A 
ATOM     28  C   UNL A   1      41.331  29.815  29.419  1.00  0.00     0.049 A 
ATOM     29  C   UNL A   1      46.756  28.458  29.187  1.00  0.00     0.074 A 
ATOM     30  C   UNL A   1      41.026  31.090  29.861  1.00  0.00     0.029 A 
ATOM     31  N   UNL A   1      42.712  29.705  29.425  1.00  0.00    -0.354 N 
ATOM     32  N   UNL A   1      45.534  28.919  29.300  1.00  0.00    -0.248 NA
ATOM     33  C   UNL A   1      47.801  29.440  29.516  1.00  0.00     0.031 C 
ATOM     34  C   UNL A   1      42.226  31.768  30.092  1.00  0.00     0.029 A 
ATOM     35  C   UNL A   1      43.275  30.896  29.846  1.00  0.00     0.049 A 
ATOM     36  H   UNL A   1      43.217  28.900  29.169  1.00  0.00     0.167 HD
ATOM     37  C   UNL A   1      45.660  30.233  29.731  1.00  0.00     0.074 A 
ATOM     38  C   UNL A   1      47.078  30.495  29.871  1.00  0.00     0.031 C 
ATOM     39  C   UNL A   1      44.687  31.140  29.985  1.00  0.00     0.031 A 
BRANCH  26  40
ATOM     40  C   UNL A   1      38.956  29.064  29.050  1.00  0.00    -0.014 A 
ATOM     41  C   UNL A   1      38.316  29.504  27.881  1.00  0.00     0.009 A 
ATOM     42  C   UNL A   1      38.217  28.980  30.240  1.00  0.00     0.009 A 
ATOM     43  C   UNL A   1      36.966  29.861  27.904  1.00  0.00     0.001 A 
ATOM     44  C   UNL A   1      36.861  29.311  30.254  1.00  0.00     0.001 A 
ATOM     45  C   UNL A   1      36.239  29.759  29.090  1.00  0.00     0.000 A 
ENDBRANCH  26  40
BRANCH  27  46
ATOM     46  C   UNL A   1      48.657  26.737  28.744  1.00  0.00    -0.014 A 
ATOM     47  C   UNL A   1      49.411  26.932  27.576  1.00  0.00     0.009 A 
ATOM     48  C   UNL A   1      49.279  26.165  29.865  1.00  0.00     0.009 A 
ATOM     49  C   UNL A   1      50.752  26.544  27.525  1.00  0.00     0.001 A 
ATOM     50  C   UNL A   1      50.626  25.803  29.819  1.00  0.00     0.001 A 
ATOM     51  C   UNL A   1      51.360  25.984  28.648  1.00  0.00     0.000 A 
ENDBRANCH  27  46
BRANCH  39  52
ATOM     52  C   UNL A   1      45.100  32.504  30.458  1.00  0.00    -0.014 A 
ATOM     53  C   UNL A   1      45.206  32.759  31.836  1.00  0.00     0.009 A 
ATOM     54  C   UNL A   1      45.262  33.564  29.554  1.00  0.00     0.009 A 
ATOM     55  C   UNL A   1      45.449  34.052  32.299  1.00  0.00     0.001 A 
ATOM     56  C   UNL A   1      45.531  34.852  30.021  1.00  0.00     0.001 A 
ATOM     57  C   UNL A   1      45.612  35.097  31.391  1.00  0.00     0.000 A 
ENDBRANCH  39  52
ENDBRANCH  13  14
ENDBRANCH   6   8
ENDBRANCH   3   4
ENDBRANCH   2   3
ENDBRANCH   1   2
BRANCH   1  58
ATOM     58  N   UNL A   1      35.126  19.938  25.090  1.00  0.00    -0.352 N 
ATOM     59  C   UNL A   1      33.817  20.356  25.160  1.00  0.00     0.251 C 
ATOM     60  H   UNL A   1      35.255  18.962  25.069  1.00  0.00     0.163 HD
ATOM     61  O   UNL A   1      32.907  19.562  25.366  1.00  0.00    -0.269 OA
BRANCH  59  62
ATOM     62  C   UNL A   1      33.520  21.791  25.003  1.00  0.00     0.041 A 
ATOM     63  C   UNL A   1      33.519  22.607  26.142  1.00  0.00     0.015 A 
ATOM     64  C   UNL A   1      33.175  22.300  23.739  1.00  0.00     0.040 A 
ATOM     65  C   UNL A   1      32.964  23.869  26.061  1.00  0.00     0.017 A 
ATOM     66  C   UNL A   1      32.686  23.599  23.657  1.00  0.00     0.056 A 
ATOM     67  C   UNL A   1      32.512  24.325  24.821  1.00  0.00     0.064 A 
ATOM     68  N   UNL A   1      32.346  24.204  22.446  1.00  0.00    -0.307 N 
ATOM     69  C   UNL A   1      31.750  25.556  24.736  1.00  0.00     0.264 A 
ATOM     70  C   UNL A   1      31.928  25.513  22.336  1.00  0.00     0.328 A 
ATOM     71  H   UNL A   1      32.408  23.665  21.624  1.00  0.00     0.171 HD
ATOM     72  O   UNL A   1      31.152  25.878  25.756  1.00  0.00    -0.268 OA
ATOM     73  N   UNL A   1      31.693  26.200  23.524  1.00  0.00    -0.260 N 
ATOM     74  O   UNL A   1      31.781  25.994  21.215  1.00  0.00    -0.248 OA
BRANCH  73  75
ATOM     75  C   UNL A   1      31.399  27.640  23.488  1.00  0.00     0.137 C 
BRANCH  75  76
ATOM     76  C   UNL A   1      29.964  28.104  23.189  1.00  0.00     0.083 C 
BRANCH  76  77
ATOM     77  C   UNL A   1      29.650  29.366  22.339  1.00  0.00     0.264 C 
BRANCH  77  78
ATOM     78  N   UNL A   1      28.239  29.707  22.069  1.00  0.00    -0.331 N 
ATOM     79  C   UNL A   1      28.028  30.583  20.889  1.00  0.00     0.291 C 
ATOM     80  C   UNL A   1      27.647  30.423  23.236  1.00  0.00     0.291 C 
ATOM     81  H   UNL A   1      27.794  28.807  21.887  1.00  0.00     0.348 HD
ATOM     82  C   UNL A   1      28.366  32.080  21.066  1.00  0.00     0.221 C 
ATOM     83  C   UNL A   1      28.084  31.895  23.374  1.00  0.00     0.221 C 
ATOM     84  O   UNL A   1      27.713  32.638  22.208  1.00  0.00    -0.370 OA
ENDBRANCH  77  78
ENDBRANCH  76  77
ENDBRANCH  75  76
ENDBRANCH  73  75
ENDBRANCH  59  62
ENDBRANCH   1  58
TORSDOF 14
ENDMDL
MODEL 2
REMARK VINA RESULT:     -12.1      3.336      9.580
REMARK SMILES O=C(NCCCNC(=O)c1ccc2c(=O)n(CCC[NH+]3CCOCC3)c(=O)[nH]c2c1)c1ccc(-c2c3nc(c(-c4ccccc4)c4ccc([nH]4)c(-c4ccccc4)c4nc(c(-c5ccccc5)c5ccc2[nH]5)C=C4)C=C3)cc1
REMARK SMILES IDX 6 1 5 2 4 3 3 4 1 5 2 6 31 8 32 9 78 10 33 11 77 12 34 13
REMARK SMILES IDX 35 14 36 15 71 16 37 17 76 18 70 19 72 20 38 21 75 22 69 23
REMARK SMILES IDX 68 24 39 26 61 27 46 28 60 29 47 30 50 31 59 32 73 33 48 34
REMARK SMILES IDX 49 35 58 37 74 38 51 39 40 40 41 41 45 42 42 43 44 44 43 45
REMARK SMILES IDX 62 46 63 47 67 48 64 49 66 50 65 51 52 52 53 53 57 54 54 55
REMARK SMILES IDX 56 56 55 57 7 58 8 59 9 61 10 62 11 63 30 64 12 65 29 66
REMARK SMILES IDX 13 67 28 68 14 69 26 70 15 72 16 73 27 74 17 75 18 76 19 77
REMARK SMILES IDX 20 78 21 79 25 80 22 82 24 83 23 84
REMARK H PARENT 3 7 72 25 50 36 7 60 28 71 20 81
REMARK Flexibility Score: inf
ROOT
ATOM      1  C   UNL A   1      31.389  30.279  25.424  1.00  0.00     0.118 C 
ENDROOT
BRANCH   1   2
ATOM      2  C   UNL A   1      31.187  31.618  26.118  1.00  0.00     0.042 C 
BRANCH   2   3
ATOM      3  C   UNL A   1      32.374  32.076  26.947  1.00  0.00     0.118 C 
BRANCH   3   4
ATOM      4  N   UNL A   1      32.238  33.445  27.418  1.00  0.00    -0.352 N 
ATOM      5  O   UNL A   1      32.645  35.262  28.672  1.00  0.00    -0.269 OA
ATOM      6  C   UNL A   1      33.024  34.160  28.285  1.00  0.00     0.251 C 
ATOM      7  H   UNL A   1      31.462  33.934  27.060  1.00  0.00     0.163 HD
BRANCH   6   8
ATOM      8  C   UNL A   1      34.316  33.620  28.763  1.00  0.00     0.039 A 
ATOM      9  C   UNL A   1      35.468  33.882  28.014  1.00  0.00     0.014 A 
ATOM     10  C   UNL A   1      34.396  32.810  29.899  1.00  0.00     0.014 A 
ATOM     11  C   UNL A   1      36.697  33.352  28.415  1.00  0.00     0.010 A 
ATOM     12  C   UNL A   1      35.632  32.352  30.345  1.00  0.00     0.010 A 
ATOM     13  C   UNL A   1      36.788  32.590  29.589  1.00  0.00    -0.014 A 
BRANCH  13  14
ATOM     14  C   UNL A   1      38.065  31.958  29.998  1.00  0.00     0.031 A 
ATOM     15  C   UNL A   1      38.964  32.668  30.974  1.00  0.00     0.074 A 
ATOM     16  C   UNL A   1      38.436  30.774  29.475  1.00  0.00     0.049 A 
ATOM     17  N   UNL A   1      40.152  32.324  31.403  1.00  0.00    -0.248 NA
ATOM     18  C   UNL A   1      38.475  33.944  31.524  1.00  0.00     0.031 C 
ATOM     19  C   UNL A   1      37.659  29.993  28.512  1.00  0.00     0.029 A 
ATOM     20  N   UNL A   1      39.564  30.021  29.685  1.00  0.00    -0.354 N 
ATOM     21  C   UNL A   1      40.555  33.348  32.251  1.00  0.00     0.074 A 
ATOM     22  C   UNL A   1      39.513  34.348  32.241  1.00  0.00     0.031 C 
ATOM     23  C   UNL A   1      38.320  28.856  28.239  1.00  0.00     0.029 A 
ATOM     24  C   UNL A   1      39.582  28.847  28.974  1.00  0.00     0.049 A 
ATOM     25  H   UNL A   1      40.291  30.296  30.289  1.00  0.00     0.167 HD
ATOM     26  C   UNL A   1      41.684  33.436  32.992  1.00  0.00     0.031 A 
ATOM     27  C   UNL A   1      40.510  27.872  28.917  1.00  0.00     0.031 A 
ATOM     28  C   UNL A   1      42.704  32.426  33.030  1.00  0.00     0.049 A 
ATOM     29  C   UNL A   1      41.760  27.995  29.743  1.00  0.00     0.074 A 
ATOM     30  C   UNL A   1      43.861  32.405  33.788  1.00  0.00     0.029 A 
ATOM     31  N   UNL A   1      42.683  31.255  32.290  1.00  0.00    -0.354 N 
ATOM     32  N   UNL A   1      42.115  28.956  30.562  1.00  0.00    -0.248 NA
ATOM     33  C   UNL A   1      42.736  26.899  29.645  1.00  0.00     0.031 C 
ATOM     34  C   UNL A   1      44.565  31.240  33.472  1.00  0.00     0.029 A 
ATOM     35  C   UNL A   1      43.818  30.512  32.560  1.00  0.00     0.049 A 
ATOM     36  H   UNL A   1      41.969  30.992  31.666  1.00  0.00     0.167 HD
ATOM     37  C   UNL A   1      43.340  28.573  31.091  1.00  0.00     0.074 A 
ATOM     38  C   UNL A   1      43.665  27.286  30.511  1.00  0.00     0.031 C 
ATOM     39  C   UNL A   1      44.125  29.231  31.977  1.00  0.00     0.031 A 
BRANCH  26  40
ATOM     40  C   UNL A   1      41.876  34.665  33.835  1.00  0.00    -0.014 A 
ATOM     41  C   UNL A   1      41.293  34.735  35.110  1.00  0.00     0.009 A 
ATOM     42  C   UNL A   1      42.568  35.780  33.340  1.00  0.00     0.009 A 
ATOM     43  C   UNL A   1      41.393  35.901  35.870  1.00  0.00     0.001 A 
ATOM     44  C   UNL A   1      42.691  36.936  34.115  1.00  0.00     0.001 A 
ATOM     45  C   UNL A   1      42.097  36.998  35.374  1.00  0.00     0.000 A 
ENDBRANCH  26  40
BRANCH  27  46
ATOM     46  C   UNL A   1      40.268  26.680  28.065  1.00  0.00    -0.014 A 
ATOM     47  C   UNL A   1      39.592  25.559  28.575  1.00  0.00     0.009 A 
ATOM     48  C   UNL A   1      40.753  26.639  26.749  1.00  0.00     0.009 A 
ATOM     49  C   UNL A   1      39.424  24.416  27.789  1.00  0.00     0.001 A 
ATOM     50  C   UNL A   1      40.560  25.504  25.958  1.00  0.00     0.001 A 
ATOM     51  C   UNL A   1      39.904  24.391  26.481  1.00  0.00     0.000 A 
ENDBRANCH  27  46
BRANCH  39  52
ATOM     52  C   UNL A   1      45.410  28.580  32.401  1.00  0.00    -0.014 A 
ATOM     53  C   UNL A   1      45.433  27.767  33.546  1.00  0.00     0.009 A 
ATOM     54  C   UNL A   1      46.616  28.868  31.745  1.00  0.00     0.009 A 
ATOM     55  C   UNL A   1      46.641  27.269  34.036  1.00  0.00     0.001 A 
ATOM     56  C   UNL A   1      47.820  28.347  32.223  1.00  0.00     0.001 A 
ATOM     57  C   UNL A   1      47.833  27.559  33.373  1.00  0.00     0.000 A 
ENDBRANCH  39  52
ENDBRANCH  13  14
ENDBRANCH   6   8
ENDBRANCH   3   4
ENDBRANCH   2   3
ENDBRANCH   1   2
BRANCH   1  58
ATOM     58  N   UNL A   1      30.631  30.162  24.181  1.00  0.00    -0.352 N 
ATOM     59  C   UNL A   1      30.669  29.173  23.224  1.00  0.00     0.251 C 
ATOM     60  H   UNL A   1      30.002  30.897  24.001  1.00  0.00     0.163 HD
ATOM     61  O   UNL A   1      30.093  29.306  22.151  1.00  0.00    -0.269 OA
BRANCH  59  62
ATOM     62  C   UNL A   1      31.437  27.945  23.500  1.00  0.00     0.041 A 
ATOM     63  C   UNL A   1      32.738  27.837  22.993  1.00  0.00     0.015 A 
ATOM     64  C   UNL A   1      30.834  26.886  24.198  1.00  0.00     0.040 A 
ATOM     65  C   UNL A   1      33.353  26.601  22.988  1.00  0.00     0.017 A 
ATOM     66  C   UNL A   1      31.494  25.664  24.252  1.00  0.00     0.056 A 
ATOM     67  C   UNL A   1      32.695  25.521  23.579  1.00  0.00     0.064 A 
ATOM     68  N   UNL A   1      30.993  24.562  24.946  1.00  0.00    -0.307 N 
ATOM     69  C   UNL A   1      33.218  24.178  23.419  1.00  0.00     0.264 A 
ATOM     70  C   UNL A   1      31.667  23.365  25.071  1.00  0.00     0.328 A 
ATOM     71  H   UNL A   1      30.109  24.644  25.370  1.00  0.00     0.171 HD
ATOM     72  O   UNL A   1      33.909  23.995  22.424  1.00  0.00    -0.268 OA
ATOM     73  N   UNL A   1      32.836  23.222  24.328  1.00  0.00    -0.260 N 
ATOM     74  O   UNL A   1      31.204  22.502  25.812  1.00  0.00    -0.248 OA
BRANCH  73  75
ATOM     75  C   UNL A   1      33.688  22.040  24.531  1.00  0.00     0.137 C 
BRANCH  75  76
ATOM     76  C   UNL A   1      33.196  20.669  24.040  1.00  0.00     0.083 C 
BRANCH  76  77
ATOM     77  C   UNL A   1      33.263  19.389  24.918  1.00  0.00     0.264 C 
BRANCH  77  78
ATOM     78  N   UNL A   1      32.417  18.235  24.556  1.00  0.00    -0.331 N 
ATOM     79  C   UNL A   1      32.513  17.081  25.485  1.00  0.00     0.291 C 
ATOM     80  C   UNL A   1      32.791  17.721  23.206  1.00  0.00     0.291 C 
ATOM     81  H   UNL A   1      31.465  18.600  24.592  1.00  0.00     0.348 HD
ATOM     82  C   UNL A   1      33.778  16.202  25.372  1.00  0.00     0.221 C 
ATOM     83  C   UNL A   1      34.099  16.906  23.171  1.00  0.00     0.221 C 
ATOM     84  O   UNL A   1      34.000  15.764  24.029  1.00  0.00    -0.370 OA
ENDBRANCH  77  78
ENDBRANCH  76  77
ENDBRANCH  75  76
ENDBRANCH  73  75
ENDBRANCH  59  62
ENDBRANCH   1  58
TORSDOF 14
ENDMDL
MODEL 3
REMARK VINA RESULT:     -12.1      0.921      5.931
REMARK SMILES O=C(NCCCNC(=O)c1ccc2c(=O)n(CCC[NH+]3CCOCC3)c(=O)[nH]c2c1)c1ccc(-c2c3nc(c(-c4ccccc4)c4ccc([nH]4)c(-c4ccccc4)c4nc(c(-c5ccccc5)c5ccc2[nH]5)C=C4)C=C3)cc1
REMARK SMILES IDX 6 1 5 2 4 3 3 4 1 5 2 6 31 8 32 9 78 10 33 11 77 12 34 13
REMARK SMILES IDX 35 14 36 15 71 16 37 17 76 18 70 19 72 20 38 21 75 22 69 23
REMARK SMILES IDX 68 24 39 26 61 27 46 28 60 29 47 30 50 31 59 32 73 33 48 34
REMARK SMILES IDX 49 35 58 37 74 38 51 39 40 40 41 41 45 42 42 43 44 44 43 45
REMARK SMILES IDX 62 46 63 47 67 48 64 49 66 50 65 51 52 52 53 53 57 54 54 55
REMARK SMILES IDX 56 56 55 57 7 58 8 59 9 61 10 62 11 63 30 64 12 65 29 66
REMARK SMILES IDX 13 67 28 68 14 69 26 70 15 72 16 73 27 74 17 75 18 76 19 77
REMARK SMILES IDX 20 78 21 79 25 80 22 82 24 83 23 84
REMARK H PARENT 3 7 72 25 50 36 7 60 28 71 20 81
REMARK Flexibility Score: inf
ROOT
ATOM      1  C   UNL A   1      35.967  20.605  25.012  1.00  0.00     0.118 C 
ENDROOT
BRANCH   1   2
ATOM      2  C   UNL A   1      37.252  19.812  24.828  1.00  0.00     0.042 C 
BRANCH   2   3
ATOM      3  C   UNL A   1      38.450  20.387  25.566  1.00  0.00     0.118 C 
BRANCH   3   4
ATOM      4  N   UNL A   1      39.555  19.447  25.663  1.00  0.00    -0.352 N 
ATOM      5  O   UNL A   1      41.677  18.749  25.890  1.00  0.00    -0.269 OA
ATOM      6  C   UNL A   1      40.862  19.659  26.020  1.00  0.00     0.251 C 
ATOM      7  H   UNL A   1      39.330  18.515  25.439  1.00  0.00     0.163 HD
BRANCH   6   8
ATOM      8  C   UNL A   1      41.303  20.968  26.551  1.00  0.00     0.039 A 
ATOM      9  C   UNL A   1      41.169  21.211  27.923  1.00  0.00     0.014 A 
ATOM     10  C   UNL A   1      41.785  21.975  25.711  1.00  0.00     0.014 A 
ATOM     11  C   UNL A   1      41.537  22.451  28.450  1.00  0.00     0.010 A 
ATOM     12  C   UNL A   1      42.229  23.180  26.248  1.00  0.00     0.010 A 
ATOM     13  C   UNL A   1      42.078  23.441  27.617  1.00  0.00    -0.014 A 
BRANCH  13  14
ATOM     14  C   UNL A   1      42.410  24.788  28.139  1.00  0.00     0.031 A 
ATOM     15  C   UNL A   1      43.833  25.109  28.509  1.00  0.00     0.074 A 
ATOM     16  C   UNL A   1      41.442  25.707  28.313  1.00  0.00     0.049 A 
ATOM     17  N   UNL A   1      44.320  26.198  29.049  1.00  0.00    -0.248 NA
ATOM     18  C   UNL A   1      44.839  24.062  28.261  1.00  0.00     0.031 C 
ATOM     19  C   UNL A   1      40.025  25.515  28.004  1.00  0.00     0.029 A 
ATOM     20  N   UNL A   1      41.509  26.992  28.793  1.00  0.00    -0.354 N 
ATOM     21  C   UNL A   1      45.677  25.955  29.223  1.00  0.00     0.074 A 
ATOM     22  C   UNL A   1      45.931  24.604  28.778  1.00  0.00     0.031 C 
ATOM     23  C   UNL A   1      39.361  26.651  28.273  1.00  0.00     0.029 A 
ATOM     24  C   UNL A   1      40.296  27.636  28.810  1.00  0.00     0.049 A 
ATOM     25  H   UNL A   1      42.346  27.411  29.096  1.00  0.00     0.167 HD
ATOM     26  C   UNL A   1      46.632  26.793  29.689  1.00  0.00     0.031 A 
ATOM     27  C   UNL A   1      39.972  28.879  29.214  1.00  0.00     0.031 A 
ATOM     28  C   UNL A   1      46.387  28.147  30.097  1.00  0.00     0.049 A 
ATOM     29  C   UNL A   1      41.048  29.790  29.737  1.00  0.00     0.074 A 
ATOM     30  C   UNL A   1      47.300  29.088  30.538  1.00  0.00     0.029 A 
ATOM     31  N   UNL A   1      45.143  28.757  30.102  1.00  0.00    -0.354 N 
ATOM     32  N   UNL A   1      42.332  29.556  29.868  1.00  0.00    -0.248 NA
ATOM     33  C   UNL A   1      40.636  31.137  30.159  1.00  0.00     0.031 C 
ATOM     34  C   UNL A   1      46.601  30.256  30.855  1.00  0.00     0.029 A 
ATOM     35  C   UNL A   1      45.262  30.058  30.557  1.00  0.00     0.049 A 
ATOM     36  H   UNL A   1      44.301  28.329  29.825  1.00  0.00     0.167 HD
ATOM     37  C   UNL A   1      42.883  30.728  30.367  1.00  0.00     0.074 A 
ATOM     38  C   UNL A   1      41.798  31.678  30.505  1.00  0.00     0.031 C 
ATOM     39  C   UNL A   1      44.173  30.992  30.685  1.00  0.00     0.031 A 
BRANCH  26  40
ATOM     40  C   UNL A   1      48.039  26.274  29.775  1.00  0.00    -0.014 A 
ATOM     41  C   UNL A   1      48.497  25.689  30.965  1.00  0.00     0.009 A 
ATOM     42  C   UNL A   1      48.934  26.431  28.705  1.00  0.00     0.009 A 
ATOM     43  C   UNL A   1      49.826  25.278  31.087  1.00  0.00     0.001 A 
ATOM     44  C   UNL A   1      50.255  25.993  28.819  1.00  0.00     0.001 A 
ATOM     45  C   UNL A   1      50.701  25.426  30.011  1.00  0.00     0.000 A 
ENDBRANCH  26  40
BRANCH  27  46
ATOM     46  C   UNL A   1      38.564  29.339  29.108  1.00  0.00    -0.014 A 
ATOM     47  C   UNL A   1      38.085  29.916  27.921  1.00  0.00     0.009 A 
ATOM     48  C   UNL A   1      37.702  29.244  30.212  1.00  0.00     0.009 A 
ATOM     49  C   UNL A   1      36.778  30.404  27.847  1.00  0.00     0.001 A 
ATOM     50  C   UNL A   1      36.388  29.711  30.126  1.00  0.00     0.001 A 
ATOM     51  C   UNL A   1      35.930  30.298  28.948  1.00  0.00     0.000 A 
ENDBRANCH  27  46
BRANCH  39  52
ATOM     52  C   UNL A   1      44.508  32.363  31.198  1.00  0.00    -0.014 A 
ATOM     53  C   UNL A   1      44.380  32.642  32.569  1.00  0.00     0.009 A 
ATOM     54  C   UNL A   1      44.829  33.405  30.317  1.00  0.00     0.009 A 
ATOM     55  C   UNL A   1      44.549  33.942  33.044  1.00  0.00     0.001 A 
ATOM     56  C   UNL A   1      45.023  34.701  30.800  1.00  0.00     0.001 A 
ATOM     57  C   UNL A   1      44.872  34.970  32.159  1.00  0.00     0.000 A 
ENDBRANCH  39  52
ENDBRANCH  13  14
ENDBRANCH   6   8
ENDBRANCH   3   4
ENDBRANCH   2   3
ENDBRANCH   1   2
BRANCH   1  58
ATOM     58  N   UNL A   1      34.784  19.755  25.122  1.00  0.00    -0.352 N 
ATOM     59  C   UNL A   1      33.453  20.093  25.033  1.00  0.00     0.251 C 
ATOM     60  H   UNL A   1      34.966  18.800  25.284  1.00  0.00     0.163 HD
ATOM     61  O   UNL A   1      32.573  19.288  25.319  1.00  0.00    -0.269 OA
BRANCH  59  62
ATOM     62  C   UNL A   1      33.092  21.456  24.606  1.00  0.00     0.041 A 
ATOM     63  C   UNL A   1      32.933  21.712  23.238  1.00  0.00     0.015 A 
ATOM     64  C   UNL A   1      32.985  22.482  25.559  1.00  0.00     0.040 A 
ATOM     65  C   UNL A   1      32.888  23.022  22.804  1.00  0.00     0.017 A 
ATOM     66  C   UNL A   1      32.865  23.794  25.113  1.00  0.00     0.056 A 
ATOM     67  C   UNL A   1      32.902  24.045  23.753  1.00  0.00     0.064 A 
ATOM     68  N   UNL A   1      32.721  24.877  25.980  1.00  0.00    -0.307 N 
ATOM     69  C   UNL A   1      33.054  25.425  23.331  1.00  0.00     0.264 A 
ATOM     70  C   UNL A   1      32.529  26.176  25.556  1.00  0.00     0.328 A 
ATOM     71  H   UNL A   1      32.759  24.706  26.948  1.00  0.00     0.171 HD
ATOM     72  O   UNL A   1      33.617  25.588  22.255  1.00  0.00    -0.268 OA
ATOM     73  N   UNL A   1      32.641  26.414  24.189  1.00  0.00    -0.260 N 
ATOM     74  O   UNL A   1      32.280  27.040  26.394  1.00  0.00    -0.248 OA
BRANCH  73  75
ATOM     75  C   UNL A   1      32.295  27.737  23.648  1.00  0.00     0.137 C 
BRANCH  75  76
ATOM     76  C   UNL A   1      30.903  27.954  23.033  1.00  0.00     0.083 C 
BRANCH  76  77
ATOM     77  C   UNL A   1      30.173  29.324  23.071  1.00  0.00     0.264 C 
BRANCH  77  78
ATOM     78  N   UNL A   1      29.004  29.530  22.192  1.00  0.00    -0.331 N 
ATOM     79  C   UNL A   1      29.088  30.730  21.321  1.00  0.00     0.291 C 
ATOM     80  C   UNL A   1      27.765  29.687  23.007  1.00  0.00     0.291 C 
ATOM     81  H   UNL A   1      28.988  28.701  21.598  1.00  0.00     0.348 HD
ATOM     82  C   UNL A   1      28.834  32.097  21.996  1.00  0.00     0.221 C 
ATOM     83  C   UNL A   1      27.619  31.059  23.696  1.00  0.00     0.221 C 
ATOM     84  O   UNL A   1      27.603  32.108  22.722  1.00  0.00    -0.370 OA
ENDBRANCH  77  78
ENDBRANCH  76  77
ENDBRANCH  75  76
ENDBRANCH  73  75
ENDBRANCH  59  62
ENDBRANCH   1  58
TORSDOF 14
ENDMDL
