MODEL 1
REMARK VINA RESULT:      -9.7      0.000      0.000
REMARK SMILES CCCC[C@@H](C)[NH2+]Cc1ccc(C(=O)NCCCNC(=O)c2ccc(-c3c4nc(c(-c5ccccc5)c5ccc([nH]5)c(-c5ccccc5)c5nc(c(-c6ccccc6)c6ccc3[nH]6)C=C5)C=C4)cc2)cn1
REMARK SMILES IDX 13 1 14 2 15 3 12 5 9 6 10 7 71 8 11 9 70 10 8 11 7 12 5 15
REMARK SMILES IDX 6 16 4 17 3 18 2 19 1 20 16 21 17 22 18 23 19 24 20 25 21 27
REMARK SMILES IDX 22 28 23 29 69 30 24 31 68 32 25 33 26 34 27 35 62 36 28 37
REMARK SMILES IDX 67 38 61 39 63 40 29 41 66 42 60 43 59 44 30 46 52 47 37 48
REMARK SMILES IDX 51 49 38 50 41 51 50 52 64 53 39 54 40 55 49 57 65 58 42 59
REMARK SMILES IDX 31 60 32 61 36 62 33 63 35 64 34 65 53 66 54 67 58 68 55 69
REMARK SMILES IDX 57 70 56 71 43 72 44 73 48 74 45 75 47 76 46 77
REMARK H PARENT 15 4 7 13 7 14 19 26 63 45 41 56
REMARK Flexibility Score: inf
ROOT
ATOM      1  C   UNL A   1      33.731  19.025  24.544  1.00  0.00     0.252 C 
ATOM      2  O   UNL A   1      33.131  17.985  24.292  1.00  0.00    -0.269 OA
ATOM      3  N   UNL A   1      35.074  18.986  24.800  1.00  0.00    -0.352 N 
ATOM      4  H   UNL A   1      35.463  18.084  24.857  1.00  0.00     0.163 HD
ENDROOT
BRANCH   1   5
ATOM      5  C   UNL A   1      32.999  20.299  24.530  1.00  0.00     0.058 A 
ATOM      6  C   UNL A   1      31.912  22.806  24.749  1.00  0.00     0.094 A 
ATOM      7  C   UNL A   1      32.157  22.293  23.477  1.00  0.00     0.030 A 
ATOM      8  N   UNL A   1      32.092  22.073  25.883  1.00  0.00    -0.255 NA
ATOM      9  C   UNL A   1      32.725  21.024  23.370  1.00  0.00     0.017 A 
ATOM     10  C   UNL A   1      32.662  20.856  25.752  1.00  0.00     0.125 A 
BRANCH   6  11
ATOM     11  C   UNL A   1      31.587  24.280  24.931  1.00  0.00     0.318 C 
BRANCH  11  12
ATOM     12  N   UNL A   1      32.514  24.962  25.851  1.00  0.00    -0.339 N 
ATOM     13  H   UNL A   1      32.021  25.756  26.260  1.00  0.00     0.346 HD
ATOM     14  H   UNL A   1      32.800  24.257  26.530  1.00  0.00     0.346 HD
BRANCH  12  15
ATOM     15  C   UNL A   1      33.764  25.467  25.245  1.00  0.00     0.179 C 
ATOM     16  C   UNL A   1      33.689  25.725  23.735  1.00  0.00     0.075 C 
BRANCH  15  17
ATOM     17  C   UNL A   1      34.845  24.410  25.575  1.00  0.00     0.065 C 
BRANCH  17  18
ATOM     18  C   UNL A   1      35.484  23.684  24.384  1.00  0.00     0.006 C 
BRANCH  18  19
ATOM     19  C   UNL A   1      37.004  23.516  24.437  1.00  0.00    -0.003 C 
ATOM     20  C   UNL A   1      37.583  23.703  25.828  1.00  0.00     0.004 C 
ENDBRANCH  18  19
ENDBRANCH  17  18
ENDBRANCH  15  17
ENDBRANCH  12  15
ENDBRANCH  11  12
ENDBRANCH   6  11
ENDBRANCH   1   5
BRANCH   3  21
ATOM     21  C   UNL A   1      36.008  20.076  25.001  1.00  0.00     0.118 C 
BRANCH  21  22
ATOM     22  C   UNL A   1      37.428  19.656  24.635  1.00  0.00     0.042 C 
BRANCH  22  23
ATOM     23  C   UNL A   1      38.484  20.234  25.571  1.00  0.00     0.118 C 
BRANCH  23  24
ATOM     24  N   UNL A   1      39.603  19.322  25.755  1.00  0.00    -0.352 N 
ATOM     25  C   UNL A   1      40.907  19.591  26.082  1.00  0.00     0.251 C 
ATOM     26  H   UNL A   1      39.392  18.369  25.624  1.00  0.00     0.163 HD
ATOM     27  O   UNL A   1      41.762  18.724  25.947  1.00  0.00    -0.269 OA
BRANCH  25  28
ATOM     28  C   UNL A   1      41.284  20.925  26.595  1.00  0.00     0.039 A 
ATOM     29  C   UNL A   1      41.817  21.863  25.708  1.00  0.00     0.014 A 
ATOM     30  C   UNL A   1      41.157  21.233  27.953  1.00  0.00     0.014 A 
ATOM     31  C   UNL A   1      42.181  23.127  26.174  1.00  0.00     0.010 A 
ATOM     32  C   UNL A   1      41.452  22.516  28.402  1.00  0.00     0.010 A 
ATOM     33  C   UNL A   1      41.979  23.470  27.520  1.00  0.00    -0.014 A 
BRANCH  33  34
ATOM     34  C   UNL A   1      42.331  24.816  28.032  1.00  0.00     0.031 A 
ATOM     35  C   UNL A   1      43.748  25.123  28.432  1.00  0.00     0.074 A 
ATOM     36  C   UNL A   1      41.365  25.739  28.196  1.00  0.00     0.049 A 
ATOM     37  N   UNL A   1      44.238  26.215  28.962  1.00  0.00    -0.248 NA
ATOM     38  C   UNL A   1      44.740  24.053  28.235  1.00  0.00     0.031 C 
ATOM     39  C   UNL A   1      39.948  25.549  27.880  1.00  0.00     0.029 A 
ATOM     40  N   UNL A   1      41.430  27.022  28.677  1.00  0.00    -0.354 N 
ATOM     41  C   UNL A   1      45.585  25.955  29.182  1.00  0.00     0.074 A 
ATOM     42  C   UNL A   1      45.826  24.589  28.770  1.00  0.00     0.031 C 
ATOM     43  C   UNL A   1      39.282  26.683  28.154  1.00  0.00     0.029 A 
ATOM     44  C   UNL A   1      40.216  27.664  28.697  1.00  0.00     0.049 A 
ATOM     45  H   UNL A   1      42.267  27.443  28.980  1.00  0.00     0.167 HD
ATOM     46  C   UNL A   1      46.540  26.784  29.666  1.00  0.00     0.031 A 
ATOM     47  C   UNL A   1      39.891  28.903  29.110  1.00  0.00     0.031 A 
ATOM     48  C   UNL A   1      46.303  28.147  30.058  1.00  0.00     0.049 A 
ATOM     49  C   UNL A   1      40.970  29.804  29.642  1.00  0.00     0.074 A 
ATOM     50  C   UNL A   1      47.214  29.087  30.506  1.00  0.00     0.029 A 
ATOM     51  N   UNL A   1      45.062  28.764  30.049  1.00  0.00    -0.354 N 
ATOM     52  N   UNL A   1      42.250  29.564  29.786  1.00  0.00    -0.248 NA
ATOM     53  C   UNL A   1      40.557  31.151  30.059  1.00  0.00     0.031 C 
ATOM     54  C   UNL A   1      46.516  30.262  30.807  1.00  0.00     0.029 A 
ATOM     55  C   UNL A   1      45.179  30.067  30.500  1.00  0.00     0.049 A 
ATOM     56  H   UNL A   1      44.221  28.338  29.762  1.00  0.00     0.167 HD
ATOM     57  C   UNL A   1      42.801  30.737  30.284  1.00  0.00     0.074 A 
ATOM     58  C   UNL A   1      41.718  31.691  30.404  1.00  0.00     0.031 C 
ATOM     59  C   UNL A   1      44.089  31.000  30.613  1.00  0.00     0.031 A 
BRANCH  46  60
ATOM     60  C   UNL A   1      47.931  26.231  29.801  1.00  0.00    -0.014 A 
ATOM     61  C   UNL A   1      48.406  25.748  31.032  1.00  0.00     0.009 A 
ATOM     62  C   UNL A   1      48.770  26.167  28.679  1.00  0.00     0.009 A 
ATOM     63  C   UNL A   1      49.705  25.248  31.143  1.00  0.00     0.001 A 
ATOM     64  C   UNL A   1      50.060  25.641  28.786  1.00  0.00     0.001 A 
ATOM     65  C   UNL A   1      50.529  25.192  30.020  1.00  0.00     0.000 A 
ENDBRANCH  46  60
BRANCH  47  66
ATOM     66  C   UNL A   1      38.486  29.372  29.016  1.00  0.00    -0.014 A 
ATOM     67  C   UNL A   1      37.633  29.283  30.127  1.00  0.00     0.009 A 
ATOM     68  C   UNL A   1      37.990  29.912  27.819  1.00  0.00     0.009 A 
ATOM     69  C   UNL A   1      36.304  29.704  30.034  1.00  0.00     0.001 A 
ATOM     70  C   UNL A   1      36.668  30.357  27.738  1.00  0.00     0.001 A 
ATOM     71  C   UNL A   1      35.824  30.244  28.842  1.00  0.00     0.000 A 
ENDBRANCH  47  66
BRANCH  59  72
ATOM     72  C   UNL A   1      44.400  32.386  31.102  1.00  0.00    -0.014 A 
ATOM     73  C   UNL A   1      44.735  33.414  30.207  1.00  0.00     0.009 A 
ATOM     74  C   UNL A   1      44.317  32.673  32.472  1.00  0.00     0.009 A 
ATOM     75  C   UNL A   1      45.012  34.697  30.681  1.00  0.00     0.001 A 
ATOM     76  C   UNL A   1      44.569  33.964  32.940  1.00  0.00     0.001 A 
ATOM     77  C   UNL A   1      44.925  34.971  32.045  1.00  0.00     0.000 A 
ENDBRANCH  59  72
ENDBRANCH  33  34
ENDBRANCH  25  28
ENDBRANCH  23  24
ENDBRANCH  22  23
ENDBRANCH  21  22
ENDBRANCH   3  21
TORSDOF 16
ENDMDL
MODEL 2
REMARK VINA RESULT:      -9.5      4.496      9.226
REMARK SMILES CCCC[C@@H](C)[NH2+]Cc1ccc(C(=O)NCCCNC(=O)c2ccc(-c3c4nc(c(-c5ccccc5)c5ccc([nH]5)c(-c5ccccc5)c5nc(c(-c6ccccc6)c6ccc3[nH]6)C=C5)C=C4)cc2)cn1
REMARK SMILES IDX 13 1 14 2 15 3 12 5 9 6 10 7 71 8 11 9 70 10 8 11 7 12 5 15
REMARK SMILES IDX 6 16 4 17 3 18 2 19 1 20 16 21 17 22 18 23 19 24 20 25 21 27
REMARK SMILES IDX 22 28 23 29 69 30 24 31 68 32 25 33 26 34 27 35 62 36 28 37
REMARK SMILES IDX 67 38 61 39 63 40 29 41 66 42 60 43 59 44 30 46 52 47 37 48
REMARK SMILES IDX 51 49 38 50 41 51 50 52 64 53 39 54 40 55 49 57 65 58 42 59
REMARK SMILES IDX 31 60 32 61 36 62 33 63 35 64 34 65 53 66 54 67 58 68 55 69
REMARK SMILES IDX 57 70 56 71 43 72 44 73 48 74 45 75 47 76 46 77
REMARK H PARENT 15 4 7 13 7 14 19 26 63 45 41 56
REMARK Flexibility Score: inf
ROOT
ATOM      1  C   UNL A   1      33.993  29.302  26.949  1.00  0.00     0.252 C 
ATOM      2  O   UNL A   1      35.114  29.266  27.448  1.00  0.00    -0.269 OA
ATOM      3  N   UNL A   1      33.070  30.192  27.422  1.00  0.00    -0.352 N 
ATOM      4  H   UNL A   1      33.348  30.699  28.219  1.00  0.00     0.163 HD
ENDROOT
BRANCH   1   5
ATOM      5  C   UNL A   1      33.677  28.408  25.827  1.00  0.00     0.058 A 
ATOM      6  C   UNL A   1      32.728  26.721  23.886  1.00  0.00     0.094 A 
ATOM      7  C   UNL A   1      33.357  27.901  23.496  1.00  0.00     0.030 A 
ATOM      8  N   UNL A   1      32.659  26.321  25.187  1.00  0.00    -0.255 NA
ATOM      9  C   UNL A   1      33.824  28.765  24.486  1.00  0.00     0.017 A 
ATOM     10  C   UNL A   1      33.101  27.185  26.126  1.00  0.00     0.125 A 
BRANCH   6  11
ATOM     11  C   UNL A   1      31.938  25.904  22.876  1.00  0.00     0.318 C 
BRANCH  11  12
ATOM     12  N   UNL A   1      30.738  26.605  22.386  1.00  0.00    -0.339 N 
ATOM     13  H   UNL A   1      31.046  27.369  21.784  1.00  0.00     0.346 HD
ATOM     14  H   UNL A   1      30.180  25.898  21.907  1.00  0.00     0.346 HD
BRANCH  12  15
ATOM     15  C   UNL A   1      29.857  27.175  23.427  1.00  0.00     0.179 C 
ATOM     16  C   UNL A   1      28.629  26.321  23.769  1.00  0.00     0.075 C 
BRANCH  15  17
ATOM     17  C   UNL A   1      29.435  28.567  22.901  1.00  0.00     0.065 C 
BRANCH  17  18
ATOM     18  C   UNL A   1      30.001  29.785  23.645  1.00  0.00     0.006 C 
BRANCH  18  19
ATOM     19  C   UNL A   1      29.135  31.046  23.622  1.00  0.00    -0.003 C 
ATOM     20  C   UNL A   1      27.661  30.763  23.394  1.00  0.00     0.004 C 
ENDBRANCH  18  19
ENDBRANCH  17  18
ENDBRANCH  15  17
ENDBRANCH  12  15
ENDBRANCH  11  12
ENDBRANCH   6  11
ENDBRANCH   1   5
BRANCH   3  21
ATOM     21  C   UNL A   1      31.744  30.501  26.925  1.00  0.00     0.118 C 
BRANCH  21  22
ATOM     22  C   UNL A   1      31.487  32.004  26.943  1.00  0.00     0.042 C 
BRANCH  22  23
ATOM     23  C   UNL A   1      32.765  32.830  27.030  1.00  0.00     0.118 C 
BRANCH  23  24
ATOM     24  N   UNL A   1      32.552  34.085  27.737  1.00  0.00    -0.352 N 
ATOM     25  C   UNL A   1      33.197  34.591  28.837  1.00  0.00     0.251 C 
ATOM     26  H   UNL A   1      31.838  34.656  27.370  1.00  0.00     0.163 HD
ATOM     27  O   UNL A   1      32.716  35.542  29.442  1.00  0.00    -0.269 OA
BRANCH  25  28
ATOM     28  C   UNL A   1      34.467  33.990  29.295  1.00  0.00     0.039 A 
ATOM     29  C   UNL A   1      35.651  34.330  28.636  1.00  0.00     0.014 A 
ATOM     30  C   UNL A   1      34.485  33.059  30.338  1.00  0.00     0.014 A 
ATOM     31  C   UNL A   1      36.860  33.772  29.053  1.00  0.00     0.010 A 
ATOM     32  C   UNL A   1      35.697  32.559  30.799  1.00  0.00     0.010 A 
ATOM     33  C   UNL A   1      36.895  32.900  30.153  1.00  0.00    -0.014 A 
BRANCH  33  34
ATOM     34  C   UNL A   1      38.170  32.317  30.632  1.00  0.00     0.031 A 
ATOM     35  C   UNL A   1      38.689  31.041  30.028  1.00  0.00     0.074 A 
ATOM     36  C   UNL A   1      38.827  32.901  31.651  1.00  0.00     0.049 A 
ATOM     37  N   UNL A   1      39.745  30.342  30.356  1.00  0.00    -0.248 NA
ATOM     38  C   UNL A   1      37.901  30.459  28.928  1.00  0.00     0.031 C 
ATOM     39  C   UNL A   1      38.406  34.120  32.345  1.00  0.00     0.029 A 
ATOM     40  N   UNL A   1      39.988  32.540  32.287  1.00  0.00    -0.354 N 
ATOM     41  C   UNL A   1      39.737  29.232  29.522  1.00  0.00     0.074 A 
ATOM     42  C   UNL A   1      38.548  29.325  28.703  1.00  0.00     0.031 C 
ATOM     43  C   UNL A   1      39.309  34.419  33.294  1.00  0.00     0.029 A 
ATOM     44  C   UNL A   1      40.349  33.395  33.299  1.00  0.00     0.049 A 
ATOM     45  H   UNL A   1      40.513  31.744  32.041  1.00  0.00     0.167 HD
ATOM     46  C   UNL A   1      40.646  28.232  29.431  1.00  0.00     0.031 A 
ATOM     47  C   UNL A   1      41.399  33.357  34.140  1.00  0.00     0.031 A 
ATOM     48  C   UNL A   1      41.837  28.149  30.232  1.00  0.00     0.049 A 
ATOM     49  C   UNL A   1      42.394  32.238  34.019  1.00  0.00     0.074 A 
ATOM     50  C   UNL A   1      42.851  27.208  30.178  1.00  0.00     0.029 A 
ATOM     51  N   UNL A   1      42.174  29.044  31.237  1.00  0.00    -0.354 N 
ATOM     52  N   UNL A   1      42.404  31.228  33.183  1.00  0.00    -0.248 NA
ATOM     53  C   UNL A   1      43.530  32.261  34.952  1.00  0.00     0.031 C 
ATOM     54  C   UNL A   1      43.781  27.511  31.178  1.00  0.00     0.029 A 
ATOM     55  C   UNL A   1      43.370  28.668  31.822  1.00  0.00     0.049 A 
ATOM     56  H   UNL A   1      41.641  29.831  31.494  1.00  0.00     0.167 HD
ATOM     57  C   UNL A   1      43.558  30.511  33.471  1.00  0.00     0.074 A 
ATOM     58  C   UNL A   1      44.228  31.209  34.548  1.00  0.00     0.031 C 
ATOM     59  C   UNL A   1      44.020  29.375  32.894  1.00  0.00     0.031 A 
BRANCH  46  60
ATOM     60  C   UNL A   1      40.380  27.144  28.429  1.00  0.00    -0.014 A 
ATOM     61  C   UNL A   1      40.887  27.218  27.121  1.00  0.00     0.009 A 
ATOM     62  C   UNL A   1      39.634  26.017  28.804  1.00  0.00     0.009 A 
ATOM     63  C   UNL A   1      40.620  26.203  26.200  1.00  0.00     0.001 A 
ATOM     64  C   UNL A   1      39.392  24.990  27.888  1.00  0.00     0.001 A 
ATOM     65  C   UNL A   1      39.876  25.089  26.585  1.00  0.00     0.000 A 
ENDBRANCH  46  60
BRANCH  47  66
ATOM     66  C   UNL A   1      41.574  34.424  35.158  1.00  0.00    -0.014 A 
ATOM     67  C   UNL A   1      41.014  34.283  36.437  1.00  0.00     0.009 A 
ATOM     68  C   UNL A   1      42.302  35.586  34.858  1.00  0.00     0.009 A 
ATOM     69  C   UNL A   1      41.159  35.295  37.388  1.00  0.00     0.001 A 
ATOM     70  C   UNL A   1      42.469  36.584  35.821  1.00  0.00     0.001 A 
ATOM     71  C   UNL A   1      41.890  36.442  37.081  1.00  0.00     0.000 A 
ENDBRANCH  47  66
BRANCH  59  72
ATOM     72  C   UNL A   1      45.330  28.838  33.396  1.00  0.00    -0.014 A 
ATOM     73  C   UNL A   1      46.549  29.263  32.844  1.00  0.00     0.009 A 
ATOM     74  C   UNL A   1      45.343  27.925  34.461  1.00  0.00     0.009 A 
ATOM     75  C   UNL A   1      47.755  28.757  33.331  1.00  0.00     0.001 A 
ATOM     76  C   UNL A   1      46.553  27.442  34.962  1.00  0.00     0.001 A 
ATOM     77  C   UNL A   1      47.756  27.852  34.392  1.00  0.00     0.000 A 
ENDBRANCH  59  72
ENDBRANCH  33  34
ENDBRANCH  25  28
ENDBRANCH  23  24
ENDBRANCH  22  23
ENDBRANCH  21  22
ENDBRANCH   3  21
TORSDOF 16
ENDMDL
MODEL 3
REMARK VINA RESULT:      -9.5      2.762      7.546
REMARK SMILES CCCC[C@@H](C)[NH2+]Cc1ccc(C(=O)NCCCNC(=O)c2ccc(-c3c4nc(c(-c5ccccc5)c5ccc([nH]5)c(-c5ccccc5)c5nc(c(-c6ccccc6)c6ccc3[nH]6)C=C5)C=C4)cc2)cn1
REMARK SMILES IDX 13 1 14 2 15 3 12 5 9 6 10 7 71 8 11 9 70 10 8 11 7 12 5 15
REMARK SMILES IDX 6 16 4 17 3 18 2 19 1 20 16 21 17 22 18 23 19 24 20 25 21 27
REMARK SMILES IDX 22 28 23 29 69 30 24 31 68 32 25 33 26 34 27 35 62 36 28 37
REMARK SMILES IDX 67 38 61 39 63 40 29 41 66 42 60 43 59 44 30 46 52 47 37 48
REMARK SMILES IDX 51 49 38 50 41 51 50 52 64 53 39 54 40 55 49 57 65 58 42 59
REMARK SMILES IDX 31 60 32 61 36 62 33 63 35 64 34 65 53 66 54 67 58 68 55 69
REMARK SMILES IDX 57 70 56 71 43 72 44 73 48 74 45 75 47 76 46 77
REMARK H PARENT 15 4 7 13 7 14 19 26 63 45 41 56
REMARK Flexibility Score: inf
ROOT
ATOM      1  C   UNL A   1      30.987  28.017  23.048  1.00  0.00     0.252 C 
ATOM      2  O   UNL A   1      30.368  28.628  22.183  1.00  0.00    -0.269 OA
ATOM      3  N   UNL A   1      31.216  28.607  24.260  1.00  0.00    -0.352 N 
ATOM      4  H   UNL A   1      30.938  29.548  24.326  1.00  0.00     0.163 HD
ENDROOT
BRANCH   1   5
ATOM      5  C   UNL A   1      31.442  26.646  22.774  1.00  0.00     0.058 A 
ATOM      6  C   UNL A   1      32.633  24.205  22.412  1.00  0.00     0.094 A 
ATOM      7  C   UNL A   1      31.423  24.262  23.100  1.00  0.00     0.030 A 
ATOM      8  N   UNL A   1      33.195  25.297  21.823  1.00  0.00    -0.255 NA
ATOM      9  C   UNL A   1      30.827  25.507  23.296  1.00  0.00     0.017 A 
ATOM     10  C   UNL A   1      32.608  26.493  22.046  1.00  0.00     0.125 A 
BRANCH   6  11
ATOM     11  C   UNL A   1      33.468  22.934  22.436  1.00  0.00     0.318 C 
BRANCH  11  12
ATOM     12  N   UNL A   1      34.763  23.113  23.117  1.00  0.00    -0.339 N 
ATOM     13  H   UNL A   1      35.428  22.463  22.699  1.00  0.00     0.346 HD
ATOM     14  H   UNL A   1      35.008  24.095  22.993  1.00  0.00     0.346 HD
BRANCH  12  15
ATOM     15  C   UNL A   1      34.758  22.881  24.577  1.00  0.00     0.179 C 
ATOM     16  C   UNL A   1      35.214  24.078  25.420  1.00  0.00     0.075 C 
BRANCH  15  17
ATOM     17  C   UNL A   1      35.676  21.657  24.808  1.00  0.00     0.065 C 
BRANCH  17  18
ATOM     18  C   UNL A   1      37.142  21.804  24.377  1.00  0.00     0.006 C 
BRANCH  18  19
ATOM     19  C   UNL A   1      38.189  21.561  25.466  1.00  0.00    -0.003 C 
ATOM     20  C   UNL A   1      38.610  22.827  26.190  1.00  0.00     0.004 C 
ENDBRANCH  18  19
ENDBRANCH  17  18
ENDBRANCH  15  17
ENDBRANCH  12  15
ENDBRANCH  11  12
ENDBRANCH   6  11
ENDBRANCH   1   5
BRANCH   3  21
ATOM     21  C   UNL A   1      31.807  28.051  25.461  1.00  0.00     0.118 C 
BRANCH  21  22
ATOM     22  C   UNL A   1      33.300  28.350  25.528  1.00  0.00     0.042 C 
BRANCH  22  23
ATOM     23  C   UNL A   1      33.813  28.530  26.953  1.00  0.00     0.118 C 
BRANCH  23  24
ATOM     24  N   UNL A   1      33.713  29.914  27.394  1.00  0.00    -0.352 N 
ATOM     25  C   UNL A   1      34.577  30.652  28.161  1.00  0.00     0.251 C 
ATOM     26  H   UNL A   1      32.905  30.390  27.097  1.00  0.00     0.163 HD
ATOM     27  O   UNL A   1      34.210  31.719  28.640  1.00  0.00    -0.269 OA
BRANCH  25  28
ATOM     28  C   UNL A   1      35.949  30.164  28.414  1.00  0.00     0.039 A 
ATOM     29  C   UNL A   1      36.900  30.264  27.395  1.00  0.00     0.014 A 
ATOM     30  C   UNL A   1      36.284  29.567  29.633  1.00  0.00     0.014 A 
ATOM     31  C   UNL A   1      38.200  29.807  27.614  1.00  0.00     0.010 A 
ATOM     32  C   UNL A   1      37.597  29.178  29.876  1.00  0.00     0.010 A 
ATOM     33  C   UNL A   1      38.564  29.281  28.864  1.00  0.00    -0.014 A 
BRANCH  33  34
ATOM     34  C   UNL A   1      39.945  28.815  29.130  1.00  0.00     0.031 A 
ATOM     35  C   UNL A   1      40.939  29.737  29.782  1.00  0.00     0.074 A 
ATOM     36  C   UNL A   1      40.322  27.586  28.730  1.00  0.00     0.049 A 
ATOM     37  N   UNL A   1      42.207  29.538  30.036  1.00  0.00    -0.248 NA
ATOM     38  C   UNL A   1      40.450  31.069  30.174  1.00  0.00     0.031 C 
ATOM     39  C   UNL A   1      39.461  26.613  28.055  1.00  0.00     0.029 A 
ATOM     40  N   UNL A   1      41.532  26.949  28.828  1.00  0.00    -0.354 N 
ATOM     41  C   UNL A   1      42.670  30.722  30.595  1.00  0.00     0.074 A 
ATOM     42  C   UNL A   1      41.560  31.650  30.603  1.00  0.00     0.031 C 
ATOM     43  C   UNL A   1      40.165  25.493  27.821  1.00  0.00     0.029 A 
ATOM     44  C   UNL A   1      41.531  25.683  28.295  1.00  0.00     0.049 A 
ATOM     45  H   UNL A   1      42.327  27.359  29.240  1.00  0.00     0.167 HD
ATOM     46  C   UNL A   1      43.903  31.007  31.076  1.00  0.00     0.031 A 
ATOM     47  C   UNL A   1      42.522  24.778  28.195  1.00  0.00     0.031 A 
ATOM     48  C   UNL A   1      45.001  30.078  31.085  1.00  0.00     0.049 A 
ATOM     49  C   UNL A   1      43.882  25.118  28.738  1.00  0.00     0.074 A 
ATOM     50  C   UNL A   1      46.273  30.249  31.602  1.00  0.00     0.029 A 
ATOM     51  N   UNL A   1      44.955  28.800  30.549  1.00  0.00    -0.354 N 
ATOM     52  N   UNL A   1      44.287  26.220  29.320  1.00  0.00    -0.248 NA
ATOM     53  C   UNL A   1      44.917  24.081  28.618  1.00  0.00     0.031 C 
ATOM     54  C   UNL A   1      47.010  29.088  31.341  1.00  0.00     0.029 A 
ATOM     55  C   UNL A   1      46.181  28.178  30.707  1.00  0.00     0.049 A 
ATOM     56  H   UNL A   1      44.166  28.395  30.121  1.00  0.00     0.167 HD
ATOM     57  C   UNL A   1      45.616  26.002  29.660  1.00  0.00     0.074 A 
ATOM     58  C   UNL A   1      45.943  24.657  29.231  1.00  0.00     0.031 C 
ATOM     59  C   UNL A   1      46.487  26.840  30.272  1.00  0.00     0.031 A 
BRANCH  46  60
ATOM     60  C   UNL A   1      44.128  32.386  31.630  1.00  0.00    -0.014 A 
ATOM     61  C   UNL A   1      43.908  32.671  32.988  1.00  0.00     0.009 A 
ATOM     62  C   UNL A   1      44.590  33.409  30.789  1.00  0.00     0.009 A 
ATOM     63  C   UNL A   1      44.111  33.961  33.482  1.00  0.00     0.001 A 
ATOM     64  C   UNL A   1      44.819  34.692  31.292  1.00  0.00     0.001 A 
ATOM     65  C   UNL A   1      44.569  34.969  32.635  1.00  0.00     0.000 A 
ENDBRANCH  46  60
BRANCH  47  66
ATOM     66  C   UNL A   1      42.260  23.454  27.575  1.00  0.00    -0.014 A 
ATOM     67  C   UNL A   1      41.755  22.397  28.348  1.00  0.00     0.009 A 
ATOM     68  C   UNL A   1      42.508  23.242  26.211  1.00  0.00     0.009 A 
ATOM     69  C   UNL A   1      41.528  21.146  27.771  1.00  0.00     0.001 A 
ATOM     70  C   UNL A   1      42.255  21.996  25.631  1.00  0.00     0.001 A 
ATOM     71  C   UNL A   1      41.773  20.947  26.413  1.00  0.00     0.000 A 
ENDBRANCH  47  66
BRANCH  59  72
ATOM     72  C   UNL A   1      47.866  26.312  30.544  1.00  0.00    -0.014 A 
ATOM     73  C   UNL A   1      48.206  25.779  31.797  1.00  0.00     0.009 A 
ATOM     74  C   UNL A   1      48.824  26.313  29.519  1.00  0.00     0.009 A 
ATOM     75  C   UNL A   1      49.492  25.286  32.026  1.00  0.00     0.001 A 
ATOM     76  C   UNL A   1      50.101  25.796  29.745  1.00  0.00     0.001 A 
ATOM     77  C   UNL A   1      50.435  25.291  31.000  1.00  0.00     0.000 A 
ENDBRANCH  59  72
ENDBRANCH  33  34
ENDBRANCH  25  28
ENDBRANCH  23  24
ENDBRANCH  22  23
ENDBRANCH  21  22
ENDBRANCH   3  21
TORSDOF 16
ENDMDL
