MODEL 1
REMARK VINA RESULT:     -12.0      0.000      0.000
REMARK SMILES Cc1ccc(-n2nc(C(=O)NCCCNC(=O)c3ccc(-c4c5nc(c(-c6ccccc6)c6ccc([nH]6)c(-c6ccccc6)c6nc(c(-c7ccccc7)c7ccc4[nH]7)C=C6)C=C5)cc3)c(C)c(C#N)c2=O)cc1Cl
REMARK SMILES IDX 13 1 12 2 11 3 9 4 10 5 8 7 6 8 7 9 71 10 68 11 72 12 66 13
REMARK SMILES IDX 67 14 5 15 1 16 2 17 3 18 74 19 4 20 73 21 75 22 69 23 70 24
REMARK SMILES IDX 14 25 15 26 16 27 17 29 18 30 19 31 65 32 20 33 64 34 21 35
REMARK SMILES IDX 22 36 23 37 58 38 24 39 63 40 57 41 59 42 25 43 62 44 56 45
REMARK SMILES IDX 55 46 26 48 48 49 33 50 47 51 34 52 37 53 46 54 60 55 35 56
REMARK SMILES IDX 36 57 45 59 61 60 38 61 27 62 28 63 32 64 29 65 31 66 30 67
REMARK SMILES IDX 49 68 50 69 54 70 51 71 53 72 52 73 39 74 40 75 44 76 41 77
REMARK SMILES IDX 43 78 42 79
REMARK H PARENT 11 6 15 28 59 47 37 58
REMARK Flexibility Score: inf
ROOT
ATOM      1  C   UNL A   1      33.398  27.536  26.636  1.00  0.00     0.042 C 
ENDROOT
BRANCH   1   2
ATOM      2  C   UNL A   1      31.900  27.802  26.785  1.00  0.00     0.118 C 
BRANCH   2   3
ATOM      3  N   UNL A   1      31.162  26.567  26.830  1.00  0.00    -0.351 N 
ATOM      4  C   UNL A   1      31.021  25.440  26.078  1.00  0.00     0.272 C 
ATOM      5  O   UNL A   1      30.210  24.643  26.566  1.00  0.00    -0.267 OA
ATOM      6  H   UNL A   1      30.596  26.526  27.635  1.00  0.00     0.163 HD
BRANCH   4   7
ATOM      7  C   UNL A   1      31.739  24.986  24.776  1.00  0.00     0.153 A 
ATOM      8  N   UNL A   1      32.842  23.141  23.916  1.00  0.00    -0.195 N 
ATOM      9  N   UNL A   1      32.161  23.758  24.911  1.00  0.00    -0.159 NA
ATOM     10  C   UNL A   1      33.111  23.711  22.687  1.00  0.00     0.289 A 
ATOM     11  C   UNL A   1      32.579  25.072  22.504  1.00  0.00     0.124 A 
ATOM     12  O   UNL A   1      33.699  23.160  21.758  1.00  0.00    -0.266 OA
ATOM     13  C   UNL A   1      31.928  25.736  23.484  1.00  0.00     0.006 A 
ATOM     14  C   UNL A   1      31.381  27.089  23.194  1.00  0.00     0.048 C 
BRANCH   8  15
ATOM     15  C   UNL A   1      33.297  21.835  24.224  1.00  0.00     0.070 A 
ATOM     16  C   UNL A   1      35.036  17.918  24.660  1.00  0.00     0.046 C 
ATOM     17  C   UNL A   1      34.376  19.262  24.565  1.00  0.00    -0.032 A 
ATOM     18  C   UNL A   1      35.104  20.393  24.950  1.00  0.00     0.007 A 
ATOM     19  C   UNL A   1      33.077  19.435  24.058  1.00  0.00     0.046 A 
ATOM     20  C   UNL A   1      34.574  21.666  24.767  1.00  0.00     0.029 A 
ATOM     21  C   UNL A   1      32.522  20.713  23.921  1.00  0.00     0.049 A 
ATOM     22  Cl  UNL A   1      32.142  18.084  23.519  1.00  0.00    -0.084 Cl
ENDBRANCH   8  15
BRANCH  11  23
ATOM     23  C   UNL A   1      32.786  25.626  21.202  1.00  0.00     0.105 C 
ATOM     24  N   UNL A   1      32.998  26.013  20.132  1.00  0.00    -0.192 NA
ENDBRANCH  11  23
ENDBRANCH   4   7
ENDBRANCH   2   3
ENDBRANCH   1   2
BRANCH   1  25
ATOM     25  C   UNL A   1      34.128  28.643  25.900  1.00  0.00     0.118 C 
BRANCH  25  26
ATOM     26  N   UNL A   1      33.781  29.945  26.450  1.00  0.00    -0.352 N 
ATOM     27  C   UNL A   1      34.363  30.646  27.474  1.00  0.00     0.251 C 
ATOM     28  H   UNL A   1      33.013  30.389  26.022  1.00  0.00     0.163 HD
ATOM     29  O   UNL A   1      33.777  31.607  27.960  1.00  0.00    -0.269 OA
BRANCH  27  30
ATOM     30  C   UNL A   1      35.679  30.231  27.997  1.00  0.00     0.039 A 
ATOM     31  C   UNL A   1      35.752  29.678  29.278  1.00  0.00     0.014 A 
ATOM     32  C   UNL A   1      36.836  30.392  27.231  1.00  0.00     0.014 A 
ATOM     33  C   UNL A   1      36.980  29.234  29.765  1.00  0.00     0.010 A 
ATOM     34  C   UNL A   1      38.037  29.857  27.675  1.00  0.00     0.010 A 
ATOM     35  C   UNL A   1      38.123  29.287  28.951  1.00  0.00    -0.014 A 
BRANCH  35  36
ATOM     36  C   UNL A   1      39.428  28.766  29.415  1.00  0.00     0.031 A 
ATOM     37  C   UNL A   1      40.274  29.595  30.340  1.00  0.00     0.074 A 
ATOM     38  C   UNL A   1      39.869  27.579  28.954  1.00  0.00     0.049 A 
ATOM     39  N   UNL A   1      41.478  29.354  30.790  1.00  0.00    -0.248 NA
ATOM     40  C   UNL A   1      39.706  30.874  30.805  1.00  0.00     0.031 C 
ATOM     41  C   UNL A   1      39.140  26.702  28.035  1.00  0.00     0.029 A 
ATOM     42  N   UNL A   1      41.041  26.909  29.193  1.00  0.00    -0.354 N 
ATOM     43  C   UNL A   1      41.810  30.447  31.580  1.00  0.00     0.074 A 
ATOM     44  C   UNL A   1      40.710  31.381  31.505  1.00  0.00     0.031 C 
ATOM     45  C   UNL A   1      39.865  25.594  27.817  1.00  0.00     0.029 A 
ATOM     46  C   UNL A   1      41.131  25.706  28.533  1.00  0.00     0.049 A 
ATOM     47  H   UNL A   1      41.750  27.256  29.782  1.00  0.00     0.167 HD
ATOM     48  C   UNL A   1      42.922  30.638  32.324  1.00  0.00     0.031 A 
ATOM     49  C   UNL A   1      42.128  24.803  28.502  1.00  0.00     0.031 A 
ATOM     50  C   UNL A   1      44.007  29.698  32.402  1.00  0.00     0.049 A 
ATOM     51  C   UNL A   1      43.373  25.069  29.302  1.00  0.00     0.074 A 
ATOM     52  C   UNL A   1      45.166  29.788  33.152  1.00  0.00     0.029 A 
ATOM     53  N   UNL A   1      44.065  28.500  31.710  1.00  0.00    -0.354 N 
ATOM     54  N   UNL A   1      43.654  26.088  30.078  1.00  0.00    -0.248 NA
ATOM     55  C   UNL A   1      44.432  24.054  29.236  1.00  0.00     0.031 C 
ATOM     56  C   UNL A   1      45.954  28.672  32.865  1.00  0.00     0.029 A 
ATOM     57  C   UNL A   1      45.250  27.848  32.000  1.00  0.00     0.049 A 
ATOM     58  H   UNL A   1      43.368  28.161  31.102  1.00  0.00     0.167 HD
ATOM     59  C   UNL A   1      44.902  25.817  30.623  1.00  0.00     0.074 A 
ATOM     60  C   UNL A   1      45.316  24.531  30.100  1.00  0.00     0.031 C 
ATOM     61  C   UNL A   1      45.639  26.563  31.481  1.00  0.00     0.031 A 
BRANCH  48  62
ATOM     62  C   UNL A   1      43.028  31.902  33.131  1.00  0.00    -0.014 A 
ATOM     63  C   UNL A   1      43.560  33.075  32.571  1.00  0.00     0.009 A 
ATOM     64  C   UNL A   1      42.490  31.952  34.426  1.00  0.00     0.009 A 
ATOM     65  C   UNL A   1      43.554  34.270  33.293  1.00  0.00     0.001 A 
ATOM     66  C   UNL A   1      42.458  33.154  35.135  1.00  0.00     0.001 A 
ATOM     67  C   UNL A   1      42.991  34.311  34.569  1.00  0.00     0.000 A 
ENDBRANCH  48  62
BRANCH  49  68
ATOM     68  C   UNL A   1      41.987  23.559  27.698  1.00  0.00    -0.014 A 
ATOM     69  C   UNL A   1      42.401  23.525  26.356  1.00  0.00     0.009 A 
ATOM     70  C   UNL A   1      41.434  22.398  28.262  1.00  0.00     0.009 A 
ATOM     71  C   UNL A   1      42.231  22.369  25.590  1.00  0.00     0.001 A 
ATOM     72  C   UNL A   1      41.301  21.233  27.505  1.00  0.00     0.001 A 
ATOM     73  C   UNL A   1      41.686  21.223  26.166  1.00  0.00     0.000 A 
ENDBRANCH  49  68
BRANCH  61  74
ATOM     74  C   UNL A   1      46.943  25.988  31.960  1.00  0.00    -0.014 A 
ATOM     75  C   UNL A   1      48.135  26.173  31.244  1.00  0.00     0.009 A 
ATOM     76  C   UNL A   1      46.986  25.306  33.187  1.00  0.00     0.009 A 
ATOM     77  C   UNL A   1      49.337  25.655  31.731  1.00  0.00     0.001 A 
ATOM     78  C   UNL A   1      48.194  24.823  33.690  1.00  0.00     0.001 A 
ATOM     79  C   UNL A   1      49.366  24.989  32.955  1.00  0.00     0.000 A 
ENDBRANCH  61  74
ENDBRANCH  35  36
ENDBRANCH  27  30
ENDBRANCH  25  26
ENDBRANCH   1  25
TORSDOF 12
ENDMDL
MODEL 2
REMARK VINA RESULT:     -11.9      2.664      6.686
REMARK SMILES Cc1ccc(-n2nc(C(=O)NCCCNC(=O)c3ccc(-c4c5nc(c(-c6ccccc6)c6ccc([nH]6)c(-c6ccccc6)c6nc(c(-c7ccccc7)c7ccc4[nH]7)C=C6)C=C5)cc3)c(C)c(C#N)c2=O)cc1Cl
REMARK SMILES IDX 13 1 12 2 11 3 9 4 10 5 8 7 6 8 7 9 71 10 68 11 72 12 66 13
REMARK SMILES IDX 67 14 5 15 1 16 2 17 3 18 74 19 4 20 73 21 75 22 69 23 70 24
REMARK SMILES IDX 14 25 15 26 16 27 17 29 18 30 19 31 65 32 20 33 64 34 21 35
REMARK SMILES IDX 22 36 23 37 58 38 24 39 63 40 57 41 59 42 25 43 62 44 56 45
REMARK SMILES IDX 55 46 26 48 48 49 33 50 47 51 34 52 37 53 46 54 60 55 35 56
REMARK SMILES IDX 36 57 45 59 61 60 38 61 27 62 28 63 32 64 29 65 31 66 30 67
REMARK SMILES IDX 49 68 50 69 54 70 51 71 53 72 52 73 39 74 40 75 44 76 41 77
REMARK SMILES IDX 43 78 42 79
REMARK H PARENT 11 6 15 28 59 47 37 58
REMARK Flexibility Score: inf
ROOT
ATOM      1  C   UNL A   1      33.658  28.874  23.795  1.00  0.00     0.042 C 
ENDROOT
BRANCH   1   2
ATOM      2  C   UNL A   1      32.554  28.636  22.764  1.00  0.00     0.118 C 
BRANCH   2   3
ATOM      3  N   UNL A   1      32.842  27.476  21.961  1.00  0.00    -0.351 N 
ATOM      4  C   UNL A   1      33.026  26.138  22.140  1.00  0.00     0.272 C 
ATOM      5  O   UNL A   1      33.278  25.550  21.080  1.00  0.00    -0.267 OA
ATOM      6  H   UNL A   1      32.932  27.721  21.011  1.00  0.00     0.163 HD
BRANCH   4   7
ATOM      7  C   UNL A   1      32.913  25.253  23.412  1.00  0.00     0.153 A 
ATOM      8  N   UNL A   1      34.242  23.925  24.765  1.00  0.00    -0.195 N 
ATOM      9  N   UNL A   1      34.083  24.754  23.707  1.00  0.00    -0.159 NA
ATOM     10  C   UNL A   1      33.230  23.572  25.636  1.00  0.00     0.289 A 
ATOM     11  C   UNL A   1      31.921  24.186  25.350  1.00  0.00     0.124 A 
ATOM     12  O   UNL A   1      33.355  22.848  26.623  1.00  0.00    -0.266 OA
ATOM     13  C   UNL A   1      31.713  24.987  24.282  1.00  0.00     0.006 A 
ATOM     14  C   UNL A   1      30.372  25.604  24.098  1.00  0.00     0.048 C 
BRANCH   8  15
ATOM     15  C   UNL A   1      35.549  23.405  24.927  1.00  0.00     0.070 A 
ATOM     16  C   UNL A   1      39.275  21.437  25.827  1.00  0.00     0.046 C 
ATOM     17  C   UNL A   1      38.019  22.179  25.473  1.00  0.00    -0.032 A 
ATOM     18  C   UNL A   1      37.091  21.559  24.630  1.00  0.00     0.007 A 
ATOM     19  C   UNL A   1      37.717  23.449  25.995  1.00  0.00     0.046 A 
ATOM     20  C   UNL A   1      35.864  22.160  24.373  1.00  0.00     0.029 A 
ATOM     21  C   UNL A   1      36.503  24.078  25.695  1.00  0.00     0.049 A 
ATOM     22  Cl  UNL A   1      38.798  24.250  27.080  1.00  0.00    -0.084 Cl
ENDBRANCH   8  15
BRANCH  11  23
ATOM     23  C   UNL A   1      30.897  23.886  26.302  1.00  0.00     0.105 C 
ATOM     24  N   UNL A   1      30.094  23.703  27.114  1.00  0.00    -0.192 NA
ENDBRANCH  11  23
ENDBRANCH   4   7
ENDBRANCH   2   3
ENDBRANCH   1   2
BRANCH   1  25
ATOM     25  C   UNL A   1      33.160  28.808  25.225  1.00  0.00     0.118 C 
BRANCH  25  26
ATOM     26  N   UNL A   1      32.642  30.100  25.651  1.00  0.00    -0.352 N 
ATOM     27  C   UNL A   1      33.033  30.898  26.694  1.00  0.00     0.251 C 
ATOM     28  H   UNL A   1      31.900  30.453  25.109  1.00  0.00     0.163 HD
ATOM     29  O   UNL A   1      32.314  31.827  27.049  1.00  0.00    -0.269 OA
BRANCH  27  30
ATOM     30  C   UNL A   1      34.302  30.627  27.396  1.00  0.00     0.039 A 
ATOM     31  C   UNL A   1      35.186  31.684  27.626  1.00  0.00     0.014 A 
ATOM     32  C   UNL A   1      34.623  29.335  27.820  1.00  0.00     0.014 A 
ATOM     33  C   UNL A   1      36.364  31.452  28.333  1.00  0.00     0.010 A 
ATOM     34  C   UNL A   1      35.743  29.126  28.610  1.00  0.00     0.010 A 
ATOM     35  C   UNL A   1      36.631  30.179  28.862  1.00  0.00    -0.014 A 
BRANCH  35  36
ATOM     36  C   UNL A   1      37.843  29.916  29.670  1.00  0.00     0.031 A 
ATOM     37  C   UNL A   1      38.921  29.023  29.126  1.00  0.00     0.074 A 
ATOM     38  C   UNL A   1      37.935  30.432  30.912  1.00  0.00     0.049 A 
ATOM     39  N   UNL A   1      40.014  28.604  29.710  1.00  0.00    -0.248 NA
ATOM     40  C   UNL A   1      38.742  28.513  27.754  1.00  0.00     0.031 C 
ATOM     41  C   UNL A   1      36.936  31.294  31.549  1.00  0.00     0.029 A 
ATOM     42  N   UNL A   1      38.916  30.304  31.861  1.00  0.00    -0.354 N 
ATOM     43  C   UNL A   1      40.644  27.783  28.784  1.00  0.00     0.074 A 
ATOM     44  C   UNL A   1      39.788  27.711  27.622  1.00  0.00     0.031 C 
ATOM     45  C   UNL A   1      37.373  31.646  32.768  1.00  0.00     0.029 A 
ATOM     46  C   UNL A   1      38.652  30.990  33.022  1.00  0.00     0.049 A 
ATOM     47  H   UNL A   1      39.732  29.771  31.723  1.00  0.00     0.167 HD
ATOM     48  C   UNL A   1      41.843  27.166  28.887  1.00  0.00     0.031 A 
ATOM     49  C   UNL A   1      39.357  31.072  34.165  1.00  0.00     0.031 A 
ATOM     50  C   UNL A   1      42.692  27.252  30.043  1.00  0.00     0.049 A 
ATOM     51  C   UNL A   1      40.664  30.335  34.264  1.00  0.00     0.074 A 
ATOM     52  C   UNL A   1      43.941  26.688  30.232  1.00  0.00     0.029 A 
ATOM     53  N   UNL A   1      42.383  27.947  31.201  1.00  0.00    -0.354 N 
ATOM     54  N   UNL A   1      41.266  29.597  33.364  1.00  0.00    -0.248 NA
ATOM     55  C   UNL A   1      41.397  30.456  35.531  1.00  0.00     0.031 C 
ATOM     56  C   UNL A   1      44.360  26.989  31.530  1.00  0.00     0.029 A 
ATOM     57  C   UNL A   1      43.409  27.809  32.118  1.00  0.00     0.049 A 
ATOM     58  H   UNL A   1      41.557  28.462  31.350  1.00  0.00     0.167 HD
ATOM     59  C   UNL A   1      42.466  29.199  33.940  1.00  0.00     0.074 A 
ATOM     60  C   UNL A   1      42.511  29.791  35.262  1.00  0.00     0.031 C 
ATOM     61  C   UNL A   1      43.443  28.417  33.423  1.00  0.00     0.031 A 
BRANCH  48  62
ATOM     62  C   UNL A   1      42.326  26.355  27.717  1.00  0.00    -0.014 A 
ATOM     63  C   UNL A   1      42.094  24.971  27.653  1.00  0.00     0.009 A 
ATOM     64  C   UNL A   1      42.922  26.995  26.620  1.00  0.00     0.009 A 
ATOM     65  C   UNL A   1      42.451  24.247  26.514  1.00  0.00     0.001 A 
ATOM     66  C   UNL A   1      43.251  26.274  25.471  1.00  0.00     0.001 A 
ATOM     67  C   UNL A   1      43.017  24.901  25.420  1.00  0.00     0.000 A 
ENDBRANCH  48  62
BRANCH  49  68
ATOM     68  C   UNL A   1      38.852  31.891  35.300  1.00  0.00    -0.014 A 
ATOM     69  C   UNL A   1      38.153  31.289  36.359  1.00  0.00     0.009 A 
ATOM     70  C   UNL A   1      39.060  33.279  35.332  1.00  0.00     0.009 A 
ATOM     71  C   UNL A   1      37.644  32.063  37.405  1.00  0.00     0.001 A 
ATOM     72  C   UNL A   1      38.583  34.046  36.397  1.00  0.00     0.001 A 
ATOM     73  C   UNL A   1      37.864  33.440  37.426  1.00  0.00     0.000 A 
ENDBRANCH  49  68
BRANCH  61  74
ATOM     74  C   UNL A   1      44.675  28.198  34.257  1.00  0.00    -0.014 A 
ATOM     75  C   UNL A   1      45.762  29.084  34.208  1.00  0.00     0.009 A 
ATOM     76  C   UNL A   1      44.715  27.121  35.157  1.00  0.00     0.009 A 
ATOM     77  C   UNL A   1      46.879  28.872  35.019  1.00  0.00     0.001 A 
ATOM     78  C   UNL A   1      45.815  26.935  35.994  1.00  0.00     0.001 A 
ATOM     79  C   UNL A   1      46.900  27.804  35.915  1.00  0.00     0.000 A 
ENDBRANCH  61  74
ENDBRANCH  35  36
ENDBRANCH  27  30
ENDBRANCH  25  26
ENDBRANCH   1  25
TORSDOF 12
ENDMDL
MODEL 3
REMARK VINA RESULT:     -11.8      1.796      2.716
REMARK SMILES Cc1ccc(-n2nc(C(=O)NCCCNC(=O)c3ccc(-c4c5nc(c(-c6ccccc6)c6ccc([nH]6)c(-c6ccccc6)c6nc(c(-c7ccccc7)c7ccc4[nH]7)C=C6)C=C5)cc3)c(C)c(C#N)c2=O)cc1Cl
REMARK SMILES IDX 13 1 12 2 11 3 9 4 10 5 8 7 6 8 7 9 71 10 68 11 72 12 66 13
REMARK SMILES IDX 67 14 5 15 1 16 2 17 3 18 74 19 4 20 73 21 75 22 69 23 70 24
REMARK SMILES IDX 14 25 15 26 16 27 17 29 18 30 19 31 65 32 20 33 64 34 21 35
REMARK SMILES IDX 22 36 23 37 58 38 24 39 63 40 57 41 59 42 25 43 62 44 56 45
REMARK SMILES IDX 55 46 26 48 48 49 33 50 47 51 34 52 37 53 46 54 60 55 35 56
REMARK SMILES IDX 36 57 45 59 61 60 38 61 27 62 28 63 32 64 29 65 31 66 30 67
REMARK SMILES IDX 49 68 50 69 54 70 51 71 53 72 52 73 39 74 40 75 44 76 41 77
REMARK SMILES IDX 43 78 42 79
REMARK H PARENT 11 6 15 28 59 47 37 58
REMARK Flexibility Score: inf
ROOT
ATOM      1  C   UNL A   1      33.972  28.479  25.816  1.00  0.00     0.042 C 
ENDROOT
BRANCH   1   2
ATOM      2  C   UNL A   1      32.796  28.739  24.874  1.00  0.00     0.118 C 
BRANCH   2   3
ATOM      3  N   UNL A   1      32.852  27.868  23.730  1.00  0.00    -0.351 N 
ATOM      4  C   UNL A   1      32.787  26.533  23.466  1.00  0.00     0.272 C 
ATOM      5  O   UNL A   1      32.911  26.283  22.259  1.00  0.00    -0.267 OA
ATOM      6  H   UNL A   1      32.971  28.386  22.901  1.00  0.00     0.163 HD
BRANCH   4   7
ATOM      7  C   UNL A   1      32.533  25.319  24.401  1.00  0.00     0.153 A 
ATOM      8  N   UNL A   1      33.614  23.422  25.172  1.00  0.00    -0.195 N 
ATOM      9  N   UNL A   1      33.596  24.562  24.440  1.00  0.00    -0.159 NA
ATOM     10  C   UNL A   1      32.566  22.985  25.958  1.00  0.00     0.289 A 
ATOM     11  C   UNL A   1      31.388  23.870  25.972  1.00  0.00     0.124 A 
ATOM     12  O   UNL A   1      32.571  21.971  26.656  1.00  0.00    -0.266 OA
ATOM     13  C   UNL A   1      31.315  24.994  25.227  1.00  0.00     0.006 A 
ATOM     14  C   UNL A   1      30.107  25.854  25.341  1.00  0.00     0.048 C 
BRANCH   8  15
ATOM     15  C   UNL A   1      34.807  22.665  25.069  1.00  0.00     0.070 A 
ATOM     16  C   UNL A   1      38.252  20.087  25.275  1.00  0.00     0.046 C 
ATOM     17  C   UNL A   1      37.090  21.027  25.144  1.00  0.00    -0.032 A 
ATOM     18  C   UNL A   1      35.867  20.519  24.690  1.00  0.00     0.007 A 
ATOM     19  C   UNL A   1      37.166  22.382  25.508  1.00  0.00     0.046 A 
ATOM     20  C   UNL A   1      34.736  21.328  24.668  1.00  0.00     0.029 A 
ATOM     21  C   UNL A   1      36.040  23.211  25.436  1.00  0.00     0.049 A 
ATOM     22  Cl  UNL A   1      38.633  23.061  26.122  1.00  0.00    -0.084 Cl
ENDBRANCH   8  15
BRANCH  11  23
ATOM     23  C   UNL A   1      30.339  23.457  26.852  1.00  0.00     0.105 C 
ATOM     24  N   UNL A   1      29.509  23.050  27.547  1.00  0.00    -0.192 NA
ENDBRANCH  11  23
ENDBRANCH   4   7
ENDBRANCH   2   3
ENDBRANCH   1   2
BRANCH   1  25
ATOM     25  C   UNL A   1      33.616  28.668  27.278  1.00  0.00     0.118 C 
BRANCH  25  26
ATOM     26  N   UNL A   1      33.635  30.079  27.635  1.00  0.00    -0.352 N 
ATOM     27  C   UNL A   1      34.592  30.800  28.300  1.00  0.00     0.251 C 
ATOM     28  H   UNL A   1      32.842  30.593  27.357  1.00  0.00     0.163 HD
ATOM     29  O   UNL A   1      34.320  31.916  28.731  1.00  0.00    -0.269 OA
BRANCH  27  30
ATOM     30  C   UNL A   1      35.935  30.225  28.512  1.00  0.00     0.039 A 
ATOM     31  C   UNL A   1      36.866  30.285  27.472  1.00  0.00     0.014 A 
ATOM     32  C   UNL A   1      36.272  29.625  29.728  1.00  0.00     0.014 A 
ATOM     33  C   UNL A   1      38.154  29.793  27.676  1.00  0.00     0.010 A 
ATOM     34  C   UNL A   1      37.581  29.231  29.962  1.00  0.00     0.010 A 
ATOM     35  C   UNL A   1      38.530  29.297  28.934  1.00  0.00    -0.014 A 
BRANCH  35  36
ATOM     36  C   UNL A   1      39.908  28.826  29.201  1.00  0.00     0.031 A 
ATOM     37  C   UNL A   1      40.894  29.746  29.862  1.00  0.00     0.074 A 
ATOM     38  C   UNL A   1      40.277  27.597  28.790  1.00  0.00     0.049 A 
ATOM     39  N   UNL A   1      42.164  29.551  30.105  1.00  0.00    -0.248 NA
ATOM     40  C   UNL A   1      40.398  31.067  30.291  1.00  0.00     0.031 C 
ATOM     41  C   UNL A   1      39.407  26.629  28.116  1.00  0.00     0.029 A 
ATOM     42  N   UNL A   1      41.485  26.953  28.876  1.00  0.00    -0.354 N 
ATOM     43  C   UNL A   1      42.616  30.720  30.704  1.00  0.00     0.074 A 
ATOM     44  C   UNL A   1      41.504  31.642  30.737  1.00  0.00     0.031 C 
ATOM     45  C   UNL A   1      40.100  25.504  27.884  1.00  0.00     0.029 A 
ATOM     46  C   UNL A   1      41.474  25.689  28.338  1.00  0.00     0.049 A 
ATOM     47  H   UNL A   1      42.283  27.359  29.285  1.00  0.00     0.167 HD
ATOM     48  C   UNL A   1      43.843  30.987  31.206  1.00  0.00     0.031 A 
ATOM     49  C   UNL A   1      42.464  24.786  28.215  1.00  0.00     0.031 A 
ATOM     50  C   UNL A   1      44.940  30.059  31.177  1.00  0.00     0.049 A 
ATOM     51  C   UNL A   1      43.830  25.132  28.741  1.00  0.00     0.074 A 
ATOM     52  C   UNL A   1      46.215  30.224  31.688  1.00  0.00     0.029 A 
ATOM     53  N   UNL A   1      44.891  28.794  30.614  1.00  0.00    -0.354 N 
ATOM     54  N   UNL A   1      44.230  26.226  29.343  1.00  0.00    -0.248 NA
ATOM     55  C   UNL A   1      44.877  24.114  28.584  1.00  0.00     0.031 C 
ATOM     56  C   UNL A   1      46.957  29.083  31.376  1.00  0.00     0.029 A 
ATOM     57  C   UNL A   1      46.121  28.175  30.745  1.00  0.00     0.049 A 
ATOM     58  H   UNL A   1      44.100  28.395  30.184  1.00  0.00     0.167 HD
ATOM     59  C   UNL A   1      45.562  26.012  29.672  1.00  0.00     0.074 A 
ATOM     60  C   UNL A   1      45.896  24.678  29.217  1.00  0.00     0.031 C 
ATOM     61  C   UNL A   1      46.431  26.842  30.298  1.00  0.00     0.031 A 
BRANCH  48  62
ATOM     62  C   UNL A   1      44.072  32.328  31.845  1.00  0.00    -0.014 A 
ATOM     63  C   UNL A   1      44.453  33.439  31.076  1.00  0.00     0.009 A 
ATOM     64  C   UNL A   1      43.798  32.508  33.210  1.00  0.00     0.009 A 
ATOM     65  C   UNL A   1      44.558  34.702  31.662  1.00  0.00     0.001 A 
ATOM     66  C   UNL A   1      43.875  33.776  33.787  1.00  0.00     0.001 A 
ATOM     67  C   UNL A   1      44.256  34.872  33.013  1.00  0.00     0.000 A 
ENDBRANCH  48  62
BRANCH  49  68
ATOM     68  C   UNL A   1      42.200  23.464  27.584  1.00  0.00    -0.014 A 
ATOM     69  C   UNL A   1      41.579  22.437  28.311  1.00  0.00     0.009 A 
ATOM     70  C   UNL A   1      42.571  23.218  26.252  1.00  0.00     0.009 A 
ATOM     71  C   UNL A   1      41.368  21.183  27.732  1.00  0.00     0.001 A 
ATOM     72  C   UNL A   1      42.324  21.977  25.663  1.00  0.00     0.001 A 
ATOM     73  C   UNL A   1      41.736  20.956  26.407  1.00  0.00     0.000 A 
ENDBRANCH  49  68
BRANCH  61  74
ATOM     74  C   UNL A   1      47.811  26.319  30.584  1.00  0.00    -0.014 A 
ATOM     75  C   UNL A   1      48.140  25.751  31.824  1.00  0.00     0.009 A 
ATOM     76  C   UNL A   1      48.778  26.335  29.566  1.00  0.00     0.009 A 
ATOM     77  C   UNL A   1      49.421  25.244  32.049  1.00  0.00     0.001 A 
ATOM     78  C   UNL A   1      50.045  25.792  29.781  1.00  0.00     0.001 A 
ATOM     79  C   UNL A   1      50.368  25.258  31.025  1.00  0.00     0.000 A 
ENDBRANCH  61  74
ENDBRANCH  35  36
ENDBRANCH  27  30
ENDBRANCH  25  26
ENDBRANCH   1  25
TORSDOF 12
ENDMDL
