MODEL 1
REMARK VINA RESULT:     -11.1      0.000      0.000
REMARK SMILES CCc1ccc(C(=O)N2CC[C@H](C(=O)NCCCNC(=O)c3ccc(-c4c5nc(c(-c6ccccc6)c6ccc([nH]6)c(-c6ccccc6)c6nc(c(-c7ccccc7)c7ccc4[nH]7)C=C6)C=C5)cc3)[C@@H]2C)s1
REMARK SMILES IDX 16 1 15 2 13 3 14 4 12 6 9 7 10 8 70 9 11 10 71 11 7 12 8 13
REMARK SMILES IDX 6 14 3 15 4 16 72 17 5 18 2 19 1 20 17 21 18 22 19 23 20 24
REMARK SMILES IDX 21 26 22 27 23 28 69 29 24 30 68 31 25 32 26 33 27 34 62 35
REMARK SMILES IDX 28 36 67 37 61 38 63 39 29 40 66 41 60 42 59 43 30 45 52 46
REMARK SMILES IDX 37 47 51 48 38 49 41 50 50 51 64 52 39 53 40 54 49 56 65 57
REMARK SMILES IDX 42 58 31 59 32 60 36 61 33 62 35 63 34 64 53 65 54 66 58 67
REMARK SMILES IDX 55 68 57 69 56 70 43 71 44 72 48 73 45 74 47 75 46 76
REMARK H PARENT 15 5 19 25 63 44 41 55
REMARK Flexibility Score: inf
ROOT
ATOM      1  C   UNL A   1      36.995  20.612  24.846  1.00  0.00     0.117 C 
ENDROOT
BRANCH   1   2
ATOM      2  N   UNL A   1      35.701  19.979  25.024  1.00  0.00    -0.356 N 
ATOM      3  C   UNL A   1      34.440  20.483  25.069  1.00  0.00     0.225 C 
ATOM      4  O   UNL A   1      33.545  19.691  25.367  1.00  0.00    -0.275 OA
ATOM      5  H   UNL A   1      35.744  19.001  25.133  1.00  0.00     0.163 HD
BRANCH   3   6
ATOM      6  C   UNL A   1      34.158  21.936  24.696  1.00  0.00     0.102 C 
ATOM      7  N   UNL A   1      32.359  23.049  25.826  1.00  0.00    -0.334 N 
ATOM      8  C   UNL A   1      31.773  22.125  24.881  1.00  0.00     0.121 C 
ATOM      9  C   UNL A   1      33.824  22.929  25.838  1.00  0.00     0.094 C 
ATOM     10  C   UNL A   1      32.874  21.983  23.840  1.00  0.00     0.037 C 
ATOM     11  C   UNL A   1      34.348  22.568  27.220  1.00  0.00     0.032 C 
BRANCH   7  12
ATOM     12  C   UNL A   1      31.545  23.934  26.526  1.00  0.00     0.264 C 
ATOM     13  O   UNL A   1      30.815  23.523  27.426  1.00  0.00    -0.268 OA
BRANCH  12  14
ATOM     14  C   UNL A   1      31.521  25.319  26.076  1.00  0.00     0.092 A 
ATOM     15  C   UNL A   1      31.041  27.402  24.818  1.00  0.00     0.005 A 
ATOM     16  C   UNL A   1      32.127  27.534  25.658  1.00  0.00     0.016 A 
ATOM     17  S   UNL A   1      30.351  25.833  24.940  1.00  0.00    -0.135 S 
ATOM     18  C   UNL A   1      32.422  26.330  26.356  1.00  0.00     0.026 A 
BRANCH  15  19
ATOM     19  C   UNL A   1      30.438  28.410  23.881  1.00  0.00     0.043 C 
ATOM     20  C   UNL A   1      30.470  27.964  22.425  1.00  0.00     0.010 C 
ENDBRANCH  15  19
ENDBRANCH  12  14
ENDBRANCH   7  12
ENDBRANCH   3   6
ENDBRANCH   1   2
BRANCH   1  21
ATOM     21  C   UNL A   1      38.124  19.584  24.954  1.00  0.00     0.042 C 
BRANCH  21  22
ATOM     22  C   UNL A   1      39.162  19.909  26.027  1.00  0.00     0.118 C 
BRANCH  22  23
ATOM     23  N   UNL A   1      40.394  19.164  25.847  1.00  0.00    -0.352 N 
ATOM     24  C   UNL A   1      41.695  19.595  25.951  1.00  0.00     0.251 C 
ATOM     25  H   UNL A   1      40.282  18.213  25.618  1.00  0.00     0.163 HD
ATOM     26  O   UNL A   1      42.608  18.857  25.594  1.00  0.00    -0.269 OA
BRANCH  24  27
ATOM     27  C   UNL A   1      42.013  20.949  26.471  1.00  0.00     0.039 A 
ATOM     28  C   UNL A   1      41.952  21.163  27.851  1.00  0.00     0.014 A 
ATOM     29  C   UNL A   1      42.305  22.016  25.616  1.00  0.00     0.014 A 
ATOM     30  C   UNL A   1      42.217  22.431  28.377  1.00  0.00     0.010 A 
ATOM     31  C   UNL A   1      42.617  23.271  26.144  1.00  0.00     0.010 A 
ATOM     32  C   UNL A   1      42.563  23.494  27.529  1.00  0.00    -0.014 A 
BRANCH  32  33
ATOM     33  C   UNL A   1      42.826  24.850  28.072  1.00  0.00     0.031 A 
ATOM     34  C   UNL A   1      44.219  25.243  28.483  1.00  0.00     0.074 A 
ATOM     35  C   UNL A   1      41.814  25.722  28.240  1.00  0.00     0.049 A 
ATOM     36  N   UNL A   1      44.634  26.352  29.042  1.00  0.00    -0.248 NA
ATOM     37  C   UNL A   1      45.281  24.251  28.252  1.00  0.00     0.031 C 
ATOM     38  C   UNL A   1      40.410  25.468  27.916  1.00  0.00     0.029 A 
ATOM     39  N   UNL A   1      41.817  27.002  28.738  1.00  0.00    -0.354 N 
ATOM     40  C   UNL A   1      45.993  26.178  29.264  1.00  0.00     0.074 A 
ATOM     41  C   UNL A   1      46.333  24.853  28.789  1.00  0.00     0.031 C 
ATOM     42  C   UNL A   1      39.688  26.563  28.211  1.00  0.00     0.029 A 
ATOM     43  C   UNL A   1      40.574  27.583  28.764  1.00  0.00     0.049 A 
ATOM     44  H   UNL A   1      42.633  27.458  29.047  1.00  0.00     0.167 HD
ATOM     45  C   UNL A   1      46.883  27.040  29.808  1.00  0.00     0.031 A 
ATOM     46  C   UNL A   1      40.188  28.801  29.188  1.00  0.00     0.031 A 
ATOM     47  C   UNL A   1      46.574  28.373  30.245  1.00  0.00     0.049 A 
ATOM     48  C   UNL A   1      41.203  29.759  29.743  1.00  0.00     0.074 A 
ATOM     49  C   UNL A   1      47.429  29.336  30.754  1.00  0.00     0.029 A 
ATOM     50  N   UNL A   1      45.309  28.935  30.218  1.00  0.00    -0.354 N 
ATOM     51  N   UNL A   1      42.489  29.588  29.914  1.00  0.00    -0.248 NA
ATOM     52  C   UNL A   1      40.706  31.079  30.159  1.00  0.00     0.031 C 
ATOM     53  C   UNL A   1      46.676  30.479  31.047  1.00  0.00     0.029 A 
ATOM     54  C   UNL A   1      45.358  30.229  30.705  1.00  0.00     0.049 A 
ATOM     55  H   UNL A   1      44.496  28.481  29.899  1.00  0.00     0.167 HD
ATOM     56  C   UNL A   1      42.959  30.778  30.450  1.00  0.00     0.074 A 
ATOM     57  C   UNL A   1      41.823  31.669  30.565  1.00  0.00     0.031 C 
ATOM     58  C   UNL A   1      44.222  31.103  30.815  1.00  0.00     0.031 A 
BRANCH  45  59
ATOM     59  C   UNL A   1      48.291  26.550  29.971  1.00  0.00    -0.014 A 
ATOM     60  C   UNL A   1      49.256  26.789  28.982  1.00  0.00     0.009 A 
ATOM     61  C   UNL A   1      48.656  25.857  31.134  1.00  0.00     0.009 A 
ATOM     62  C   UNL A   1      50.560  26.316  29.144  1.00  0.00     0.001 A 
ATOM     63  C   UNL A   1      49.964  25.399  31.300  1.00  0.00     0.001 A 
ATOM     64  C   UNL A   1      50.912  25.623  30.302  1.00  0.00     0.000 A 
ENDBRANCH  45  59
BRANCH  46  65
ATOM     65  C   UNL A   1      38.762  29.191  29.097  1.00  0.00    -0.014 A 
ATOM     66  C   UNL A   1      38.253  29.733  27.907  1.00  0.00     0.009 A 
ATOM     67  C   UNL A   1      37.907  29.023  30.195  1.00  0.00     0.009 A 
ATOM     68  C   UNL A   1      36.912  30.112  27.824  1.00  0.00     0.001 A 
ATOM     69  C   UNL A   1      36.564  29.391  30.104  1.00  0.00     0.001 A 
ATOM     70  C   UNL A   1      36.069  29.939  28.922  1.00  0.00     0.000 A 
ENDBRANCH  46  65
BRANCH  58  71
ATOM     71  C   UNL A   1      44.441  32.481  31.359  1.00  0.00    -0.014 A 
ATOM     72  C   UNL A   1      44.736  33.551  30.500  1.00  0.00     0.009 A 
ATOM     73  C   UNL A   1      44.320  32.719  32.735  1.00  0.00     0.009 A 
ATOM     74  C   UNL A   1      44.924  34.834  31.016  1.00  0.00     0.001 A 
ATOM     75  C   UNL A   1      44.497  34.005  33.246  1.00  0.00     0.001 A 
ATOM     76  C   UNL A   1      44.804  35.061  32.387  1.00  0.00     0.000 A 
ENDBRANCH  58  71
ENDBRANCH  32  33
ENDBRANCH  24  27
ENDBRANCH  22  23
ENDBRANCH  21  22
ENDBRANCH   1  21
TORSDOF 13
ENDMDL
MODEL 2
REMARK VINA RESULT:     -11.1      3.660      9.013
REMARK SMILES CCc1ccc(C(=O)N2CC[C@H](C(=O)NCCCNC(=O)c3ccc(-c4c5nc(c(-c6ccccc6)c6ccc([nH]6)c(-c6ccccc6)c6nc(c(-c7ccccc7)c7ccc4[nH]7)C=C6)C=C5)cc3)[C@@H]2C)s1
REMARK SMILES IDX 16 1 15 2 13 3 14 4 12 6 9 7 10 8 70 9 11 10 71 11 7 12 8 13
REMARK SMILES IDX 6 14 3 15 4 16 72 17 5 18 2 19 1 20 17 21 18 22 19 23 20 24
REMARK SMILES IDX 21 26 22 27 23 28 69 29 24 30 68 31 25 32 26 33 27 34 62 35
REMARK SMILES IDX 28 36 67 37 61 38 63 39 29 40 66 41 60 42 59 43 30 45 52 46
REMARK SMILES IDX 37 47 51 48 38 49 41 50 50 51 64 52 39 53 40 54 49 56 65 57
REMARK SMILES IDX 42 58 31 59 32 60 36 61 33 62 35 63 34 64 53 65 54 66 58 67
REMARK SMILES IDX 55 68 57 69 56 70 43 71 44 72 48 73 45 74 47 75 46 76
REMARK H PARENT 15 5 19 25 63 44 41 55
REMARK Flexibility Score: inf
ROOT
ATOM      1  C   UNL A   1      31.482  30.598  26.062  1.00  0.00     0.117 C 
ENDROOT
BRANCH   1   2
ATOM      2  N   UNL A   1      30.853  30.446  24.762  1.00  0.00    -0.356 N 
ATOM      3  C   UNL A   1      30.726  29.378  23.933  1.00  0.00     0.225 C 
ATOM      4  O   UNL A   1      30.242  29.603  22.823  1.00  0.00    -0.275 OA
ATOM      5  H   UNL A   1      30.442  31.272  24.417  1.00  0.00     0.163 HD
BRANCH   3   6
ATOM      6  C   UNL A   1      31.096  27.972  24.395  1.00  0.00     0.102 C 
ATOM      7  N   UNL A   1      32.265  26.560  22.847  1.00  0.00    -0.334 N 
ATOM      8  C   UNL A   1      30.889  26.640  22.410  1.00  0.00     0.121 C 
ATOM      9  C   UNL A   1      32.496  27.426  24.013  1.00  0.00     0.094 C 
ATOM     10  C   UNL A   1      30.156  26.962  23.704  1.00  0.00     0.037 C 
ATOM     11  C   UNL A   1      33.573  28.465  23.738  1.00  0.00     0.032 C 
BRANCH   7  12
ATOM     12  C   UNL A   1      33.145  25.692  22.210  1.00  0.00     0.264 C 
ATOM     13  O   UNL A   1      33.432  25.860  21.026  1.00  0.00    -0.268 OA
BRANCH  12  14
ATOM     14  C   UNL A   1      33.612  24.539  22.967  1.00  0.00     0.092 A 
ATOM     15  C   UNL A   1      33.772  22.316  24.056  1.00  0.00     0.005 A 
ATOM     16  C   UNL A   1      34.723  23.199  24.523  1.00  0.00     0.016 A 
ATOM     17  S   UNL A   1      32.797  23.041  22.842  1.00  0.00    -0.135 S 
ATOM     18  C   UNL A   1      34.611  24.483  23.921  1.00  0.00     0.026 A 
BRANCH  15  19
ATOM     19  C   UNL A   1      33.519  20.892  24.463  1.00  0.00     0.043 C 
ATOM     20  C   UNL A   1      32.412  20.228  23.654  1.00  0.00     0.010 C 
ENDBRANCH  15  19
ENDBRANCH  12  14
ENDBRANCH   7  12
ENDBRANCH   3   6
ENDBRANCH   1   2
BRANCH   1  21
ATOM     21  C   UNL A   1      31.329  32.031  26.578  1.00  0.00     0.042 C 
BRANCH  21  22
ATOM     22  C   UNL A   1      32.650  32.703  26.953  1.00  0.00     0.118 C 
BRANCH  22  23
ATOM     23  N   UNL A   1      32.452  33.948  27.670  1.00  0.00    -0.352 N 
ATOM     24  C   UNL A   1      33.177  34.478  28.710  1.00  0.00     0.251 C 
ATOM     25  H   UNL A   1      31.688  34.492  27.369  1.00  0.00     0.163 HD
ATOM     26  O   UNL A   1      32.753  35.465  29.303  1.00  0.00    -0.269 OA
BRANCH  24  27
ATOM     27  C   UNL A   1      34.458  33.862  29.141  1.00  0.00     0.039 A 
ATOM     28  C   UNL A   1      35.612  34.140  28.401  1.00  0.00     0.014 A 
ATOM     29  C   UNL A   1      34.522  32.973  30.217  1.00  0.00     0.014 A 
ATOM     30  C   UNL A   1      36.832  33.558  28.758  1.00  0.00     0.010 A 
ATOM     31  C   UNL A   1      35.750  32.429  30.604  1.00  0.00     0.010 A 
ATOM     32  C   UNL A   1      36.914  32.706  29.870  1.00  0.00    -0.014 A 
BRANCH  32  33
ATOM     33  C   UNL A   1      38.198  32.064  30.247  1.00  0.00     0.031 A 
ATOM     34  C   UNL A   1      39.137  32.754  31.199  1.00  0.00     0.074 A 
ATOM     35  C   UNL A   1      38.550  30.882  29.707  1.00  0.00     0.049 A 
ATOM     36  N   UNL A   1      40.331  32.387  31.593  1.00  0.00    -0.248 NA
ATOM     37  C   UNL A   1      38.680  34.032  31.768  1.00  0.00     0.031 C 
ATOM     38  C   UNL A   1      37.755  30.114  28.748  1.00  0.00     0.029 A 
ATOM     39  N   UNL A   1      39.681  30.124  29.889  1.00  0.00    -0.354 N 
ATOM     40  C   UNL A   1      40.783  33.404  32.422  1.00  0.00     0.074 A 
ATOM     41  C   UNL A   1      39.741  34.407  32.469  1.00  0.00     0.031 C 
ATOM     42  C   UNL A   1      38.418  28.987  28.435  1.00  0.00     0.029 A 
ATOM     43  C   UNL A   1      39.689  28.965  29.153  1.00  0.00     0.049 A 
ATOM     44  H   UNL A   1      40.416  30.387  30.489  1.00  0.00     0.167 HD
ATOM     45  C   UNL A   1      41.956  33.497  33.092  1.00  0.00     0.031 A 
ATOM     46  C   UNL A   1      40.616  27.995  29.062  1.00  0.00     0.031 A 
ATOM     47  C   UNL A   1      42.983  32.492  33.093  1.00  0.00     0.049 A 
ATOM     48  C   UNL A   1      41.889  28.096  29.852  1.00  0.00     0.074 A 
ATOM     49  C   UNL A   1      44.178  32.479  33.792  1.00  0.00     0.029 A 
ATOM     50  N   UNL A   1      42.933  31.317  32.363  1.00  0.00    -0.354 N 
ATOM     51  N   UNL A   1      42.284  29.050  30.658  1.00  0.00    -0.248 NA
ATOM     52  C   UNL A   1      42.840  26.982  29.720  1.00  0.00     0.031 C 
ATOM     53  C   UNL A   1      44.859  31.298  33.473  1.00  0.00     0.029 A 
ATOM     54  C   UNL A   1      44.077  30.573  32.589  1.00  0.00     0.049 A 
ATOM     55  H   UNL A   1      42.193  31.051  31.771  1.00  0.00     0.167 HD
ATOM     56  C   UNL A   1      43.524  28.649  31.134  1.00  0.00     0.074 A 
ATOM     57  C   UNL A   1      43.812  27.361  30.539  1.00  0.00     0.031 C 
ATOM     58  C   UNL A   1      44.351  29.295  31.991  1.00  0.00     0.031 A 
BRANCH  45  59
ATOM     59  C   UNL A   1      42.191  34.751  33.879  1.00  0.00    -0.014 A 
ATOM     60  C   UNL A   1      42.797  35.870  33.289  1.00  0.00     0.009 A 
ATOM     61  C   UNL A   1      41.787  34.816  35.221  1.00  0.00     0.009 A 
ATOM     62  C   UNL A   1      43.019  37.026  34.040  1.00  0.00     0.001 A 
ATOM     63  C   UNL A   1      41.997  35.978  35.964  1.00  0.00     0.001 A 
ATOM     64  C   UNL A   1      42.619  37.079  35.375  1.00  0.00     0.000 A 
ENDBRANCH  45  59
BRANCH  46  65
ATOM     65  C   UNL A   1      40.371  26.825  28.186  1.00  0.00    -0.014 A 
ATOM     66  C   UNL A   1      39.615  25.740  28.653  1.00  0.00     0.009 A 
ATOM     67  C   UNL A   1      40.889  26.791  26.884  1.00  0.00     0.009 A 
ATOM     68  C   UNL A   1      39.392  24.633  27.832  1.00  0.00     0.001 A 
ATOM     69  C   UNL A   1      40.655  25.687  26.063  1.00  0.00     0.001 A 
ATOM     70  C   UNL A   1      39.911  24.608  26.538  1.00  0.00     0.000 A 
ENDBRANCH  46  65
BRANCH  58  71
ATOM     71  C   UNL A   1      45.637  28.611  32.343  1.00  0.00    -0.014 A 
ATOM     72  C   UNL A   1      46.807  28.869  31.614  1.00  0.00     0.009 A 
ATOM     73  C   UNL A   1      45.685  27.729  33.432  1.00  0.00     0.009 A 
ATOM     74  C   UNL A   1      48.003  28.237  31.960  1.00  0.00     0.001 A 
ATOM     75  C   UNL A   1      46.885  27.108  33.782  1.00  0.00     0.001 A 
ATOM     76  C   UNL A   1      48.041  27.359  33.043  1.00  0.00     0.000 A 
ENDBRANCH  58  71
ENDBRANCH  32  33
ENDBRANCH  24  27
ENDBRANCH  22  23
ENDBRANCH  21  22
ENDBRANCH   1  21
TORSDOF 13
ENDMDL
MODEL 3
REMARK VINA RESULT:     -11.1      0.731      6.051
REMARK SMILES CCc1ccc(C(=O)N2CC[C@H](C(=O)NCCCNC(=O)c3ccc(-c4c5nc(c(-c6ccccc6)c6ccc([nH]6)c(-c6ccccc6)c6nc(c(-c7ccccc7)c7ccc4[nH]7)C=C6)C=C5)cc3)[C@@H]2C)s1
REMARK SMILES IDX 16 1 15 2 13 3 14 4 12 6 9 7 10 8 70 9 11 10 71 11 7 12 8 13
REMARK SMILES IDX 6 14 3 15 4 16 72 17 5 18 2 19 1 20 17 21 18 22 19 23 20 24
REMARK SMILES IDX 21 26 22 27 23 28 69 29 24 30 68 31 25 32 26 33 27 34 62 35
REMARK SMILES IDX 28 36 67 37 61 38 63 39 29 40 66 41 60 42 59 43 30 45 52 46
REMARK SMILES IDX 37 47 51 48 38 49 41 50 50 51 64 52 39 53 40 54 49 56 65 57
REMARK SMILES IDX 42 58 31 59 32 60 36 61 33 62 35 63 34 64 53 65 54 66 58 67
REMARK SMILES IDX 55 68 57 69 56 70 43 71 44 72 48 73 45 74 47 75 46 76
REMARK H PARENT 15 5 19 25 63 44 41 55
REMARK Flexibility Score: inf
ROOT
ATOM      1  C   UNL A   1      36.665  20.616  24.911  1.00  0.00     0.117 C 
ENDROOT
BRANCH   1   2
ATOM      2  N   UNL A   1      35.412  19.906  25.094  1.00  0.00    -0.356 N 
ATOM      3  C   UNL A   1      34.119  20.320  25.060  1.00  0.00     0.225 C 
ATOM      4  O   UNL A   1      33.270  19.489  25.387  1.00  0.00    -0.275 OA
ATOM      5  H   UNL A   1      35.519  18.944  25.277  1.00  0.00     0.163 HD
BRANCH   3   6
ATOM      6  C   UNL A   1      33.751  21.718  24.571  1.00  0.00     0.102 C 
ATOM      7  N   UNL A   1      32.126  22.951  25.834  1.00  0.00    -0.334 N 
ATOM      8  C   UNL A   1      31.420  21.920  25.106  1.00  0.00     0.121 C 
ATOM      9  C   UNL A   1      33.578  22.837  25.629  1.00  0.00     0.094 C 
ATOM     10  C   UNL A   1      32.349  21.661  23.928  1.00  0.00     0.037 C 
ATOM     11  C   UNL A   1      34.318  22.642  26.944  1.00  0.00     0.032 C 
BRANCH   7  12
ATOM     12  C   UNL A   1      31.412  23.910  26.546  1.00  0.00     0.264 C 
ATOM     13  O   UNL A   1      30.670  23.570  27.467  1.00  0.00    -0.268 OA
BRANCH  12  14
ATOM     14  C   UNL A   1      31.503  25.289  26.088  1.00  0.00     0.092 A 
ATOM     15  C   UNL A   1      31.113  27.426  24.892  1.00  0.00     0.005 A 
ATOM     16  C   UNL A   1      32.325  27.406  25.551  1.00  0.00     0.016 A 
ATOM     17  S   UNL A   1      30.249  25.962  25.140  1.00  0.00    -0.135 S 
ATOM     18  C   UNL A   1      32.562  26.168  26.210  1.00  0.00     0.026 A 
BRANCH  15  19
ATOM     19  C   UNL A   1      30.511  28.513  24.046  1.00  0.00     0.043 C 
ATOM     20  C   UNL A   1      29.701  27.976  22.873  1.00  0.00     0.010 C 
ENDBRANCH  15  19
ENDBRANCH  12  14
ENDBRANCH   7  12
ENDBRANCH   3   6
ENDBRANCH   1   2
BRANCH   1  21
ATOM     21  C   UNL A   1      37.854  19.657  25.003  1.00  0.00     0.042 C 
BRANCH  21  22
ATOM     22  C   UNL A   1      39.048  20.215  25.775  1.00  0.00     0.118 C 
BRANCH  22  23
ATOM     23  N   UNL A   1      40.151  19.275  25.843  1.00  0.00    -0.352 N 
ATOM     24  C   UNL A   1      41.478  19.508  26.115  1.00  0.00     0.251 C 
ATOM     25  H   UNL A   1      39.915  18.335  25.670  1.00  0.00     0.163 HD
ATOM     26  O   UNL A   1      42.295  18.607  25.958  1.00  0.00    -0.269 OA
BRANCH  24  27
ATOM     27  C   UNL A   1      41.941  20.842  26.576  1.00  0.00     0.039 A 
ATOM     28  C   UNL A   1      41.945  21.107  27.949  1.00  0.00     0.014 A 
ATOM     29  C   UNL A   1      42.309  21.846  25.675  1.00  0.00     0.014 A 
ATOM     30  C   UNL A   1      42.348  22.359  28.421  1.00  0.00     0.010 A 
ATOM     31  C   UNL A   1      42.758  23.081  26.149  1.00  0.00     0.010 A 
ATOM     32  C   UNL A   1      42.769  23.354  27.525  1.00  0.00    -0.014 A 
BRANCH  32  33
ATOM     33  C   UNL A   1      43.179  24.695  28.012  1.00  0.00     0.031 A 
ATOM     34  C   UNL A   1      42.139  25.738  28.320  1.00  0.00     0.074 A 
ATOM     35  C   UNL A   1      44.484  25.001  28.140  1.00  0.00     0.049 A 
ATOM     36  N   UNL A   1      42.303  26.985  28.686  1.00  0.00    -0.248 NA
ATOM     37  C   UNL A   1      40.733  25.331  28.178  1.00  0.00     0.031 C 
ATOM     38  C   UNL A   1      45.601  24.102  27.849  1.00  0.00     0.029 A 
ATOM     39  N   UNL A   1      45.088  26.166  28.544  1.00  0.00    -0.354 N 
ATOM     40  C   UNL A   1      41.026  27.521  28.782  1.00  0.00     0.074 A 
ATOM     41  C   UNL A   1      40.098  26.468  28.427  1.00  0.00     0.031 C 
ATOM     42  C   UNL A   1      46.755  24.744  28.096  1.00  0.00     0.029 A 
ATOM     43  C   UNL A   1      46.459  26.103  28.541  1.00  0.00     0.049 A 
ATOM     44  H   UNL A   1      44.586  26.970  28.810  1.00  0.00     0.167 HD
ATOM     45  C   UNL A   1      40.653  28.772  29.138  1.00  0.00     0.031 A 
ATOM     46  C   UNL A   1      47.377  27.035  28.857  1.00  0.00     0.031 A 
ATOM     47  C   UNL A   1      41.556  29.817  29.535  1.00  0.00     0.049 A 
ATOM     48  C   UNL A   1      46.938  28.402  29.297  1.00  0.00     0.074 A 
ATOM     49  C   UNL A   1      41.259  31.097  29.970  1.00  0.00     0.029 A 
ATOM     50  N   UNL A   1      42.936  29.697  29.554  1.00  0.00    -0.354 N 
ATOM     51  N   UNL A   1      45.725  28.879  29.413  1.00  0.00    -0.248 NA
ATOM     52  C   UNL A   1      48.001  29.355  29.651  1.00  0.00     0.031 C 
ATOM     53  C   UNL A   1      42.463  31.759  30.239  1.00  0.00     0.029 A 
ATOM     54  C   UNL A   1      43.505  30.882  29.987  1.00  0.00     0.049 A 
ATOM     55  H   UNL A   1      43.436  28.889  29.297  1.00  0.00     0.167 HD
ATOM     56  C   UNL A   1      45.876  30.184  29.861  1.00  0.00     0.074 A 
ATOM     57  C   UNL A   1      47.296  30.421  30.007  1.00  0.00     0.031 C 
ATOM     58  C   UNL A   1      44.918  31.104  30.127  1.00  0.00     0.031 A 
BRANCH  45  59
ATOM     59  C   UNL A   1      39.186  29.080  29.101  1.00  0.00    -0.014 A 
ATOM     60  C   UNL A   1      38.381  28.895  30.234  1.00  0.00     0.009 A 
ATOM     61  C   UNL A   1      38.610  29.578  27.922  1.00  0.00     0.009 A 
ATOM     62  C   UNL A   1      37.015  29.177  30.178  1.00  0.00     0.001 A 
ATOM     63  C   UNL A   1      37.247  29.872  27.875  1.00  0.00     0.001 A 
ATOM     64  C   UNL A   1      36.450  29.665  29.001  1.00  0.00     0.000 A 
ENDBRANCH  45  59
BRANCH  46  65
ATOM     65  C   UNL A   1      48.818  26.702  28.776  1.00  0.00    -0.014 A 
ATOM     66  C   UNL A   1      49.495  26.213  29.904  1.00  0.00     0.009 A 
ATOM     67  C   UNL A   1      49.521  26.870  27.574  1.00  0.00     0.009 A 
ATOM     68  C   UNL A   1      50.856  25.909  29.830  1.00  0.00     0.001 A 
ATOM     69  C   UNL A   1      50.878  26.554  27.502  1.00  0.00     0.001 A 
ATOM     70  C   UNL A   1      51.545  26.079  28.630  1.00  0.00     0.000 A 
ENDBRANCH  46  65
BRANCH  58  71
ATOM     71  C   UNL A   1      45.377  32.444  30.614  1.00  0.00    -0.014 A 
ATOM     72  C   UNL A   1      45.633  33.486  29.709  1.00  0.00     0.009 A 
ATOM     73  C   UNL A   1      45.523  32.677  31.989  1.00  0.00     0.009 A 
ATOM     74  C   UNL A   1      46.046  34.735  30.176  1.00  0.00     0.001 A 
ATOM     75  C   UNL A   1      45.925  33.930  32.452  1.00  0.00     0.001 A 
ATOM     76  C   UNL A   1      46.191  34.957  31.546  1.00  0.00     0.000 A 
ENDBRANCH  58  71
ENDBRANCH  32  33
ENDBRANCH  24  27
ENDBRANCH  22  23
ENDBRANCH  21  22
ENDBRANCH   1  21
TORSDOF 13
ENDMDL
