MODEL 1
REMARK VINA RESULT:     -11.9      0.000      0.000
REMARK SMILES O=C(NCCCNC(=O)[C@H]1C[C@@H]2CCCC[C@@H]2N1C(=O)[C@@H]1CCS(=O)(=O)C1)c1ccc(-c2c3nc(c(-c4ccccc4)c4ccc([nH]4)c(-c4ccccc4)c4nc(c(-c5ccccc5)c5ccc2[nH]5)C=C4)C=C3)cc1
REMARK SMILES IDX 5 1 4 2 3 3 1 4 2 5 28 7 29 8 75 9 30 10 74 11 31 12 32 13
REMARK SMILES IDX 33 14 68 15 34 16 73 17 67 18 69 19 35 20 72 21 66 22 65 23
REMARK SMILES IDX 36 25 58 26 43 27 57 28 44 29 47 30 56 31 70 32 45 33 46 34
REMARK SMILES IDX 55 36 71 37 48 38 37 39 38 40 42 41 39 42 41 43 40 44 59 45
REMARK SMILES IDX 60 46 64 47 61 48 63 49 62 50 49 51 50 52 54 53 51 54 53 55
REMARK SMILES IDX 52 56 6 57 7 58 8 59 9 61 10 62 11 63 18 64 12 65 17 66
REMARK SMILES IDX 13 67 16 68 14 69 15 70 19 71 20 72 21 73 22 74 27 75 23 76
REMARK SMILES IDX 24 77 25 78 26 79
REMARK H PARENT 3 6 69 24 47 35 7 60
REMARK Flexibility Score: inf
ROOT
ATOM      1  C   UNL A   1      31.411  31.860  26.440  1.00  0.00     0.042 C 
ENDROOT
BRANCH   1   2
ATOM      2  C   UNL A   1      32.675  32.365  27.104  1.00  0.00     0.118 C 
BRANCH   2   3
ATOM      3  N   UNL A   1      32.518  33.726  27.597  1.00  0.00    -0.352 N 
ATOM      4  O   UNL A   1      32.765  35.439  29.033  1.00  0.00    -0.269 OA
ATOM      5  C   UNL A   1      33.212  34.393  28.574  1.00  0.00     0.251 C 
ATOM      6  H   UNL A   1      31.804  34.247  27.163  1.00  0.00     0.163 HD
BRANCH   5   7
ATOM      7  C   UNL A   1      34.492  33.851  29.076  1.00  0.00     0.039 A 
ATOM      8  C   UNL A   1      34.512  32.952  30.145  1.00  0.00     0.014 A 
ATOM      9  C   UNL A   1      35.685  34.208  28.443  1.00  0.00     0.014 A 
ATOM     10  C   UNL A   1      35.720  32.537  30.680  1.00  0.00     0.010 A 
ATOM     11  C   UNL A   1      36.897  33.691  28.906  1.00  0.00     0.010 A 
ATOM     12  C   UNL A   1      36.923  32.866  30.042  1.00  0.00    -0.014 A 
BRANCH  12  13
ATOM     13  C   UNL A   1      38.180  32.243  30.517  1.00  0.00     0.031 A 
ATOM     14  C   UNL A   1      38.692  30.966  29.922  1.00  0.00     0.074 A 
ATOM     15  C   UNL A   1      38.861  32.859  31.504  1.00  0.00     0.049 A 
ATOM     16  N   UNL A   1      39.767  30.289  30.235  1.00  0.00    -0.248 NA
ATOM     17  C   UNL A   1      37.890  30.362  28.847  1.00  0.00     0.031 C 
ATOM     18  C   UNL A   1      38.451  34.102  32.163  1.00  0.00     0.029 A 
ATOM     19  N   UNL A   1      40.042  32.533  32.118  1.00  0.00    -0.354 N 
ATOM     20  C   UNL A   1      39.762  29.168  29.414  1.00  0.00     0.074 A 
ATOM     21  C   UNL A   1      38.562  29.243  28.608  1.00  0.00     0.031 C 
ATOM     22  C   UNL A   1      39.382  34.454  33.059  1.00  0.00     0.029 A 
ATOM     23  C   UNL A   1      40.410  33.423  33.097  1.00  0.00     0.049 A 
ATOM     24  H   UNL A   1      40.573  31.738  31.881  1.00  0.00     0.167 HD
ATOM     25  C   UNL A   1      40.676  28.171  29.343  1.00  0.00     0.031 A 
ATOM     26  C   UNL A   1      41.442  33.400  33.956  1.00  0.00     0.031 A 
ATOM     27  C   UNL A   1      41.858  28.101  30.164  1.00  0.00     0.049 A 
ATOM     28  C   UNL A   1      42.414  32.261  33.888  1.00  0.00     0.074 A 
ATOM     29  C   UNL A   1      42.866  27.153  30.145  1.00  0.00     0.029 A 
ATOM     30  N   UNL A   1      42.182  29.008  31.163  1.00  0.00    -0.354 N 
ATOM     31  N   UNL A   1      42.423  31.235  33.071  1.00  0.00    -0.248 NA
ATOM     32  C   UNL A   1      43.518  32.278  34.854  1.00  0.00     0.031 C 
ATOM     33  C   UNL A   1      43.762  27.447  31.178  1.00  0.00     0.029 A 
ATOM     34  C   UNL A   1      43.354  28.619  31.793  1.00  0.00     0.049 A 
ATOM     35  H   UNL A   1      41.657  29.809  31.393  1.00  0.00     0.167 HD
ATOM     36  C   UNL A   1      43.543  30.492  33.414  1.00  0.00     0.074 A 
ATOM     37  C   UNL A   1      44.199  31.198  34.496  1.00  0.00     0.031 C 
ATOM     38  C   UNL A   1      43.988  29.329  32.878  1.00  0.00     0.031 A 
BRANCH  25  39
ATOM     39  C   UNL A   1      40.404  27.049  28.376  1.00  0.00    -0.014 A 
ATOM     40  C   UNL A   1      39.635  25.933  28.740  1.00  0.00     0.009 A 
ATOM     41  C   UNL A   1      40.910  27.125  27.069  1.00  0.00     0.009 A 
ATOM     42  C   UNL A   1      39.417  24.895  27.829  1.00  0.00     0.001 A 
ATOM     43  C   UNL A   1      40.663  26.103  26.150  1.00  0.00     0.001 A 
ATOM     44  C   UNL A   1      39.929  24.984  26.534  1.00  0.00     0.000 A 
ENDBRANCH  25  39
BRANCH  26  45
ATOM     45  C   UNL A   1      41.574  34.477  34.971  1.00  0.00    -0.014 A 
ATOM     46  C   UNL A   1      40.983  34.350  36.237  1.00  0.00     0.009 A 
ATOM     47  C   UNL A   1      42.326  35.629  34.686  1.00  0.00     0.009 A 
ATOM     48  C   UNL A   1      41.130  35.362  37.189  1.00  0.00     0.001 A 
ATOM     49  C   UNL A   1      42.500  36.622  35.650  1.00  0.00     0.001 A 
ATOM     50  C   UNL A   1      41.893  36.493  36.897  1.00  0.00     0.000 A 
ENDBRANCH  26  45
BRANCH  38  51
ATOM     51  C   UNL A   1      45.262  28.763  33.438  1.00  0.00    -0.014 A 
ATOM     52  C   UNL A   1      46.516  29.151  32.943  1.00  0.00     0.009 A 
ATOM     53  C   UNL A   1      45.205  27.855  34.508  1.00  0.00     0.009 A 
ATOM     54  C   UNL A   1      47.686  28.615  33.485  1.00  0.00     0.001 A 
ATOM     55  C   UNL A   1      46.375  27.347  35.070  1.00  0.00     0.001 A 
ATOM     56  C   UNL A   1      47.615  27.719  34.552  1.00  0.00     0.000 A 
ENDBRANCH  38  51
ENDBRANCH  12  13
ENDBRANCH   5   7
ENDBRANCH   2   3
ENDBRANCH   1   2
BRANCH   1  57
ATOM     57  C   UNL A   1      31.580  30.476  25.834  1.00  0.00     0.117 C 
BRANCH  57  58
ATOM     58  N   UNL A   1      31.531  29.443  26.842  1.00  0.00    -0.354 N 
ATOM     59  C   UNL A   1      31.816  28.112  26.785  1.00  0.00     0.242 C 
ATOM     60  H   UNL A   1      31.239  29.756  27.728  1.00  0.00     0.163 HD
ATOM     61  O   UNL A   1      31.450  27.443  27.759  1.00  0.00    -0.273 OA
BRANCH  59  62
ATOM     62  C   UNL A   1      32.359  27.401  25.517  1.00  0.00     0.175 C 
ATOM     63  C   UNL A   1      33.764  26.825  25.803  1.00  0.00     0.041 C 
ATOM     64  N   UNL A   1      31.585  26.273  24.954  1.00  0.00    -0.327 N 
ATOM     65  C   UNL A   1      33.529  25.312  25.847  1.00  0.00     0.014 C 
ATOM     66  C   UNL A   1      32.455  25.111  24.772  1.00  0.00     0.089 C 
ATOM     67  C   UNL A   1      34.764  24.429  25.730  1.00  0.00     0.006 C 
ATOM     68  C   UNL A   1      33.095  25.055  23.378  1.00  0.00     0.025 C 
ATOM     69  C   UNL A   1      35.281  24.245  24.311  1.00  0.00     0.000 C 
ATOM     70  C   UNL A   1      34.155  23.959  23.327  1.00  0.00     0.002 C 
BRANCH  64  71
ATOM     71  C   UNL A   1      30.289  26.508  24.567  1.00  0.00     0.227 C 
ATOM     72  O   UNL A   1      29.366  26.154  25.314  1.00  0.00    -0.275 OA
BRANCH  71  73
ATOM     73  C   UNL A   1      29.883  27.093  23.205  1.00  0.00     0.094 C 
ATOM     74  C   UNL A   1      30.974  27.738  22.342  1.00  0.00     0.030 C 
ATOM     75  C   UNL A   1      28.619  27.930  23.155  1.00  0.00     0.150 C 
ATOM     76  C   UNL A   1      30.814  29.247  22.336  1.00  0.00     0.138 C 
ATOM     77  S   UNL A   1      29.083  29.557  22.597  1.00  0.00     0.151 S 
ATOM     78  O   UNL A   1      28.947  30.490  23.694  1.00  0.00    -0.229 OA
ATOM     79  O   UNL A   1      28.466  29.794  21.309  1.00  0.00    -0.229 OA
ENDBRANCH  71  73
ENDBRANCH  64  71
ENDBRANCH  59  62
ENDBRANCH  57  58
ENDBRANCH   1  57
TORSDOF 12
ENDMDL
MODEL 2
REMARK VINA RESULT:     -11.9      2.848      7.073
REMARK SMILES O=C(NCCCNC(=O)[C@H]1C[C@@H]2CCCC[C@@H]2N1C(=O)[C@@H]1CCS(=O)(=O)C1)c1ccc(-c2c3nc(c(-c4ccccc4)c4ccc([nH]4)c(-c4ccccc4)c4nc(c(-c5ccccc5)c5ccc2[nH]5)C=C4)C=C3)cc1
REMARK SMILES IDX 5 1 4 2 3 3 1 4 2 5 28 7 29 8 75 9 30 10 74 11 31 12 32 13
REMARK SMILES IDX 33 14 68 15 34 16 73 17 67 18 69 19 35 20 72 21 66 22 65 23
REMARK SMILES IDX 36 25 58 26 43 27 57 28 44 29 47 30 56 31 70 32 45 33 46 34
REMARK SMILES IDX 55 36 71 37 48 38 37 39 38 40 42 41 39 42 41 43 40 44 59 45
REMARK SMILES IDX 60 46 64 47 61 48 63 49 62 50 49 51 50 52 54 53 51 54 53 55
REMARK SMILES IDX 52 56 6 57 7 58 8 59 9 61 10 62 11 63 18 64 12 65 17 66
REMARK SMILES IDX 13 67 16 68 14 69 15 70 19 71 20 72 21 73 22 74 27 75 23 76
REMARK SMILES IDX 24 77 25 78 26 79
REMARK H PARENT 3 6 69 24 47 35 7 60
REMARK Flexibility Score: inf
ROOT
ATOM      1  C   UNL A   1      34.220  28.599  25.917  1.00  0.00     0.042 C 
ENDROOT
BRANCH   1   2
ATOM      2  C   UNL A   1      33.722  28.736  27.341  1.00  0.00     0.118 C 
BRANCH   2   3
ATOM      3  N   UNL A   1      33.683  30.128  27.766  1.00  0.00    -0.352 N 
ATOM      4  O   UNL A   1      34.276  31.931  28.971  1.00  0.00    -0.269 OA
ATOM      5  C   UNL A   1      34.601  30.854  28.482  1.00  0.00     0.251 C 
ATOM      6  H   UNL A   1      32.875  30.623  27.499  1.00  0.00     0.163 HD
BRANCH   5   7
ATOM      7  C   UNL A   1      35.973  30.338  28.668  1.00  0.00     0.039 A 
ATOM      8  C   UNL A   1      36.933  30.496  27.666  1.00  0.00     0.014 A 
ATOM      9  C   UNL A   1      36.320  29.728  29.876  1.00  0.00     0.014 A 
ATOM     10  C   UNL A   1      38.182  29.911  27.802  1.00  0.00     0.010 A 
ATOM     11  C   UNL A   1      37.619  29.247  30.062  1.00  0.00     0.010 A 
ATOM     12  C   UNL A   1      38.553  29.319  29.017  1.00  0.00    -0.014 A 
BRANCH  12  13
ATOM     13  C   UNL A   1      39.956  28.884  29.202  1.00  0.00     0.031 A 
ATOM     14  C   UNL A   1      40.989  29.807  29.777  1.00  0.00     0.074 A 
ATOM     15  C   UNL A   1      40.286  27.628  28.843  1.00  0.00     0.049 A 
ATOM     16  N   UNL A   1      42.261  29.582  29.992  1.00  0.00    -0.248 NA
ATOM     17  C   UNL A   1      40.545  31.159  30.147  1.00  0.00     0.031 C 
ATOM     18  C   UNL A   1      39.363  26.647  28.265  1.00  0.00     0.029 A 
ATOM     19  N   UNL A   1      41.478  26.957  28.918  1.00  0.00    -0.354 N 
ATOM     20  C   UNL A   1      42.775  30.768  30.499  1.00  0.00     0.074 A 
ATOM     21  C   UNL A   1      41.683  31.719  30.535  1.00  0.00     0.031 C 
ATOM     22  C   UNL A   1      40.012  25.491  28.075  1.00  0.00     0.029 A 
ATOM     23  C   UNL A   1      41.410  25.672  28.439  1.00  0.00     0.049 A 
ATOM     24  H   UNL A   1      42.302  27.357  29.279  1.00  0.00     0.167 HD
ATOM     25  C   UNL A   1      44.042  31.036  30.897  1.00  0.00     0.031 A 
ATOM     26  C   UNL A   1      42.371  24.746  28.277  1.00  0.00     0.031 A 
ATOM     27  C   UNL A   1      45.122  30.085  30.840  1.00  0.00     0.049 A 
ATOM     28  C   UNL A   1      43.774  25.084  28.682  1.00  0.00     0.074 A 
ATOM     29  C   UNL A   1      46.433  30.243  31.253  1.00  0.00     0.029 A 
ATOM     30  N   UNL A   1      45.020  28.801  30.323  1.00  0.00    -0.354 N 
ATOM     31  N   UNL A   1      44.234  26.193  29.208  1.00  0.00    -0.248 NA
ATOM     32  C   UNL A   1      44.787  24.043  28.476  1.00  0.00     0.031 C 
ATOM     33  C   UNL A   1      47.140  29.083  30.922  1.00  0.00     0.029 A 
ATOM     34  C   UNL A   1      46.253  28.171  30.371  1.00  0.00     0.049 A 
ATOM     35  H   UNL A   1      44.193  28.396  29.973  1.00  0.00     0.167 HD
ATOM     36  C   UNL A   1      45.590  25.979  29.413  1.00  0.00     0.074 A 
ATOM     37  C   UNL A   1      45.869  24.626  28.975  1.00  0.00     0.031 C 
ATOM     38  C   UNL A   1      46.517  26.827  29.919  1.00  0.00     0.031 A 
BRANCH  25  39
ATOM     39  C   UNL A   1      44.336  32.430  31.383  1.00  0.00    -0.014 A 
ATOM     40  C   UNL A   1      44.296  32.760  32.747  1.00  0.00     0.009 A 
ATOM     41  C   UNL A   1      44.683  33.427  30.457  1.00  0.00     0.009 A 
ATOM     42  C   UNL A   1      44.551  34.068  33.168  1.00  0.00     0.001 A 
ATOM     43  C   UNL A   1      44.971  34.725  30.882  1.00  0.00     0.001 A 
ATOM     44  C   UNL A   1      44.892  35.047  32.236  1.00  0.00     0.000 A 
ENDBRANCH  25  39
BRANCH  26  45
ATOM     45  C   UNL A   1      42.029  23.435  27.669  1.00  0.00    -0.014 A 
ATOM     46  C   UNL A   1      41.547  22.380  28.457  1.00  0.00     0.009 A 
ATOM     47  C   UNL A   1      42.151  23.246  26.282  1.00  0.00     0.009 A 
ATOM     48  C   UNL A   1      41.211  21.157  27.869  1.00  0.00     0.001 A 
ATOM     49  C   UNL A   1      41.782  22.036  25.694  1.00  0.00     0.001 A 
ATOM     50  C   UNL A   1      41.322  20.989  26.489  1.00  0.00     0.000 A 
ENDBRANCH  26  45
BRANCH  38  51
ATOM     51  C   UNL A   1      47.919  26.303  30.053  1.00  0.00    -0.014 A 
ATOM     52  C   UNL A   1      48.382  25.745  31.254  1.00  0.00     0.009 A 
ATOM     53  C   UNL A   1      48.778  26.333  28.942  1.00  0.00     0.009 A 
ATOM     54  C   UNL A   1      49.687  25.259  31.350  1.00  0.00     0.001 A 
ATOM     55  C   UNL A   1      50.070  25.817  29.031  1.00  0.00     0.001 A 
ATOM     56  C   UNL A   1      50.528  25.290  30.237  1.00  0.00     0.000 A 
ENDBRANCH  38  51
ENDBRANCH  12  13
ENDBRANCH   5   7
ENDBRANCH   2   3
ENDBRANCH   1   2
BRANCH   1  57
ATOM     57  C   UNL A   1      33.207  29.085  24.892  1.00  0.00     0.117 C 
BRANCH  57  58
ATOM     58  N   UNL A   1      33.736  29.024  23.549  1.00  0.00    -0.354 N 
ATOM     59  C   UNL A   1      33.651  28.062  22.589  1.00  0.00     0.242 C 
ATOM     60  H   UNL A   1      34.250  29.819  23.281  1.00  0.00     0.163 HD
ATOM     61  O   UNL A   1      34.409  28.201  21.622  1.00  0.00    -0.273 OA
BRANCH  59  62
ATOM     62  C   UNL A   1      32.838  26.750  22.754  1.00  0.00     0.175 C 
ATOM     63  C   UNL A   1      33.643  25.740  23.601  1.00  0.00     0.041 C 
ATOM     64  N   UNL A   1      31.507  26.821  23.396  1.00  0.00    -0.327 N 
ATOM     65  C   UNL A   1      32.881  25.698  24.929  1.00  0.00     0.014 C 
ATOM     66  C   UNL A   1      31.423  25.843  24.481  1.00  0.00     0.089 C 
ATOM     67  C   UNL A   1      33.184  24.523  25.849  1.00  0.00     0.006 C 
ATOM     68  C   UNL A   1      30.865  24.488  24.023  1.00  0.00     0.025 C 
ATOM     69  C   UNL A   1      32.480  23.227  25.476  1.00  0.00     0.000 C 
ATOM     70  C   UNL A   1      31.013  23.454  25.135  1.00  0.00     0.002 C 
BRANCH  64  71
ATOM     71  C   UNL A   1      30.556  27.629  22.824  1.00  0.00     0.227 C 
ATOM     72  O   UNL A   1      30.584  27.815  21.600  1.00  0.00    -0.275 OA
BRANCH  71  73
ATOM     73  C   UNL A   1      29.502  28.422  23.615  1.00  0.00     0.094 C 
ATOM     74  C   UNL A   1      28.052  27.923  23.585  1.00  0.00     0.030 C 
ATOM     75  C   UNL A   1      29.534  29.933  23.496  1.00  0.00     0.150 C 
ATOM     76  C   UNL A   1      27.199  28.845  22.733  1.00  0.00     0.138 C 
ATOM     77  S   UNL A   1      27.967  30.445  22.821  1.00  0.00     0.151 S 
ATOM     78  O   UNL A   1      28.168  30.930  21.473  1.00  0.00    -0.229 OA
ATOM     79  O   UNL A   1      27.270  31.227  23.821  1.00  0.00    -0.229 OA
ENDBRANCH  71  73
ENDBRANCH  64  71
ENDBRANCH  59  62
ENDBRANCH  57  58
ENDBRANCH   1  57
TORSDOF 12
ENDMDL
MODEL 3
REMARK VINA RESULT:     -11.9      0.323      5.917
REMARK SMILES O=C(NCCCNC(=O)[C@H]1C[C@@H]2CCCC[C@@H]2N1C(=O)[C@@H]1CCS(=O)(=O)C1)c1ccc(-c2c3nc(c(-c4ccccc4)c4ccc([nH]4)c(-c4ccccc4)c4nc(c(-c5ccccc5)c5ccc2[nH]5)C=C4)C=C3)cc1
REMARK SMILES IDX 5 1 4 2 3 3 1 4 2 5 28 7 29 8 75 9 30 10 74 11 31 12 32 13
REMARK SMILES IDX 33 14 68 15 34 16 73 17 67 18 69 19 35 20 72 21 66 22 65 23
REMARK SMILES IDX 36 25 58 26 43 27 57 28 44 29 47 30 56 31 70 32 45 33 46 34
REMARK SMILES IDX 55 36 71 37 48 38 37 39 38 40 42 41 39 42 41 43 40 44 59 45
REMARK SMILES IDX 60 46 64 47 61 48 63 49 62 50 49 51 50 52 54 53 51 54 53 55
REMARK SMILES IDX 52 56 6 57 7 58 8 59 9 61 10 62 11 63 18 64 12 65 17 66
REMARK SMILES IDX 13 67 16 68 14 69 15 70 19 71 20 72 21 73 22 74 27 75 23 76
REMARK SMILES IDX 24 77 25 78 26 79
REMARK H PARENT 3 6 69 24 47 35 7 60
REMARK Flexibility Score: inf
ROOT
ATOM      1  C   UNL A   1      31.404  31.898  26.501  1.00  0.00     0.042 C 
ENDROOT
BRANCH   1   2
ATOM      2  C   UNL A   1      32.684  32.409  27.129  1.00  0.00     0.118 C 
BRANCH   2   3
ATOM      3  N   UNL A   1      32.535  33.769  27.627  1.00  0.00    -0.352 N 
ATOM      4  O   UNL A   1      32.758  35.464  29.087  1.00  0.00    -0.269 OA
ATOM      5  C   UNL A   1      33.202  34.413  28.638  1.00  0.00     0.251 C 
ATOM      6  H   UNL A   1      31.851  34.309  27.168  1.00  0.00     0.163 HD
BRANCH   5   7
ATOM      7  C   UNL A   1      34.448  33.839  29.188  1.00  0.00     0.039 A 
ATOM      8  C   UNL A   1      34.403  32.923  30.242  1.00  0.00     0.014 A 
ATOM      9  C   UNL A   1      35.675  34.184  28.616  1.00  0.00     0.014 A 
ATOM     10  C   UNL A   1      35.578  32.477  30.825  1.00  0.00     0.010 A 
ATOM     11  C   UNL A   1      36.855  33.636  29.125  1.00  0.00     0.010 A 
ATOM     12  C   UNL A   1      36.815  32.794  30.247  1.00  0.00    -0.014 A 
BRANCH  12  13
ATOM     13  C   UNL A   1      38.037  32.140  30.768  1.00  0.00     0.031 A 
ATOM     14  C   UNL A   1      38.803  32.722  31.918  1.00  0.00     0.074 A 
ATOM     15  C   UNL A   1      38.447  30.999  30.181  1.00  0.00     0.049 A 
ATOM     16  N   UNL A   1      39.897  32.279  32.484  1.00  0.00    -0.248 NA
ATOM     17  C   UNL A   1      38.284  33.968  32.503  1.00  0.00     0.031 C 
ATOM     18  C   UNL A   1      37.784  30.347  29.048  1.00  0.00     0.029 A 
ATOM     19  N   UNL A   1      39.509  30.179  30.459  1.00  0.00    -0.354 N 
ATOM     20  C   UNL A   1      40.212  33.199  33.474  1.00  0.00     0.074 A 
ATOM     21  C   UNL A   1      39.208  34.241  33.415  1.00  0.00     0.031 C 
ATOM     22  C   UNL A   1      38.429  29.212  28.753  1.00  0.00     0.029 A 
ATOM     23  C   UNL A   1      39.595  29.096  29.619  1.00  0.00     0.049 A 
ATOM     24  H   UNL A   1      40.149  30.350  31.188  1.00  0.00     0.167 HD
ATOM     25  C   UNL A   1      41.245  33.174  34.350  1.00  0.00     0.031 A 
ATOM     26  C   UNL A   1      40.525  28.131  29.528  1.00  0.00     0.031 A 
ATOM     27  C   UNL A   1      42.246  32.140  34.386  1.00  0.00     0.049 A 
ATOM     28  C   UNL A   1      41.683  28.152  30.479  1.00  0.00     0.074 A 
ATOM     29  C   UNL A   1      43.312  32.001  35.258  1.00  0.00     0.029 A 
ATOM     30  N   UNL A   1      42.314  31.073  33.501  1.00  0.00    -0.354 N 
ATOM     31  N   UNL A   1      41.940  29.002  31.444  1.00  0.00    -0.248 NA
ATOM     32  C   UNL A   1      42.676  27.081  30.332  1.00  0.00     0.031 C 
ATOM     33  C   UNL A   1      44.064  30.892  34.857  1.00  0.00     0.029 A 
ATOM     34  C   UNL A   1      43.426  30.295  33.781  1.00  0.00     0.049 A 
ATOM     35  H   UNL A   1      41.669  30.895  32.779  1.00  0.00     0.167 HD
ATOM     36  C   UNL A   1      43.116  28.559  32.032  1.00  0.00     0.074 A 
ATOM     37  C   UNL A   1      43.508  27.354  31.329  1.00  0.00     0.031 C 
ATOM     38  C   UNL A   1      43.808  29.103  33.063  1.00  0.00     0.031 A 
BRANCH  25  39
ATOM     39  C   UNL A   1      41.370  34.329  35.308  1.00  0.00    -0.014 A 
ATOM     40  C   UNL A   1      42.067  35.499  34.967  1.00  0.00     0.009 A 
ATOM     41  C   UNL A   1      40.755  34.252  36.568  1.00  0.00     0.009 A 
ATOM     42  C   UNL A   1      42.186  36.547  35.885  1.00  0.00     0.001 A 
ATOM     43  C   UNL A   1      40.847  35.313  37.471  1.00  0.00     0.001 A 
ATOM     44  C   UNL A   1      41.573  36.454  37.133  1.00  0.00     0.000 A 
ENDBRANCH  25  39
BRANCH  26  45
ATOM     45  C   UNL A   1      40.404  27.095  28.470  1.00  0.00    -0.014 A 
ATOM     46  C   UNL A   1      39.659  25.927  28.687  1.00  0.00     0.009 A 
ATOM     47  C   UNL A   1      41.009  27.290  27.217  1.00  0.00     0.009 A 
ATOM     48  C   UNL A   1      39.537  24.969  27.677  1.00  0.00     0.001 A 
ATOM     49  C   UNL A   1      40.857  26.349  26.199  1.00  0.00     0.001 A 
ATOM     50  C   UNL A   1      40.130  25.184  26.433  1.00  0.00     0.000 A 
ENDBRANCH  26  45
BRANCH  38  51
ATOM     51  C   UNL A   1      45.046  28.379  33.510  1.00  0.00    -0.014 A 
ATOM     52  C   UNL A   1      46.308  28.692  32.984  1.00  0.00     0.009 A 
ATOM     53  C   UNL A   1      44.950  27.392  34.504  1.00  0.00     0.009 A 
ATOM     54  C   UNL A   1      47.445  28.009  33.421  1.00  0.00     0.001 A 
ATOM     55  C   UNL A   1      46.091  26.734  34.963  1.00  0.00     0.001 A 
ATOM     56  C   UNL A   1      47.336  27.035  34.414  1.00  0.00     0.000 A 
ENDBRANCH  38  51
ENDBRANCH  12  13
ENDBRANCH   5   7
ENDBRANCH   2   3
ENDBRANCH   1   2
BRANCH   1  57
ATOM     57  C   UNL A   1      31.562  30.517  25.886  1.00  0.00     0.117 C 
BRANCH  57  58
ATOM     58  N   UNL A   1      31.502  29.477  26.886  1.00  0.00    -0.354 N 
ATOM     59  C   UNL A   1      31.778  28.145  26.821  1.00  0.00     0.242 C 
ATOM     60  H   UNL A   1      31.209  29.787  27.774  1.00  0.00     0.163 HD
ATOM     61  O   UNL A   1      31.405  27.472  27.789  1.00  0.00    -0.273 OA
BRANCH  59  62
ATOM     62  C   UNL A   1      32.322  27.439  25.550  1.00  0.00     0.175 C 
ATOM     63  C   UNL A   1      33.699  26.810  25.851  1.00  0.00     0.041 C 
ATOM     64  N   UNL A   1      31.520  26.349  24.951  1.00  0.00    -0.327 N 
ATOM     65  C   UNL A   1      33.412  25.306  25.862  1.00  0.00     0.014 C 
ATOM     66  C   UNL A   1      32.353  25.161  24.763  1.00  0.00     0.089 C 
ATOM     67  C   UNL A   1      34.619  24.383  25.751  1.00  0.00     0.006 C 
ATOM     68  C   UNL A   1      33.018  25.109  23.381  1.00  0.00     0.025 C 
ATOM     69  C   UNL A   1      35.157  24.207  24.339  1.00  0.00     0.000 C 
ATOM     70  C   UNL A   1      34.040  23.978  23.329  1.00  0.00     0.002 C 
BRANCH  64  71
ATOM     71  C   UNL A   1      30.240  26.636  24.545  1.00  0.00     0.227 C 
ATOM     72  O   UNL A   1      29.293  26.314  25.275  1.00  0.00    -0.275 OA
BRANCH  71  73
ATOM     73  C   UNL A   1      29.879  27.243  23.180  1.00  0.00     0.094 C 
ATOM     74  C   UNL A   1      31.000  27.892  22.359  1.00  0.00     0.030 C 
ATOM     75  C   UNL A   1      28.623  28.089  23.104  1.00  0.00     0.150 C 
ATOM     76  C   UNL A   1      30.850  29.402  22.370  1.00  0.00     0.138 C 
ATOM     77  S   UNL A   1      29.114  29.721  22.583  1.00  0.00     0.151 S 
ATOM     78  O   UNL A   1      28.952  30.639  23.689  1.00  0.00    -0.229 OA
ATOM     79  O   UNL A   1      28.538  29.979  21.280  1.00  0.00    -0.229 OA
ENDBRANCH  71  73
ENDBRANCH  64  71
ENDBRANCH  59  62
ENDBRANCH  57  58
ENDBRANCH   1  57
TORSDOF 12
ENDMDL
