MODEL 1
REMARK VINA RESULT:     -10.8      0.000      0.000
REMARK SMILES COC(=O)[C@H]1CCN(S(=O)(=O)N2CCC[C@H](C(=O)NCCCNC(=O)c3ccc(-c4c5nc(c(-c6ccccc6)c6ccc([nH]6)c(-c6ccccc6)c6nc(c(-c7ccccc7)c7ccc4[nH]7)C=C6)C=C5)cc3)C2)C1
REMARK SMILES IDX 20 1 19 2 17 3 18 4 16 6 12 7 13 8 74 9 14 10 15 11 9 12
REMARK SMILES IDX 10 13 11 14 8 15 5 16 6 17 75 18 7 19 3 20 4 21 2 22 1 23
REMARK SMILES IDX 21 24 22 25 23 26 24 27 25 29 26 30 27 31 73 32 28 33 72 34
REMARK SMILES IDX 29 35 30 36 31 37 66 38 32 39 71 40 65 41 67 42 33 43 70 44
REMARK SMILES IDX 64 45 63 46 34 48 56 49 41 50 55 51 42 52 45 53 54 54 68 55
REMARK SMILES IDX 43 56 44 57 53 59 69 60 46 61 35 62 36 63 40 64 37 65 39 66
REMARK SMILES IDX 38 67 57 68 58 69 62 70 59 71 61 72 60 73 47 74 48 75 52 76
REMARK SMILES IDX 49 77 51 78 50 79
REMARK H PARENT 19 5 23 28 67 47 45 58
REMARK Flexibility Score: inf
ROOT
ATOM      1  C   UNL A   1      37.321  21.084  24.458  1.00  0.00     0.117 C 
ENDROOT
BRANCH   1   2
ATOM      2  N   UNL A   1      36.537  21.662  25.527  1.00  0.00    -0.356 N 
ATOM      3  C   UNL A   1      35.217  21.939  25.635  1.00  0.00     0.224 C 
ATOM      4  O   UNL A   1      34.861  22.459  26.701  1.00  0.00    -0.275 OA
ATOM      5  H   UNL A   1      37.062  21.899  26.325  1.00  0.00     0.163 HD
BRANCH   3   6
ATOM      6  C   UNL A   1      34.170  21.674  24.553  1.00  0.00     0.094 C 
ATOM      7  N   UNL A   1      32.879  23.688  23.820  1.00  0.00    -0.188 NA
ATOM      8  C   UNL A   1      31.580  23.095  24.158  1.00  0.00     0.103 C 
ATOM      9  C   UNL A   1      33.999  22.778  23.520  1.00  0.00     0.117 C 
ATOM     10  C   UNL A   1      31.723  22.039  25.249  1.00  0.00     0.018 C 
ATOM     11  C   UNL A   1      32.856  21.050  25.014  1.00  0.00     0.016 C 
BRANCH   7  12
ATOM     12  S   UNL A   1      32.917  25.253  23.223  1.00  0.00     0.282 S 
ATOM     13  O   UNL A   1      31.586  25.803  23.270  1.00  0.00    -0.195 OA
ATOM     14  O   UNL A   1      33.669  25.231  21.987  1.00  0.00    -0.195 OA
BRANCH  12  15
ATOM     15  N   UNL A   1      33.871  26.069  24.360  1.00  0.00    -0.188 NA
ATOM     16  C   UNL A   1      33.258  28.165  25.423  1.00  0.00     0.116 C 
ATOM     17  C   UNL A   1      32.679  26.991  26.192  1.00  0.00     0.033 C 
ATOM     18  C   UNL A   1      33.850  27.561  24.152  1.00  0.00     0.118 C 
ATOM     19  C   UNL A   1      33.594  25.859  25.795  1.00  0.00     0.104 C 
BRANCH  16  20
ATOM     20  C   UNL A   1      32.193  29.180  25.099  1.00  0.00     0.310 C 
ATOM     21  O   UNL A   1      31.786  30.040  25.866  1.00  0.00    -0.252 OA
BRANCH  20  22
ATOM     22  O   UNL A   1      31.765  29.017  23.817  1.00  0.00    -0.469 OA
ATOM     23  C   UNL A   1      30.346  29.102  23.677  1.00  0.00     0.282 C 
ENDBRANCH  20  22
ENDBRANCH  16  20
ENDBRANCH  12  15
ENDBRANCH   7  12
ENDBRANCH   3   6
ENDBRANCH   1   2
BRANCH   1  24
ATOM     24  C   UNL A   1      38.041  19.824  24.901  1.00  0.00     0.042 C 
BRANCH  24  25
ATOM     25  C   UNL A   1      39.045  20.085  26.006  1.00  0.00     0.118 C 
BRANCH  25  26
ATOM     26  N   UNL A   1      40.250  19.277  25.857  1.00  0.00    -0.352 N 
ATOM     27  C   UNL A   1      41.572  19.628  25.968  1.00  0.00     0.251 C 
ATOM     28  H   UNL A   1      40.089  18.329  25.642  1.00  0.00     0.163 HD
ATOM     29  O   UNL A   1      42.447  18.847  25.605  1.00  0.00    -0.269 OA
BRANCH  27  30
ATOM     30  C   UNL A   1      41.945  20.950  26.508  1.00  0.00     0.039 A 
ATOM     31  C   UNL A   1      42.308  21.968  25.622  1.00  0.00     0.014 A 
ATOM     32  C   UNL A   1      41.946  21.188  27.883  1.00  0.00     0.014 A 
ATOM     33  C   UNL A   1      42.611  23.237  26.117  1.00  0.00     0.010 A 
ATOM     34  C   UNL A   1      42.123  22.478  28.362  1.00  0.00     0.010 A 
ATOM     35  C   UNL A   1      42.483  23.511  27.488  1.00  0.00    -0.014 A 
BRANCH  35  36
ATOM     36  C   UNL A   1      42.758  24.861  28.037  1.00  0.00     0.031 A 
ATOM     37  C   UNL A   1      44.155  25.219  28.473  1.00  0.00     0.074 A 
ATOM     38  C   UNL A   1      41.747  25.736  28.200  1.00  0.00     0.049 A 
ATOM     39  N   UNL A   1      44.586  26.318  29.037  1.00  0.00    -0.248 NA
ATOM     40  C   UNL A   1      45.199  24.197  28.282  1.00  0.00     0.031 C 
ATOM     41  C   UNL A   1      40.343  25.487  27.858  1.00  0.00     0.029 A 
ATOM     42  N   UNL A   1      41.745  27.014  28.698  1.00  0.00    -0.354 N 
ATOM     43  C   UNL A   1      45.938  26.109  29.284  1.00  0.00     0.074 A 
ATOM     44  C   UNL A   1      46.244  24.759  28.870  1.00  0.00     0.031 C 
ATOM     45  C   UNL A   1      39.625  26.591  28.122  1.00  0.00     0.029 A 
ATOM     46  C   UNL A   1      40.504  27.603  28.695  1.00  0.00     0.049 A 
ATOM     47  H   UNL A   1      42.556  27.466  29.026  1.00  0.00     0.167 HD
ATOM     48  C   UNL A   1      46.851  26.972  29.787  1.00  0.00     0.031 A 
ATOM     49  C   UNL A   1      40.117  28.822  29.119  1.00  0.00     0.031 A 
ATOM     50  C   UNL A   1      46.547  28.322  30.177  1.00  0.00     0.049 A 
ATOM     51  C   UNL A   1      41.150  29.755  29.686  1.00  0.00     0.074 A 
ATOM     52  C   UNL A   1      47.410  29.298  30.640  1.00  0.00     0.029 A 
ATOM     53  N   UNL A   1      45.279  28.882  30.151  1.00  0.00    -0.354 N 
ATOM     54  N   UNL A   1      42.438  29.568  29.841  1.00  0.00    -0.248 NA
ATOM     55  C   UNL A   1      40.675  31.076  30.124  1.00  0.00     0.031 C 
ATOM     56  C   UNL A   1      46.654  30.431  30.953  1.00  0.00     0.029 A 
ATOM     57  C   UNL A   1      45.333  30.183  30.618  1.00  0.00     0.049 A 
ATOM     58  H   UNL A   1      44.463  28.423  29.845  1.00  0.00     0.167 HD
ATOM     59  C   UNL A   1      42.933  30.756  30.365  1.00  0.00     0.074 A 
ATOM     60  C   UNL A   1      41.810  31.663  30.480  1.00  0.00     0.031 C 
ATOM     61  C   UNL A   1      44.203  31.070  30.719  1.00  0.00     0.031 A 
BRANCH  48  62
ATOM     62  C   UNL A   1      48.264  26.482  29.946  1.00  0.00    -0.014 A 
ATOM     63  C   UNL A   1      49.217  26.657  28.929  1.00  0.00     0.009 A 
ATOM     64  C   UNL A   1      48.661  25.880  31.150  1.00  0.00     0.009 A 
ATOM     65  C   UNL A   1      50.529  26.209  29.103  1.00  0.00     0.001 A 
ATOM     66  C   UNL A   1      49.981  25.464  31.334  1.00  0.00     0.001 A 
ATOM     67  C   UNL A   1      50.911  25.621  30.308  1.00  0.00     0.000 A 
ENDBRANCH  48  62
BRANCH  49  68
ATOM     68  C   UNL A   1      38.691  29.234  29.023  1.00  0.00    -0.014 A 
ATOM     69  C   UNL A   1      37.832  29.108  30.126  1.00  0.00     0.009 A 
ATOM     70  C   UNL A   1      38.171  29.731  27.817  1.00  0.00     0.009 A 
ATOM     71  C   UNL A   1      36.478  29.433  30.012  1.00  0.00     0.001 A 
ATOM     72  C   UNL A   1      36.825  30.088  27.715  1.00  0.00     0.001 A 
ATOM     73  C   UNL A   1      35.976  29.925  28.808  1.00  0.00     0.000 A 
ENDBRANCH  49  68
BRANCH  61  74
ATOM     74  C   UNL A   1      44.453  32.465  31.222  1.00  0.00    -0.014 A 
ATOM     75  C   UNL A   1      44.752  33.519  30.345  1.00  0.00     0.009 A 
ATOM     76  C   UNL A   1      44.342  32.733  32.596  1.00  0.00     0.009 A 
ATOM     77  C   UNL A   1      44.974  34.805  30.839  1.00  0.00     0.001 A 
ATOM     78  C   UNL A   1      44.528  34.027  33.083  1.00  0.00     0.001 A 
ATOM     79  C   UNL A   1      44.854  35.059  32.206  1.00  0.00     0.000 A 
ENDBRANCH  61  74
ENDBRANCH  35  36
ENDBRANCH  27  30
ENDBRANCH  25  26
ENDBRANCH  24  25
ENDBRANCH   1  24
TORSDOF 14
ENDMDL
MODEL 2
REMARK VINA RESULT:     -10.8      0.643      5.988
REMARK SMILES COC(=O)[C@H]1CCN(S(=O)(=O)N2CCC[C@H](C(=O)NCCCNC(=O)c3ccc(-c4c5nc(c(-c6ccccc6)c6ccc([nH]6)c(-c6ccccc6)c6nc(c(-c7ccccc7)c7ccc4[nH]7)C=C6)C=C5)cc3)C2)C1
REMARK SMILES IDX 20 1 19 2 17 3 18 4 16 6 12 7 13 8 74 9 14 10 15 11 9 12
REMARK SMILES IDX 10 13 11 14 8 15 5 16 6 17 75 18 7 19 3 20 4 21 2 22 1 23
REMARK SMILES IDX 21 24 22 25 23 26 24 27 25 29 26 30 27 31 73 32 28 33 72 34
REMARK SMILES IDX 29 35 30 36 31 37 66 38 32 39 71 40 65 41 67 42 33 43 70 44
REMARK SMILES IDX 64 45 63 46 34 48 56 49 41 50 55 51 42 52 45 53 54 54 68 55
REMARK SMILES IDX 43 56 44 57 53 59 69 60 46 61 35 62 36 63 40 64 37 65 39 66
REMARK SMILES IDX 38 67 57 68 58 69 62 70 59 71 61 72 60 73 47 74 48 75 52 76
REMARK SMILES IDX 49 77 51 78 50 79
REMARK H PARENT 19 5 23 28 67 47 45 58
REMARK Flexibility Score: inf
ROOT
ATOM      1  C   UNL A   1      37.358  21.262  24.512  1.00  0.00     0.117 C 
ENDROOT
BRANCH   1   2
ATOM      2  N   UNL A   1      36.525  21.737  25.594  1.00  0.00    -0.356 N 
ATOM      3  C   UNL A   1      35.189  21.926  25.695  1.00  0.00     0.224 C 
ATOM      4  O   UNL A   1      34.787  22.370  26.779  1.00  0.00    -0.275 OA
ATOM      5  H   UNL A   1      37.024  21.967  26.412  1.00  0.00     0.163 HD
BRANCH   3   6
ATOM      6  C   UNL A   1      34.175  21.650  24.585  1.00  0.00     0.094 C 
ATOM      7  N   UNL A   1      32.936  23.663  23.765  1.00  0.00    -0.188 NA
ATOM      8  C   UNL A   1      31.619  23.095  24.073  1.00  0.00     0.103 C 
ATOM      9  C   UNL A   1      34.053  22.732  23.523  1.00  0.00     0.117 C 
ATOM     10  C   UNL A   1      31.711  22.062  25.191  1.00  0.00     0.018 C 
ATOM     11  C   UNL A   1      32.838  21.054  25.016  1.00  0.00     0.016 C 
BRANCH   7  12
ATOM     12  S   UNL A   1      33.015  25.213  23.135  1.00  0.00     0.282 S 
ATOM     13  O   UNL A   1      31.698  25.798  23.167  1.00  0.00    -0.195 OA
ATOM     14  O   UNL A   1      33.769  25.146  21.902  1.00  0.00    -0.195 OA
BRANCH  12  15
ATOM     15  N   UNL A   1      33.987  26.029  24.256  1.00  0.00    -0.188 NA
ATOM     16  C   UNL A   1      33.266  27.938  25.575  1.00  0.00     0.116 C 
ATOM     17  C   UNL A   1      32.896  26.640  26.272  1.00  0.00     0.033 C 
ATOM     18  C   UNL A   1      33.787  27.522  24.201  1.00  0.00     0.118 C 
ATOM     19  C   UNL A   1      33.881  25.661  25.683  1.00  0.00     0.104 C 
BRANCH  16  20
ATOM     20  C   UNL A   1      32.072  28.847  25.452  1.00  0.00     0.310 C 
ATOM     21  O   UNL A   1      31.425  29.022  24.431  1.00  0.00    -0.252 OA
BRANCH  20  22
ATOM     22  O   UNL A   1      31.801  29.429  26.653  1.00  0.00    -0.469 OA
ATOM     23  C   UNL A   1      32.813  30.341  27.084  1.00  0.00     0.282 C 
ENDBRANCH  20  22
ENDBRANCH  16  20
ENDBRANCH  12  15
ENDBRANCH   7  12
ENDBRANCH   3   6
ENDBRANCH   1   2
BRANCH   1  24
ATOM     24  C   UNL A   1      38.100  19.992  24.884  1.00  0.00     0.042 C 
BRANCH  24  25
ATOM     25  C   UNL A   1      39.096  20.206  26.005  1.00  0.00     0.118 C 
BRANCH  25  26
ATOM     26  N   UNL A   1      40.237  19.304  25.909  1.00  0.00    -0.352 N 
ATOM     27  C   UNL A   1      41.581  19.557  26.030  1.00  0.00     0.251 C 
ATOM     28  H   UNL A   1      40.008  18.364  25.727  1.00  0.00     0.163 HD
ATOM     29  O   UNL A   1      42.398  18.698  25.713  1.00  0.00    -0.269 OA
BRANCH  27  30
ATOM     30  C   UNL A   1      42.046  20.867  26.526  1.00  0.00     0.039 A 
ATOM     31  C   UNL A   1      42.441  21.842  25.606  1.00  0.00     0.014 A 
ATOM     32  C   UNL A   1      42.102  21.136  27.895  1.00  0.00     0.014 A 
ATOM     33  C   UNL A   1      42.831  23.101  26.061  1.00  0.00     0.010 A 
ATOM     34  C   UNL A   1      42.368  22.424  28.337  1.00  0.00     0.010 A 
ATOM     35  C   UNL A   1      42.761  23.414  27.428  1.00  0.00    -0.014 A 
BRANCH  35  36
ATOM     36  C   UNL A   1      43.130  24.757  27.936  1.00  0.00     0.031 A 
ATOM     37  C   UNL A   1      42.055  25.781  28.191  1.00  0.00     0.074 A 
ATOM     38  C   UNL A   1      44.428  25.073  28.110  1.00  0.00     0.049 A 
ATOM     39  N   UNL A   1      42.176  27.027  28.572  1.00  0.00    -0.248 NA
ATOM     40  C   UNL A   1      40.662  25.361  27.955  1.00  0.00     0.031 C 
ATOM     41  C   UNL A   1      45.563  24.182  27.852  1.00  0.00     0.029 A 
ATOM     42  N   UNL A   1      45.012  26.237  28.541  1.00  0.00    -0.354 N 
ATOM     43  C   UNL A   1      40.884  27.539  28.599  1.00  0.00     0.074 A 
ATOM     44  C   UNL A   1      40.001  26.494  28.137  1.00  0.00     0.031 C 
ATOM     45  C   UNL A   1      46.702  24.819  28.168  1.00  0.00     0.029 A 
ATOM     46  C   UNL A   1      46.384  26.174  28.599  1.00  0.00     0.049 A 
ATOM     47  H   UNL A   1      44.499  27.040  28.787  1.00  0.00     0.167 HD
ATOM     48  C   UNL A   1      40.467  28.763  28.998  1.00  0.00     0.031 A 
ATOM     49  C   UNL A   1      47.285  27.112  28.952  1.00  0.00     0.031 A 
ATOM     50  C   UNL A   1      41.347  29.792  29.479  1.00  0.00     0.049 A 
ATOM     51  C   UNL A   1      46.793  28.467  29.378  1.00  0.00     0.074 A 
ATOM     52  C   UNL A   1      41.021  31.045  29.965  1.00  0.00     0.029 A 
ATOM     53  N   UNL A   1      42.728  29.686  29.529  1.00  0.00    -0.354 N 
ATOM     54  N   UNL A   1      45.562  28.910  29.471  1.00  0.00    -0.248 NA
ATOM     55  C   UNL A   1      47.817  29.449  29.761  1.00  0.00     0.031 C 
ATOM     56  C   UNL A   1      42.210  31.721  30.253  1.00  0.00     0.029 A 
ATOM     57  C   UNL A   1      43.271  30.863  30.012  1.00  0.00     0.049 A 
ATOM     58  H   UNL A   1      43.246  28.892  29.262  1.00  0.00     0.167 HD
ATOM     59  C   UNL A   1      45.662  30.209  29.953  1.00  0.00     0.074 A 
ATOM     60  C   UNL A   1      47.072  30.474  30.153  1.00  0.00     0.031 C 
ATOM     61  C   UNL A   1      44.678  31.104  30.208  1.00  0.00     0.031 A 
BRANCH  48  62
ATOM     62  C   UNL A   1      38.993  29.056  28.930  1.00  0.00    -0.014 A 
ATOM     63  C   UNL A   1      38.151  28.832  30.033  1.00  0.00     0.009 A 
ATOM     64  C   UNL A   1      38.446  29.610  27.763  1.00  0.00     0.009 A 
ATOM     65  C   UNL A   1      36.788  29.126  29.954  1.00  0.00     0.001 A 
ATOM     66  C   UNL A   1      37.089  29.935  27.699  1.00  0.00     0.001 A 
ATOM     67  C   UNL A   1      36.260  29.684  28.791  1.00  0.00     0.000 A 
ENDBRANCH  48  62
BRANCH  49  68
ATOM     68  C   UNL A   1      48.740  26.806  28.921  1.00  0.00    -0.014 A 
ATOM     69  C   UNL A   1      49.484  26.974  27.743  1.00  0.00     0.009 A 
ATOM     70  C   UNL A   1      49.390  26.316  30.065  1.00  0.00     0.009 A 
ATOM     71  C   UNL A   1      50.835  26.622  27.700  1.00  0.00     0.001 A 
ATOM     72  C   UNL A   1      50.750  25.998  30.030  1.00  0.00     0.001 A 
ATOM     73  C   UNL A   1      51.468  26.138  28.843  1.00  0.00     0.000 A 
ENDBRANCH  49  68
BRANCH  61  74
ATOM     74  C   UNL A   1      45.086  32.436  30.772  1.00  0.00    -0.014 A 
ATOM     75  C   UNL A   1      45.368  33.530  29.940  1.00  0.00     0.009 A 
ATOM     76  C   UNL A   1      45.146  32.607  32.165  1.00  0.00     0.009 A 
ATOM     77  C   UNL A   1      45.739  34.758  30.491  1.00  0.00     0.001 A 
ATOM     78  C   UNL A   1      45.481  33.845  32.713  1.00  0.00     0.001 A 
ATOM     79  C   UNL A   1      45.788  34.915  31.876  1.00  0.00     0.000 A 
ENDBRANCH  61  74
ENDBRANCH  35  36
ENDBRANCH  27  30
ENDBRANCH  25  26
ENDBRANCH  24  25
ENDBRANCH   1  24
TORSDOF 14
ENDMDL
MODEL 3
REMARK VINA RESULT:     -10.7      3.212      8.900
REMARK SMILES COC(=O)[C@H]1CCN(S(=O)(=O)N2CCC[C@H](C(=O)NCCCNC(=O)c3ccc(-c4c5nc(c(-c6ccccc6)c6ccc([nH]6)c(-c6ccccc6)c6nc(c(-c7ccccc7)c7ccc4[nH]7)C=C6)C=C5)cc3)C2)C1
REMARK SMILES IDX 20 1 19 2 17 3 18 4 16 6 12 7 13 8 74 9 14 10 15 11 9 12
REMARK SMILES IDX 10 13 11 14 8 15 5 16 6 17 75 18 7 19 3 20 4 21 2 22 1 23
REMARK SMILES IDX 21 24 22 25 23 26 24 27 25 29 26 30 27 31 73 32 28 33 72 34
REMARK SMILES IDX 29 35 30 36 31 37 66 38 32 39 71 40 65 41 67 42 33 43 70 44
REMARK SMILES IDX 64 45 63 46 34 48 56 49 41 50 55 51 42 52 45 53 54 54 68 55
REMARK SMILES IDX 43 56 44 57 53 59 69 60 46 61 35 62 36 63 40 64 37 65 39 66
REMARK SMILES IDX 38 67 57 68 58 69 62 70 59 71 61 72 60 73 47 74 48 75 52 76
REMARK SMILES IDX 49 77 51 78 50 79
REMARK H PARENT 19 5 23 28 67 47 45 58
REMARK Flexibility Score: inf
ROOT
ATOM      1  C   UNL A   1      31.538  30.339  26.348  1.00  0.00     0.117 C 
ENDROOT
BRANCH   1   2
ATOM      2  N   UNL A   1      32.468  29.949  25.311  1.00  0.00    -0.356 N 
ATOM      3  C   UNL A   1      32.374  29.058  24.297  1.00  0.00     0.224 C 
ATOM      4  O   UNL A   1      33.378  28.949  23.581  1.00  0.00    -0.275 OA
ATOM      5  H   UNL A   1      33.331  30.420  25.350  1.00  0.00     0.163 HD
BRANCH   3   6
ATOM      6  C   UNL A   1      31.151  28.190  23.998  1.00  0.00     0.094 C 
ATOM      7  N   UNL A   1      31.417  25.765  24.554  1.00  0.00    -0.188 NA
ATOM      8  C   UNL A   1      31.125  25.323  23.185  1.00  0.00     0.103 C 
ATOM      9  C   UNL A   1      30.883  27.068  24.989  1.00  0.00     0.117 C 
ATOM     10  C   UNL A   1      31.462  26.410  22.170  1.00  0.00     0.018 C 
ATOM     11  C   UNL A   1      30.940  27.791  22.540  1.00  0.00     0.016 C 
BRANCH   7  12
ATOM     12  S   UNL A   1      31.796  24.612  25.708  1.00  0.00     0.282 S 
ATOM     13  O   UNL A   1      31.686  23.304  25.114  1.00  0.00    -0.195 OA
ATOM     14  O   UNL A   1      31.068  24.945  26.914  1.00  0.00    -0.195 OA
BRANCH  12  15
ATOM     15  N   UNL A   1      33.431  24.917  26.026  1.00  0.00    -0.188 NA
ATOM     16  C   UNL A   1      35.247  23.396  25.489  1.00  0.00     0.116 C 
ATOM     17  C   UNL A   1      34.925  24.280  24.297  1.00  0.00     0.033 C 
ATOM     18  C   UNL A   1      34.153  23.687  26.513  1.00  0.00     0.118 C 
ATOM     19  C   UNL A   1      34.269  25.474  24.946  1.00  0.00     0.104 C 
BRANCH  16  20
ATOM     20  C   UNL A   1      35.254  21.942  25.098  1.00  0.00     0.310 C 
ATOM     21  O   UNL A   1      34.425  21.403  24.380  1.00  0.00    -0.252 OA
BRANCH  20  22
ATOM     22  O   UNL A   1      36.335  21.315  25.641  1.00  0.00    -0.469 OA
ATOM     23  C   UNL A   1      37.578  21.936  25.307  1.00  0.00     0.282 C 
ENDBRANCH  20  22
ENDBRANCH  16  20
ENDBRANCH  12  15
ENDBRANCH   7  12
ENDBRANCH   3   6
ENDBRANCH   1   2
BRANCH   1  24
ATOM     24  C   UNL A   1      31.479  31.845  26.519  1.00  0.00     0.042 C 
BRANCH  24  25
ATOM     25  C   UNL A   1      32.710  32.402  27.203  1.00  0.00     0.118 C 
BRANCH  25  26
ATOM     26  N   UNL A   1      32.518  33.777  27.649  1.00  0.00    -0.352 N 
ATOM     27  C   UNL A   1      33.209  34.513  28.579  1.00  0.00     0.251 C 
ATOM     28  H   UNL A   1      31.773  34.253  27.215  1.00  0.00     0.163 HD
ATOM     29  O   UNL A   1      32.765  35.591  28.963  1.00  0.00    -0.269 OA
BRANCH  27  30
ATOM     30  C   UNL A   1      34.479  34.003  29.132  1.00  0.00     0.039 A 
ATOM     31  C   UNL A   1      34.451  33.220  30.290  1.00  0.00     0.014 A 
ATOM     32  C   UNL A   1      35.698  34.299  28.520  1.00  0.00     0.014 A 
ATOM     33  C   UNL A   1      35.639  32.688  30.791  1.00  0.00     0.010 A 
ATOM     34  C   UNL A   1      36.857  33.668  28.945  1.00  0.00     0.010 A 
ATOM     35  C   UNL A   1      36.846  32.877  30.100  1.00  0.00    -0.014 A 
BRANCH  35  36
ATOM     36  C   UNL A   1      38.118  32.289  30.586  1.00  0.00     0.031 A 
ATOM     37  C   UNL A   1      38.625  31.004  29.986  1.00  0.00     0.074 A 
ATOM     38  C   UNL A   1      38.780  32.875  31.602  1.00  0.00     0.049 A 
ATOM     39  N   UNL A   1      39.676  30.298  30.315  1.00  0.00    -0.248 NA
ATOM     40  C   UNL A   1      37.829  30.415  28.894  1.00  0.00     0.031 C 
ATOM     41  C   UNL A   1      38.365  34.097  32.296  1.00  0.00     0.029 A 
ATOM     42  N   UNL A   1      39.945  32.517  32.231  1.00  0.00    -0.354 N 
ATOM     43  C   UNL A   1      39.651  29.180  29.490  1.00  0.00     0.074 A 
ATOM     44  C   UNL A   1      38.453  29.266  28.689  1.00  0.00     0.031 C 
ATOM     45  C   UNL A   1      39.281  34.407  33.228  1.00  0.00     0.029 A 
ATOM     46  C   UNL A   1      40.318  33.382  33.232  1.00  0.00     0.049 A 
ATOM     47  H   UNL A   1      40.466  31.717  31.989  1.00  0.00     0.167 HD
ATOM     48  C   UNL A   1      40.561  28.182  29.388  1.00  0.00     0.031 A 
ATOM     49  C   UNL A   1      41.375  33.346  34.066  1.00  0.00     0.031 A 
ATOM     50  C   UNL A   1      41.764  28.112  30.171  1.00  0.00     0.049 A 
ATOM     51  C   UNL A   1      42.362  32.219  33.940  1.00  0.00     0.074 A 
ATOM     52  C   UNL A   1      42.781  27.178  30.103  1.00  0.00     0.029 A 
ATOM     53  N   UNL A   1      42.108  29.013  31.167  1.00  0.00    -0.354 N 
ATOM     54  N   UNL A   1      42.364  31.211  33.101  1.00  0.00    -0.248 NA
ATOM     55  C   UNL A   1      43.501  32.233  34.869  1.00  0.00     0.031 C 
ATOM     56  C   UNL A   1      43.712  27.478  31.102  1.00  0.00     0.029 A 
ATOM     57  C   UNL A   1      43.310  28.638  31.742  1.00  0.00     0.049 A 
ATOM     58  H   UNL A   1      41.577  29.800  31.427  1.00  0.00     0.167 HD
ATOM     59  C   UNL A   1      43.518  30.489  33.379  1.00  0.00     0.074 A 
ATOM     60  C   UNL A   1      44.201  31.187  34.449  1.00  0.00     0.031 C 
ATOM     61  C   UNL A   1      43.974  29.351  32.803  1.00  0.00     0.031 A 
BRANCH  48  62
ATOM     62  C   UNL A   1      40.288  27.085  28.396  1.00  0.00    -0.014 A 
ATOM     63  C   UNL A   1      40.810  27.131  27.093  1.00  0.00     0.009 A 
ATOM     64  C   UNL A   1      39.538  25.965  28.785  1.00  0.00     0.009 A 
ATOM     65  C   UNL A   1      40.559  26.094  26.192  1.00  0.00     0.001 A 
ATOM     66  C   UNL A   1      39.316  24.914  27.893  1.00  0.00     0.001 A 
ATOM     67  C   UNL A   1      39.819  24.984  26.595  1.00  0.00     0.000 A 
ENDBRANCH  48  62
BRANCH  49  68
ATOM     68  C   UNL A   1      41.560  34.407  35.092  1.00  0.00    -0.014 A 
ATOM     69  C   UNL A   1      40.992  34.277  36.369  1.00  0.00     0.009 A 
ATOM     70  C   UNL A   1      42.284  35.572  34.792  1.00  0.00     0.009 A 
ATOM     71  C   UNL A   1      41.111  35.305  37.307  1.00  0.00     0.001 A 
ATOM     72  C   UNL A   1      42.432  36.584  35.744  1.00  0.00     0.001 A 
ATOM     73  C   UNL A   1      41.833  36.456  36.995  1.00  0.00     0.000 A 
ENDBRANCH  49  68
BRANCH  61  74
ATOM     74  C   UNL A   1      45.293  28.814  33.285  1.00  0.00    -0.014 A 
ATOM     75  C   UNL A   1      45.365  27.873  34.324  1.00  0.00     0.009 A 
ATOM     76  C   UNL A   1      46.478  29.227  32.657  1.00  0.00     0.009 A 
ATOM     77  C   UNL A   1      46.603  27.387  34.749  1.00  0.00     0.001 A 
ATOM     78  C   UNL A   1      47.710  28.712  33.059  1.00  0.00     0.001 A 
ATOM     79  C   UNL A   1      47.773  27.801  34.111  1.00  0.00     0.000 A 
ENDBRANCH  61  74
ENDBRANCH  35  36
ENDBRANCH  27  30
ENDBRANCH  25  26
ENDBRANCH  24  25
ENDBRANCH   1  24
TORSDOF 14
ENDMDL
