MODEL 1
REMARK VINA RESULT:     -11.2      0.000      0.000
REMARK SMILES C=Cc1cc(Cl)cc2c1O[C@H](C(F)(F)F)C(C(=O)NCCCNC(=O)c1ccc(-c3c4nc(c(-c5ccccc5)c5ccc([nH]5)c(-c5ccccc5)c5nc(c(-c6ccccc6)c6ccc3[nH]6)C=C5)C=C4)cc1)=C2
REMARK SMILES IDX 21 1 20 2 19 3 17 4 18 5 16 7 3 8 4 9 9 10 5 11 8 12 10 13
REMARK SMILES IDX 6 14 7 15 74 16 11 17 2 18 1 19 12 20 13 21 14 22 15 23
REMARK SMILES IDX 22 24 23 25 24 26 25 28 26 29 27 30 73 31 28 32 72 33 29 34
REMARK SMILES IDX 30 35 31 36 66 37 32 38 71 39 65 40 67 41 33 42 70 43 64 44
REMARK SMILES IDX 63 45 34 47 56 48 41 49 55 50 42 51 45 52 54 53 68 54 43 55
REMARK SMILES IDX 44 56 53 58 69 59 46 60 35 61 36 62 40 63 37 64 39 65 38 66
REMARK SMILES IDX 57 67 58 68 62 69 59 70 61 71 60 72 47 73 48 74 52 75 49 76
REMARK SMILES IDX 51 77 50 78
REMARK H PARENT 19 6 23 27 67 46 45 57
REMARK Flexibility Score: inf
ROOT
ATOM      1  C   UNL A   1      36.849  23.018  23.560  1.00  0.00     0.042 C 
ENDROOT
BRANCH   1   2
ATOM      2  C   UNL A   1      35.337  23.055  23.401  1.00  0.00     0.118 C 
BRANCH   2   3
ATOM      3  N   UNL A   1      34.656  22.713  24.640  1.00  0.00    -0.352 N 
ATOM      4  C   UNL A   1      33.788  23.300  25.496  1.00  0.00     0.251 C 
ATOM      5  O   UNL A   1      33.483  22.618  26.479  1.00  0.00    -0.270 OA
ATOM      6  H   UNL A   1      34.891  21.804  24.939  1.00  0.00     0.163 HD
BRANCH   4   7
ATOM      7  C   UNL A   1      33.204  24.662  25.332  1.00  0.00     0.067 C 
ATOM      8  C   UNL A   1      31.814  28.592  24.735  1.00  0.00     0.018 A 
ATOM      9  C   UNL A   1      32.392  29.632  25.475  1.00  0.00     0.032 A 
ATOM     10  C   UNL A   1      32.319  27.291  24.893  1.00  0.00     0.135 A 
ATOM     11  C   UNL A   1      33.467  29.374  26.326  1.00  0.00     0.042 A 
ATOM     12  C   UNL A   1      33.402  27.034  25.743  1.00  0.00     0.019 A 
ATOM     13  O   UNL A   1      31.757  26.289  24.142  1.00  0.00    -0.475 OA
ATOM     14  Cl  UNL A   1      34.168  30.665  27.224  1.00  0.00    -0.084 Cl
ATOM     15  C   UNL A   1      33.979  28.084  26.459  1.00  0.00     0.032 A 
ATOM     16  C   UNL A   1      33.928  25.677  25.843  1.00  0.00     0.025 C 
ATOM     17  C   UNL A   1      31.885  24.945  24.676  1.00  0.00     0.314 C 
BRANCH   8  18
ATOM     18  C   UNL A   1      30.655  28.839  23.864  1.00  0.00     0.004 C 
ATOM     19  C   UNL A   1      30.751  29.226  22.587  1.00  0.00     0.009 C 
ENDBRANCH   8  18
BRANCH  17  20
ATOM     20  C   UNL A   1      30.682  24.637  25.588  1.00  0.00     0.429 C 
ATOM     21  F   UNL A   1      31.017  24.835  26.889  1.00  0.00    -0.167 F 
ATOM     22  F   UNL A   1      29.621  25.440  25.338  1.00  0.00    -0.167 F 
ATOM     23  F   UNL A   1      30.247  23.364  25.471  1.00  0.00    -0.167 F 
ENDBRANCH  17  20
ENDBRANCH   4   7
ENDBRANCH   2   3
ENDBRANCH   1   2
BRANCH   1  24
ATOM     24  C   UNL A   1      37.289  23.397  24.968  1.00  0.00     0.118 C 
BRANCH  24  25
ATOM     25  N   UNL A   1      38.397  22.568  25.442  1.00  0.00    -0.352 N 
ATOM     26  C   UNL A   1      39.518  22.905  26.164  1.00  0.00     0.251 C 
ATOM     27  H   UNL A   1      38.330  21.615  25.205  1.00  0.00     0.163 HD
ATOM     28  O   UNL A   1      40.445  22.108  26.268  1.00  0.00    -0.269 OA
BRANCH  26  29
ATOM     29  C   UNL A   1      39.614  24.237  26.793  1.00  0.00     0.039 A 
ATOM     30  C   UNL A   1      40.247  25.283  26.123  1.00  0.00     0.014 A 
ATOM     31  C   UNL A   1      39.083  24.440  28.070  1.00  0.00     0.014 A 
ATOM     32  C   UNL A   1      40.542  26.452  26.806  1.00  0.00     0.010 A 
ATOM     33  C   UNL A   1      39.283  25.664  28.715  1.00  0.00     0.010 A 
ATOM     34  C   UNL A   1      40.069  26.658  28.112  1.00  0.00    -0.014 A 
BRANCH  34  35
ATOM     35  C   UNL A   1      40.427  27.916  28.817  1.00  0.00     0.031 A 
ATOM     36  C   UNL A   1      39.425  29.030  28.961  1.00  0.00     0.074 A 
ATOM     37  C   UNL A   1      41.633  28.011  29.412  1.00  0.00     0.049 A 
ATOM     38  N   UNL A   1      39.553  30.172  29.589  1.00  0.00    -0.248 NA
ATOM     39  C   UNL A   1      38.113  28.847  28.320  1.00  0.00     0.031 C 
ATOM     40  C   UNL A   1      42.674  26.982  29.369  1.00  0.00     0.029 A 
ATOM     41  N   UNL A   1      42.168  28.993  30.207  1.00  0.00    -0.354 N 
ATOM     42  C   UNL A   1      38.354  30.848  29.400  1.00  0.00     0.074 A 
ATOM     43  C   UNL A   1      37.517  30.004  28.578  1.00  0.00     0.031 C 
ATOM     44  C   UNL A   1      43.684  27.348  30.171  1.00  0.00     0.029 A 
ATOM     45  C   UNL A   1      43.401  28.670  30.718  1.00  0.00     0.049 A 
ATOM     46  H   UNL A   1      41.713  29.845  30.392  1.00  0.00     0.167 HD
ATOM     47  C   UNL A   1      37.983  32.060  29.875  1.00  0.00     0.031 A 
ATOM     48  C   UNL A   1      44.224  29.360  31.530  1.00  0.00     0.031 A 
ATOM     49  C   UNL A   1      38.811  32.891  30.709  1.00  0.00     0.049 A 
ATOM     50  C   UNL A   1      43.807  30.720  32.005  1.00  0.00     0.074 A 
ATOM     51  C   UNL A   1      38.517  34.132  31.246  1.00  0.00     0.029 A 
ATOM     52  N   UNL A   1      40.089  32.562  31.133  1.00  0.00    -0.354 N 
ATOM     53  N   UNL A   1      42.676  31.350  31.799  1.00  0.00    -0.248 NA
ATOM     54  C   UNL A   1      44.779  31.468  32.813  1.00  0.00     0.031 C 
ATOM     55  C   UNL A   1      39.638  34.578  31.950  1.00  0.00     0.029 A 
ATOM     56  C   UNL A   1      40.606  33.588  31.905  1.00  0.00     0.049 A 
ATOM     57  H   UNL A   1      40.560  31.724  30.916  1.00  0.00     0.167 HD
ATOM     58  C   UNL A   1      42.799  32.568  32.453  1.00  0.00     0.074 A 
ATOM     59  C   UNL A   1      44.103  32.577  33.084  1.00  0.00     0.031 C 
ATOM     60  C   UNL A   1      41.909  33.588  32.519  1.00  0.00     0.031 A 
BRANCH  47  61
ATOM     61  C   UNL A   1      36.624  32.583  29.499  1.00  0.00    -0.014 A 
ATOM     62  C   UNL A   1      36.468  33.325  28.317  1.00  0.00     0.009 A 
ATOM     63  C   UNL A   1      35.520  32.421  30.349  1.00  0.00     0.009 A 
ATOM     64  C   UNL A   1      35.239  33.906  27.999  1.00  0.00     0.001 A 
ATOM     65  C   UNL A   1      34.284  32.982  30.016  1.00  0.00     0.001 A 
ATOM     66  C   UNL A   1      34.147  33.730  28.847  1.00  0.00     0.000 A 
ENDBRANCH  47  61
BRANCH  48  67
ATOM     67  C   UNL A   1      45.523  28.758  31.932  1.00  0.00    -0.014 A 
ATOM     68  C   UNL A   1      45.633  28.042  33.135  1.00  0.00     0.009 A 
ATOM     69  C   UNL A   1      46.671  28.954  31.152  1.00  0.00     0.009 A 
ATOM     70  C   UNL A   1      46.872  27.564  33.566  1.00  0.00     0.001 A 
ATOM     71  C   UNL A   1      47.905  28.448  31.570  1.00  0.00     0.001 A 
ATOM     72  C   UNL A   1      48.006  27.765  32.782  1.00  0.00     0.000 A 
ENDBRANCH  48  67
BRANCH  60  73
ATOM     73  C   UNL A   1      42.302  34.808  33.300  1.00  0.00    -0.014 A 
ATOM     74  C   UNL A   1      41.777  35.011  34.586  1.00  0.00     0.009 A 
ATOM     75  C   UNL A   1      43.109  35.801  32.725  1.00  0.00     0.009 A 
ATOM     76  C   UNL A   1      42.041  36.193  35.278  1.00  0.00     0.001 A 
ATOM     77  C   UNL A   1      43.392  36.972  33.431  1.00  0.00     0.001 A 
ATOM     78  C   UNL A   1      42.851  37.171  34.701  1.00  0.00     0.000 A 
ENDBRANCH  60  73
ENDBRANCH  34  35
ENDBRANCH  26  29
ENDBRANCH  24  25
ENDBRANCH   1  24
TORSDOF 12
ENDMDL
MODEL 2
REMARK VINA RESULT:     -11.2      5.378     10.043
REMARK SMILES C=Cc1cc(Cl)cc2c1O[C@H](C(F)(F)F)C(C(=O)NCCCNC(=O)c1ccc(-c3c4nc(c(-c5ccccc5)c5ccc([nH]5)c(-c5ccccc5)c5nc(c(-c6ccccc6)c6ccc3[nH]6)C=C5)C=C4)cc1)=C2
REMARK SMILES IDX 21 1 20 2 19 3 17 4 18 5 16 7 3 8 4 9 9 10 5 11 8 12 10 13
REMARK SMILES IDX 6 14 7 15 74 16 11 17 2 18 1 19 12 20 13 21 14 22 15 23
REMARK SMILES IDX 22 24 23 25 24 26 25 28 26 29 27 30 73 31 28 32 72 33 29 34
REMARK SMILES IDX 30 35 31 36 66 37 32 38 71 39 65 40 67 41 33 42 70 43 64 44
REMARK SMILES IDX 63 45 34 47 56 48 41 49 55 50 42 51 45 52 54 53 68 54 43 55
REMARK SMILES IDX 44 56 53 58 69 59 46 60 35 61 36 62 40 63 37 64 39 65 38 66
REMARK SMILES IDX 57 67 58 68 62 69 59 70 61 71 60 72 47 73 48 74 52 75 49 76
REMARK SMILES IDX 51 77 50 78
REMARK H PARENT 19 6 23 27 67 46 45 57
REMARK Flexibility Score: inf
ROOT
ATOM      1  C   UNL A   1      45.300  20.689  25.869  1.00  0.00     0.042 C 
ENDROOT
BRANCH   1   2
ATOM      2  C   UNL A   1      45.656  22.156  26.059  1.00  0.00     0.118 C 
BRANCH   2   3
ATOM      3  N   UNL A   1      46.396  22.683  24.922  1.00  0.00    -0.352 N 
ATOM      4  C   UNL A   1      46.717  23.896  24.417  1.00  0.00     0.251 C 
ATOM      5  O   UNL A   1      47.370  23.868  23.370  1.00  0.00    -0.270 OA
ATOM      6  H   UNL A   1      46.766  21.957  24.369  1.00  0.00     0.163 HD
BRANCH   4   7
ATOM      7  C   UNL A   1      46.344  25.207  25.021  1.00  0.00     0.067 C 
ATOM      8  C   UNL A   1      45.124  28.758  26.928  1.00  0.00     0.018 A 
ATOM      9  C   UNL A   1      43.789  29.164  26.809  1.00  0.00     0.032 A 
ATOM     10  C   UNL A   1      45.515  27.543  26.341  1.00  0.00     0.135 A 
ATOM     11  C   UNL A   1      42.867  28.355  26.143  1.00  0.00     0.042 A 
ATOM     12  C   UNL A   1      44.588  26.730  25.677  1.00  0.00     0.019 A 
ATOM     13  O   UNL A   1      46.822  27.150  26.489  1.00  0.00    -0.475 OA
ATOM     14  Cl  UNL A   1      41.228  28.867  26.009  1.00  0.00    -0.084 Cl
ATOM     15  C   UNL A   1      43.256  27.139  25.583  1.00  0.00     0.032 A 
ATOM     16  C   UNL A   1      45.024  25.453  25.122  1.00  0.00     0.025 C 
ATOM     17  C   UNL A   1      47.331  26.240  25.479  1.00  0.00     0.314 C 
BRANCH   8  18
ATOM     18  C   UNL A   1      46.117  29.616  27.592  1.00  0.00     0.004 C 
ATOM     19  C   UNL A   1      46.448  30.841  27.165  1.00  0.00     0.009 C 
ENDBRANCH   8  18
BRANCH  17  20
ATOM     20  C   UNL A   1      47.936  27.050  24.315  1.00  0.00     0.429 C 
ATOM     21  F   UNL A   1      46.969  27.769  23.691  1.00  0.00    -0.167 F 
ATOM     22  F   UNL A   1      48.868  27.939  24.731  1.00  0.00    -0.167 F 
ATOM     23  F   UNL A   1      48.525  26.269  23.384  1.00  0.00    -0.167 F 
ENDBRANCH  17  20
ENDBRANCH   4   7
ENDBRANCH   2   3
ENDBRANCH   1   2
BRANCH   1  24
ATOM     24  C   UNL A   1      44.526  20.448  24.579  1.00  0.00     0.118 C 
BRANCH  24  25
ATOM     25  N   UNL A   1      43.289  19.701  24.809  1.00  0.00    -0.352 N 
ATOM     26  C   UNL A   1      42.266  19.924  25.700  1.00  0.00     0.251 C 
ATOM     27  H   UNL A   1      43.170  18.912  24.233  1.00  0.00     0.163 HD
ATOM     28  O   UNL A   1      41.422  19.055  25.897  1.00  0.00    -0.269 OA
BRANCH  26  29
ATOM     29  C   UNL A   1      42.199  21.200  26.439  1.00  0.00     0.039 A 
ATOM     30  C   UNL A   1      42.116  22.407  25.746  1.00  0.00     0.014 A 
ATOM     31  C   UNL A   1      42.235  21.194  27.837  1.00  0.00     0.014 A 
ATOM     32  C   UNL A   1      42.291  23.600  26.429  1.00  0.00     0.010 A 
ATOM     33  C   UNL A   1      42.296  22.405  28.532  1.00  0.00     0.010 A 
ATOM     34  C   UNL A   1      42.388  23.616  27.830  1.00  0.00    -0.014 A 
BRANCH  34  35
ATOM     35  C   UNL A   1      42.599  24.915  28.521  1.00  0.00     0.031 A 
ATOM     36  C   UNL A   1      43.972  25.331  28.975  1.00  0.00     0.074 A 
ATOM     37  C   UNL A   1      41.559  25.762  28.653  1.00  0.00     0.049 A 
ATOM     38  N   UNL A   1      44.343  26.450  29.546  1.00  0.00    -0.248 NA
ATOM     39  C   UNL A   1      45.073  24.376  28.766  1.00  0.00     0.031 C 
ATOM     40  C   UNL A   1      40.187  25.481  28.222  1.00  0.00     0.029 A 
ATOM     41  N   UNL A   1      41.498  27.043  29.139  1.00  0.00    -0.354 N 
ATOM     42  C   UNL A   1      45.706  26.323  29.783  1.00  0.00     0.074 A 
ATOM     43  C   UNL A   1      46.097  25.011  29.320  1.00  0.00     0.031 C 
ATOM     44  C   UNL A   1      39.443  26.584  28.383  1.00  0.00     0.029 A 
ATOM     45  C   UNL A   1      40.259  27.620  29.005  1.00  0.00     0.049 A 
ATOM     46  H   UNL A   1      42.268  27.503  29.545  1.00  0.00     0.167 HD
ATOM     47  C   UNL A   1      46.556  27.224  30.332  1.00  0.00     0.031 A 
ATOM     48  C   UNL A   1      39.819  28.844  29.350  1.00  0.00     0.031 A 
ATOM     49  C   UNL A   1      46.168  28.537  30.775  1.00  0.00     0.049 A 
ATOM     50  C   UNL A   1      40.770  29.806  29.998  1.00  0.00     0.074 A 
ATOM     51  C   UNL A   1      46.961  29.522  31.336  1.00  0.00     0.029 A 
ATOM     52  N   UNL A   1      44.883  29.050  30.699  1.00  0.00    -0.354 N 
ATOM     53  N   UNL A   1      42.052  29.660  30.232  1.00  0.00    -0.248 NA
ATOM     54  C   UNL A   1      40.217  31.094  30.439  1.00  0.00     0.031 C 
ATOM     55  C   UNL A   1      46.146  30.612  31.650  1.00  0.00     0.029 A 
ATOM     56  C   UNL A   1      44.858  30.330  31.226  1.00  0.00     0.049 A 
ATOM     57  H   UNL A   1      44.105  28.575  30.326  1.00  0.00     0.167 HD
ATOM     58  C   UNL A   1      42.460  30.837  30.844  1.00  0.00     0.074 A 
ATOM     59  C   UNL A   1      41.296  31.696  30.922  1.00  0.00     0.031 C 
ATOM     60  C   UNL A   1      43.690  31.170  31.305  1.00  0.00     0.031 A 
BRANCH  47  61
ATOM     61  C   UNL A   1      47.996  26.825  30.504  1.00  0.00    -0.014 A 
ATOM     62  C   UNL A   1      48.906  27.042  29.457  1.00  0.00     0.009 A 
ATOM     63  C   UNL A   1      48.434  26.156  31.657  1.00  0.00     0.009 A 
ATOM     64  C   UNL A   1      50.223  26.588  29.555  1.00  0.00     0.001 A 
ATOM     65  C   UNL A   1      49.759  25.726  31.763  1.00  0.00     0.001 A 
ATOM     66  C   UNL A   1      50.649  25.933  30.710  1.00  0.00     0.000 A 
ENDBRANCH  47  61
BRANCH  48  67
ATOM     67  C   UNL A   1      38.403  29.210  29.084  1.00  0.00    -0.014 A 
ATOM     68  C   UNL A   1      38.007  29.644  27.808  1.00  0.00     0.009 A 
ATOM     69  C   UNL A   1      37.455  29.193  30.118  1.00  0.00     0.009 A 
ATOM     70  C   UNL A   1      36.704  30.086  27.580  1.00  0.00     0.001 A 
ATOM     71  C   UNL A   1      36.142  29.607  29.879  1.00  0.00     0.001 A 
ATOM     72  C   UNL A   1      35.771  30.064  28.615  1.00  0.00     0.000 A 
ENDBRANCH  48  67
BRANCH  60  73
ATOM     73  C   UNL A   1      43.856  32.522  31.936  1.00  0.00    -0.014 A 
ATOM     74  C   UNL A   1      43.628  32.681  33.312  1.00  0.00     0.009 A 
ATOM     75  C   UNL A   1      44.137  33.651  31.154  1.00  0.00     0.009 A 
ATOM     76  C   UNL A   1      43.664  33.950  33.891  1.00  0.00     0.001 A 
ATOM     77  C   UNL A   1      44.198  34.917  31.742  1.00  0.00     0.001 A 
ATOM     78  C   UNL A   1      43.952  35.066  33.106  1.00  0.00     0.000 A 
ENDBRANCH  60  73
ENDBRANCH  34  35
ENDBRANCH  26  29
ENDBRANCH  24  25
ENDBRANCH   1  24
TORSDOF 12
ENDMDL
MODEL 3
REMARK VINA RESULT:     -11.2      2.865      7.850
REMARK SMILES C=Cc1cc(Cl)cc2c1O[C@H](C(F)(F)F)C(C(=O)NCCCNC(=O)c1ccc(-c3c4nc(c(-c5ccccc5)c5ccc([nH]5)c(-c5ccccc5)c5nc(c(-c6ccccc6)c6ccc3[nH]6)C=C5)C=C4)cc1)=C2
REMARK SMILES IDX 21 1 20 2 19 3 17 4 18 5 16 7 3 8 4 9 9 10 5 11 8 12 10 13
REMARK SMILES IDX 6 14 7 15 74 16 11 17 2 18 1 19 12 20 13 21 14 22 15 23
REMARK SMILES IDX 22 24 23 25 24 26 25 28 26 29 27 30 73 31 28 32 72 33 29 34
REMARK SMILES IDX 30 35 31 36 66 37 32 38 71 39 65 40 67 41 33 42 70 43 64 44
REMARK SMILES IDX 63 45 34 47 56 48 41 49 55 50 42 51 45 52 54 53 68 54 43 55
REMARK SMILES IDX 44 56 53 58 69 59 46 60 35 61 36 62 40 63 37 64 39 65 38 66
REMARK SMILES IDX 57 67 58 68 62 69 59 70 61 71 60 72 47 73 48 74 52 75 49 76
REMARK SMILES IDX 51 77 50 78
REMARK H PARENT 19 6 23 27 67 46 45 57
REMARK Flexibility Score: inf
ROOT
ATOM      1  C   UNL A   1      32.036  28.209  27.631  1.00  0.00     0.042 C 
ENDROOT
BRANCH   1   2
ATOM      2  C   UNL A   1      31.424  27.466  26.453  1.00  0.00     0.118 C 
BRANCH   2   3
ATOM      3  N   UNL A   1      32.180  27.681  25.228  1.00  0.00    -0.352 N 
ATOM      4  C   UNL A   1      32.996  26.965  24.422  1.00  0.00     0.251 C 
ATOM      5  O   UNL A   1      33.457  27.588  23.460  1.00  0.00    -0.270 OA
ATOM      6  H   UNL A   1      32.067  28.601  24.895  1.00  0.00     0.163 HD
BRANCH   4   7
ATOM      7  C   UNL A   1      33.359  25.532  24.616  1.00  0.00     0.067 C 
ATOM      8  C   UNL A   1      34.464  21.554  25.447  1.00  0.00     0.018 A 
ATOM      9  C   UNL A   1      35.821  21.253  25.621  1.00  0.00     0.032 A 
ATOM     10  C   UNL A   1      34.092  22.891  25.229  1.00  0.00     0.135 A 
ATOM     11  C   UNL A   1      36.773  22.272  25.606  1.00  0.00     0.042 A 
ATOM     12  C   UNL A   1      35.048  23.915  25.218  1.00  0.00     0.019 A 
ATOM     13  O   UNL A   1      32.757  23.171  25.084  1.00  0.00    -0.475 OA
ATOM     14  Cl  UNL A   1      38.436  21.885  25.825  1.00  0.00    -0.084 Cl
ATOM     15  C   UNL A   1      36.395  23.600  25.412  1.00  0.00     0.032 A 
ATOM     16  C   UNL A   1      34.617  25.296  25.035  1.00  0.00     0.025 C 
ATOM     17  C   UNL A   1      32.435  24.380  24.349  1.00  0.00     0.314 C 
BRANCH   8  18
ATOM     18  C   UNL A   1      33.451  20.488  25.421  1.00  0.00     0.004 C 
ATOM     19  C   UNL A   1      33.606  19.328  24.771  1.00  0.00     0.009 C 
ENDBRANCH   8  18
BRANCH  17  20
ATOM     20  C   UNL A   1      32.304  24.051  22.850  1.00  0.00     0.429 C 
ATOM     21  F   UNL A   1      31.523  24.974  22.233  1.00  0.00    -0.167 F 
ATOM     22  F   UNL A   1      33.496  24.065  22.208  1.00  0.00    -0.167 F 
ATOM     23  F   UNL A   1      31.751  22.839  22.625  1.00  0.00    -0.167 F 
ENDBRANCH  17  20
ENDBRANCH   4   7
ENDBRANCH   2   3
ENDBRANCH   1   2
BRANCH   1  24
ATOM     24  C   UNL A   1      33.415  28.767  27.305  1.00  0.00     0.118 C 
BRANCH  24  25
ATOM     25  N   UNL A   1      33.551  30.169  27.702  1.00  0.00    -0.352 N 
ATOM     26  C   UNL A   1      34.585  30.822  28.329  1.00  0.00     0.251 C 
ATOM     27  H   UNL A   1      32.775  30.735  27.485  1.00  0.00     0.163 HD
ATOM     28  O   UNL A   1      34.416  31.951  28.780  1.00  0.00    -0.269 OA
BRANCH  26  29
ATOM     29  C   UNL A   1      35.893  30.154  28.480  1.00  0.00     0.039 A 
ATOM     30  C   UNL A   1      36.228  29.538  29.684  1.00  0.00     0.014 A 
ATOM     31  C   UNL A   1      36.800  30.157  27.416  1.00  0.00     0.014 A 
ATOM     32  C   UNL A   1      37.534  29.124  29.900  1.00  0.00     0.010 A 
ATOM     33  C   UNL A   1      38.083  29.634  27.600  1.00  0.00     0.010 A 
ATOM     34  C   UNL A   1      38.480  29.170  28.863  1.00  0.00    -0.014 A 
BRANCH  34  35
ATOM     35  C   UNL A   1      39.874  28.739  29.142  1.00  0.00     0.031 A 
ATOM     36  C   UNL A   1      40.365  27.386  28.701  1.00  0.00     0.074 A 
ATOM     37  C   UNL A   1      40.727  29.612  29.714  1.00  0.00     0.049 A 
ATOM     38  N   UNL A   1      41.563  26.870  28.816  1.00  0.00    -0.248 NA
ATOM     39  C   UNL A   1      39.393  26.494  28.048  1.00  0.00     0.031 C 
ATOM     40  C   UNL A   1      40.374  30.964  30.155  1.00  0.00     0.029 A 
ATOM     41  N   UNL A   1      42.070  29.517  29.977  1.00  0.00    -0.354 N 
ATOM     42  C   UNL A   1      41.482  25.593  28.274  1.00  0.00     0.074 A 
ATOM     43  C   UNL A   1      40.114  25.398  27.852  1.00  0.00     0.031 C 
ATOM     44  C   UNL A   1      41.486  31.599  30.553  1.00  0.00     0.029 A 
ATOM     45  C   UNL A   1      42.613  30.676  30.475  1.00  0.00     0.049 A 
ATOM     46  H   UNL A   1      42.593  28.697  29.824  1.00  0.00     0.167 HD
ATOM     47  C   UNL A   1      42.463  24.670  28.136  1.00  0.00     0.031 A 
ATOM     48  C   UNL A   1      43.875  30.969  30.840  1.00  0.00     0.031 A 
ATOM     49  C   UNL A   1      43.829  24.874  28.540  1.00  0.00     0.049 A 
ATOM     50  C   UNL A   1      44.932  29.913  30.718  1.00  0.00     0.074 A 
ATOM     51  C   UNL A   1      44.896  23.999  28.432  1.00  0.00     0.029 A 
ATOM     52  N   UNL A   1      44.318  26.034  29.120  1.00  0.00    -0.354 N 
ATOM     53  N   UNL A   1      44.832  28.704  30.221  1.00  0.00    -0.248 NA
ATOM     54  C   UNL A   1      46.273  30.254  31.215  1.00  0.00     0.031 C 
ATOM     55  C   UNL A   1      46.018  24.609  28.996  1.00  0.00     0.029 A 
ATOM     56  C   UNL A   1      45.666  25.887  29.397  1.00  0.00     0.049 A 
ATOM     57  H   UNL A   1      43.785  26.841  29.307  1.00  0.00     0.167 HD
ATOM     58  C   UNL A   1      46.094  28.140  30.343  1.00  0.00     0.074 A 
ATOM     59  C   UNL A   1      46.950  29.147  30.936  1.00  0.00     0.031 C 
ATOM     60  C   UNL A   1      46.503  26.895  29.997  1.00  0.00     0.031 A 
BRANCH  47  61
ATOM     61  C   UNL A   1      42.103  23.340  27.534  1.00  0.00    -0.014 A 
ATOM     62  C   UNL A   1      41.533  22.343  28.343  1.00  0.00     0.009 A 
ATOM     63  C   UNL A   1      42.407  23.038  26.198  1.00  0.00     0.009 A 
ATOM     64  C   UNL A   1      41.286  21.067  27.831  1.00  0.00     0.001 A 
ATOM     65  C   UNL A   1      42.134  21.768  25.681  1.00  0.00     0.001 A 
ATOM     66  C   UNL A   1      41.583  20.783  26.499  1.00  0.00     0.000 A 
ENDBRANCH  47  61
BRANCH  48  67
ATOM     67  C   UNL A   1      44.187  32.328  31.355  1.00  0.00    -0.014 A 
ATOM     68  C   UNL A   1      44.051  32.619  32.722  1.00  0.00     0.009 A 
ATOM     69  C   UNL A   1      44.556  33.356  30.476  1.00  0.00     0.009 A 
ATOM     70  C   UNL A   1      44.243  33.918  33.195  1.00  0.00     0.001 A 
ATOM     71  C   UNL A   1      44.779  34.650  30.957  1.00  0.00     0.001 A 
ATOM     72  C   UNL A   1      44.610  34.932  32.312  1.00  0.00     0.000 A 
ENDBRANCH  48  67
BRANCH  60  73
ATOM     73  C   UNL A   1      47.940  26.539  30.244  1.00  0.00    -0.014 A 
ATOM     74  C   UNL A   1      48.889  26.724  29.227  1.00  0.00     0.009 A 
ATOM     75  C   UNL A   1      48.333  25.927  31.444  1.00  0.00     0.009 A 
ATOM     76  C   UNL A   1      50.204  26.291  29.400  1.00  0.00     0.001 A 
ATOM     77  C   UNL A   1      49.657  25.519  31.624  1.00  0.00     0.001 A 
ATOM     78  C   UNL A   1      50.587  25.692  30.600  1.00  0.00     0.000 A 
ENDBRANCH  60  73
ENDBRANCH  34  35
ENDBRANCH  26  29
ENDBRANCH  24  25
ENDBRANCH   1  24
TORSDOF 12
ENDMDL
