MODEL 1
REMARK VINA RESULT:     -11.3      0.000      0.000
REMARK SMILES C[C@H]1[C@@H](C(=O)NCCCNC(=O)c2ccc(-c3c4nc(c(-c5ccccc5)c5ccc([nH]5)c(-c5ccccc5)c5nc(c(-c6ccccc6)c6ccc3[nH]6)C=C5)C=C4)cc2)CCN1C(=O)N1CCn2cnnc2C1
REMARK SMILES IDX 8 1 7 2 6 3 4 4 5 5 3 7 1 8 2 9 63 10 61 11 62 12 64 13
REMARK SMILES IDX 65 14 66 15 67 16 74 17 68 18 73 19 69 20 72 21 70 22 71 23
REMARK SMILES IDX 9 24 10 25 11 26 12 28 13 29 14 30 60 31 15 32 59 33 16 34
REMARK SMILES IDX 17 35 18 36 53 37 19 38 58 39 52 40 54 41 20 42 57 43 51 44
REMARK SMILES IDX 50 45 21 47 43 48 28 49 42 50 29 51 32 52 41 53 55 54 30 55
REMARK SMILES IDX 31 56 40 58 56 59 33 60 22 61 23 62 27 63 24 64 26 65 25 66
REMARK SMILES IDX 44 67 45 68 49 69 46 70 48 71 47 72 34 73 35 74 39 75 36 76
REMARK SMILES IDX 38 77 37 78
REMARK H PARENT 6 6 10 27 54 46 32 57
REMARK Flexibility Score: inf
ROOT
ATOM      1  C   UNL A   1      38.165  19.593  24.873  1.00  0.00     0.042 C 
ENDROOT
BRANCH   1   2
ATOM      2  C   UNL A   1      37.140  20.688  24.571  1.00  0.00     0.117 C 
BRANCH   2   3
ATOM      3  N   UNL A   1      36.140  20.705  25.618  1.00  0.00    -0.356 N 
ATOM      4  C   UNL A   1      35.047  21.482  25.820  1.00  0.00     0.225 C 
ATOM      5  O   UNL A   1      34.588  21.425  26.966  1.00  0.00    -0.275 OA
ATOM      6  H   UNL A   1      36.282  20.025  26.315  1.00  0.00     0.163 HD
BRANCH   4   7
ATOM      7  C   UNL A   1      34.317  22.236  24.691  1.00  0.00     0.102 C 
ATOM      8  C   UNL A   1      34.213  24.641  25.795  1.00  0.00     0.032 C 
ATOM      9  C   UNL A   1      33.581  23.584  24.916  1.00  0.00     0.096 C 
ATOM     10  N   UNL A   1      32.239  23.206  25.375  1.00  0.00    -0.321 N 
ATOM     11  C   UNL A   1      33.108  21.359  24.263  1.00  0.00     0.037 C 
ATOM     12  C   UNL A   1      32.031  21.779  25.260  1.00  0.00     0.122 C 
BRANCH  10  13
ATOM     13  C   UNL A   1      31.311  24.014  25.986  1.00  0.00     0.320 C 
ATOM     14  O   UNL A   1      31.206  24.089  27.208  1.00  0.00    -0.248 OA
BRANCH  13  15
ATOM     15  N   UNL A   1      30.500  24.750  25.132  1.00  0.00    -0.315 N 
ATOM     16  C   UNL A   1      30.598  24.498  23.687  1.00  0.00     0.144 C 
ATOM     17  C   UNL A   1      30.192  26.133  25.522  1.00  0.00     0.199 C 
ATOM     18  C   UNL A   1      31.190  25.673  22.887  1.00  0.00     0.146 C 
ATOM     19  C   UNL A   1      31.323  26.936  24.990  1.00  0.00     0.152 A 
ATOM     20  N   UNL A   1      31.825  26.633  23.754  1.00  0.00    -0.314 N 
ATOM     21  N   UNL A   1      32.123  27.796  25.578  1.00  0.00    -0.134 NA
ATOM     22  C   UNL A   1      33.026  27.244  23.666  1.00  0.00     0.226 A 
ATOM     23  N   UNL A   1      33.200  27.994  24.734  1.00  0.00    -0.139 NA
ENDBRANCH  13  15
ENDBRANCH  10  13
ENDBRANCH   4   7
ENDBRANCH   2   3
ENDBRANCH   1   2
BRANCH   1  24
ATOM     24  C   UNL A   1      39.119  19.929  26.008  1.00  0.00     0.118 C 
BRANCH  24  25
ATOM     25  N   UNL A   1      40.371  19.208  25.882  1.00  0.00    -0.352 N 
ATOM     26  C   UNL A   1      41.668  19.653  25.943  1.00  0.00     0.251 C 
ATOM     27  H   UNL A   1      40.274  18.240  25.729  1.00  0.00     0.163 HD
ATOM     28  O   UNL A   1      42.560  18.908  25.536  1.00  0.00    -0.269 OA
BRANCH  26  29
ATOM     29  C   UNL A   1      42.028  20.996  26.469  1.00  0.00     0.039 A 
ATOM     30  C   UNL A   1      42.005  21.192  27.856  1.00  0.00     0.014 A 
ATOM     31  C   UNL A   1      42.298  22.087  25.639  1.00  0.00     0.014 A 
ATOM     32  C   UNL A   1      42.265  22.455  28.398  1.00  0.00     0.010 A 
ATOM     33  C   UNL A   1      42.659  23.322  26.183  1.00  0.00     0.010 A 
ATOM     34  C   UNL A   1      42.612  23.531  27.568  1.00  0.00    -0.014 A 
BRANCH  34  35
ATOM     35  C   UNL A   1      42.869  24.885  28.132  1.00  0.00     0.031 A 
ATOM     36  C   UNL A   1      44.263  25.293  28.536  1.00  0.00     0.074 A 
ATOM     37  C   UNL A   1      41.847  25.747  28.306  1.00  0.00     0.049 A 
ATOM     38  N   UNL A   1      44.679  26.425  29.051  1.00  0.00    -0.248 NA
ATOM     39  C   UNL A   1      45.328  24.291  28.363  1.00  0.00     0.031 C 
ATOM     40  C   UNL A   1      40.443  25.470  28.000  1.00  0.00     0.029 A 
ATOM     41  N   UNL A   1      41.835  27.036  28.780  1.00  0.00    -0.354 N 
ATOM     42  C   UNL A   1      46.041  26.261  29.277  1.00  0.00     0.074 A 
ATOM     43  C   UNL A   1      46.372  24.905  28.899  1.00  0.00     0.031 C 
ATOM     44  C   UNL A   1      39.712  26.566  28.262  1.00  0.00     0.029 A 
ATOM     45  C   UNL A   1      40.588  27.609  28.785  1.00  0.00     0.049 A 
ATOM     46  H   UNL A   1      42.646  27.504  29.087  1.00  0.00     0.167 HD
ATOM     47  C   UNL A   1      46.946  27.161  29.734  1.00  0.00     0.031 A 
ATOM     48  C   UNL A   1      40.190  28.838  29.166  1.00  0.00     0.031 A 
ATOM     49  C   UNL A   1      46.627  28.515  30.097  1.00  0.00     0.049 A 
ATOM     50  C   UNL A   1      41.211  29.823  29.664  1.00  0.00     0.074 A 
ATOM     51  C   UNL A   1      47.482  29.520  30.521  1.00  0.00     0.029 A 
ATOM     52  N   UNL A   1      45.352  29.058  30.078  1.00  0.00    -0.354 N 
ATOM     53  N   UNL A   1      42.504  29.670  29.809  1.00  0.00    -0.248 NA
ATOM     54  C   UNL A   1      40.715  31.156  30.035  1.00  0.00     0.031 C 
ATOM     55  C   UNL A   1      46.716  30.655  30.803  1.00  0.00     0.029 A 
ATOM     56  C   UNL A   1      45.393  30.376  30.502  1.00  0.00     0.049 A 
ATOM     57  H   UNL A   1      44.538  28.576  29.805  1.00  0.00     0.167 HD
ATOM     58  C   UNL A   1      42.981  30.891  30.268  1.00  0.00     0.074 A 
ATOM     59  C   UNL A   1      41.840  31.780  30.355  1.00  0.00     0.031 C 
ATOM     60  C   UNL A   1      44.248  31.244  30.592  1.00  0.00     0.031 A 
BRANCH  47  61
ATOM     61  C   UNL A   1      48.372  26.700  29.867  1.00  0.00    -0.014 A 
ATOM     62  C   UNL A   1      48.825  26.061  31.034  1.00  0.00     0.009 A 
ATOM     63  C   UNL A   1      49.271  26.886  28.805  1.00  0.00     0.009 A 
ATOM     64  C   UNL A   1      50.157  25.657  31.150  1.00  0.00     0.001 A 
ATOM     65  C   UNL A   1      50.595  26.454  28.912  1.00  0.00     0.001 A 
ATOM     66  C   UNL A   1      51.039  25.850  30.087  1.00  0.00     0.000 A 
ENDBRANCH  47  61
BRANCH  48  67
ATOM     67  C   UNL A   1      38.755  29.215  29.071  1.00  0.00    -0.014 A 
ATOM     68  C   UNL A   1      37.908  29.088  30.183  1.00  0.00     0.009 A 
ATOM     69  C   UNL A   1      38.225  29.703  27.867  1.00  0.00     0.009 A 
ATOM     70  C   UNL A   1      36.556  29.422  30.084  1.00  0.00     0.001 A 
ATOM     71  C   UNL A   1      36.878  30.063  27.779  1.00  0.00     0.001 A 
ATOM     72  C   UNL A   1      36.043  29.913  28.885  1.00  0.00     0.000 A 
ENDBRANCH  48  67
BRANCH  60  73
ATOM     73  C   UNL A   1      44.469  32.660  31.046  1.00  0.00    -0.014 A 
ATOM     74  C   UNL A   1      44.717  33.690  30.123  1.00  0.00     0.009 A 
ATOM     75  C   UNL A   1      44.402  32.972  32.412  1.00  0.00     0.009 A 
ATOM     76  C   UNL A   1      44.933  34.996  30.566  1.00  0.00     0.001 A 
ATOM     77  C   UNL A   1      44.589  34.284  32.849  1.00  0.00     0.001 A 
ATOM     78  C   UNL A   1      44.866  35.292  31.927  1.00  0.00     0.000 A 
ENDBRANCH  60  73
ENDBRANCH  34  35
ENDBRANCH  26  29
ENDBRANCH  24  25
ENDBRANCH   1  24
TORSDOF 12
ENDMDL
MODEL 2
REMARK VINA RESULT:     -11.3      3.364      8.713
REMARK SMILES C[C@H]1[C@@H](C(=O)NCCCNC(=O)c2ccc(-c3c4nc(c(-c5ccccc5)c5ccc([nH]5)c(-c5ccccc5)c5nc(c(-c6ccccc6)c6ccc3[nH]6)C=C5)C=C4)cc2)CCN1C(=O)N1CCn2cnnc2C1
REMARK SMILES IDX 8 1 7 2 6 3 4 4 5 5 3 7 1 8 2 9 63 10 61 11 62 12 64 13
REMARK SMILES IDX 65 14 66 15 67 16 74 17 68 18 73 19 69 20 72 21 70 22 71 23
REMARK SMILES IDX 9 24 10 25 11 26 12 28 13 29 14 30 60 31 15 32 59 33 16 34
REMARK SMILES IDX 17 35 18 36 53 37 19 38 58 39 52 40 54 41 20 42 57 43 51 44
REMARK SMILES IDX 50 45 21 47 43 48 28 49 42 50 29 51 32 52 41 53 55 54 30 55
REMARK SMILES IDX 31 56 40 58 56 59 33 60 22 61 23 62 27 63 24 64 26 65 25 66
REMARK SMILES IDX 44 67 45 68 49 69 46 70 48 71 47 72 34 73 35 74 39 75 36 76
REMARK SMILES IDX 38 77 37 78
REMARK H PARENT 6 6 10 27 54 46 32 57
REMARK Flexibility Score: inf
ROOT
ATOM      1  C   UNL A   1      31.085  31.862  26.524  1.00  0.00     0.042 C 
ENDROOT
BRANCH   1   2
ATOM      2  C   UNL A   1      31.127  30.751  25.473  1.00  0.00     0.117 C 
BRANCH   2   3
ATOM      3  N   UNL A   1      32.461  30.194  25.423  1.00  0.00    -0.356 N 
ATOM      4  C   UNL A   1      32.995  29.172  24.708  1.00  0.00     0.225 C 
ATOM      5  O   UNL A   1      34.086  28.773  25.130  1.00  0.00    -0.275 OA
ATOM      6  H   UNL A   1      33.102  30.641  26.021  1.00  0.00     0.163 HD
BRANCH   4   7
ATOM      7  C   UNL A   1      32.402  28.661  23.381  1.00  0.00     0.102 C 
ATOM      8  C   UNL A   1      30.418  27.196  24.347  1.00  0.00     0.032 C 
ATOM      9  C   UNL A   1      31.482  27.413  23.294  1.00  0.00     0.096 C 
ATOM     10  N   UNL A   1      32.402  26.275  23.189  1.00  0.00    -0.321 N 
ATOM     11  C   UNL A   1      33.588  28.156  22.514  1.00  0.00     0.037 C 
ATOM     12  C   UNL A   1      33.766  26.722  23.005  1.00  0.00     0.122 C 
BRANCH  10  13
ATOM     13  C   UNL A   1      32.109  24.947  23.384  1.00  0.00     0.320 C 
ATOM     14  O   UNL A   1      31.167  24.391  22.823  1.00  0.00    -0.248 OA
BRANCH  13  15
ATOM     15  N   UNL A   1      32.951  24.267  24.255  1.00  0.00    -0.315 N 
ATOM     16  C   UNL A   1      33.139  22.822  24.058  1.00  0.00     0.144 C 
ATOM     17  C   UNL A   1      32.999  24.737  25.647  1.00  0.00     0.199 C 
ATOM     18  C   UNL A   1      32.543  21.957  25.183  1.00  0.00     0.146 C 
ATOM     19  C   UNL A   1      31.882  24.030  26.322  1.00  0.00     0.152 A 
ATOM     20  N   UNL A   1      31.645  22.718  26.014  1.00  0.00    -0.314 N 
ATOM     21  N   UNL A   1      30.885  24.485  27.046  1.00  0.00    -0.134 NA
ATOM     22  C   UNL A   1      30.408  22.432  26.471  1.00  0.00     0.226 A 
ATOM     23  N   UNL A   1      29.954  23.468  27.144  1.00  0.00    -0.139 NA
ENDBRANCH  13  15
ENDBRANCH  10  13
ENDBRANCH   4   7
ENDBRANCH   2   3
ENDBRANCH   1   2
BRANCH   1  24
ATOM     24  C   UNL A   1      32.455  32.367  26.950  1.00  0.00     0.118 C 
BRANCH  24  25
ATOM     25  N   UNL A   1      32.379  33.704  27.507  1.00  0.00    -0.352 N 
ATOM     26  C   UNL A   1      33.135  34.311  28.479  1.00  0.00     0.251 C 
ATOM     27  H   UNL A   1      31.669  34.270  27.124  1.00  0.00     0.163 HD
ATOM     28  O   UNL A   1      32.713  35.354  28.979  1.00  0.00    -0.269 OA
BRANCH  26  29
ATOM     29  C   UNL A   1      34.429  33.750  28.951  1.00  0.00     0.039 A 
ATOM     30  C   UNL A   1      35.589  34.066  28.233  1.00  0.00     0.014 A 
ATOM     31  C   UNL A   1      34.520  32.855  30.020  1.00  0.00     0.014 A 
ATOM     32  C   UNL A   1      36.820  33.507  28.592  1.00  0.00     0.010 A 
ATOM     33  C   UNL A   1      35.764  32.379  30.443  1.00  0.00     0.010 A 
ATOM     34  C   UNL A   1      36.924  32.669  29.713  1.00  0.00    -0.014 A 
BRANCH  34  35
ATOM     35  C   UNL A   1      38.224  32.051  30.091  1.00  0.00     0.031 A 
ATOM     36  C   UNL A   1      39.151  32.749  31.053  1.00  0.00     0.074 A 
ATOM     37  C   UNL A   1      38.589  30.869  29.554  1.00  0.00     0.049 A 
ATOM     38  N   UNL A   1      40.326  32.369  31.496  1.00  0.00    -0.248 NA
ATOM     39  C   UNL A   1      38.715  34.057  31.570  1.00  0.00     0.031 C 
ATOM     40  C   UNL A   1      37.812  30.105  28.578  1.00  0.00     0.029 A 
ATOM     41  N   UNL A   1      39.710  30.102  29.759  1.00  0.00    -0.354 N 
ATOM     42  C   UNL A   1      40.770  33.396  32.321  1.00  0.00     0.074 A 
ATOM     43  C   UNL A   1      39.770  34.439  32.275  1.00  0.00     0.031 C 
ATOM     44  C   UNL A   1      38.461  28.964  28.296  1.00  0.00     0.029 A 
ATOM     45  C   UNL A   1      39.715  28.932  29.042  1.00  0.00     0.049 A 
ATOM     46  H   UNL A   1      40.441  30.368  30.364  1.00  0.00     0.167 HD
ATOM     47  C   UNL A   1      41.897  33.461  33.072  1.00  0.00     0.031 A 
ATOM     48  C   UNL A   1      40.624  27.940  28.990  1.00  0.00     0.031 A 
ATOM     49  C   UNL A   1      42.889  32.422  33.136  1.00  0.00     0.049 A 
ATOM     50  C   UNL A   1      41.863  28.030  29.836  1.00  0.00     0.074 A 
ATOM     51  C   UNL A   1      44.039  32.371  33.907  1.00  0.00     0.029 A 
ATOM     52  N   UNL A   1      42.849  31.248  32.400  1.00  0.00    -0.354 N 
ATOM     53  N   UNL A   1      42.234  28.978  30.660  1.00  0.00    -0.248 NA
ATOM     54  C   UNL A   1      42.800  26.900  29.755  1.00  0.00     0.031 C 
ATOM     55  C   UNL A   1      44.717  31.187  33.602  1.00  0.00     0.029 A 
ATOM     56  C   UNL A   1      43.963  30.475  32.683  1.00  0.00     0.049 A 
ATOM     57  H   UNL A   1      42.135  31.002  31.768  1.00  0.00     0.167 HD
ATOM     58  C   UNL A   1      43.436  28.554  31.210  1.00  0.00     0.074 A 
ATOM     59  C   UNL A   1      43.719  27.251  30.644  1.00  0.00     0.031 C 
ATOM     60  C   UNL A   1      44.236  29.186  32.103  1.00  0.00     0.031 A 
BRANCH  47  61
ATOM     61  C   UNL A   1      42.112  34.707  33.888  1.00  0.00    -0.014 A 
ATOM     62  C   UNL A   1      42.753  35.833  33.342  1.00  0.00     0.009 A 
ATOM     63  C   UNL A   1      41.650  34.768  35.211  1.00  0.00     0.009 A 
ATOM     64  C   UNL A   1      42.963  36.975  34.118  1.00  0.00     0.001 A 
ATOM     65  C   UNL A   1      41.834  35.922  35.976  1.00  0.00     0.001 A 
ATOM     66  C   UNL A   1      42.500  37.020  35.432  1.00  0.00     0.000 A 
ENDBRANCH  47  61
BRANCH  48  67
ATOM     67  C   UNL A   1      40.386  26.762  28.115  1.00  0.00    -0.014 A 
ATOM     68  C   UNL A   1      40.871  26.738  26.799  1.00  0.00     0.009 A 
ATOM     69  C   UNL A   1      39.670  25.653  28.594  1.00  0.00     0.009 A 
ATOM     70  C   UNL A   1      40.626  25.639  25.973  1.00  0.00     0.001 A 
ATOM     71  C   UNL A   1      39.451  24.543  27.775  1.00  0.00     0.001 A 
ATOM     72  C   UNL A   1      39.921  24.541  26.463  1.00  0.00     0.000 A 
ENDBRANCH  48  67
BRANCH  60  73
ATOM     73  C   UNL A   1      45.479  28.463  32.539  1.00  0.00    -0.014 A 
ATOM     74  C   UNL A   1      46.694  28.629  31.856  1.00  0.00     0.009 A 
ATOM     75  C   UNL A   1      45.441  27.627  33.665  1.00  0.00     0.009 A 
ATOM     76  C   UNL A   1      47.835  27.939  32.268  1.00  0.00     0.001 A 
ATOM     77  C   UNL A   1      46.589  26.961  34.093  1.00  0.00     0.001 A 
ATOM     78  C   UNL A   1      47.783  27.109  33.387  1.00  0.00     0.000 A 
ENDBRANCH  60  73
ENDBRANCH  34  35
ENDBRANCH  26  29
ENDBRANCH  24  25
ENDBRANCH   1  24
TORSDOF 12
ENDMDL
MODEL 3
REMARK VINA RESULT:     -11.2      1.297      6.185
REMARK SMILES C[C@H]1[C@@H](C(=O)NCCCNC(=O)c2ccc(-c3c4nc(c(-c5ccccc5)c5ccc([nH]5)c(-c5ccccc5)c5nc(c(-c6ccccc6)c6ccc3[nH]6)C=C5)C=C4)cc2)CCN1C(=O)N1CCn2cnnc2C1
REMARK SMILES IDX 8 1 7 2 6 3 4 4 5 5 3 7 1 8 2 9 63 10 61 11 62 12 64 13
REMARK SMILES IDX 65 14 66 15 67 16 74 17 68 18 73 19 69 20 72 21 70 22 71 23
REMARK SMILES IDX 9 24 10 25 11 26 12 28 13 29 14 30 60 31 15 32 59 33 16 34
REMARK SMILES IDX 17 35 18 36 53 37 19 38 58 39 52 40 54 41 20 42 57 43 51 44
REMARK SMILES IDX 50 45 21 47 43 48 28 49 42 50 29 51 32 52 41 53 55 54 30 55
REMARK SMILES IDX 31 56 40 58 56 59 33 60 22 61 23 62 27 63 24 64 26 65 25 66
REMARK SMILES IDX 44 67 45 68 49 69 46 70 48 71 47 72 34 73 35 74 39 75 36 76
REMARK SMILES IDX 38 77 37 78
REMARK H PARENT 6 6 10 27 54 46 32 57
REMARK Flexibility Score: inf
ROOT
ATOM      1  C   UNL A   1      37.581  19.577  24.983  1.00  0.00     0.042 C 
ENDROOT
BRANCH   1   2
ATOM      2  C   UNL A   1      36.297  20.407  25.011  1.00  0.00     0.117 C 
BRANCH   2   3
ATOM      3  N   UNL A   1      36.509  21.638  24.280  1.00  0.00    -0.356 N 
ATOM      4  C   UNL A   1      35.655  22.594  23.839  1.00  0.00     0.225 C 
ATOM      5  O   UNL A   1      36.136  23.354  22.991  1.00  0.00    -0.275 OA
ATOM      6  H   UNL A   1      37.453  21.813  24.061  1.00  0.00     0.163 HD
BRANCH   4   7
ATOM      7  C   UNL A   1      34.264  22.843  24.455  1.00  0.00     0.102 C 
ATOM      8  C   UNL A   1      33.057  23.903  22.349  1.00  0.00     0.032 C 
ATOM      9  C   UNL A   1      33.239  23.840  23.850  1.00  0.00     0.096 C 
ATOM     10  N   UNL A   1      33.600  25.142  24.423  1.00  0.00    -0.321 N 
ATOM     11  C   UNL A   1      34.490  23.523  25.833  1.00  0.00     0.037 C 
ATOM     12  C   UNL A   1      34.603  24.998  25.455  1.00  0.00     0.122 C 
BRANCH  10  13
ATOM     13  C   UNL A   1      33.200  26.382  23.987  1.00  0.00     0.320 C 
ATOM     14  O   UNL A   1      33.980  27.185  23.479  1.00  0.00    -0.248 OA
BRANCH  13  15
ATOM     15  N   UNL A   1      31.851  26.671  24.151  1.00  0.00    -0.315 N 
ATOM     16  C   UNL A   1      31.243  27.683  23.275  1.00  0.00     0.144 C 
ATOM     17  C   UNL A   1      31.308  26.592  25.514  1.00  0.00     0.199 C 
ATOM     18  C   UNL A   1      30.816  28.967  24.008  1.00  0.00     0.146 C 
ATOM     19  C   UNL A   1      31.571  27.930  26.102  1.00  0.00     0.152 A 
ATOM     20  N   UNL A   1      31.399  29.042  25.323  1.00  0.00    -0.314 N 
ATOM     21  N   UNL A   1      32.166  28.279  27.220  1.00  0.00    -0.134 NA
ATOM     22  C   UNL A   1      32.026  30.056  25.956  1.00  0.00     0.226 A 
ATOM     23  N   UNL A   1      32.449  29.629  27.127  1.00  0.00    -0.139 NA
ENDBRANCH  13  15
ENDBRANCH  10  13
ENDBRANCH   4   7
ENDBRANCH   2   3
ENDBRANCH   1   2
BRANCH   1  24
ATOM     24  C   UNL A   1      38.792  20.283  25.575  1.00  0.00     0.118 C 
BRANCH  24  25
ATOM     25  N   UNL A   1      39.887  19.360  25.805  1.00  0.00    -0.352 N 
ATOM     26  C   UNL A   1      41.202  19.596  26.115  1.00  0.00     0.251 C 
ATOM     27  H   UNL A   1      39.645  18.408  25.725  1.00  0.00     0.163 HD
ATOM     28  O   UNL A   1      42.005  18.670  25.993  1.00  0.00    -0.269 OA
BRANCH  26  29
ATOM     29  C   UNL A   1      41.689  20.921  26.581  1.00  0.00     0.039 A 
ATOM     30  C   UNL A   1      41.623  21.207  27.950  1.00  0.00     0.014 A 
ATOM     31  C   UNL A   1      42.121  21.919  25.704  1.00  0.00     0.014 A 
ATOM     32  C   UNL A   1      42.000  22.466  28.431  1.00  0.00     0.010 A 
ATOM     33  C   UNL A   1      42.595  23.138  26.193  1.00  0.00     0.010 A 
ATOM     34  C   UNL A   1      42.508  23.441  27.559  1.00  0.00    -0.014 A 
BRANCH  34  35
ATOM     35  C   UNL A   1      42.891  24.791  28.055  1.00  0.00     0.031 A 
ATOM     36  C   UNL A   1      41.839  25.846  28.289  1.00  0.00     0.074 A 
ATOM     37  C   UNL A   1      44.188  25.084  28.277  1.00  0.00     0.049 A 
ATOM     38  N   UNL A   1      41.982  27.079  28.712  1.00  0.00    -0.248 NA
ATOM     39  C   UNL A   1      40.446  25.478  27.985  1.00  0.00     0.031 C 
ATOM     40  C   UNL A   1      45.313  24.175  28.053  1.00  0.00     0.029 A 
ATOM     41  N   UNL A   1      44.777  26.232  28.747  1.00  0.00    -0.354 N 
ATOM     42  C   UNL A   1      40.706  27.632  28.705  1.00  0.00     0.074 A 
ATOM     43  C   UNL A   1      39.811  26.624  28.183  1.00  0.00     0.031 C 
ATOM     44  C   UNL A   1      46.451  24.788  28.416  1.00  0.00     0.029 A 
ATOM     45  C   UNL A   1      46.142  26.141  28.866  1.00  0.00     0.049 A 
ATOM     46  H   UNL A   1      44.268  27.043  28.977  1.00  0.00     0.167 HD
ATOM     47  C   UNL A   1      40.305  28.859  29.118  1.00  0.00     0.031 A 
ATOM     48  C   UNL A   1      47.047  27.044  29.291  1.00  0.00     0.031 A 
ATOM     49  C   UNL A   1      41.187  29.862  29.652  1.00  0.00     0.049 A 
ATOM     50  C   UNL A   1      46.579  28.396  29.751  1.00  0.00     0.074 A 
ATOM     51  C   UNL A   1      40.870  31.117  30.146  1.00  0.00     0.029 A 
ATOM     52  N   UNL A   1      42.562  29.725  29.764  1.00  0.00    -0.354 N 
ATOM     53  N   UNL A   1      45.361  28.878  29.798  1.00  0.00    -0.248 NA
ATOM     54  C   UNL A   1      47.614  29.324  30.230  1.00  0.00     0.031 C 
ATOM     55  C   UNL A   1      42.059  31.755  30.514  1.00  0.00     0.029 A 
ATOM     56  C   UNL A   1      43.110  30.878  30.300  1.00  0.00     0.049 A 
ATOM     57  H   UNL A   1      43.072  28.925  29.499  1.00  0.00     0.167 HD
ATOM     58  C   UNL A   1      45.479  30.155  30.330  1.00  0.00     0.074 A 
ATOM     59  C   UNL A   1      46.885  30.363  30.612  1.00  0.00     0.031 C 
ATOM     60  C   UNL A   1      44.511  31.074  30.564  1.00  0.00     0.031 A 
BRANCH  47  61
ATOM     61  C   UNL A   1      38.840  29.182  29.004  1.00  0.00    -0.014 A 
ATOM     62  C   UNL A   1      38.289  29.648  27.798  1.00  0.00     0.009 A 
ATOM     63  C   UNL A   1      37.993  28.997  30.107  1.00  0.00     0.009 A 
ATOM     64  C   UNL A   1      36.931  29.962  27.713  1.00  0.00     0.001 A 
ATOM     65  C   UNL A   1      36.629  29.283  30.011  1.00  0.00     0.001 A 
ATOM     66  C   UNL A   1      36.102  29.775  28.818  1.00  0.00     0.000 A 
ENDBRANCH  47  61
BRANCH  48  67
ATOM     67  C   UNL A   1      48.490  26.688  29.321  1.00  0.00    -0.014 A 
ATOM     68  C   UNL A   1      49.336  27.046  28.261  1.00  0.00     0.009 A 
ATOM     69  C   UNL A   1      49.028  25.989  30.413  1.00  0.00     0.009 A 
ATOM     70  C   UNL A   1      50.687  26.691  28.283  1.00  0.00     0.001 A 
ATOM     71  C   UNL A   1      50.385  25.660  30.445  1.00  0.00     0.001 A 
ATOM     72  C   UNL A   1      51.211  26.003  29.376  1.00  0.00     0.000 A 
ENDBRANCH  48  67
BRANCH  60  73
ATOM     73  C   UNL A   1      44.940  32.378  31.176  1.00  0.00    -0.014 A 
ATOM     74  C   UNL A   1      45.294  33.476  30.374  1.00  0.00     0.009 A 
ATOM     75  C   UNL A   1      44.964  32.519  32.571  1.00  0.00     0.009 A 
ATOM     76  C   UNL A   1      45.702  34.675  30.962  1.00  0.00     0.001 A 
ATOM     77  C   UNL A   1      45.344  33.728  33.155  1.00  0.00     0.001 A 
ATOM     78  C   UNL A   1      45.723  34.801  32.350  1.00  0.00     0.000 A 
ENDBRANCH  60  73
ENDBRANCH  34  35
ENDBRANCH  26  29
ENDBRANCH  24  25
ENDBRANCH   1  24
TORSDOF 12
ENDMDL
