MODEL 1
REMARK VINA RESULT:     -12.2      0.000      0.000
REMARK SMILES Cc1ccc(OCC(=O)NNC(=O)[C@H]2CCCC[C@@H]2C(=O)NCCCNC(=O)c2ccc(-c3c4nc(c(-c5ccccc5)c5ccc([nH]5)c(-c5ccccc5)c5nc(c(-c6ccccc6)c6ccc3[nH]6)C=C5)C=C4)cc2)cc1
REMARK SMILES IDX 20 1 21 2 22 3 19 5 14 6 15 7 16 8 18 9 17 10 12 11 11 12
REMARK SMILES IDX 13 14 10 15 8 16 9 17 7 19 6 20 5 21 1 22 2 23 3 24 78 25
REMARK SMILES IDX 4 26 77 27 23 28 24 29 25 30 26 31 27 32 28 34 29 35 30 36
REMARK SMILES IDX 76 37 31 38 75 39 32 40 33 41 34 42 69 43 35 44 74 45 68 46
REMARK SMILES IDX 70 47 36 48 73 49 67 50 66 51 37 53 59 54 44 55 58 56 45 57
REMARK SMILES IDX 48 58 57 59 71 60 46 61 47 62 56 64 72 65 49 66 38 67 39 68
REMARK SMILES IDX 43 69 40 70 42 71 41 72 60 73 61 74 65 75 62 76 64 77 63 78
REMARK SMILES IDX 50 79 51 80 55 81 52 82 54 83 53 84
REMARK H PARENT 22 4 11 13 10 18 26 33 70 52 48 63
REMARK Flexibility Score: inf
ROOT
ATOM      1  C   UNL A   1      31.526  28.074  26.628  1.00  0.00     0.223 C 
ATOM      2  O   UNL A   1      31.506  27.218  27.527  1.00  0.00    -0.275 OA
ATOM      3  N   UNL A   1      31.886  29.311  27.027  1.00  0.00    -0.356 N 
ATOM      4  H   UNL A   1      32.055  29.361  27.995  1.00  0.00     0.163 HD
ENDROOT
BRANCH   1   5
ATOM      5  C   UNL A   1      31.128  27.635  25.212  1.00  0.00     0.091 C 
ATOM      6  C   UNL A   1      31.948  26.375  24.847  1.00  0.00     0.092 C 
ATOM      7  C   UNL A   1      33.313  26.790  24.275  1.00  0.00     0.014 C 
ATOM      8  C   UNL A   1      33.208  27.678  23.040  1.00  0.00     0.001 C 
ATOM      9  C   UNL A   1      31.016  28.596  24.031  1.00  0.00     0.014 C 
ATOM     10  C   UNL A   1      32.290  28.873  23.230  1.00  0.00     0.001 C 
BRANCH   6  11
ATOM     11  C   UNL A   1      31.192  25.431  23.906  1.00  0.00     0.242 C 
ATOM     12  N   UNL A   1      30.383  24.453  24.417  1.00  0.00    -0.267 N 
ATOM     13  H   UNL A   1      29.865  23.920  23.772  1.00  0.00     0.191 HD
ATOM     14  O   UNL A   1      31.295  25.492  22.680  1.00  0.00    -0.273 OA
BRANCH  12  15
ATOM     15  N   UNL A   1      30.228  24.143  25.760  1.00  0.00    -0.265 N 
ATOM     16  C   UNL A   1      30.989  23.191  26.403  1.00  0.00     0.276 C 
ATOM     17  O   UNL A   1      30.865  23.018  27.617  1.00  0.00    -0.269 OA
ATOM     18  H   UNL A   1      29.544  24.625  26.278  1.00  0.00     0.191 HD
BRANCH  16  19
ATOM     19  C   UNL A   1      32.017  22.397  25.585  1.00  0.00     0.331 C 
BRANCH  19  20
ATOM     20  O   UNL A   1      33.060  23.166  25.005  1.00  0.00    -0.484 OA
BRANCH  20  21
ATOM     21  C   UNL A   1      34.343  22.718  25.162  1.00  0.00     0.120 A 
ATOM     22  C   UNL A   1      38.510  21.730  25.724  1.00  0.00     0.044 C 
ATOM     23  C   UNL A   1      37.063  22.071  25.526  1.00  0.00    -0.051 A 
ATOM     24  C   UNL A   1      36.611  23.377  25.736  1.00  0.00     0.007 A 
ATOM     25  C   UNL A   1      36.140  21.091  25.147  1.00  0.00     0.007 A 
ATOM     26  C   UNL A   1      35.262  23.697  25.552  1.00  0.00     0.047 A 
ATOM     27  C   UNL A   1      34.791  21.412  24.966  1.00  0.00     0.047 A 
ENDBRANCH  20  21
ENDBRANCH  19  20
ENDBRANCH  16  19
ENDBRANCH  12  15
ENDBRANCH   6  11
ENDBRANCH   1   5
BRANCH   3  28
ATOM     28  C   UNL A   1      32.081  30.585  26.360  1.00  0.00     0.117 C 
BRANCH  28  29
ATOM     29  C   UNL A   1      32.936  31.550  27.175  1.00  0.00     0.042 C 
BRANCH  29  30
ATOM     30  C   UNL A   1      34.206  30.891  27.685  1.00  0.00     0.118 C 
BRANCH  30  31
ATOM     31  N   UNL A   1      35.225  31.808  28.191  1.00  0.00    -0.352 N 
ATOM     32  C   UNL A   1      36.510  31.522  28.644  1.00  0.00     0.251 C 
ATOM     33  H   UNL A   1      34.967  32.759  28.216  1.00  0.00     0.163 HD
ATOM     34  O   UNL A   1      37.235  32.404  29.061  1.00  0.00    -0.269 OA
BRANCH  32  35
ATOM     35  C   UNL A   1      37.028  30.140  28.471  1.00  0.00     0.039 A 
ATOM     36  C   UNL A   1      37.191  29.365  29.624  1.00  0.00     0.014 A 
ATOM     37  C   UNL A   1      37.645  29.778  27.281  1.00  0.00     0.014 A 
ATOM     38  C   UNL A   1      38.212  28.421  29.659  1.00  0.00     0.010 A 
ATOM     39  C   UNL A   1      38.748  28.959  27.359  1.00  0.00     0.010 A 
ATOM     40  C   UNL A   1      39.074  28.334  28.568  1.00  0.00    -0.014 A 
BRANCH  40  41
ATOM     41  C   UNL A   1      40.387  27.706  28.628  1.00  0.00     0.031 A 
ATOM     42  C   UNL A   1      40.516  26.258  28.385  1.00  0.00     0.074 A 
ATOM     43  C   UNL A   1      41.497  28.454  28.818  1.00  0.00     0.049 A 
ATOM     44  N   UNL A   1      41.511  25.548  28.792  1.00  0.00    -0.248 NA
ATOM     45  C   UNL A   1      39.497  25.480  27.687  1.00  0.00     0.031 C 
ATOM     46  C   UNL A   1      42.891  28.050  28.637  1.00  0.00     0.029 A 
ATOM     47  N   UNL A   1      41.581  29.701  29.436  1.00  0.00    -0.354 N 
ATOM     48  C   UNL A   1      41.416  24.325  28.180  1.00  0.00     0.074 A 
ATOM     49  C   UNL A   1      40.119  24.307  27.546  1.00  0.00     0.031 C 
ATOM     50  C   UNL A   1      43.677  28.874  29.347  1.00  0.00     0.029 A 
ATOM     51  C   UNL A   1      42.811  29.743  30.124  1.00  0.00     0.049 A 
ATOM     52  H   UNL A   1      40.907  30.419  29.400  1.00  0.00     0.167 HD
ATOM     53  C   UNL A   1      42.490  23.491  28.167  1.00  0.00     0.031 A 
ATOM     54  C   UNL A   1      42.828  29.852  31.485  1.00  0.00     0.031 A 
ATOM     55  C   UNL A   1      43.620  24.026  28.921  1.00  0.00     0.049 A 
ATOM     56  C   UNL A   1      43.363  28.624  32.203  1.00  0.00     0.074 A 
ATOM     57  C   UNL A   1      44.819  24.633  28.585  1.00  0.00     0.029 A 
ATOM     58  N   UNL A   1      43.444  24.257  30.274  1.00  0.00    -0.354 N 
ATOM     59  N   UNL A   1      43.810  27.549  31.613  1.00  0.00    -0.248 NA
ATOM     60  C   UNL A   1      43.338  28.480  33.661  1.00  0.00     0.031 C 
ATOM     61  C   UNL A   1      45.354  25.240  29.762  1.00  0.00     0.029 A 
ATOM     62  C   UNL A   1      44.491  24.981  30.809  1.00  0.00     0.049 A 
ATOM     63  H   UNL A   1      42.668  23.944  30.793  1.00  0.00     0.167 HD
ATOM     64  C   UNL A   1      44.060  26.580  32.550  1.00  0.00     0.074 A 
ATOM     65  C   UNL A   1      43.759  27.214  33.820  1.00  0.00     0.031 C 
ATOM     66  C   UNL A   1      44.446  25.312  32.224  1.00  0.00     0.031 A 
BRANCH  53  67
ATOM     67  C   UNL A   1      42.549  22.299  27.255  1.00  0.00    -0.014 A 
ATOM     68  C   UNL A   1      41.963  21.087  27.650  1.00  0.00     0.009 A 
ATOM     69  C   UNL A   1      43.215  22.302  26.016  1.00  0.00     0.009 A 
ATOM     70  C   UNL A   1      42.123  19.916  26.899  1.00  0.00     0.001 A 
ATOM     71  C   UNL A   1      43.422  21.125  25.287  1.00  0.00     0.001 A 
ATOM     72  C   UNL A   1      42.883  19.927  25.736  1.00  0.00     0.000 A 
ENDBRANCH  53  67
BRANCH  54  73
ATOM     73  C   UNL A   1      41.753  30.753  31.993  1.00  0.00    -0.014 A 
ATOM     74  C   UNL A   1      41.752  32.092  31.546  1.00  0.00     0.009 A 
ATOM     75  C   UNL A   1      40.576  30.232  32.545  1.00  0.00     0.009 A 
ATOM     76  C   UNL A   1      40.570  32.837  31.518  1.00  0.00     0.001 A 
ATOM     77  C   UNL A   1      39.397  30.990  32.530  1.00  0.00     0.001 A 
ATOM     78  C   UNL A   1      39.386  32.271  31.979  1.00  0.00     0.000 A 
ENDBRANCH  54  73
BRANCH  66  79
ATOM     79  C   UNL A   1      44.766  24.239  33.233  1.00  0.00    -0.014 A 
ATOM     80  C   UNL A   1      43.815  23.310  33.677  1.00  0.00     0.009 A 
ATOM     81  C   UNL A   1      46.024  24.215  33.872  1.00  0.00     0.009 A 
ATOM     82  C   UNL A   1      44.132  22.357  34.656  1.00  0.00     0.001 A 
ATOM     83  C   UNL A   1      46.338  23.285  34.865  1.00  0.00     0.001 A 
ATOM     84  C   UNL A   1      45.394  22.344  35.247  1.00  0.00     0.000 A 
ENDBRANCH  66  79
ENDBRANCH  40  41
ENDBRANCH  32  35
ENDBRANCH  30  31
ENDBRANCH  29  30
ENDBRANCH  28  29
ENDBRANCH   3  28
TORSDOF 15
ENDMDL
MODEL 2
REMARK VINA RESULT:     -12.1      1.510      2.107
REMARK SMILES Cc1ccc(OCC(=O)NNC(=O)[C@H]2CCCC[C@@H]2C(=O)NCCCNC(=O)c2ccc(-c3c4nc(c(-c5ccccc5)c5ccc([nH]5)c(-c5ccccc5)c5nc(c(-c6ccccc6)c6ccc3[nH]6)C=C5)C=C4)cc2)cc1
REMARK SMILES IDX 20 1 21 2 22 3 19 5 14 6 15 7 16 8 18 9 17 10 12 11 11 12
REMARK SMILES IDX 13 14 10 15 8 16 9 17 7 19 6 20 5 21 1 22 2 23 3 24 78 25
REMARK SMILES IDX 4 26 77 27 23 28 24 29 25 30 26 31 27 32 28 34 29 35 30 36
REMARK SMILES IDX 76 37 31 38 75 39 32 40 33 41 34 42 69 43 35 44 74 45 68 46
REMARK SMILES IDX 70 47 36 48 73 49 67 50 66 51 37 53 59 54 44 55 58 56 45 57
REMARK SMILES IDX 48 58 57 59 71 60 46 61 47 62 56 64 72 65 49 66 38 67 39 68
REMARK SMILES IDX 43 69 40 70 42 71 41 72 60 73 61 74 65 75 62 76 64 77 63 78
REMARK SMILES IDX 50 79 51 80 55 81 52 82 54 83 53 84
REMARK H PARENT 22 4 11 13 10 18 26 33 70 52 48 63
REMARK Flexibility Score: inf
ROOT
ATOM      1  C   UNL A   1      31.447  27.589  26.322  1.00  0.00     0.223 C 
ATOM      2  O   UNL A   1      31.431  26.763  27.249  1.00  0.00    -0.275 OA
ATOM      3  N   UNL A   1      31.693  28.861  26.698  1.00  0.00    -0.356 N 
ATOM      4  H   UNL A   1      31.798  28.954  27.672  1.00  0.00     0.163 HD
ENDROOT
BRANCH   1   5
ATOM      5  C   UNL A   1      31.170  27.078  24.902  1.00  0.00     0.091 C 
ATOM      6  C   UNL A   1      32.339  26.154  24.484  1.00  0.00     0.092 C 
ATOM      7  C   UNL A   1      33.484  26.995  23.898  1.00  0.00     0.014 C 
ATOM      8  C   UNL A   1      33.068  27.831  22.693  1.00  0.00     0.001 C 
ATOM      9  C   UNL A   1      30.726  27.980  23.753  1.00  0.00     0.014 C 
ATOM     10  C   UNL A   1      31.823  28.666  22.937  1.00  0.00     0.001 C 
BRANCH   6  11
ATOM     11  C   UNL A   1      31.897  25.040  23.529  1.00  0.00     0.242 C 
ATOM     12  N   UNL A   1      30.997  24.095  23.944  1.00  0.00    -0.267 N 
ATOM     13  H   UNL A   1      30.691  23.445  23.272  1.00  0.00     0.191 HD
ATOM     14  O   UNL A   1      32.338  24.931  22.384  1.00  0.00    -0.273 OA
BRANCH  12  15
ATOM     15  N   UNL A   1      30.477  23.972  25.224  1.00  0.00    -0.265 N 
ATOM     16  C   UNL A   1      30.993  23.105  26.162  1.00  0.00     0.276 C 
ATOM     17  O   UNL A   1      30.544  23.099  27.310  1.00  0.00    -0.269 OA
ATOM     18  H   UNL A   1      29.705  24.529  25.474  1.00  0.00     0.191 HD
BRANCH  16  19
ATOM     19  C   UNL A   1      32.160  22.194  25.758  1.00  0.00     0.331 C 
BRANCH  19  20
ATOM     20  O   UNL A   1      32.090  21.660  24.445  1.00  0.00    -0.484 OA
BRANCH  20  21
ATOM     21  C   UNL A   1      32.663  20.437  24.224  1.00  0.00     0.120 A 
ATOM     22  C   UNL A   1      34.137  16.497  23.246  1.00  0.00     0.044 C 
ATOM     23  C   UNL A   1      33.626  17.865  23.588  1.00  0.00    -0.051 A 
ATOM     24  C   UNL A   1      32.523  18.395  22.913  1.00  0.00     0.007 A 
ATOM     25  C   UNL A   1      34.250  18.638  24.572  1.00  0.00     0.007 A 
ATOM     26  C   UNL A   1      32.045  19.670  23.233  1.00  0.00     0.047 A 
ATOM     27  C   UNL A   1      33.773  19.915  24.887  1.00  0.00     0.047 A 
ENDBRANCH  20  21
ENDBRANCH  19  20
ENDBRANCH  16  19
ENDBRANCH  12  15
ENDBRANCH   6  11
ENDBRANCH   1   5
BRANCH   3  28
ATOM     28  C   UNL A   1      31.840  30.124  25.999  1.00  0.00     0.117 C 
BRANCH  28  29
ATOM     29  C   UNL A   1      32.524  31.189  26.847  1.00  0.00     0.042 C 
BRANCH  29  30
ATOM     30  C   UNL A   1      33.680  30.619  27.652  1.00  0.00     0.118 C 
BRANCH  30  31
ATOM     31  N   UNL A   1      34.405  31.585  28.475  1.00  0.00    -0.352 N 
ATOM     32  C   UNL A   1      35.622  31.431  29.134  1.00  0.00     0.251 C 
ATOM     33  H   UNL A   1      33.975  32.465  28.576  1.00  0.00     0.163 HD
ATOM     34  O   UNL A   1      36.085  32.331  29.806  1.00  0.00    -0.269 OA
BRANCH  32  35
ATOM     35  C   UNL A   1      36.410  30.197  28.884  1.00  0.00     0.039 A 
ATOM     36  C   UNL A   1      36.623  29.337  29.966  1.00  0.00     0.014 A 
ATOM     37  C   UNL A   1      37.182  30.092  27.734  1.00  0.00     0.014 A 
ATOM     38  C   UNL A   1      37.801  28.600  30.015  1.00  0.00     0.010 A 
ATOM     39  C   UNL A   1      38.413  29.487  27.846  1.00  0.00     0.010 A 
ATOM     40  C   UNL A   1      38.751  28.798  29.016  1.00  0.00    -0.014 A 
BRANCH  40  41
ATOM     41  C   UNL A   1      40.151  28.418  29.150  1.00  0.00     0.031 A 
ATOM     42  C   UNL A   1      40.622  27.146  28.574  1.00  0.00     0.074 A 
ATOM     43  C   UNL A   1      41.039  29.263  29.722  1.00  0.00     0.049 A 
ATOM     44  N   UNL A   1      41.689  26.535  28.960  1.00  0.00    -0.248 NA
ATOM     45  C   UNL A   1      39.894  26.434  27.528  1.00  0.00     0.031 C 
ATOM     46  C   UNL A   1      42.498  29.179  29.699  1.00  0.00     0.029 A 
ATOM     47  N   UNL A   1      40.771  30.276  30.642  1.00  0.00    -0.354 N 
ATOM     48  C   UNL A   1      41.940  25.541  28.050  1.00  0.00     0.074 A 
ATOM     49  C   UNL A   1      40.769  25.478  27.209  1.00  0.00     0.031 C 
ATOM     50  C   UNL A   1      42.991  29.889  30.726  1.00  0.00     0.029 A 
ATOM     51  C   UNL A   1      41.866  30.334  31.529  1.00  0.00     0.049 A 
ATOM     52  H   UNL A   1      39.967  30.845  30.668  1.00  0.00     0.167 HD
ATOM     53  C   UNL A   1      43.163  24.947  28.019  1.00  0.00     0.031 A 
ATOM     54  C   UNL A   1      41.687  30.051  32.853  1.00  0.00     0.031 A 
ATOM     55  C   UNL A   1      44.045  25.433  29.076  1.00  0.00     0.049 A 
ATOM     56  C   UNL A   1      42.382  28.782  33.319  1.00  0.00     0.074 A 
ATOM     57  C   UNL A   1      45.116  26.311  29.128  1.00  0.00     0.029 A 
ATOM     58  N   UNL A   1      43.655  25.233  30.389  1.00  0.00    -0.354 N 
ATOM     59  N   UNL A   1      43.123  28.016  32.565  1.00  0.00    -0.248 NA
ATOM     60  C   UNL A   1      42.205  28.226  34.662  1.00  0.00     0.031 C 
ATOM     61  C   UNL A   1      45.354  26.640  30.498  1.00  0.00     0.029 A 
ATOM     62  C   UNL A   1      44.442  25.945  31.270  1.00  0.00     0.049 A 
ATOM     63  H   UNL A   1      42.907  24.654  30.662  1.00  0.00     0.167 HD
ATOM     64  C   UNL A   1      43.459  26.880  33.254  1.00  0.00     0.074 A 
ATOM     65  C   UNL A   1      42.869  27.061  34.567  1.00  0.00     0.031 C 
ATOM     66  C   UNL A   1      44.149  25.846  32.690  1.00  0.00     0.031 A 
BRANCH  53  67
ATOM     67  C   UNL A   1      43.594  24.095  26.860  1.00  0.00    -0.014 A 
ATOM     68  C   UNL A   1      44.285  24.675  25.785  1.00  0.00     0.009 A 
ATOM     69  C   UNL A   1      43.300  22.724  26.753  1.00  0.00     0.009 A 
ATOM     70  C   UNL A   1      44.573  23.951  24.622  1.00  0.00     0.001 A 
ATOM     71  C   UNL A   1      43.540  22.008  25.574  1.00  0.00     0.001 A 
ATOM     72  C   UNL A   1      44.169  22.627  24.502  1.00  0.00     0.000 A 
ENDBRANCH  53  67
BRANCH  54  73
ATOM     73  C   UNL A   1      40.386  30.567  33.370  1.00  0.00    -0.014 A 
ATOM     74  C   UNL A   1      40.233  31.965  33.485  1.00  0.00     0.009 A 
ATOM     75  C   UNL A   1      39.237  29.767  33.357  1.00  0.00     0.009 A 
ATOM     76  C   UNL A   1      38.966  32.552  33.440  1.00  0.00     0.001 A 
ATOM     77  C   UNL A   1      37.967  30.361  33.328  1.00  0.00     0.001 A 
ATOM     78  C   UNL A   1      37.836  31.750  33.326  1.00  0.00     0.000 A 
ENDBRANCH  54  73
BRANCH  66  79
ATOM     79  C   UNL A   1      44.566  24.602  33.433  1.00  0.00    -0.014 A 
ATOM     80  C   UNL A   1      43.642  23.684  33.951  1.00  0.00     0.009 A 
ATOM     81  C   UNL A   1      45.923  24.383  33.750  1.00  0.00     0.009 A 
ATOM     82  C   UNL A   1      44.062  22.565  34.683  1.00  0.00     0.001 A 
ATOM     83  C   UNL A   1      46.346  23.283  34.499  1.00  0.00     0.001 A 
ATOM     84  C   UNL A   1      45.414  22.364  34.954  1.00  0.00     0.000 A 
ENDBRANCH  66  79
ENDBRANCH  40  41
ENDBRANCH  32  35
ENDBRANCH  30  31
ENDBRANCH  29  30
ENDBRANCH  28  29
ENDBRANCH   3  28
TORSDOF 15
ENDMDL
MODEL 3
REMARK VINA RESULT:     -12.1      2.191      3.732
REMARK SMILES Cc1ccc(OCC(=O)NNC(=O)[C@H]2CCCC[C@@H]2C(=O)NCCCNC(=O)c2ccc(-c3c4nc(c(-c5ccccc5)c5ccc([nH]5)c(-c5ccccc5)c5nc(c(-c6ccccc6)c6ccc3[nH]6)C=C5)C=C4)cc2)cc1
REMARK SMILES IDX 20 1 21 2 22 3 19 5 14 6 15 7 16 8 18 9 17 10 12 11 11 12
REMARK SMILES IDX 13 14 10 15 8 16 9 17 7 19 6 20 5 21 1 22 2 23 3 24 78 25
REMARK SMILES IDX 4 26 77 27 23 28 24 29 25 30 26 31 27 32 28 34 29 35 30 36
REMARK SMILES IDX 76 37 31 38 75 39 32 40 33 41 34 42 69 43 35 44 74 45 68 46
REMARK SMILES IDX 70 47 36 48 73 49 67 50 66 51 37 53 59 54 44 55 58 56 45 57
REMARK SMILES IDX 48 58 57 59 71 60 46 61 47 62 56 64 72 65 49 66 38 67 39 68
REMARK SMILES IDX 43 69 40 70 42 71 41 72 60 73 61 74 65 75 62 76 64 77 63 78
REMARK SMILES IDX 50 79 51 80 55 81 52 82 54 83 53 84
REMARK H PARENT 22 4 11 13 10 18 26 33 70 52 48 63
REMARK Flexibility Score: inf
ROOT
ATOM      1  C   UNL A   1      31.802  28.300  27.145  1.00  0.00     0.223 C 
ATOM      2  O   UNL A   1      31.047  27.856  28.025  1.00  0.00    -0.275 OA
ATOM      3  N   UNL A   1      32.837  29.034  27.600  1.00  0.00    -0.356 N 
ATOM      4  H   UNL A   1      32.826  29.136  28.579  1.00  0.00     0.163 HD
ENDROOT
BRANCH   1   5
ATOM      5  C   UNL A   1      31.460  27.984  25.682  1.00  0.00     0.091 C 
ATOM      6  C   UNL A   1      32.056  26.600  25.333  1.00  0.00     0.092 C 
ATOM      7  C   UNL A   1      33.522  26.759  24.899  1.00  0.00     0.014 C 
ATOM      8  C   UNL A   1      33.702  27.684  23.700  1.00  0.00     0.001 C 
ATOM      9  C   UNL A   1      31.643  28.981  24.540  1.00  0.00     0.014 C 
ATOM     10  C   UNL A   1      33.014  29.027  23.864  1.00  0.00     0.001 C 
BRANCH   6  11
ATOM     11  C   UNL A   1      31.225  25.846  24.290  1.00  0.00     0.242 C 
ATOM     12  N   UNL A   1      30.306  24.913  24.686  1.00  0.00    -0.267 N 
ATOM     13  H   UNL A   1      29.748  24.509  23.983  1.00  0.00     0.191 HD
ATOM     14  O   UNL A   1      31.361  26.022  23.078  1.00  0.00    -0.273 OA
BRANCH  12  15
ATOM     15  N   UNL A   1      30.090  24.484  25.988  1.00  0.00    -0.265 N 
ATOM     16  C   UNL A   1      30.503  23.254  26.451  1.00  0.00     0.276 C 
ATOM     17  O   UNL A   1      30.358  22.962  27.639  1.00  0.00    -0.269 OA
ATOM     18  H   UNL A   1      29.619  25.086  26.609  1.00  0.00     0.191 HD
BRANCH  16  19
ATOM     19  C   UNL A   1      31.185  22.291  25.469  1.00  0.00     0.331 C 
BRANCH  19  20
ATOM     20  O   UNL A   1      32.082  22.893  24.549  1.00  0.00    -0.484 OA
BRANCH  20  21
ATOM     21  C   UNL A   1      33.377  23.077  24.950  1.00  0.00     0.120 A 
ATOM     22  C   UNL A   1      37.570  23.691  25.785  1.00  0.00     0.044 C 
ATOM     23  C   UNL A   1      36.114  23.475  25.497  1.00  0.00    -0.051 A 
ATOM     24  C   UNL A   1      35.630  23.577  24.189  1.00  0.00     0.007 A 
ATOM     25  C   UNL A   1      35.214  23.187  26.528  1.00  0.00     0.007 A 
ATOM     26  C   UNL A   1      34.273  23.376  23.920  1.00  0.00     0.047 A 
ATOM     27  C   UNL A   1      33.856  22.990  26.256  1.00  0.00     0.047 A 
ENDBRANCH  20  21
ENDBRANCH  19  20
ENDBRANCH  16  19
ENDBRANCH  12  15
ENDBRANCH   6  11
ENDBRANCH   1   5
BRANCH   3  28
ATOM     28  C   UNL A   1      33.963  29.708  26.982  1.00  0.00     0.117 C 
BRANCH  28  29
ATOM     29  C   UNL A   1      34.929  30.298  28.005  1.00  0.00     0.042 C 
BRANCH  29  30
ATOM     30  C   UNL A   1      35.204  31.769  27.744  1.00  0.00     0.118 C 
BRANCH  30  31
ATOM     31  N   UNL A   1      34.215  32.696  28.290  1.00  0.00    -0.352 N 
ATOM     32  C   UNL A   1      34.316  33.524  29.404  1.00  0.00     0.251 C 
ATOM     33  H   UNL A   1      33.360  32.741  27.803  1.00  0.00     0.163 HD
ATOM     34  O   UNL A   1      33.385  34.226  29.746  1.00  0.00    -0.269 OA
BRANCH  32  35
ATOM     35  C   UNL A   1      35.634  33.640  30.081  1.00  0.00     0.039 A 
ATOM     36  C   UNL A   1      36.675  34.243  29.367  1.00  0.00     0.014 A 
ATOM     37  C   UNL A   1      35.899  32.875  31.209  1.00  0.00     0.014 A 
ATOM     38  C   UNL A   1      37.979  33.819  29.597  1.00  0.00     0.010 A 
ATOM     39  C   UNL A   1      37.163  32.343  31.336  1.00  0.00     0.010 A 
ATOM     40  C   UNL A   1      38.189  32.765  30.482  1.00  0.00    -0.014 A 
BRANCH  40  41
ATOM     41  C   UNL A   1      39.410  31.971  30.513  1.00  0.00     0.031 A 
ATOM     42  C   UNL A   1      39.443  30.655  29.850  1.00  0.00     0.074 A 
ATOM     43  C   UNL A   1      40.538  32.468  31.069  1.00  0.00     0.049 A 
ATOM     44  N   UNL A   1      40.288  29.726  30.141  1.00  0.00    -0.248 NA
ATOM     45  C   UNL A   1      38.487  30.265  28.818  1.00  0.00     0.031 C 
ATOM     46  C   UNL A   1      41.899  31.947  30.953  1.00  0.00     0.029 A 
ATOM     47  N   UNL A   1      40.633  33.455  32.050  1.00  0.00    -0.354 N 
ATOM     48  C   UNL A   1      40.182  28.762  29.172  1.00  0.00     0.074 A 
ATOM     49  C   UNL A   1      39.013  29.111  28.401  1.00  0.00     0.031 C 
ATOM     50  C   UNL A   1      42.630  32.408  31.980  1.00  0.00     0.029 A 
ATOM     51  C   UNL A   1      41.731  33.122  32.870  1.00  0.00     0.049 A 
ATOM     52  H   UNL A   1      40.044  34.238  32.152  1.00  0.00     0.167 HD
ATOM     53  C   UNL A   1      41.162  27.829  29.039  1.00  0.00     0.031 A 
ATOM     54  C   UNL A   1      41.532  32.823  34.188  1.00  0.00     0.031 A 
ATOM     55  C   UNL A   1      42.196  27.956  30.061  1.00  0.00     0.049 A 
ATOM     56  C   UNL A   1      41.824  31.376  34.550  1.00  0.00     0.074 A 
ATOM     57  C   UNL A   1      43.485  28.463  30.090  1.00  0.00     0.029 A 
ATOM     58  N   UNL A   1      41.821  27.802  31.385  1.00  0.00    -0.354 N 
ATOM     59  N   UNL A   1      42.262  30.471  33.718  1.00  0.00    -0.248 NA
ATOM     60  C   UNL A   1      41.545  30.816  35.875  1.00  0.00     0.031 C 
ATOM     61  C   UNL A   1      43.872  28.617  31.457  1.00  0.00     0.029 A 
ATOM     62  C   UNL A   1      42.826  28.184  32.250  1.00  0.00     0.049 A 
ATOM     63  H   UNL A   1      40.944  27.461  31.675  1.00  0.00     0.167 HD
ATOM     64  C   UNL A   1      42.263  29.245  34.331  1.00  0.00     0.074 A 
ATOM     65  C   UNL A   1      41.815  29.513  35.685  1.00  0.00     0.031 C 
ATOM     66  C   UNL A   1      42.579  28.088  33.679  1.00  0.00     0.031 A 
BRANCH  53  67
ATOM     67  C   UNL A   1      41.261  26.961  27.817  1.00  0.00    -0.014 A 
ATOM     68  C   UNL A   1      40.797  25.638  27.859  1.00  0.00     0.009 A 
ATOM     69  C   UNL A   1      41.851  27.383  26.611  1.00  0.00     0.009 A 
ATOM     70  C   UNL A   1      41.005  24.753  26.794  1.00  0.00     0.001 A 
ATOM     71  C   UNL A   1      42.107  26.491  25.563  1.00  0.00     0.001 A 
ATOM     72  C   UNL A   1      41.692  25.170  25.660  1.00  0.00     0.000 A 
ENDBRANCH  53  67
BRANCH  54  73
ATOM     73  C   UNL A   1      40.475  33.675  34.807  1.00  0.00    -0.014 A 
ATOM     74  C   UNL A   1      39.166  33.152  34.877  1.00  0.00     0.009 A 
ATOM     75  C   UNL A   1      40.812  34.749  35.641  1.00  0.00     0.009 A 
ATOM     76  C   UNL A   1      38.270  33.593  35.854  1.00  0.00     0.001 A 
ATOM     77  C   UNL A   1      39.903  35.199  36.609  1.00  0.00     0.001 A 
ATOM     78  C   UNL A   1      38.653  34.594  36.742  1.00  0.00     0.000 A 
ENDBRANCH  54  73
BRANCH  66  79
ATOM     79  C   UNL A   1      42.626  26.732  34.336  1.00  0.00    -0.014 A 
ATOM     80  C   UNL A   1      43.704  25.852  34.178  1.00  0.00     0.009 A 
ATOM     81  C   UNL A   1      41.505  26.244  35.041  1.00  0.00     0.009 A 
ATOM     82  C   UNL A   1      43.692  24.576  34.761  1.00  0.00     0.001 A 
ATOM     83  C   UNL A   1      41.478  24.966  35.604  1.00  0.00     0.001 A 
ATOM     84  C   UNL A   1      42.580  24.136  35.475  1.00  0.00     0.000 A 
ENDBRANCH  66  79
ENDBRANCH  40  41
ENDBRANCH  32  35
ENDBRANCH  30  31
ENDBRANCH  29  30
ENDBRANCH  28  29
ENDBRANCH   3  28
TORSDOF 15
ENDMDL
