MODEL 1
REMARK VINA RESULT:     -12.9      0.000      0.000
REMARK SMILES Cc1nn2c(nnc3c(=O)n(CCCC(=O)NCCCNC(=O)c4ccc(-c5c6nc(c(-c7ccccc7)c7ccc([nH]7)c(-c7ccccc7)c7nc(c(-c8ccccc8)c8ccc5[nH]8)C=C7)C=C6)cc4)ccc32)c1-c1ccc(F)cc1
REMARK SMILES IDX 18 1 17 2 15 3 16 4 14 6 13 7 12 8 11 9 1 10 2 11 3 12 75 13
REMARK SMILES IDX 4 14 5 15 74 16 6 17 8 18 73 19 7 20 9 21 72 22 10 23 76 24
REMARK SMILES IDX 77 25 82 26 78 27 81 28 79 29 80 30 19 31 20 32 21 33 22 34
REMARK SMILES IDX 23 36 24 37 25 38 71 39 26 40 70 41 27 42 28 43 29 44 64 45
REMARK SMILES IDX 30 46 69 47 63 48 65 49 31 50 68 51 62 52 61 53 32 55 54 56
REMARK SMILES IDX 39 57 53 58 40 59 43 60 52 61 66 62 41 63 42 64 51 66 67 67
REMARK SMILES IDX 44 68 33 69 34 70 38 71 35 72 37 73 36 74 55 75 56 76 60 77
REMARK SMILES IDX 57 78 59 79 58 80 45 81 46 82 50 83 47 84 49 85 48 86
REMARK H PARENT 17 5 21 35 65 54 43 65
REMARK Flexibility Score: inf
ROOT
ATOM      1  C   UNL A   1      34.342  28.946  26.606  1.00  0.00     0.117 C 
ENDROOT
BRANCH   1   2
ATOM      2  N   UNL A   1      33.426  27.880  26.944  1.00  0.00    -0.356 N 
ATOM      3  C   UNL A   1      32.139  27.640  26.589  1.00  0.00     0.220 C 
ATOM      4  O   UNL A   1      31.636  26.612  27.058  1.00  0.00    -0.275 OA
ATOM      5  H   UNL A   1      33.808  27.199  27.544  1.00  0.00     0.163 HD
BRANCH   3   6
ATOM      6  C   UNL A   1      31.360  28.466  25.581  1.00  0.00     0.102 C 
BRANCH   6   7
ATOM      7  C   UNL A   1      30.915  27.957  24.203  1.00  0.00     0.032 C 
BRANCH   7   8
ATOM      8  C   UNL A   1      31.800  27.215  23.191  1.00  0.00     0.126 C 
BRANCH   8   9
ATOM      9  N   UNL A   1      32.424  25.895  23.438  1.00  0.00    -0.313 N 
ATOM     10  C   UNL A   1      36.906  19.941  25.007  1.00  0.00     0.069 C 
ATOM     11  C   UNL A   1      35.608  20.648  24.875  1.00  0.00     0.070 A 
ATOM     12  N   UNL A   1      35.574  21.988  24.812  1.00  0.00    -0.170 NA
ATOM     13  C   UNL A   1      34.317  20.079  24.759  1.00  0.00     0.051 A 
ATOM     14  N   UNL A   1      34.273  22.291  24.550  1.00  0.00    -0.210 N 
ATOM     15  C   UNL A   1      33.479  21.151  24.562  1.00  0.00     0.186 A 
ATOM     16  C   UNL A   1      33.694  23.516  24.214  1.00  0.00     0.102 A 
ATOM     17  N   UNL A   1      32.137  21.235  24.343  1.00  0.00    -0.129 NA
ATOM     18  C   UNL A   1      32.393  23.468  23.880  1.00  0.00     0.177 A 
ATOM     19  C   UNL A   1      34.405  24.774  24.184  1.00  0.00     0.049 A 
ATOM     20  N   UNL A   1      31.628  22.322  23.978  1.00  0.00    -0.141 NA
ATOM     21  C   UNL A   1      31.730  24.690  23.334  1.00  0.00     0.280 A 
ATOM     22  C   UNL A   1      33.759  25.900  23.846  1.00  0.00     0.091 A 
ATOM     23  O   UNL A   1      30.613  24.566  22.847  1.00  0.00    -0.267 OA
BRANCH  13  24
ATOM     24  C   UNL A   1      33.841  18.711  24.756  1.00  0.00    -0.012 A 
ATOM     25  C   UNL A   1      34.371  17.776  23.860  1.00  0.00     0.012 A 
ATOM     26  C   UNL A   1      32.894  18.300  25.709  1.00  0.00     0.012 A 
ATOM     27  C   UNL A   1      33.967  16.440  23.929  1.00  0.00     0.040 A 
ATOM     28  C   UNL A   1      32.493  16.967  25.775  1.00  0.00     0.040 A 
ATOM     29  C   UNL A   1      33.036  16.048  24.887  1.00  0.00     0.123 A 
ATOM     30  F   UNL A   1      32.665  14.763  24.958  1.00  0.00    -0.207 F 
ENDBRANCH  13  24
ENDBRANCH   8   9
ENDBRANCH   7   8
ENDBRANCH   6   7
ENDBRANCH   3   6
ENDBRANCH   1   2
BRANCH   1  31
ATOM     31  C   UNL A   1      33.975  30.244  27.335  1.00  0.00     0.042 C 
BRANCH  31  32
ATOM     32  C   UNL A   1      35.180  31.114  27.624  1.00  0.00     0.118 C 
BRANCH  32  33
ATOM     33  N   UNL A   1      34.911  32.099  28.667  1.00  0.00    -0.352 N 
ATOM     34  C   UNL A   1      35.379  32.087  29.970  1.00  0.00     0.251 C 
ATOM     35  H   UNL A   1      34.331  32.855  28.418  1.00  0.00     0.163 HD
ATOM     36  O   UNL A   1      34.849  32.737  30.846  1.00  0.00    -0.269 OA
BRANCH  34  37
ATOM     37  C   UNL A   1      36.549  31.238  30.254  1.00  0.00     0.039 A 
ATOM     38  C   UNL A   1      36.391  29.915  30.669  1.00  0.00     0.014 A 
ATOM     39  C   UNL A   1      37.810  31.776  30.007  1.00  0.00     0.014 A 
ATOM     40  C   UNL A   1      37.518  29.103  30.748  1.00  0.00     0.010 A 
ATOM     41  C   UNL A   1      38.896  30.941  29.949  1.00  0.00     0.010 A 
ATOM     42  C   UNL A   1      38.764  29.618  30.364  1.00  0.00    -0.014 A 
BRANCH  42  43
ATOM     43  C   UNL A   1      39.943  28.764  30.327  1.00  0.00     0.031 A 
ATOM     44  C   UNL A   1      40.633  28.534  31.628  1.00  0.00     0.074 A 
ATOM     45  C   UNL A   1      40.268  28.036  29.240  1.00  0.00     0.049 A 
ATOM     46  N   UNL A   1      41.834  28.878  31.960  1.00  0.00    -0.248 NA
ATOM     47  C   UNL A   1      39.870  27.899  32.714  1.00  0.00     0.031 C 
ATOM     48  C   UNL A   1      39.518  27.881  27.986  1.00  0.00     0.029 A 
ATOM     49  N   UNL A   1      41.305  27.174  29.079  1.00  0.00    -0.354 N 
ATOM     50  C   UNL A   1      42.042  28.375  33.241  1.00  0.00     0.074 A 
ATOM     51  C   UNL A   1      40.765  27.893  33.705  1.00  0.00     0.031 C 
ATOM     52  C   UNL A   1      39.994  26.818  27.303  1.00  0.00     0.029 A 
ATOM     53  C   UNL A   1      41.192  26.348  27.971  1.00  0.00     0.049 A 
ATOM     54  H   UNL A   1      42.071  27.139  29.697  1.00  0.00     0.167 HD
ATOM     55  C   UNL A   1      43.288  28.206  33.765  1.00  0.00     0.031 A 
ATOM     56  C   UNL A   1      42.025  25.334  27.643  1.00  0.00     0.031 A 
ATOM     57  C   UNL A   1      44.300  28.867  32.989  1.00  0.00     0.049 A 
ATOM     58  C   UNL A   1      43.303  25.586  28.343  1.00  0.00     0.074 A 
ATOM     59  C   UNL A   1      44.598  30.178  32.683  1.00  0.00     0.029 A 
ATOM     60  N   UNL A   1      44.965  28.095  32.068  1.00  0.00    -0.354 N 
ATOM     61  N   UNL A   1      44.078  26.599  28.085  1.00  0.00    -0.248 NA
ATOM     62  C   UNL A   1      43.558  24.909  29.603  1.00  0.00     0.031 C 
ATOM     63  C   UNL A   1      45.058  30.147  31.333  1.00  0.00     0.029 A 
ATOM     64  C   UNL A   1      45.058  28.817  30.906  1.00  0.00     0.049 A 
ATOM     65  H   UNL A   1      45.312  27.186  32.216  1.00  0.00     0.167 HD
ATOM     66  C   UNL A   1      44.624  26.948  29.309  1.00  0.00     0.074 A 
ATOM     67  C   UNL A   1      44.386  25.793  30.169  1.00  0.00     0.031 C 
ATOM     68  C   UNL A   1      44.965  28.240  29.581  1.00  0.00     0.031 A 
BRANCH  55  69
ATOM     69  C   UNL A   1      43.630  27.146  34.775  1.00  0.00    -0.014 A 
ATOM     70  C   UNL A   1      43.601  25.791  34.403  1.00  0.00     0.009 A 
ATOM     71  C   UNL A   1      43.736  27.427  36.151  1.00  0.00     0.009 A 
ATOM     72  C   UNL A   1      43.665  24.773  35.365  1.00  0.00     0.001 A 
ATOM     73  C   UNL A   1      43.837  26.416  37.109  1.00  0.00     0.001 A 
ATOM     74  C   UNL A   1      43.786  25.085  36.716  1.00  0.00     0.000 A 
ENDBRANCH  55  69
BRANCH  56  75
ATOM     75  C   UNL A   1      41.729  24.050  26.980  1.00  0.00    -0.014 A 
ATOM     76  C   UNL A   1      42.652  23.503  26.073  1.00  0.00     0.009 A 
ATOM     77  C   UNL A   1      40.702  23.216  27.457  1.00  0.00     0.009 A 
ATOM     78  C   UNL A   1      42.599  22.149  25.720  1.00  0.00     0.001 A 
ATOM     79  C   UNL A   1      40.644  21.865  27.096  1.00  0.00     0.001 A 
ATOM     80  C   UNL A   1      41.608  21.328  26.248  1.00  0.00     0.000 A 
ENDBRANCH  56  75
BRANCH  68  81
ATOM     81  C   UNL A   1      44.979  29.214  28.427  1.00  0.00    -0.014 A 
ATOM     82  C   UNL A   1      43.827  29.889  27.988  1.00  0.00     0.009 A 
ATOM     83  C   UNL A   1      46.215  29.578  27.877  1.00  0.00     0.009 A 
ATOM     84  C   UNL A   1      43.911  30.895  27.019  1.00  0.00     0.001 A 
ATOM     85  C   UNL A   1      46.302  30.594  26.922  1.00  0.00     0.001 A 
ATOM     86  C   UNL A   1      45.150  31.253  26.493  1.00  0.00     0.000 A 
ENDBRANCH  68  81
ENDBRANCH  42  43
ENDBRANCH  34  37
ENDBRANCH  32  33
ENDBRANCH  31  32
ENDBRANCH   1  31
TORSDOF 14
ENDMDL
MODEL 2
REMARK VINA RESULT:     -12.9      3.641      8.911
REMARK SMILES Cc1nn2c(nnc3c(=O)n(CCCC(=O)NCCCNC(=O)c4ccc(-c5c6nc(c(-c7ccccc7)c7ccc([nH]7)c(-c7ccccc7)c7nc(c(-c8ccccc8)c8ccc5[nH]8)C=C7)C=C6)cc4)ccc32)c1-c1ccc(F)cc1
REMARK SMILES IDX 18 1 17 2 15 3 16 4 14 6 13 7 12 8 11 9 1 10 2 11 3 12 75 13
REMARK SMILES IDX 4 14 5 15 74 16 6 17 8 18 73 19 7 20 9 21 72 22 10 23 76 24
REMARK SMILES IDX 77 25 82 26 78 27 81 28 79 29 80 30 19 31 20 32 21 33 22 34
REMARK SMILES IDX 23 36 24 37 25 38 71 39 26 40 70 41 27 42 28 43 29 44 64 45
REMARK SMILES IDX 30 46 69 47 63 48 65 49 31 50 68 51 62 52 61 53 32 55 54 56
REMARK SMILES IDX 39 57 53 58 40 59 43 60 52 61 66 62 41 63 42 64 51 66 67 67
REMARK SMILES IDX 44 68 33 69 34 70 38 71 35 72 37 73 36 74 55 75 56 76 60 77
REMARK SMILES IDX 57 78 59 79 58 80 45 81 46 82 50 83 47 84 49 85 48 86
REMARK H PARENT 17 5 21 35 65 54 43 65
REMARK Flexibility Score: inf
ROOT
ATOM      1  C   UNL A   1      37.639  20.412  24.814  1.00  0.00     0.117 C 
ENDROOT
BRANCH   1   2
ATOM      2  N   UNL A   1      37.950  21.700  25.392  1.00  0.00    -0.356 N 
ATOM      3  C   UNL A   1      37.535  22.956  25.092  1.00  0.00     0.220 C 
ATOM      4  O   UNL A   1      37.998  23.858  25.800  1.00  0.00    -0.275 OA
ATOM      5  H   UNL A   1      38.583  21.659  26.145  1.00  0.00     0.163 HD
BRANCH   3   6
ATOM      6  C   UNL A   1      36.471  23.283  24.059  1.00  0.00     0.102 C 
BRANCH   6   7
ATOM      7  C   UNL A   1      35.009  22.824  24.145  1.00  0.00     0.032 C 
BRANCH   7   8
ATOM      8  C   UNL A   1      33.964  22.940  23.026  1.00  0.00     0.126 C 
BRANCH   8   9
ATOM      9  N   UNL A   1      32.848  23.912  23.023  1.00  0.00    -0.313 N 
ATOM     10  C   UNL A   1      26.349  27.809  23.795  1.00  0.00     0.069 C 
ATOM     11  C   UNL A   1      27.812  27.661  23.592  1.00  0.00     0.070 A 
ATOM     12  N   UNL A   1      28.422  26.505  23.897  1.00  0.00    -0.170 NA
ATOM     13  C   UNL A   1      28.713  28.610  23.052  1.00  0.00     0.051 A 
ATOM     14  N   UNL A   1      29.702  26.661  23.459  1.00  0.00    -0.210 N 
ATOM     15  C   UNL A   1      29.917  27.949  22.986  1.00  0.00     0.186 A 
ATOM     16  C   UNL A   1      30.730  25.722  23.361  1.00  0.00     0.102 A 
ATOM     17  N   UNL A   1      31.141  28.323  22.520  1.00  0.00    -0.129 NA
ATOM     18  C   UNL A   1      31.850  26.153  22.759  1.00  0.00     0.177 A 
ATOM     19  C   UNL A   1      30.638  24.359  23.832  1.00  0.00     0.049 A 
ATOM     20  N   UNL A   1      32.045  27.465  22.371  1.00  0.00    -0.141 NA
ATOM     21  C   UNL A   1      32.938  25.178  22.445  1.00  0.00     0.280 A 
ATOM     22  C   UNL A   1      31.682  23.530  23.691  1.00  0.00     0.091 A 
ATOM     23  O   UNL A   1      33.850  25.551  21.718  1.00  0.00    -0.267 OA
BRANCH  13  24
ATOM     24  C   UNL A   1      28.544  29.964  22.568  1.00  0.00    -0.012 A 
ATOM     25  C   UNL A   1      28.251  30.207  21.222  1.00  0.00     0.012 A 
ATOM     26  C   UNL A   1      28.600  31.039  23.471  1.00  0.00     0.012 A 
ATOM     27  C   UNL A   1      28.000  31.512  20.789  1.00  0.00     0.040 A 
ATOM     28  C   UNL A   1      28.352  32.340  23.036  1.00  0.00     0.040 A 
ATOM     29  C   UNL A   1      28.050  32.564  21.700  1.00  0.00     0.123 A 
ATOM     30  F   UNL A   1      27.794  33.810  21.282  1.00  0.00    -0.207 F 
ENDBRANCH  13  24
ENDBRANCH   8   9
ENDBRANCH   7   8
ENDBRANCH   6   7
ENDBRANCH   3   6
ENDBRANCH   1   2
BRANCH   1  31
ATOM     31  C   UNL A   1      38.543  19.314  25.385  1.00  0.00     0.042 C 
BRANCH  31  32
ATOM     32  C   UNL A   1      39.789  19.867  26.043  1.00  0.00     0.118 C 
BRANCH  32  33
ATOM     33  N   UNL A   1      40.986  19.117  25.673  1.00  0.00    -0.352 N 
ATOM     34  C   UNL A   1      42.289  19.583  25.643  1.00  0.00     0.251 C 
ATOM     35  H   UNL A   1      40.852  18.176  25.416  1.00  0.00     0.163 HD
ATOM     36  O   UNL A   1      43.157  19.015  25.015  1.00  0.00    -0.269 OA
BRANCH  34  37
ATOM     37  C   UNL A   1      42.579  20.812  26.402  1.00  0.00     0.039 A 
ATOM     38  C   UNL A   1      43.144  21.925  25.776  1.00  0.00     0.014 A 
ATOM     39  C   UNL A   1      42.187  20.852  27.738  1.00  0.00     0.014 A 
ATOM     40  C   UNL A   1      43.231  23.117  26.487  1.00  0.00     0.010 A 
ATOM     41  C   UNL A   1      42.141  22.058  28.388  1.00  0.00     0.010 A 
ATOM     42  C   UNL A   1      42.705  23.181  27.786  1.00  0.00    -0.014 A 
BRANCH  42  43
ATOM     43  C   UNL A   1      42.677  24.441  28.517  1.00  0.00     0.031 A 
ATOM     44  C   UNL A   1      41.552  25.364  28.199  1.00  0.00     0.074 A 
ATOM     45  C   UNL A   1      43.477  24.672  29.577  1.00  0.00     0.049 A 
ATOM     46  N   UNL A   1      41.619  26.546  27.682  1.00  0.00    -0.248 NA
ATOM     47  C   UNL A   1      40.178  24.886  28.427  1.00  0.00     0.031 C 
ATOM     48  C   UNL A   1      44.410  23.749  30.237  1.00  0.00     0.029 A 
ATOM     49  N   UNL A   1      43.531  25.773  30.370  1.00  0.00    -0.354 N 
ATOM     50  C   UNL A   1      40.315  27.033  27.655  1.00  0.00     0.074 A 
ATOM     51  C   UNL A   1      39.457  25.928  28.006  1.00  0.00     0.031 C 
ATOM     52  C   UNL A   1      44.754  24.242  31.447  1.00  0.00     0.029 A 
ATOM     53  C   UNL A   1      44.224  25.586  31.557  1.00  0.00     0.049 A 
ATOM     54  H   UNL A   1      43.112  26.630  30.124  1.00  0.00     0.167 HD
ATOM     55  C   UNL A   1      40.033  28.360  27.537  1.00  0.00     0.031 A 
ATOM     56  C   UNL A   1      44.334  26.480  32.566  1.00  0.00     0.031 A 
ATOM     57  C   UNL A   1      41.184  29.129  27.153  1.00  0.00     0.049 A 
ATOM     58  C   UNL A   1      44.049  27.813  31.992  1.00  0.00     0.074 A 
ATOM     59  C   UNL A   1      41.990  29.194  26.037  1.00  0.00     0.029 A 
ATOM     60  N   UNL A   1      41.886  29.727  28.172  1.00  0.00    -0.354 N 
ATOM     61  N   UNL A   1      44.803  28.391  31.102  1.00  0.00    -0.248 NA
ATOM     62  C   UNL A   1      42.711  28.364  32.130  1.00  0.00     0.031 C 
ATOM     63  C   UNL A   1      43.305  29.420  26.543  1.00  0.00     0.029 A 
ATOM     64  C   UNL A   1      43.221  29.526  27.933  1.00  0.00     0.049 A 
ATOM     65  H   UNL A   1      41.499  30.212  28.935  1.00  0.00     0.167 HD
ATOM     66  C   UNL A   1      43.924  29.084  30.288  1.00  0.00     0.074 A 
ATOM     67  C   UNL A   1      42.680  29.150  31.049  1.00  0.00     0.031 C 
ATOM     68  C   UNL A   1      44.204  29.290  28.969  1.00  0.00     0.031 A 
BRANCH  55  69
ATOM     69  C   UNL A   1      38.806  29.006  28.118  1.00  0.00    -0.014 A 
ATOM     70  C   UNL A   1      38.524  28.866  29.488  1.00  0.00     0.009 A 
ATOM     71  C   UNL A   1      37.784  29.538  27.308  1.00  0.00     0.009 A 
ATOM     72  C   UNL A   1      37.277  29.232  30.013  1.00  0.00     0.001 A 
ATOM     73  C   UNL A   1      36.553  29.939  27.835  1.00  0.00     0.001 A 
ATOM     74  C   UNL A   1      36.295  29.771  29.188  1.00  0.00     0.000 A 
ENDBRANCH  55  69
BRANCH  56  75
ATOM     75  C   UNL A   1      44.421  26.252  34.021  1.00  0.00    -0.014 A 
ATOM     76  C   UNL A   1      45.597  26.590  34.712  1.00  0.00     0.009 A 
ATOM     77  C   UNL A   1      43.264  25.994  34.777  1.00  0.00     0.009 A 
ATOM     78  C   UNL A   1      45.593  26.746  36.103  1.00  0.00     0.001 A 
ATOM     79  C   UNL A   1      43.264  26.141  36.168  1.00  0.00     0.001 A 
ATOM     80  C   UNL A   1      44.423  26.542  36.827  1.00  0.00     0.000 A 
ENDBRANCH  56  75
BRANCH  68  81
ATOM     81  C   UNL A   1      45.606  28.979  28.500  1.00  0.00    -0.014 A 
ATOM     82  C   UNL A   1      45.992  27.705  28.048  1.00  0.00     0.009 A 
ATOM     83  C   UNL A   1      46.512  30.038  28.358  1.00  0.00     0.009 A 
ATOM     84  C   UNL A   1      47.253  27.497  27.479  1.00  0.00     0.001 A 
ATOM     85  C   UNL A   1      47.764  29.835  27.774  1.00  0.00     0.001 A 
ATOM     86  C   UNL A   1      48.136  28.565  27.335  1.00  0.00     0.000 A 
ENDBRANCH  68  81
ENDBRANCH  42  43
ENDBRANCH  34  37
ENDBRANCH  32  33
ENDBRANCH  31  32
ENDBRANCH   1  31
TORSDOF 14
ENDMDL
MODEL 3
REMARK VINA RESULT:     -12.3      3.515      6.093
REMARK SMILES Cc1nn2c(nnc3c(=O)n(CCCC(=O)NCCCNC(=O)c4ccc(-c5c6nc(c(-c7ccccc7)c7ccc([nH]7)c(-c7ccccc7)c7nc(c(-c8ccccc8)c8ccc5[nH]8)C=C7)C=C6)cc4)ccc32)c1-c1ccc(F)cc1
REMARK SMILES IDX 18 1 17 2 15 3 16 4 14 6 13 7 12 8 11 9 1 10 2 11 3 12 75 13
REMARK SMILES IDX 4 14 5 15 74 16 6 17 8 18 73 19 7 20 9 21 72 22 10 23 76 24
REMARK SMILES IDX 77 25 82 26 78 27 81 28 79 29 80 30 19 31 20 32 21 33 22 34
REMARK SMILES IDX 23 36 24 37 25 38 71 39 26 40 70 41 27 42 28 43 29 44 64 45
REMARK SMILES IDX 30 46 69 47 63 48 65 49 31 50 68 51 62 52 61 53 32 55 54 56
REMARK SMILES IDX 39 57 53 58 40 59 43 60 52 61 66 62 41 63 42 64 51 66 67 67
REMARK SMILES IDX 44 68 33 69 34 70 38 71 35 72 37 73 36 74 55 75 56 76 60 77
REMARK SMILES IDX 57 78 59 79 58 80 45 81 46 82 50 83 47 84 49 85 48 86
REMARK H PARENT 17 5 21 35 65 54 43 65
REMARK Flexibility Score: inf
ROOT
ATOM      1  C   UNL A   1      38.451  32.021  34.035  1.00  0.00     0.117 C 
ENDROOT
BRANCH   1   2
ATOM      2  N   UNL A   1      37.142  32.515  34.401  1.00  0.00    -0.356 N 
ATOM      3  C   UNL A   1      36.180  33.155  33.691  1.00  0.00     0.220 C 
ATOM      4  O   UNL A   1      35.152  33.441  34.316  1.00  0.00    -0.275 OA
ATOM      5  H   UNL A   1      36.904  32.358  35.343  1.00  0.00     0.163 HD
BRANCH   3   6
ATOM      6  C   UNL A   1      36.245  33.409  32.195  1.00  0.00     0.102 C 
BRANCH   6   7
ATOM      7  C   UNL A   1      35.087  33.975  31.361  1.00  0.00     0.032 C 
BRANCH   7   8
ATOM      8  C   UNL A   1      35.018  34.011  29.828  1.00  0.00     0.126 C 
BRANCH   8   9
ATOM      9  N   UNL A   1      34.475  32.919  28.990  1.00  0.00    -0.313 N 
ATOM     10  C   UNL A   1      30.642  28.365  24.237  1.00  0.00     0.069 C 
ATOM     11  C   UNL A   1      31.828  28.806  25.013  1.00  0.00     0.070 A 
ATOM     12  N   UNL A   1      31.892  30.057  25.495  1.00  0.00    -0.170 NA
ATOM     13  C   UNL A   1      32.961  28.039  25.376  1.00  0.00     0.051 A 
ATOM     14  N   UNL A   1      33.017  30.077  26.262  1.00  0.00    -0.210 N 
ATOM     15  C   UNL A   1      33.711  28.877  26.167  1.00  0.00     0.186 A 
ATOM     16  C   UNL A   1      33.482  31.062  27.134  1.00  0.00     0.102 A 
ATOM     17  N   UNL A   1      34.881  28.695  26.841  1.00  0.00    -0.129 NA
ATOM     18  C   UNL A   1      34.565  30.729  27.857  1.00  0.00     0.177 A 
ATOM     19  C   UNL A   1      32.863  32.356  27.310  1.00  0.00     0.049 A 
ATOM     20  N   UNL A   1      35.265  29.552  27.674  1.00  0.00    -0.141 NA
ATOM     21  C   UNL A   1      35.032  31.641  28.944  1.00  0.00     0.280 A 
ATOM     22  C   UNL A   1      33.385  33.236  28.177  1.00  0.00     0.091 A 
ATOM     23  O   UNL A   1      35.885  31.222  29.716  1.00  0.00    -0.267 OA
BRANCH  13  24
ATOM     24  C   UNL A   1      33.345  26.667  25.118  1.00  0.00    -0.012 A 
ATOM     25  C   UNL A   1      33.248  25.700  26.124  1.00  0.00     0.012 A 
ATOM     26  C   UNL A   1      33.747  26.287  23.826  1.00  0.00     0.012 A 
ATOM     27  C   UNL A   1      33.535  24.363  25.835  1.00  0.00     0.040 A 
ATOM     28  C   UNL A   1      34.035  24.953  23.540  1.00  0.00     0.040 A 
ATOM     29  C   UNL A   1      33.922  24.003  24.547  1.00  0.00     0.123 A 
ATOM     30  F   UNL A   1      34.181  22.718  24.271  1.00  0.00    -0.207 F 
ENDBRANCH  13  24
ENDBRANCH   8   9
ENDBRANCH   7   8
ENDBRANCH   6   7
ENDBRANCH   3   6
ENDBRANCH   1   2
BRANCH   1  31
ATOM     31  C   UNL A   1      39.551  33.005  34.448  1.00  0.00     0.042 C 
BRANCH  31  32
ATOM     32  C   UNL A   1      40.484  33.352  33.308  1.00  0.00     0.118 C 
BRANCH  32  33
ATOM     33  N   UNL A   1      39.813  34.116  32.260  1.00  0.00    -0.352 N 
ATOM     34  C   UNL A   1      39.876  33.899  30.894  1.00  0.00     0.251 C 
ATOM     35  H   UNL A   1      39.253  34.870  32.557  1.00  0.00     0.163 HD
ATOM     36  O   UNL A   1      39.576  34.760  30.096  1.00  0.00    -0.269 OA
BRANCH  34  37
ATOM     37  C   UNL A   1      40.339  32.574  30.448  1.00  0.00     0.039 A 
ATOM     38  C   UNL A   1      41.680  32.353  30.127  1.00  0.00     0.014 A 
ATOM     39  C   UNL A   1      39.411  31.535  30.444  1.00  0.00     0.014 A 
ATOM     40  C   UNL A   1      42.101  31.049  29.887  1.00  0.00     0.010 A 
ATOM     41  C   UNL A   1      39.853  30.240  30.348  1.00  0.00     0.010 A 
ATOM     42  C   UNL A   1      41.185  29.995  30.022  1.00  0.00    -0.014 A 
BRANCH  42  43
ATOM     43  C   UNL A   1      41.618  28.611  29.889  1.00  0.00     0.031 A 
ATOM     44  C   UNL A   1      42.321  28.022  31.063  1.00  0.00     0.074 A 
ATOM     45  C   UNL A   1      41.214  27.829  28.867  1.00  0.00     0.049 A 
ATOM     46  N   UNL A   1      43.539  27.595  31.126  1.00  0.00    -0.248 NA
ATOM     47  C   UNL A   1      41.597  27.959  32.344  1.00  0.00     0.031 C 
ATOM     48  C   UNL A   1      40.254  28.143  27.801  1.00  0.00     0.029 A 
ATOM     49  N   UNL A   1      41.502  26.522  28.639  1.00  0.00    -0.354 N 
ATOM     50  C   UNL A   1      43.701  27.068  32.404  1.00  0.00     0.074 A 
ATOM     51  C   UNL A   1      42.521  27.430  33.149  1.00  0.00     0.031 C 
ATOM     52  C   UNL A   1      39.868  27.001  27.190  1.00  0.00     0.029 A 
ATOM     53  C   UNL A   1      40.692  25.918  27.689  1.00  0.00     0.049 A 
ATOM     54  H   UNL A   1      42.224  26.044  29.108  1.00  0.00     0.167 HD
ATOM     55  C   UNL A   1      44.703  26.200  32.713  1.00  0.00     0.031 A 
ATOM     56  C   UNL A   1      40.695  24.608  27.355  1.00  0.00     0.031 A 
ATOM     57  C   UNL A   1      45.707  26.138  31.688  1.00  0.00     0.049 A 
ATOM     58  C   UNL A   1      42.003  24.061  27.774  1.00  0.00     0.074 A 
ATOM     59  C   UNL A   1      46.625  27.022  31.162  1.00  0.00     0.029 A 
ATOM     60  N   UNL A   1      45.583  25.120  30.774  1.00  0.00    -0.354 N 
ATOM     61  N   UNL A   1      43.138  24.424  27.249  1.00  0.00    -0.248 NA
ATOM     62  C   UNL A   1      42.098  23.366  29.047  1.00  0.00     0.031 C 
ATOM     63  C   UNL A   1      46.668  26.724  29.768  1.00  0.00     0.029 A 
ATOM     64  C   UNL A   1      45.811  25.647  29.528  1.00  0.00     0.049 A 
ATOM     65  H   UNL A   1      45.369  24.182  30.976  1.00  0.00     0.167 HD
ATOM     66  C   UNL A   1      44.041  24.387  28.298  1.00  0.00     0.074 A 
ATOM     67  C   UNL A   1      43.384  23.595  29.332  1.00  0.00     0.031 C 
ATOM     68  C   UNL A   1      45.111  25.232  28.330  1.00  0.00     0.031 A 
BRANCH  55  69
ATOM     69  C   UNL A   1      44.591  25.143  33.777  1.00  0.00    -0.014 A 
ATOM     70  C   UNL A   1      45.449  25.178  34.890  1.00  0.00     0.009 A 
ATOM     71  C   UNL A   1      43.836  23.969  33.593  1.00  0.00     0.009 A 
ATOM     72  C   UNL A   1      45.549  24.087  35.765  1.00  0.00     0.001 A 
ATOM     73  C   UNL A   1      43.904  22.895  34.483  1.00  0.00     0.001 A 
ATOM     74  C   UNL A   1      44.775  22.949  35.563  1.00  0.00     0.000 A 
ENDBRANCH  55  69
BRANCH  56  75
ATOM     75  C   UNL A   1      39.578  23.741  26.932  1.00  0.00    -0.014 A 
ATOM     76  C   UNL A   1      38.335  24.311  26.608  1.00  0.00     0.009 A 
ATOM     77  C   UNL A   1      39.810  22.407  26.552  1.00  0.00     0.009 A 
ATOM     78  C   UNL A   1      37.392  23.599  25.859  1.00  0.00     0.001 A 
ATOM     79  C   UNL A   1      38.862  21.693  25.811  1.00  0.00     0.001 A 
ATOM     80  C   UNL A   1      37.664  22.299  25.444  1.00  0.00     0.000 A 
ENDBRANCH  56  75
BRANCH  68  81
ATOM     81  C   UNL A   1      45.422  26.009  27.073  1.00  0.00    -0.014 A 
ATOM     82  C   UNL A   1      44.952  27.315  26.850  1.00  0.00     0.009 A 
ATOM     83  C   UNL A   1      46.346  25.471  26.168  1.00  0.00     0.009 A 
ATOM     84  C   UNL A   1      45.387  28.056  25.746  1.00  0.00     0.001 A 
ATOM     85  C   UNL A   1      46.795  26.216  25.075  1.00  0.00     0.001 A 
ATOM     86  C   UNL A   1      46.316  27.508  24.863  1.00  0.00     0.000 A 
ENDBRANCH  68  81
ENDBRANCH  42  43
ENDBRANCH  34  37
ENDBRANCH  32  33
ENDBRANCH  31  32
ENDBRANCH   1  31
TORSDOF 14
ENDMDL
