MODEL 1
REMARK VINA RESULT:     -14.2      0.000      0.000
REMARK SMILES C[C@]12C(=O)N(c3ccc(C(=O)NCCCNC(=O)c4ccc(-c5c6nc(c(-c7ccccc7)c7ccc([nH]7)c(-c7ccccc7)c7nc(c(-c8ccccc8)c8ccc5[nH]8)C=C7)C=C6)cc4)cc3)C(=O)[C@H]1[C@H]1c3ccccc3[C@@H]2c2ccccc21
REMARK SMILES IDX 14 1 13 2 12 3 10 4 11 5 9 7 6 8 7 9 68 10 8 11 67 12 5 13
REMARK SMILES IDX 1 14 2 15 3 16 71 17 79 18 4 19 69 20 72 21 78 22 80 23
REMARK SMILES IDX 70 24 73 25 85 26 77 27 81 28 74 29 84 30 76 31 82 32 75 33
REMARK SMILES IDX 83 34 15 35 16 36 17 37 18 39 19 40 20 41 66 42 21 43 65 44
REMARK SMILES IDX 22 45 23 46 24 47 59 48 25 49 64 50 58 51 60 52 26 53 63 54
REMARK SMILES IDX 57 55 56 56 27 58 49 59 34 60 48 61 35 62 38 63 47 64 61 65
REMARK SMILES IDX 36 66 37 67 46 69 62 70 39 71 28 72 29 73 33 74 30 75 32 76
REMARK SMILES IDX 31 77 50 78 51 79 55 80 52 81 54 82 53 83 40 84 41 85 45 86
REMARK SMILES IDX 42 87 44 88 43 89
REMARK H PARENT 12 6 16 38 60 57 38 68
REMARK Flexibility Score: inf
ROOT
ATOM      1  C   UNL A   1      37.579  19.730  25.154  1.00  0.00     0.042 C 
ENDROOT
BRANCH   1   2
ATOM      2  C   UNL A   1      36.547  20.810  24.861  1.00  0.00     0.118 C 
BRANCH   2   3
ATOM      3  N   UNL A   1      37.020  21.790  23.899  1.00  0.00    -0.352 N 
ATOM      4  C   UNL A   1      36.463  22.923  23.370  1.00  0.00     0.251 C 
ATOM      5  O   UNL A   1      37.051  23.459  22.430  1.00  0.00    -0.269 OA
ATOM      6  H   UNL A   1      37.925  21.603  23.560  1.00  0.00     0.163 HD
BRANCH   4   7
ATOM      7  C   UNL A   1      35.190  23.517  23.848  1.00  0.00     0.039 A 
ATOM      8  C   UNL A   1      32.748  24.857  24.483  1.00  0.00     0.052 A 
ATOM      9  C   UNL A   1      32.924  24.169  23.268  1.00  0.00     0.027 A 
ATOM     10  C   UNL A   1      33.824  24.837  25.379  1.00  0.00     0.027 A 
ATOM     11  C   UNL A   1      34.119  23.514  22.953  1.00  0.00     0.016 A 
ATOM     12  C   UNL A   1      35.038  24.203  25.053  1.00  0.00     0.016 A 
BRANCH   8  13
ATOM     13  N   UNL A   1      31.599  25.682  24.685  1.00  0.00    -0.250 N 
ATOM     14  C   UNL A   1      28.278  26.729  24.039  1.00  0.00     0.024 C 
ATOM     15  C   UNL A   1      29.792  26.941  23.897  1.00  0.00     0.071 C 
ATOM     16  C   UNL A   1      30.471  25.601  23.899  1.00  0.00     0.241 C 
ATOM     17  C   UNL A   1      30.386  27.665  25.136  1.00  0.00     0.107 C 
ATOM     18  C   UNL A   1      30.212  27.698  22.585  1.00  0.00     0.066 C 
ATOM     19  O   UNL A   1      30.037  24.646  23.277  1.00  0.00    -0.273 OA
ATOM     20  C   UNL A   1      31.486  26.717  25.595  1.00  0.00     0.238 C 
ATOM     21  C   UNL A   1      30.968  29.058  24.716  1.00  0.00     0.063 C 
ATOM     22  C   UNL A   1      31.725  27.982  22.634  1.00  0.00    -0.036 A 
ATOM     23  C   UNL A   1      29.531  29.057  22.700  1.00  0.00    -0.036 A 
ATOM     24  O   UNL A   1      32.135  26.925  26.613  1.00  0.00    -0.274 OA
ATOM     25  C   UNL A   1      32.124  28.744  23.765  1.00  0.00    -0.036 A 
ATOM     26  C   UNL A   1      29.906  29.775  23.870  1.00  0.00    -0.036 A 
ATOM     27  C   UNL A   1      32.678  27.522  21.737  1.00  0.00     0.005 A 
ATOM     28  C   UNL A   1      28.633  29.580  21.781  1.00  0.00     0.005 A 
ATOM     29  C   UNL A   1      33.457  29.055  23.993  1.00  0.00     0.004 A 
ATOM     30  C   UNL A   1      29.370  31.031  24.107  1.00  0.00     0.004 A 
ATOM     31  C   UNL A   1      34.023  27.825  21.975  1.00  0.00     0.000 A 
ATOM     32  C   UNL A   1      28.097  30.840  22.030  1.00  0.00     0.000 A 
ATOM     33  C   UNL A   1      34.408  28.588  23.089  1.00  0.00     0.000 A 
ATOM     34  C   UNL A   1      28.461  31.557  23.182  1.00  0.00     0.000 A 
ENDBRANCH   8  13
ENDBRANCH   4   7
ENDBRANCH   2   3
ENDBRANCH   1   2
BRANCH   1  35
ATOM     35  C   UNL A   1      38.840  20.256  25.831  1.00  0.00     0.118 C 
BRANCH  35  36
ATOM     36  N   UNL A   1      39.913  19.267  25.885  1.00  0.00    -0.352 N 
ATOM     37  C   UNL A   1      41.266  19.393  26.085  1.00  0.00     0.251 C 
ATOM     38  H   UNL A   1      39.611  18.339  25.753  1.00  0.00     0.163 HD
ATOM     39  O   UNL A   1      41.998  18.429  25.874  1.00  0.00    -0.269 OA
BRANCH  37  40
ATOM     40  C   UNL A   1      41.862  20.676  26.520  1.00  0.00     0.039 A 
ATOM     41  C   UNL A   1      42.136  20.927  27.862  1.00  0.00     0.014 A 
ATOM     42  C   UNL A   1      42.193  21.639  25.558  1.00  0.00     0.014 A 
ATOM     43  C   UNL A   1      42.538  22.196  28.262  1.00  0.00     0.010 A 
ATOM     44  C   UNL A   1      42.700  22.882  25.952  1.00  0.00     0.010 A 
ATOM     45  C   UNL A   1      42.819  23.194  27.314  1.00  0.00    -0.014 A 
BRANCH  45  46
ATOM     46  C   UNL A   1      43.220  24.547  27.785  1.00  0.00     0.031 A 
ATOM     47  C   UNL A   1      44.660  24.985  27.736  1.00  0.00     0.074 A 
ATOM     48  C   UNL A   1      42.269  25.418  28.179  1.00  0.00     0.049 A 
ATOM     49  N   UNL A   1      45.173  26.157  28.025  1.00  0.00    -0.248 NA
ATOM     50  C   UNL A   1      45.657  23.989  27.311  1.00  0.00     0.031 C 
ATOM     51  C   UNL A   1      40.837  25.119  28.264  1.00  0.00     0.029 A 
ATOM     52  N   UNL A   1      42.353  26.740  28.537  1.00  0.00    -0.354 N 
ATOM     53  C   UNL A   1      46.543  26.030  27.837  1.00  0.00     0.074 A 
ATOM     54  C   UNL A   1      46.792  24.663  27.437  1.00  0.00     0.031 C 
ATOM     55  C   UNL A   1      40.172  26.241  28.572  1.00  0.00     0.029 A 
ATOM     56  C   UNL A   1      41.131  27.324  28.771  1.00  0.00     0.049 A 
ATOM     57  H   UNL A   1      43.206  27.225  28.617  1.00  0.00     0.167 HD
ATOM     58  C   UNL A   1      47.508  26.970  27.973  1.00  0.00     0.031 A 
ATOM     59  C   UNL A   1      40.809  28.588  29.107  1.00  0.00     0.031 A 
ATOM     60  C   UNL A   1      47.263  28.337  28.351  1.00  0.00     0.049 A 
ATOM     61  C   UNL A   1      41.898  29.608  29.264  1.00  0.00     0.074 A 
ATOM     62  C   UNL A   1      48.180  29.363  28.499  1.00  0.00     0.029 A 
ATOM     63  N   UNL A   1      46.015  28.869  28.631  1.00  0.00    -0.354 N 
ATOM     64  N   UNL A   1      43.187  29.469  29.075  1.00  0.00    -0.248 NA
ATOM     65  C   UNL A   1      41.492  30.958  29.681  1.00  0.00     0.031 C 
ATOM     66  C   UNL A   1      47.494  30.505  28.917  1.00  0.00     0.029 A 
ATOM     67  C   UNL A   1      46.141  30.206  28.969  1.00  0.00     0.049 A 
ATOM     68  H   UNL A   1      45.167  28.373  28.596  1.00  0.00     0.167 HD
ATOM     69  C   UNL A   1      43.745  30.713  29.338  1.00  0.00     0.074 A 
ATOM     70  C   UNL A   1      42.652  31.601  29.676  1.00  0.00     0.031 C 
ATOM     71  C   UNL A   1      45.048  31.080  29.305  1.00  0.00     0.031 A 
BRANCH  58  72
ATOM     72  C   UNL A   1      48.933  26.564  27.721  1.00  0.00    -0.014 A 
ATOM     73  C   UNL A   1      49.469  26.673  26.427  1.00  0.00     0.009 A 
ATOM     74  C   UNL A   1      49.714  25.985  28.733  1.00  0.00     0.009 A 
ATOM     75  C   UNL A   1      50.752  26.197  26.148  1.00  0.00     0.001 A 
ATOM     76  C   UNL A   1      51.006  25.534  28.456  1.00  0.00     0.001 A 
ATOM     77  C   UNL A   1      51.520  25.631  27.163  1.00  0.00     0.000 A 
ENDBRANCH  58  72
BRANCH  59  78
ATOM     78  C   UNL A   1      39.380  28.949  29.302  1.00  0.00    -0.014 A 
ATOM     79  C   UNL A   1      38.773  28.799  30.560  1.00  0.00     0.009 A 
ATOM     80  C   UNL A   1      38.603  29.399  28.224  1.00  0.00     0.009 A 
ATOM     81  C   UNL A   1      37.414  29.063  30.729  1.00  0.00     0.001 A 
ATOM     82  C   UNL A   1      37.249  29.693  28.404  1.00  0.00     0.001 A 
ATOM     83  C   UNL A   1      36.653  29.515  29.652  1.00  0.00     0.000 A 
ENDBRANCH  59  78
BRANCH  71  84
ATOM     84  C   UNL A   1      45.381  32.509  29.631  1.00  0.00    -0.014 A 
ATOM     85  C   UNL A   1      45.489  33.452  28.597  1.00  0.00     0.009 A 
ATOM     86  C   UNL A   1      45.683  32.899  30.944  1.00  0.00     0.009 A 
ATOM     87  C   UNL A   1      45.902  34.756  28.869  1.00  0.00     0.001 A 
ATOM     88  C   UNL A   1      46.070  34.212  31.217  1.00  0.00     0.001 A 
ATOM     89  C   UNL A   1      46.187  35.136  30.179  1.00  0.00     0.000 A 
ENDBRANCH  71  84
ENDBRANCH  45  46
ENDBRANCH  37  40
ENDBRANCH  35  36
ENDBRANCH   1  35
TORSDOF 11
ENDMDL
MODEL 2
REMARK VINA RESULT:     -14.2      0.963      5.611
REMARK SMILES C[C@]12C(=O)N(c3ccc(C(=O)NCCCNC(=O)c4ccc(-c5c6nc(c(-c7ccccc7)c7ccc([nH]7)c(-c7ccccc7)c7nc(c(-c8ccccc8)c8ccc5[nH]8)C=C7)C=C6)cc4)cc3)C(=O)[C@H]1[C@H]1c3ccccc3[C@@H]2c2ccccc21
REMARK SMILES IDX 14 1 13 2 12 3 10 4 11 5 9 7 6 8 7 9 68 10 8 11 67 12 5 13
REMARK SMILES IDX 1 14 2 15 3 16 71 17 79 18 4 19 69 20 72 21 78 22 80 23
REMARK SMILES IDX 70 24 73 25 85 26 77 27 81 28 74 29 84 30 76 31 82 32 75 33
REMARK SMILES IDX 83 34 15 35 16 36 17 37 18 39 19 40 20 41 66 42 21 43 65 44
REMARK SMILES IDX 22 45 23 46 24 47 59 48 25 49 64 50 58 51 60 52 26 53 63 54
REMARK SMILES IDX 57 55 56 56 27 58 49 59 34 60 48 61 35 62 38 63 47 64 61 65
REMARK SMILES IDX 36 66 37 67 46 69 62 70 39 71 28 72 29 73 33 74 30 75 32 76
REMARK SMILES IDX 31 77 50 78 51 79 55 80 52 81 54 82 53 83 40 84 41 85 45 86
REMARK SMILES IDX 42 87 44 88 43 89
REMARK H PARENT 12 6 16 38 60 57 38 68
REMARK Flexibility Score: inf
ROOT
ATOM      1  C   UNL A   1      37.615  19.754  25.217  1.00  0.00     0.042 C 
ENDROOT
BRANCH   1   2
ATOM      2  C   UNL A   1      36.550  20.772  24.834  1.00  0.00     0.118 C 
BRANCH   2   3
ATOM      3  N   UNL A   1      37.034  21.759  23.884  1.00  0.00    -0.352 N 
ATOM      4  C   UNL A   1      36.489  22.903  23.367  1.00  0.00     0.251 C 
ATOM      5  O   UNL A   1      37.085  23.444  22.434  1.00  0.00    -0.269 OA
ATOM      6  H   UNL A   1      37.938  21.566  23.544  1.00  0.00     0.163 HD
BRANCH   4   7
ATOM      7  C   UNL A   1      35.221  23.505  23.851  1.00  0.00     0.039 A 
ATOM      8  C   UNL A   1      32.781  24.845  24.487  1.00  0.00     0.052 A 
ATOM      9  C   UNL A   1      32.935  24.107  23.299  1.00  0.00     0.027 A 
ATOM     10  C   UNL A   1      33.878  24.876  25.357  1.00  0.00     0.027 A 
ATOM     11  C   UNL A   1      34.129  23.451  22.984  1.00  0.00     0.016 A 
ATOM     12  C   UNL A   1      35.091  24.240  25.029  1.00  0.00     0.016 A 
BRANCH   8  13
ATOM     13  N   UNL A   1      31.627  25.667  24.682  1.00  0.00    -0.250 N 
ATOM     14  C   UNL A   1      28.310  26.708  24.009  1.00  0.00     0.024 C 
ATOM     15  C   UNL A   1      29.825  26.925  23.882  1.00  0.00     0.071 C 
ATOM     16  C   UNL A   1      30.508  25.586  23.884  1.00  0.00     0.241 C 
ATOM     17  C   UNL A   1      30.405  27.644  25.131  1.00  0.00     0.107 C 
ATOM     18  C   UNL A   1      30.256  27.689  22.578  1.00  0.00     0.066 C 
ATOM     19  O   UNL A   1      30.083  24.633  23.254  1.00  0.00    -0.273 OA
ATOM     20  C   UNL A   1      31.503  26.697  25.596  1.00  0.00     0.238 C 
ATOM     21  C   UNL A   1      30.987  29.040  24.722  1.00  0.00     0.063 C 
ATOM     22  C   UNL A   1      31.768  27.976  22.643  1.00  0.00    -0.036 A 
ATOM     23  C   UNL A   1      29.571  29.045  22.693  1.00  0.00    -0.036 A 
ATOM     24  O   UNL A   1      32.142  26.902  26.621  1.00  0.00    -0.274 OA
ATOM     25  C   UNL A   1      32.154  28.734  23.781  1.00  0.00    -0.036 A 
ATOM     26  C   UNL A   1      29.932  29.759  23.870  1.00  0.00    -0.036 A 
ATOM     27  C   UNL A   1      32.731  27.523  21.753  1.00  0.00     0.005 A 
ATOM     28  C   UNL A   1      28.681  29.570  21.767  1.00  0.00     0.005 A 
ATOM     29  C   UNL A   1      33.484  29.047  24.024  1.00  0.00     0.004 A 
ATOM     30  C   UNL A   1      29.391  31.012  24.107  1.00  0.00     0.004 A 
ATOM     31  C   UNL A   1      34.073  27.829  22.006  1.00  0.00     0.000 A 
ATOM     32  C   UNL A   1      28.139  30.828  22.017  1.00  0.00     0.000 A 
ATOM     33  C   UNL A   1      34.445  28.587  23.127  1.00  0.00     0.000 A 
ATOM     34  C   UNL A   1      28.490  31.541  23.175  1.00  0.00     0.000 A 
ENDBRANCH   8  13
ENDBRANCH   4   7
ENDBRANCH   2   3
ENDBRANCH   1   2
BRANCH   1  35
ATOM     35  C   UNL A   1      38.884  20.379  25.786  1.00  0.00     0.118 C 
BRANCH  35  36
ATOM     36  N   UNL A   1      40.002  19.442  25.850  1.00  0.00    -0.352 N 
ATOM     37  C   UNL A   1      41.341  19.629  26.096  1.00  0.00     0.251 C 
ATOM     38  H   UNL A   1      39.750  18.504  25.687  1.00  0.00     0.163 HD
ATOM     39  O   UNL A   1      42.125  18.707  25.886  1.00  0.00    -0.269 OA
BRANCH  37  40
ATOM     40  C   UNL A   1      41.859  20.927  26.581  1.00  0.00     0.039 A 
ATOM     41  C   UNL A   1      41.909  21.223  27.940  1.00  0.00     0.014 A 
ATOM     42  C   UNL A   1      42.344  21.859  25.655  1.00  0.00     0.014 A 
ATOM     43  C   UNL A   1      42.242  22.506  28.360  1.00  0.00     0.010 A 
ATOM     44  C   UNL A   1      42.782  23.117  26.087  1.00  0.00     0.010 A 
ATOM     45  C   UNL A   1      42.677  23.473  27.439  1.00  0.00    -0.014 A 
BRANCH  45  46
ATOM     46  C   UNL A   1      42.997  24.842  27.925  1.00  0.00     0.031 A 
ATOM     47  C   UNL A   1      41.904  25.846  28.179  1.00  0.00     0.074 A 
ATOM     48  C   UNL A   1      44.275  25.155  28.222  1.00  0.00     0.049 A 
ATOM     49  N   UNL A   1      41.997  27.053  28.683  1.00  0.00    -0.248 NA
ATOM     50  C   UNL A   1      40.530  25.455  27.823  1.00  0.00     0.031 C 
ATOM     51  C   UNL A   1      45.425  24.269  28.029  1.00  0.00     0.029 A 
ATOM     52  N   UNL A   1      44.816  26.282  28.790  1.00  0.00    -0.354 N 
ATOM     53  C   UNL A   1      40.706  27.566  28.685  1.00  0.00     0.074 A 
ATOM     54  C   UNL A   1      39.848  26.556  28.107  1.00  0.00     0.031 C 
ATOM     55  C   UNL A   1      46.519  24.852  28.540  1.00  0.00     0.029 A 
ATOM     56  C   UNL A   1      46.164  26.177  29.038  1.00  0.00     0.049 A 
ATOM     57  H   UNL A   1      44.290  27.087  29.000  1.00  0.00     0.167 HD
ATOM     58  C   UNL A   1      40.272  28.765  29.139  1.00  0.00     0.031 A 
ATOM     59  C   UNL A   1      47.025  27.045  29.602  1.00  0.00     0.031 A 
ATOM     60  C   UNL A   1      41.119  29.764  29.735  1.00  0.00     0.049 A 
ATOM     61  C   UNL A   1      46.520  28.373  30.086  1.00  0.00     0.074 A 
ATOM     62  C   UNL A   1      40.760  31.003  30.236  1.00  0.00     0.029 A 
ATOM     63  N   UNL A   1      42.486  29.637  29.915  1.00  0.00    -0.354 N 
ATOM     64  N   UNL A   1      45.294  28.836  30.084  1.00  0.00    -0.248 NA
ATOM     65  C   UNL A   1      47.513  29.300  30.648  1.00  0.00     0.031 C 
ATOM     66  C   UNL A   1      41.919  31.647  30.677  1.00  0.00     0.029 A 
ATOM     67  C   UNL A   1      42.989  30.784  30.506  1.00  0.00     0.049 A 
ATOM     68  H   UNL A   1      43.020  28.850  29.663  1.00  0.00     0.167 HD
ATOM     69  C   UNL A   1      45.365  30.101  30.653  1.00  0.00     0.074 A 
ATOM     70  C   UNL A   1      46.751  30.323  31.010  1.00  0.00     0.031 C 
ATOM     71  C   UNL A   1      44.369  30.996  30.856  1.00  0.00     0.031 A 
BRANCH  58  72
ATOM     72  C   UNL A   1      38.808  29.083  29.009  1.00  0.00    -0.014 A 
ATOM     73  C   UNL A   1      38.322  29.649  27.819  1.00  0.00     0.009 A 
ATOM     74  C   UNL A   1      37.929  28.917  30.090  1.00  0.00     0.009 A 
ATOM     75  C   UNL A   1      36.990  30.056  27.718  1.00  0.00     0.001 A 
ATOM     76  C   UNL A   1      36.591  29.301  29.977  1.00  0.00     0.001 A 
ATOM     77  C   UNL A   1      36.126  29.879  28.796  1.00  0.00     0.000 A 
ENDBRANCH  58  72
BRANCH  59  78
ATOM     78  C   UNL A   1      48.455  26.665  29.747  1.00  0.00    -0.014 A 
ATOM     79  C   UNL A   1      49.364  26.905  28.704  1.00  0.00     0.009 A 
ATOM     80  C   UNL A   1      48.908  26.017  30.906  1.00  0.00     0.009 A 
ATOM     81  C   UNL A   1      50.689  26.479  28.806  1.00  0.00     0.001 A 
ATOM     82  C   UNL A   1      50.243  25.621  31.017  1.00  0.00     0.001 A 
ATOM     83  C   UNL A   1      51.130  25.842  29.964  1.00  0.00     0.000 A 
ENDBRANCH  59  78
BRANCH  71  84
ATOM     84  C   UNL A   1      44.725  32.304  31.504  1.00  0.00    -0.014 A 
ATOM     85  C   UNL A   1      44.658  32.429  32.901  1.00  0.00     0.009 A 
ATOM     86  C   UNL A   1      45.029  33.434  30.732  1.00  0.00     0.009 A 
ATOM     87  C   UNL A   1      44.879  33.663  33.512  1.00  0.00     0.001 A 
ATOM     88  C   UNL A   1      45.277  34.662  31.348  1.00  0.00     0.001 A 
ATOM     89  C   UNL A   1      45.193  34.777  32.736  1.00  0.00     0.000 A 
ENDBRANCH  71  84
ENDBRANCH  45  46
ENDBRANCH  37  40
ENDBRANCH  35  36
ENDBRANCH   1  35
TORSDOF 11
ENDMDL
MODEL 3
REMARK VINA RESULT:     -14.1      4.372      9.601
REMARK SMILES C[C@]12C(=O)N(c3ccc(C(=O)NCCCNC(=O)c4ccc(-c5c6nc(c(-c7ccccc7)c7ccc([nH]7)c(-c7ccccc7)c7nc(c(-c8ccccc8)c8ccc5[nH]8)C=C7)C=C6)cc4)cc3)C(=O)[C@H]1[C@H]1c3ccccc3[C@@H]2c2ccccc21
REMARK SMILES IDX 14 1 13 2 12 3 10 4 11 5 9 7 6 8 7 9 68 10 8 11 67 12 5 13
REMARK SMILES IDX 1 14 2 15 3 16 71 17 79 18 4 19 69 20 72 21 78 22 80 23
REMARK SMILES IDX 70 24 73 25 85 26 77 27 81 28 74 29 84 30 76 31 82 32 75 33
REMARK SMILES IDX 83 34 15 35 16 36 17 37 18 39 19 40 20 41 66 42 21 43 65 44
REMARK SMILES IDX 22 45 23 46 24 47 59 48 25 49 64 50 58 51 60 52 26 53 63 54
REMARK SMILES IDX 57 55 56 56 27 58 49 59 34 60 48 61 35 62 38 63 47 64 61 65
REMARK SMILES IDX 36 66 37 67 46 69 62 70 39 71 28 72 29 73 33 74 30 75 32 76
REMARK SMILES IDX 31 77 50 78 51 79 55 80 52 81 54 82 53 83 40 84 41 85 45 86
REMARK SMILES IDX 42 87 44 88 43 89
REMARK H PARENT 12 6 16 38 60 57 38 68
REMARK Flexibility Score: inf
ROOT
ATOM      1  C   UNL A   1      30.654  31.479  25.908  1.00  0.00     0.042 C 
ENDROOT
BRANCH   1   2
ATOM      2  C   UNL A   1      30.277  32.271  24.664  1.00  0.00     0.118 C 
BRANCH   2   3
ATOM      3  N   UNL A   1      28.956  31.935  24.164  1.00  0.00    -0.352 N 
ATOM      4  C   UNL A   1      28.475  30.889  23.423  1.00  0.00     0.251 C 
ATOM      5  O   UNL A   1      27.321  30.975  23.003  1.00  0.00    -0.269 OA
ATOM      6  H   UNL A   1      28.265  32.593  24.408  1.00  0.00     0.163 HD
BRANCH   4   7
ATOM      7  C   UNL A   1      29.272  29.684  23.085  1.00  0.00     0.039 A 
ATOM      8  C   UNL A   1      30.797  27.289  22.772  1.00  0.00     0.052 A 
ATOM      9  C   UNL A   1      29.528  27.287  23.379  1.00  0.00     0.027 A 
ATOM     10  C   UNL A   1      31.272  28.523  22.310  1.00  0.00     0.027 A 
ATOM     11  C   UNL A   1      28.779  28.458  23.535  1.00  0.00     0.016 A 
ATOM     12  C   UNL A   1      30.534  29.707  22.491  1.00  0.00     0.016 A 
BRANCH   8  13
ATOM     13  N   UNL A   1      31.618  26.120  22.812  1.00  0.00    -0.250 N 
ATOM     14  C   UNL A   1      32.191  22.643  23.174  1.00  0.00     0.024 C 
ATOM     15  C   UNL A   1      32.253  24.069  23.742  1.00  0.00     0.071 C 
ATOM     16  C   UNL A   1      31.132  24.876  23.149  1.00  0.00     0.241 C 
ATOM     17  C   UNL A   1      33.536  24.812  23.279  1.00  0.00     0.107 C 
ATOM     18  C   UNL A   1      32.130  24.141  25.307  1.00  0.00     0.066 C 
ATOM     19  O   UNL A   1      30.002  24.434  23.023  1.00  0.00    -0.273 OA
ATOM     20  C   UNL A   1      32.988  26.076  22.630  1.00  0.00     0.238 C 
ATOM     21  C   UNL A   1      34.437  25.148  24.517  1.00  0.00     0.063 C 
ATOM     22  C   UNL A   1      32.358  25.596  25.760  1.00  0.00    -0.036 A 
ATOM     23  C   UNL A   1      33.331  23.354  25.816  1.00  0.00    -0.036 A 
ATOM     24  O   UNL A   1      33.720  26.885  22.072  1.00  0.00    -0.274 OA
ATOM     25  C   UNL A   1      33.616  26.123  25.363  1.00  0.00    -0.036 A 
ATOM     26  C   UNL A   1      34.575  23.870  25.357  1.00  0.00    -0.036 A 
ATOM     27  C   UNL A   1      31.452  26.399  26.437  1.00  0.00     0.005 A 
ATOM     28  C   UNL A   1      33.265  22.244  26.644  1.00  0.00     0.005 A 
ATOM     29  C   UNL A   1      33.973  27.434  25.647  1.00  0.00     0.004 A 
ATOM     30  C   UNL A   1      35.758  23.260  25.744  1.00  0.00     0.004 A 
ATOM     31  C   UNL A   1      31.808  27.724  26.712  1.00  0.00     0.000 A 
ATOM     32  C   UNL A   1      34.457  21.634  27.023  1.00  0.00     0.000 A 
ATOM     33  C   UNL A   1      33.057  28.235  26.325  1.00  0.00     0.000 A 
ATOM     34  C   UNL A   1      35.691  22.137  26.577  1.00  0.00     0.000 A 
ENDBRANCH   8  13
ENDBRANCH   4   7
ENDBRANCH   2   3
ENDBRANCH   1   2
BRANCH   1  35
ATOM     35  C   UNL A   1      32.006  31.867  26.495  1.00  0.00     0.118 C 
BRANCH  35  36
ATOM     36  N   UNL A   1      32.030  33.231  27.019  1.00  0.00    -0.352 N 
ATOM     37  C   UNL A   1      32.865  33.854  27.914  1.00  0.00     0.251 C 
ATOM     38  H   UNL A   1      31.316  33.809  26.665  1.00  0.00     0.163 HD
ATOM     39  O   UNL A   1      32.553  34.955  28.361  1.00  0.00    -0.269 OA
BRANCH  37  40
ATOM     40  C   UNL A   1      34.117  33.211  28.371  1.00  0.00     0.039 A 
ATOM     41  C   UNL A   1      34.122  31.911  28.867  1.00  0.00     0.014 A 
ATOM     42  C   UNL A   1      35.325  33.913  28.265  1.00  0.00     0.014 A 
ATOM     43  C   UNL A   1      35.277  31.391  29.443  1.00  0.00     0.010 A 
ATOM     44  C   UNL A   1      36.511  33.347  28.748  1.00  0.00     0.010 A 
ATOM     45  C   UNL A   1      36.486  32.105  29.397  1.00  0.00    -0.014 A 
BRANCH  45  46
ATOM     46  C   UNL A   1      37.692  31.527  30.049  1.00  0.00     0.031 A 
ATOM     47  C   UNL A   1      38.003  31.820  31.493  1.00  0.00     0.074 A 
ATOM     48  C   UNL A   1      38.464  30.662  29.360  1.00  0.00     0.049 A 
ATOM     49  N   UNL A   1      38.962  31.332  32.242  1.00  0.00    -0.248 NA
ATOM     50  C   UNL A   1      37.134  32.781  32.191  1.00  0.00     0.031 C 
ATOM     51  C   UNL A   1      38.264  30.289  27.958  1.00  0.00     0.029 A 
ATOM     52  N   UNL A   1      39.541  29.907  29.754  1.00  0.00    -0.354 N 
ATOM     53  C   UNL A   1      38.823  31.939  33.483  1.00  0.00     0.074 A 
ATOM     54  C   UNL A   1      37.707  32.853  33.385  1.00  0.00     0.031 C 
ATOM     55  C   UNL A   1      39.135  29.322  27.632  1.00  0.00     0.029 A 
ATOM     56  C   UNL A   1      39.997  29.053  28.779  1.00  0.00     0.049 A 
ATOM     57  H   UNL A   1      39.946  29.971  30.649  1.00  0.00     0.167 HD
ATOM     58  C   UNL A   1      39.551  31.746  34.608  1.00  0.00     0.031 A 
ATOM     59  C   UNL A   1      40.996  28.150  28.798  1.00  0.00     0.031 A 
ATOM     60  C   UNL A   1      40.649  30.822  34.716  1.00  0.00     0.049 A 
ATOM     61  C   UNL A   1      41.796  27.963  30.054  1.00  0.00     0.074 A 
ATOM     62  C   UNL A   1      41.434  30.549  35.823  1.00  0.00     0.029 A 
ATOM     63  N   UNL A   1      41.111  30.017  33.688  1.00  0.00    -0.354 N 
ATOM     64  N   UNL A   1      41.644  28.543  31.219  1.00  0.00    -0.248 NA
ATOM     65  C   UNL A   1      42.905  27.000  30.000  1.00  0.00     0.031 C 
ATOM     66  C   UNL A   1      42.404  29.615  35.451  1.00  0.00     0.029 A 
ATOM     67  C   UNL A   1      42.183  29.260  34.130  1.00  0.00     0.049 A 
ATOM     68  H   UNL A   1      40.734  29.987  32.779  1.00  0.00     0.167 HD
ATOM     69  C   UNL A   1      42.628  28.009  32.040  1.00  0.00     0.074 A 
ATOM     70  C   UNL A   1      43.357  27.040  31.247  1.00  0.00     0.031 C 
ATOM     71  C   UNL A   1      42.902  28.301  33.333  1.00  0.00     0.031 A 
BRANCH  58  72
ATOM     72  C   UNL A   1      39.198  32.551  35.828  1.00  0.00    -0.014 A 
ATOM     73  C   UNL A   1      38.235  32.065  36.727  1.00  0.00     0.009 A 
ATOM     74  C   UNL A   1      39.741  33.827  36.038  1.00  0.00     0.009 A 
ATOM     75  C   UNL A   1      37.811  32.846  37.804  1.00  0.00     0.001 A 
ATOM     76  C   UNL A   1      39.334  34.595  37.131  1.00  0.00     0.001 A 
ATOM     77  C   UNL A   1      38.363  34.109  38.006  1.00  0.00     0.000 A 
ENDBRANCH  58  72
BRANCH  59  78
ATOM     78  C   UNL A   1      41.276  27.347  27.578  1.00  0.00    -0.014 A 
ATOM     79  C   UNL A   1      40.610  26.130  27.357  1.00  0.00     0.009 A 
ATOM     80  C   UNL A   1      42.244  27.767  26.653  1.00  0.00     0.009 A 
ATOM     81  C   UNL A   1      40.926  25.337  26.254  1.00  0.00     0.001 A 
ATOM     82  C   UNL A   1      42.536  26.985  25.532  1.00  0.00     0.001 A 
ATOM     83  C   UNL A   1      41.885  25.767  25.339  1.00  0.00     0.000 A 
ENDBRANCH  59  78
BRANCH  71  84
ATOM     84  C   UNL A   1      44.032  27.563  33.994  1.00  0.00    -0.014 A 
ATOM     85  C   UNL A   1      43.776  26.360  34.671  1.00  0.00     0.009 A 
ATOM     86  C   UNL A   1      45.325  28.103  34.029  1.00  0.00     0.009 A 
ATOM     87  C   UNL A   1      44.790  25.718  35.381  1.00  0.00     0.001 A 
ATOM     88  C   UNL A   1      46.346  27.444  34.717  1.00  0.00     0.001 A 
ATOM     89  C   UNL A   1      46.075  26.258  35.399  1.00  0.00     0.000 A 
ENDBRANCH  71  84
ENDBRANCH  45  46
ENDBRANCH  37  40
ENDBRANCH  35  36
ENDBRANCH   1  35
TORSDOF 11
ENDMDL
