MODEL 1
REMARK VINA RESULT:     -11.2      0.000      0.000
REMARK SMILES Cc1occc1C(=O)NN1C(=O)/C(=C\c2ccc(O[C@H](C)C(=O)NCCCNC(=O)c3ccc(-c4c5nc(c(-c6ccccc6)c6ccc([nH]6)c(-c6ccccc6)c6nc(c(-c7ccccc7)c7ccc4[nH]7)C=C6)C=C5)cc3)cc2)SC1=S
REMARK SMILES IDX 22 1 23 2 24 3 20 5 21 6 19 7 18 8 15 9 16 10 80 11 17 12
REMARK SMILES IDX 79 13 14 14 10 15 11 16 82 17 12 18 13 19 81 20 83 21 9 22
REMARK SMILES IDX 7 23 8 24 6 26 1 27 2 28 3 29 4 30 5 31 25 32 26 33 27 34
REMARK SMILES IDX 28 35 29 36 30 38 31 39 32 40 78 41 33 42 77 43 34 44 35 45
REMARK SMILES IDX 36 46 71 47 37 48 76 49 70 50 72 51 38 52 75 53 69 54 68 55
REMARK SMILES IDX 39 57 61 58 46 59 60 60 47 61 50 62 59 63 73 64 48 65 49 66
REMARK SMILES IDX 58 68 74 69 51 70 40 71 41 72 45 73 42 74 44 75 43 76 62 77
REMARK SMILES IDX 63 78 67 79 64 80 66 81 65 82 52 83 53 84 57 85 54 86 56 87
REMARK SMILES IDX 55 88
REMARK H PARENT 24 4 9 25 28 37 72 56 50 67
REMARK Flexibility Score: inf
ROOT
ATOM      1  C   UNL A   1      35.101  32.597  28.147  1.00  0.00     0.260 C 
ATOM      2  O   UNL A   1      35.322  33.570  27.413  1.00  0.00    -0.271 OA
ATOM      3  N   UNL A   1      35.381  32.779  29.464  1.00  0.00    -0.353 N 
ATOM      4  H   UNL A   1      35.837  33.628  29.668  1.00  0.00     0.163 HD
ENDROOT
BRANCH   1   5
ATOM      5  C   UNL A   1      34.646  31.250  27.519  1.00  0.00     0.258 C 
ATOM      6  C   UNL A   1      35.781  30.234  27.648  1.00  0.00     0.064 C 
BRANCH   5   7
ATOM      7  O   UNL A   1      33.309  30.786  27.626  1.00  0.00    -0.481 OA
BRANCH   7   8
ATOM      8  C   UNL A   1      32.705  29.857  26.843  1.00  0.00     0.120 A 
ATOM      9  C   UNL A   1      31.526  27.690  25.481  1.00  0.00    -0.024 A 
ATOM     10  C   UNL A   1      31.872  28.861  24.805  1.00  0.00     0.012 A 
ATOM     11  C   UNL A   1      31.765  27.600  26.851  1.00  0.00     0.012 A 
ATOM     12  C   UNL A   1      32.448  29.938  25.483  1.00  0.00     0.047 A 
ATOM     13  C   UNL A   1      32.332  28.689  27.526  1.00  0.00     0.047 A 
BRANCH   9  14
ATOM     14  C   UNL A   1      30.849  26.653  24.701  1.00  0.00     0.029 C 
ATOM     15  N   UNL A   1      33.185  24.221  23.342  1.00  0.00    -0.198 N 
ATOM     16  C   UNL A   1      32.945  25.380  24.065  1.00  0.00     0.285 C 
ATOM     17  C   UNL A   1      32.122  23.386  23.077  1.00  0.00     0.168 C 
ATOM     18  O   UNL A   1      33.811  26.082  24.556  1.00  0.00    -0.266 OA
ATOM     19  C   UNL A   1      31.473  25.599  24.159  1.00  0.00     0.082 C 
ATOM     20  S   UNL A   1      30.631  24.236  23.498  1.00  0.00    -0.052 SA
ATOM     21  S   UNL A   1      32.155  21.830  22.483  1.00  0.00    -0.050 S 
BRANCH  15  22
ATOM     22  N   UNL A   1      34.515  23.881  23.144  1.00  0.00    -0.254 N 
ATOM     23  C   UNL A   1      35.233  22.920  23.817  1.00  0.00     0.273 C 
ATOM     24  O   UNL A   1      36.312  22.588  23.320  1.00  0.00    -0.267 OA
ATOM     25  H   UNL A   1      34.997  24.382  22.447  1.00  0.00     0.192 HD
BRANCH  23  26
ATOM     26  C   UNL A   1      34.842  22.400  25.122  1.00  0.00     0.082 A 
ATOM     27  C   UNL A   1      34.215  19.807  25.001  1.00  0.00     0.088 C 
ATOM     28  C   UNL A   1      34.419  21.154  25.570  1.00  0.00     0.113 A 
ATOM     29  O   UNL A   1      34.179  21.193  26.915  1.00  0.00    -0.469 OA
ATOM     30  C   UNL A   1      34.505  22.424  27.360  1.00  0.00     0.196 A 
ATOM     31  C   UNL A   1      34.939  23.195  26.315  1.00  0.00     0.056 A 
ENDBRANCH  23  26
ENDBRANCH  15  22
ENDBRANCH   9  14
ENDBRANCH   7   8
ENDBRANCH   5   7
ENDBRANCH   1   5
BRANCH   3  32
ATOM     32  C   UNL A   1      35.129  31.947  30.617  1.00  0.00     0.118 C 
BRANCH  32  33
ATOM     33  C   UNL A   1      34.679  32.743  31.838  1.00  0.00     0.042 C 
BRANCH  33  34
ATOM     34  C   UNL A   1      35.491  32.421  33.091  1.00  0.00     0.118 C 
BRANCH  34  35
ATOM     35  N   UNL A   1      36.124  33.611  33.648  1.00  0.00    -0.352 N 
ATOM     36  C   UNL A   1      37.434  34.015  33.646  1.00  0.00     0.251 C 
ATOM     37  H   UNL A   1      35.507  34.228  34.102  1.00  0.00     0.163 HD
ATOM     38  O   UNL A   1      37.775  34.954  34.361  1.00  0.00    -0.269 OA
BRANCH  36  39
ATOM     39  C   UNL A   1      38.443  33.331  32.809  1.00  0.00     0.039 A 
ATOM     40  C   UNL A   1      38.463  33.596  31.435  1.00  0.00     0.014 A 
ATOM     41  C   UNL A   1      39.326  32.393  33.350  1.00  0.00     0.014 A 
ATOM     42  C   UNL A   1      39.400  32.964  30.617  1.00  0.00     0.010 A 
ATOM     43  C   UNL A   1      40.305  31.817  32.547  1.00  0.00     0.010 A 
ATOM     44  C   UNL A   1      40.347  32.090  31.173  1.00  0.00    -0.014 A 
BRANCH  44  45
ATOM     45  C   UNL A   1      41.382  31.442  30.331  1.00  0.00     0.031 A 
ATOM     46  C   UNL A   1      42.655  32.169  30.005  1.00  0.00     0.074 A 
ATOM     47  C   UNL A   1      41.146  30.223  29.810  1.00  0.00     0.049 A 
ATOM     48  N   UNL A   1      43.642  31.801  29.228  1.00  0.00    -0.248 NA
ATOM     49  C   UNL A   1      42.832  33.499  30.613  1.00  0.00     0.031 C 
ATOM     50  C   UNL A   1      39.937  29.426  30.029  1.00  0.00     0.029 A 
ATOM     51  N   UNL A   1      41.912  29.444  28.981  1.00  0.00    -0.354 N 
ATOM     52  C   UNL A   1      44.544  32.858  29.238  1.00  0.00     0.074 A 
ATOM     53  C   UNL A   1      43.966  33.899  30.059  1.00  0.00     0.031 C 
ATOM     54  C   UNL A   1      40.058  28.257  29.377  1.00  0.00     0.029 A 
ATOM     55  C   UNL A   1      41.329  28.242  28.663  1.00  0.00     0.049 A 
ATOM     56  H   UNL A   1      42.796  29.720  28.647  1.00  0.00     0.167 HD
ATOM     57  C   UNL A   1      45.753  32.947  28.634  1.00  0.00     0.031 A 
ATOM     58  C   UNL A   1      41.770  27.241  27.878  1.00  0.00     0.031 A 
ATOM     59  C   UNL A   1      46.331  31.907  27.826  1.00  0.00     0.049 A 
ATOM     60  C   UNL A   1      43.105  27.371  27.204  1.00  0.00     0.074 A 
ATOM     61  C   UNL A   1      47.569  31.880  27.208  1.00  0.00     0.029 A 
ATOM     62  N   UNL A   1      45.706  30.705  27.526  1.00  0.00    -0.354 N 
ATOM     63  N   UNL A   1      43.967  28.356  27.261  1.00  0.00    -0.248 NA
ATOM     64  C   UNL A   1      43.529  26.244  26.360  1.00  0.00     0.031 C 
ATOM     65  C   UNL A   1      47.677  30.678  26.498  1.00  0.00     0.029 A 
ATOM     66  C   UNL A   1      46.526  29.937  26.716  1.00  0.00     0.049 A 
ATOM     67  H   UNL A   1      44.814  30.438  27.842  1.00  0.00     0.167 HD
ATOM     68  C   UNL A   1      45.048  27.959  26.486  1.00  0.00     0.074 A 
ATOM     69  C   UNL A   1      44.737  26.638  25.978  1.00  0.00     0.031 C 
ATOM     70  C   UNL A   1      46.196  28.627  26.220  1.00  0.00     0.031 A 
BRANCH  57  71
ATOM     71  C   UNL A   1      46.523  34.225  28.822  1.00  0.00    -0.014 A 
ATOM     72  C   UNL A   1      46.416  35.280  27.901  1.00  0.00     0.009 A 
ATOM     73  C   UNL A   1      47.357  34.382  29.940  1.00  0.00     0.009 A 
ATOM     74  C   UNL A   1      47.163  36.448  28.073  1.00  0.00     0.001 A 
ATOM     75  C   UNL A   1      48.079  35.563  30.124  1.00  0.00     0.001 A 
ATOM     76  C   UNL A   1      47.991  36.589  29.185  1.00  0.00     0.000 A 
ENDBRANCH  57  71
BRANCH  58  77
ATOM     77  C   UNL A   1      40.949  26.014  27.711  1.00  0.00    -0.014 A 
ATOM     78  C   UNL A   1      39.818  26.030  26.881  1.00  0.00     0.009 A 
ATOM     79  C   UNL A   1      41.294  24.823  28.369  1.00  0.00     0.009 A 
ATOM     80  C   UNL A   1      39.034  24.884  26.732  1.00  0.00     0.001 A 
ATOM     81  C   UNL A   1      40.522  23.673  28.198  1.00  0.00     0.001 A 
ATOM     82  C   UNL A   1      39.390  23.705  27.387  1.00  0.00     0.000 A 
ENDBRANCH  58  77
BRANCH  70  83
ATOM     83  C   UNL A   1      47.214  27.922  25.367  1.00  0.00    -0.014 A 
ATOM     84  C   UNL A   1      48.221  27.132  25.941  1.00  0.00     0.009 A 
ATOM     85  C   UNL A   1      47.139  28.026  23.969  1.00  0.00     0.009 A 
ATOM     86  C   UNL A   1      49.154  26.483  25.129  1.00  0.00     0.001 A 
ATOM     87  C   UNL A   1      48.057  27.357  23.161  1.00  0.00     0.001 A 
ATOM     88  C   UNL A   1      49.068  26.593  23.741  1.00  0.00     0.000 A 
ENDBRANCH  70  83
ENDBRANCH  44  45
ENDBRANCH  36  39
ENDBRANCH  34  35
ENDBRANCH  33  34
ENDBRANCH  32  33
ENDBRANCH   3  32
TORSDOF 15
ENDMDL
MODEL 2
REMARK VINA RESULT:     -11.2      2.619      6.163
REMARK SMILES Cc1occc1C(=O)NN1C(=O)/C(=C\c2ccc(O[C@H](C)C(=O)NCCCNC(=O)c3ccc(-c4c5nc(c(-c6ccccc6)c6ccc([nH]6)c(-c6ccccc6)c6nc(c(-c7ccccc7)c7ccc4[nH]7)C=C6)C=C5)cc3)cc2)SC1=S
REMARK SMILES IDX 22 1 23 2 24 3 20 5 21 6 19 7 18 8 15 9 16 10 80 11 17 12
REMARK SMILES IDX 79 13 14 14 10 15 11 16 82 17 12 18 13 19 81 20 83 21 9 22
REMARK SMILES IDX 7 23 8 24 6 26 1 27 2 28 3 29 4 30 5 31 25 32 26 33 27 34
REMARK SMILES IDX 28 35 29 36 30 38 31 39 32 40 78 41 33 42 77 43 34 44 35 45
REMARK SMILES IDX 36 46 71 47 37 48 76 49 70 50 72 51 38 52 75 53 69 54 68 55
REMARK SMILES IDX 39 57 61 58 46 59 60 60 47 61 50 62 59 63 73 64 48 65 49 66
REMARK SMILES IDX 58 68 74 69 51 70 40 71 41 72 45 73 42 74 44 75 43 76 62 77
REMARK SMILES IDX 63 78 67 79 64 80 66 81 65 82 52 83 53 84 57 85 54 86 56 87
REMARK SMILES IDX 55 88
REMARK H PARENT 24 4 9 25 28 37 72 56 50 67
REMARK Flexibility Score: inf
ROOT
ATOM      1  C   UNL A   1      35.206  32.573  28.184  1.00  0.00     0.260 C 
ATOM      2  O   UNL A   1      35.581  33.453  27.397  1.00  0.00    -0.271 OA
ATOM      3  N   UNL A   1      35.373  32.854  29.502  1.00  0.00    -0.353 N 
ATOM      4  H   UNL A   1      35.880  33.680  29.679  1.00  0.00     0.163 HD
ENDROOT
BRANCH   1   5
ATOM      5  C   UNL A   1      34.697  31.213  27.628  1.00  0.00     0.258 C 
ATOM      6  C   UNL A   1      35.782  30.156  27.835  1.00  0.00     0.064 C 
BRANCH   5   7
ATOM      7  O   UNL A   1      33.338  30.819  27.741  1.00  0.00    -0.481 OA
BRANCH   7   8
ATOM      8  C   UNL A   1      32.730  29.801  27.082  1.00  0.00     0.120 A 
ATOM      9  C   UNL A   1      31.383  27.930  25.460  1.00  0.00    -0.024 A 
ATOM     10  C   UNL A   1      31.648  27.658  26.803  1.00  0.00     0.012 A 
ATOM     11  C   UNL A   1      31.799  29.146  24.918  1.00  0.00     0.012 A 
ATOM     12  C   UNL A   1      32.324  28.582  27.604  1.00  0.00     0.047 A 
ATOM     13  C   UNL A   1      32.487  30.062  25.725  1.00  0.00     0.047 A 
BRANCH   9  14
ATOM     14  C   UNL A   1      30.749  26.865  24.683  1.00  0.00     0.029 C 
ATOM     15  N   UNL A   1      33.174  24.485  23.391  1.00  0.00    -0.198 N 
ATOM     16  C   UNL A   1      32.890  25.645  24.095  1.00  0.00     0.285 C 
ATOM     17  C   UNL A   1      32.140  23.615  23.121  1.00  0.00     0.168 C 
ATOM     18  O   UNL A   1      33.727  26.378  24.590  1.00  0.00    -0.266 OA
ATOM     19  C   UNL A   1      31.411  25.823  24.164  1.00  0.00     0.082 C 
ATOM     20  S   UNL A   1      30.619  24.427  23.509  1.00  0.00    -0.052 SA
ATOM     21  S   UNL A   1      32.226  22.054  22.549  1.00  0.00    -0.050 S 
BRANCH  15  22
ATOM     22  N   UNL A   1      34.516  24.181  23.217  1.00  0.00    -0.254 N 
ATOM     23  C   UNL A   1      35.242  23.222  23.885  1.00  0.00     0.273 C 
ATOM     24  O   UNL A   1      36.340  22.927  23.406  1.00  0.00    -0.267 OA
ATOM     25  H   UNL A   1      35.002  24.709  22.543  1.00  0.00     0.192 HD
BRANCH  23  26
ATOM     26  C   UNL A   1      34.833  22.661  25.167  1.00  0.00     0.082 A 
ATOM     27  C   UNL A   1      34.383  20.035  24.997  1.00  0.00     0.088 C 
ATOM     28  C   UNL A   1      34.474  21.385  25.586  1.00  0.00     0.113 A 
ATOM     29  O   UNL A   1      34.177  21.392  26.920  1.00  0.00    -0.469 OA
ATOM     30  C   UNL A   1      34.404  22.637  27.390  1.00  0.00     0.196 A 
ATOM     31  C   UNL A   1      34.829  23.447  26.371  1.00  0.00     0.056 A 
ENDBRANCH  23  26
ENDBRANCH  15  22
ENDBRANCH   9  14
ENDBRANCH   7   8
ENDBRANCH   5   7
ENDBRANCH   1   5
BRANCH   3  32
ATOM     32  C   UNL A   1      34.940  32.156  30.689  1.00  0.00     0.118 C 
BRANCH  32  33
ATOM     33  C   UNL A   1      34.985  33.025  31.942  1.00  0.00     0.042 C 
BRANCH  33  34
ATOM     34  C   UNL A   1      36.125  32.651  32.886  1.00  0.00     0.118 C 
BRANCH  34  35
ATOM     35  N   UNL A   1      36.276  31.206  33.010  1.00  0.00    -0.352 N 
ATOM     36  C   UNL A   1      37.216  30.354  32.489  1.00  0.00     0.251 C 
ATOM     37  H   UNL A   1      35.588  30.768  33.559  1.00  0.00     0.163 HD
ATOM     38  O   UNL A   1      37.028  29.142  32.550  1.00  0.00    -0.269 OA
BRANCH  36  39
ATOM     39  C   UNL A   1      38.442  30.872  31.846  1.00  0.00     0.039 A 
ATOM     40  C   UNL A   1      38.538  30.821  30.451  1.00  0.00     0.014 A 
ATOM     41  C   UNL A   1      39.516  31.350  32.601  1.00  0.00     0.014 A 
ATOM     42  C   UNL A   1      39.684  31.298  29.813  1.00  0.00     0.010 A 
ATOM     43  C   UNL A   1      40.628  31.891  31.962  1.00  0.00     0.010 A 
ATOM     44  C   UNL A   1      40.727  31.863  30.564  1.00  0.00    -0.014 A 
BRANCH  44  45
ATOM     45  C   UNL A   1      41.934  32.418  29.907  1.00  0.00     0.031 A 
ATOM     46  C   UNL A   1      43.165  31.571  29.749  1.00  0.00     0.074 A 
ATOM     47  C   UNL A   1      41.943  33.705  29.511  1.00  0.00     0.049 A 
ATOM     48  N   UNL A   1      44.339  31.900  29.271  1.00  0.00    -0.248 NA
ATOM     49  C   UNL A   1      43.073  30.176  30.211  1.00  0.00     0.031 C 
ATOM     50  C   UNL A   1      40.821  34.638  29.635  1.00  0.00     0.029 A 
ATOM     51  N   UNL A   1      42.934  34.452  28.928  1.00  0.00    -0.354 N 
ATOM     52  C   UNL A   1      45.127  30.763  29.395  1.00  0.00     0.074 A 
ATOM     53  C   UNL A   1      44.315  29.751  30.034  1.00  0.00     0.031 C 
ATOM     54  C   UNL A   1      41.177  35.824  29.113  1.00  0.00     0.029 A 
ATOM     55  C   UNL A   1      42.561  35.747  28.660  1.00  0.00     0.049 A 
ATOM     56  H   UNL A   1      43.827  34.095  28.721  1.00  0.00     0.167 HD
ATOM     57  C   UNL A   1      46.407  30.569  28.995  1.00  0.00     0.031 A 
ATOM     58  C   UNL A   1      43.259  36.759  28.113  1.00  0.00     0.031 A 
ATOM     59  C   UNL A   1      47.211  31.573  28.349  1.00  0.00     0.049 A 
ATOM     60  C   UNL A   1      44.682  36.527  27.695  1.00  0.00     0.074 A 
ATOM     61  C   UNL A   1      48.502  31.463  27.864  1.00  0.00     0.029 A 
ATOM     62  N   UNL A   1      46.796  32.872  28.098  1.00  0.00    -0.354 N 
ATOM     63  N   UNL A   1      45.398  35.432  27.774  1.00  0.00    -0.248 NA
ATOM     64  C   UNL A   1      45.390  37.671  27.104  1.00  0.00     0.031 C 
ATOM     65  C   UNL A   1      48.885  32.711  27.356  1.00  0.00     0.029 A 
ATOM     66  C   UNL A   1      47.813  33.581  27.482  1.00  0.00     0.049 A 
ATOM     67  H   UNL A   1      45.911  33.236  28.325  1.00  0.00     0.167 HD
ATOM     68  C   UNL A   1      46.632  35.746  27.220  1.00  0.00     0.074 A 
ATOM     69  C   UNL A   1      46.562  37.130  26.798  1.00  0.00     0.031 C 
ATOM     70  C   UNL A   1      47.724  34.958  27.072  1.00  0.00     0.031 A 
BRANCH  57  71
ATOM     71  C   UNL A   1      47.014  29.219  29.258  1.00  0.00    -0.014 A 
ATOM     72  C   UNL A   1      46.916  28.183  28.314  1.00  0.00     0.009 A 
ATOM     73  C   UNL A   1      47.701  28.981  30.458  1.00  0.00     0.009 A 
ATOM     74  C   UNL A   1      47.457  26.925  28.586  1.00  0.00     0.001 A 
ATOM     75  C   UNL A   1      48.266  27.730  30.713  1.00  0.00     0.001 A 
ATOM     76  C   UNL A   1      48.133  26.700  29.783  1.00  0.00     0.000 A 
ENDBRANCH  57  71
BRANCH  58  77
ATOM     77  C   UNL A   1      42.611  38.079  27.904  1.00  0.00    -0.014 A 
ATOM     78  C   UNL A   1      42.663  39.058  28.907  1.00  0.00     0.009 A 
ATOM     79  C   UNL A   1      41.945  38.371  26.703  1.00  0.00     0.009 A 
ATOM     80  C   UNL A   1      42.042  40.295  28.722  1.00  0.00     0.001 A 
ATOM     81  C   UNL A   1      41.347  39.617  26.511  1.00  0.00     0.001 A 
ATOM     82  C   UNL A   1      41.389  40.575  27.523  1.00  0.00     0.000 A 
ENDBRANCH  58  77
BRANCH  70  83
ATOM     83  C   UNL A   1      48.919  35.568  26.395  1.00  0.00    -0.014 A 
ATOM     84  C   UNL A   1      49.066  35.522  25.001  1.00  0.00     0.009 A 
ATOM     85  C   UNL A   1      49.891  36.226  27.164  1.00  0.00     0.009 A 
ATOM     86  C   UNL A   1      50.183  36.099  24.392  1.00  0.00     0.001 A 
ATOM     87  C   UNL A   1      50.993  36.823  26.550  1.00  0.00     0.001 A 
ATOM     88  C   UNL A   1      51.142  36.752  25.167  1.00  0.00     0.000 A 
ENDBRANCH  70  83
ENDBRANCH  44  45
ENDBRANCH  36  39
ENDBRANCH  34  35
ENDBRANCH  33  34
ENDBRANCH  32  33
ENDBRANCH   3  32
TORSDOF 15
ENDMDL
MODEL 3
REMARK VINA RESULT:     -11.1      3.288      8.892
REMARK SMILES Cc1occc1C(=O)NN1C(=O)/C(=C\c2ccc(O[C@H](C)C(=O)NCCCNC(=O)c3ccc(-c4c5nc(c(-c6ccccc6)c6ccc([nH]6)c(-c6ccccc6)c6nc(c(-c7ccccc7)c7ccc4[nH]7)C=C6)C=C5)cc3)cc2)SC1=S
REMARK SMILES IDX 22 1 23 2 24 3 20 5 21 6 19 7 18 8 15 9 16 10 80 11 17 12
REMARK SMILES IDX 79 13 14 14 10 15 11 16 82 17 12 18 13 19 81 20 83 21 9 22
REMARK SMILES IDX 7 23 8 24 6 26 1 27 2 28 3 29 4 30 5 31 25 32 26 33 27 34
REMARK SMILES IDX 28 35 29 36 30 38 31 39 32 40 78 41 33 42 77 43 34 44 35 45
REMARK SMILES IDX 36 46 71 47 37 48 76 49 70 50 72 51 38 52 75 53 69 54 68 55
REMARK SMILES IDX 39 57 61 58 46 59 60 60 47 61 50 62 59 63 73 64 48 65 49 66
REMARK SMILES IDX 58 68 74 69 51 70 40 71 41 72 45 73 42 74 44 75 43 76 62 77
REMARK SMILES IDX 63 78 67 79 64 80 66 81 65 82 52 83 53 84 57 85 54 86 56 87
REMARK SMILES IDX 55 88
REMARK H PARENT 24 4 9 25 28 37 72 56 50 67
REMARK Flexibility Score: inf
ROOT
ATOM      1  C   UNL A   1      40.724  22.610  26.293  1.00  0.00     0.260 C 
ATOM      2  O   UNL A   1      41.141  23.653  25.771  1.00  0.00    -0.271 OA
ATOM      3  N   UNL A   1      41.677  21.718  26.669  1.00  0.00    -0.353 N 
ATOM      4  H   UNL A   1      42.589  21.954  26.379  1.00  0.00     0.163 HD
ENDROOT
BRANCH   1   5
ATOM      5  C   UNL A   1      39.192  22.352  26.374  1.00  0.00     0.258 C 
ATOM      6  C   UNL A   1      38.508  23.603  26.924  1.00  0.00     0.064 C 
BRANCH   5   7
ATOM      7  O   UNL A   1      38.509  21.581  25.397  1.00  0.00    -0.481 OA
BRANCH   7   8
ATOM      8  C   UNL A   1      37.216  21.718  25.012  1.00  0.00     0.120 A 
ATOM      9  C   UNL A   1      34.628  22.322  24.073  1.00  0.00    -0.024 A 
ATOM     10  C   UNL A   1      34.831  21.332  25.035  1.00  0.00     0.012 A 
ATOM     11  C   UNL A   1      35.728  23.015  23.570  1.00  0.00     0.012 A 
ATOM     12  C   UNL A   1      36.115  21.027  25.493  1.00  0.00     0.047 A 
ATOM     13  C   UNL A   1      37.014  22.695  24.025  1.00  0.00     0.047 A 
BRANCH   9  14
ATOM     14  C   UNL A   1      33.258  22.507  23.594  1.00  0.00     0.029 C 
ATOM     15  N   UNL A   1      31.462  25.009  25.526  1.00  0.00    -0.198 N 
ATOM     16  C   UNL A   1      32.610  24.266  25.299  1.00  0.00     0.285 C 
ATOM     17  C   UNL A   1      30.506  25.052  24.535  1.00  0.00     0.168 C 
ATOM     18  O   UNL A   1      33.618  24.322  25.981  1.00  0.00    -0.266 OA
ATOM     19  C   UNL A   1      32.413  23.424  24.085  1.00  0.00     0.082 C 
ATOM     20  S   UNL A   1      30.911  23.833  23.322  1.00  0.00    -0.052 SA
ATOM     21  S   UNL A   1      29.184  26.059  24.419  1.00  0.00    -0.050 S 
BRANCH  15  22
ATOM     22  N   UNL A   1      31.472  25.838  26.639  1.00  0.00    -0.254 N 
ATOM     23  C   UNL A   1      31.682  27.197  26.657  1.00  0.00     0.273 C 
ATOM     24  O   UNL A   1      31.392  27.787  27.701  1.00  0.00    -0.267 OA
ATOM     25  H   UNL A   1      31.312  25.406  27.509  1.00  0.00     0.192 HD
BRANCH  23  26
ATOM     26  C   UNL A   1      32.341  27.918  25.574  1.00  0.00     0.082 A 
ATOM     27  C   UNL A   1      30.681  29.632  24.377  1.00  0.00     0.088 C 
ATOM     28  C   UNL A   1      31.915  28.875  24.660  1.00  0.00     0.113 A 
ATOM     29  O   UNL A   1      32.948  29.238  23.841  1.00  0.00    -0.469 OA
ATOM     30  C   UNL A   1      34.054  28.584  24.253  1.00  0.00     0.196 A 
ATOM     31  C   UNL A   1      33.750  27.784  25.321  1.00  0.00     0.056 A 
ENDBRANCH  23  26
ENDBRANCH  15  22
ENDBRANCH   9  14
ENDBRANCH   7   8
ENDBRANCH   5   7
ENDBRANCH   1   5
BRANCH   3  32
ATOM     32  C   UNL A   1      41.590  20.488  27.418  1.00  0.00     0.118 C 
BRANCH  32  33
ATOM     33  C   UNL A   1      42.333  19.332  26.754  1.00  0.00     0.042 C 
BRANCH  33  34
ATOM     34  C   UNL A   1      42.526  19.533  25.253  1.00  0.00     0.118 C 
BRANCH  34  35
ATOM     35  N   UNL A   1      43.856  19.122  24.817  1.00  0.00    -0.352 N 
ATOM     36  C   UNL A   1      44.993  19.855  24.591  1.00  0.00     0.251 C 
ATOM     37  H   UNL A   1      43.955  18.156  24.658  1.00  0.00     0.163 HD
ATOM     38  O   UNL A   1      45.946  19.327  24.024  1.00  0.00    -0.269 OA
BRANCH  36  39
ATOM     39  C   UNL A   1      45.084  21.270  25.007  1.00  0.00     0.039 A 
ATOM     40  C   UNL A   1      45.408  21.557  26.338  1.00  0.00     0.014 A 
ATOM     41  C   UNL A   1      44.798  22.312  24.121  1.00  0.00     0.014 A 
ATOM     42  C   UNL A   1      45.497  22.883  26.764  1.00  0.00     0.010 A 
ATOM     43  C   UNL A   1      44.958  23.633  24.527  1.00  0.00     0.010 A 
ATOM     44  C   UNL A   1      45.301  23.932  25.853  1.00  0.00    -0.014 A 
BRANCH  44  45
ATOM     45  C   UNL A   1      45.436  25.348  26.270  1.00  0.00     0.031 A 
ATOM     46  C   UNL A   1      46.768  26.037  26.185  1.00  0.00     0.074 A 
ATOM     47  C   UNL A   1      44.372  25.993  26.785  1.00  0.00     0.049 A 
ATOM     48  N   UNL A   1      47.102  27.242  26.571  1.00  0.00    -0.248 NA
ATOM     49  C   UNL A   1      47.880  25.259  25.613  1.00  0.00     0.031 C 
ATOM     50  C   UNL A   1      43.031  25.425  26.947  1.00  0.00     0.029 A 
ATOM     51  N   UNL A   1      44.254  27.269  27.274  1.00  0.00    -0.354 N 
ATOM     52  C   UNL A   1      48.461  27.359  26.308  1.00  0.00     0.074 A 
ATOM     53  C   UNL A   1      48.900  26.088  25.775  1.00  0.00     0.031 C 
ATOM     54  C   UNL A   1      42.219  26.360  27.467  1.00  0.00     0.029 A 
ATOM     55  C   UNL A   1      42.989  27.574  27.715  1.00  0.00     0.049 A 
ATOM     56  H   UNL A   1      45.004  27.906  27.306  1.00  0.00     0.167 HD
ATOM     57  C   UNL A   1      49.269  28.433  26.477  1.00  0.00     0.031 A 
ATOM     58  C   UNL A   1      42.505  28.705  28.261  1.00  0.00     0.031 A 
ATOM     59  C   UNL A   1      48.829  29.700  26.997  1.00  0.00     0.049 A 
ATOM     60  C   UNL A   1      43.425  29.876  28.456  1.00  0.00     0.074 A 
ATOM     61  C   UNL A   1      49.558  30.865  27.164  1.00  0.00     0.029 A 
ATOM     62  N   UNL A   1      47.540  29.967  27.434  1.00  0.00    -0.354 N 
ATOM     63  N   UNL A   1      44.696  29.987  28.158  1.00  0.00    -0.248 NA
ATOM     64  C   UNL A   1      42.837  31.082  29.057  1.00  0.00     0.031 C 
ATOM     65  C   UNL A   1      48.719  31.826  27.742  1.00  0.00     0.029 A 
ATOM     66  C   UNL A   1      47.457  31.272  27.888  1.00  0.00     0.049 A 
ATOM     67  H   UNL A   1      46.796  29.324  27.423  1.00  0.00     0.167 HD
ATOM     68  C   UNL A   1      45.056  31.282  28.509  1.00  0.00     0.074 A 
ATOM     69  C   UNL A   1      43.865  31.920  29.031  1.00  0.00     0.031 C 
ATOM     70  C   UNL A   1      46.263  31.888  28.406  1.00  0.00     0.031 A 
BRANCH  57  71
ATOM     71  C   UNL A   1      50.716  28.272  26.099  1.00  0.00    -0.014 A 
ATOM     72  C   UNL A   1      51.676  27.889  27.050  1.00  0.00     0.009 A 
ATOM     73  C   UNL A   1      51.124  28.494  24.775  1.00  0.00     0.009 A 
ATOM     74  C   UNL A   1      53.021  27.774  26.692  1.00  0.00     0.001 A 
ATOM     75  C   UNL A   1      52.464  28.350  24.414  1.00  0.00     0.001 A 
ATOM     76  C   UNL A   1      53.413  28.002  25.374  1.00  0.00     0.000 A 
ENDBRANCH  57  71
BRANCH  58  77
ATOM     77  C   UNL A   1      41.072  28.793  28.637  1.00  0.00    -0.014 A 
ATOM     78  C   UNL A   1      40.668  28.504  29.949  1.00  0.00     0.009 A 
ATOM     79  C   UNL A   1      40.103  29.172  27.695  1.00  0.00     0.009 A 
ATOM     80  C   UNL A   1      39.319  28.569  30.305  1.00  0.00     0.001 A 
ATOM     81  C   UNL A   1      38.759  29.262  28.060  1.00  0.00     0.001 A 
ATOM     82  C   UNL A   1      38.366  28.953  29.361  1.00  0.00     0.000 A 
ENDBRANCH  58  77
BRANCH  70  83
ATOM     83  C   UNL A   1      46.344  33.325  28.837  1.00  0.00    -0.014 A 
ATOM     84  C   UNL A   1      46.695  33.671  30.151  1.00  0.00     0.009 A 
ATOM     85  C   UNL A   1      46.099  34.344  27.904  1.00  0.00     0.009 A 
ATOM     86  C   UNL A   1      46.768  35.014  30.529  1.00  0.00     0.001 A 
ATOM     87  C   UNL A   1      46.198  35.684  28.278  1.00  0.00     0.001 A 
ATOM     88  C   UNL A   1      46.524  36.018  29.591  1.00  0.00     0.000 A 
ENDBRANCH  70  83
ENDBRANCH  44  45
ENDBRANCH  36  39
ENDBRANCH  34  35
ENDBRANCH  33  34
ENDBRANCH  32  33
ENDBRANCH   3  32
TORSDOF 15
ENDMDL
