MODEL 1
REMARK VINA RESULT:     -12.0      0.000      0.000
REMARK SMILES COc1ccc(-c2ccc(CCC(=O)NCCCNC(=O)c3ccc(-c4c5nc(c(-c6ccccc6)c6ccc([nH]6)c(-c6ccccc6)c6nc(c(-c7ccccc7)c7ccc4[nH]7)C=C6)C=C5)cc3)n2-c2ccc(C(C)=O)cc2)cc1
REMARK SMILES IDX 16 1 15 2 13 3 14 4 12 6 11 7 10 8 7 9 8 10 70 11 9 12 6 13
REMARK SMILES IDX 3 14 4 15 81 16 5 17 80 18 2 19 1 20 71 21 72 22 79 23 73 24
REMARK SMILES IDX 78 25 74 26 75 27 76 28 77 29 17 30 18 31 19 32 20 33 21 35
REMARK SMILES IDX 22 36 23 37 69 38 24 39 68 40 25 41 26 42 27 43 62 44 28 45
REMARK SMILES IDX 67 46 61 47 63 48 29 49 66 50 60 51 59 52 30 54 52 55 37 56
REMARK SMILES IDX 51 57 38 58 41 59 50 60 64 61 39 62 40 63 49 65 65 66 42 67
REMARK SMILES IDX 31 68 32 69 36 70 33 71 35 72 34 73 53 74 54 75 58 76 55 77
REMARK SMILES IDX 57 78 56 79 43 80 44 81 48 82 45 83 47 84 46 85
REMARK H PARENT 15 5 19 34 63 53 41 64
REMARK Flexibility Score: inf
ROOT
ATOM      1  C   UNL A   1      32.859  29.242  24.897  1.00  0.00     0.117 C 
ENDROOT
BRANCH   1   2
ATOM      2  N   UNL A   1      33.600  29.281  23.646  1.00  0.00    -0.356 N 
ATOM      3  C   UNL A   1      33.594  28.399  22.605  1.00  0.00     0.220 C 
ATOM      4  O   UNL A   1      34.430  28.549  21.713  1.00  0.00    -0.275 OA
ATOM      5  H   UNL A   1      34.192  30.059  23.532  1.00  0.00     0.163 HD
BRANCH   3   6
ATOM      6  C   UNL A   1      32.548  27.303  22.528  1.00  0.00     0.106 C 
BRANCH   6   7
ATOM      7  C   UNL A   1      33.150  25.932  22.199  1.00  0.00     0.064 C 
BRANCH   7   8
ATOM      8  C   UNL A   1      32.408  24.801  22.866  1.00  0.00     0.024 A 
ATOM      9  C   UNL A   1      32.029  22.673  23.531  1.00  0.00     0.053 A 
ATOM     10  C   UNL A   1      30.811  23.340  23.477  1.00  0.00     0.029 A 
ATOM     11  N   UNL A   1      33.016  23.650  23.374  1.00  0.00    -0.314 N 
ATOM     12  C   UNL A   1      31.047  24.669  23.064  1.00  0.00     0.024 A 
BRANCH   9  13
ATOM     13  C   UNL A   1      32.245  21.277  23.916  1.00  0.00    -0.001 A 
ATOM     14  C   UNL A   1      32.755  18.608  24.632  1.00  0.00     0.118 A 
ATOM     15  C   UNL A   1      32.516  18.951  23.301  1.00  0.00     0.047 A 
ATOM     16  C   UNL A   1      32.769  19.604  25.606  1.00  0.00     0.047 A 
ATOM     17  C   UNL A   1      32.254  20.276  22.943  1.00  0.00     0.014 A 
ATOM     18  C   UNL A   1      32.514  20.933  25.246  1.00  0.00     0.014 A 
BRANCH  14  19
ATOM     19  O   UNL A   1      33.023  17.288  24.867  1.00  0.00    -0.497 OA
ATOM     20  C   UNL A   1      33.430  16.549  23.719  1.00  0.00     0.278 C 
ENDBRANCH  14  19
ENDBRANCH   9  13
BRANCH  11  21
ATOM     21  C   UNL A   1      34.343  23.575  23.872  1.00  0.00     0.046 A 
ATOM     22  C   UNL A   1      34.567  24.022  25.180  1.00  0.00     0.027 A 
ATOM     23  C   UNL A   1      35.369  22.961  23.158  1.00  0.00     0.027 A 
ATOM     24  C   UNL A   1      35.809  23.835  25.787  1.00  0.00     0.014 A 
ATOM     25  C   UNL A   1      36.619  22.791  23.765  1.00  0.00     0.014 A 
ATOM     26  C   UNL A   1      36.843  23.203  25.091  1.00  0.00     0.017 A 
BRANCH  26  27
ATOM     27  C   UNL A   1      38.179  22.927  25.700  1.00  0.00     0.159 C 
ATOM     28  C   UNL A   1      38.734  21.523  25.757  1.00  0.00     0.093 C 
ATOM     29  O   UNL A   1      38.843  23.867  26.140  1.00  0.00    -0.295 OA
ENDBRANCH  26  27
ENDBRANCH  11  21
ENDBRANCH   7   8
ENDBRANCH   6   7
ENDBRANCH   3   6
ENDBRANCH   1   2
BRANCH   1  30
ATOM     30  C   UNL A   1      33.373  28.132  25.804  1.00  0.00     0.042 C 
BRANCH  30  31
ATOM     31  C   UNL A   1      33.461  28.537  27.265  1.00  0.00     0.118 C 
BRANCH  31  32
ATOM     32  N   UNL A   1      33.433  29.976  27.449  1.00  0.00    -0.352 N 
ATOM     33  C   UNL A   1      34.389  30.797  27.985  1.00  0.00     0.251 C 
ATOM     34  H   UNL A   1      32.611  30.426  27.147  1.00  0.00     0.163 HD
ATOM     35  O   UNL A   1      34.095  31.977  28.217  1.00  0.00    -0.269 OA
BRANCH  33  36
ATOM     36  C   UNL A   1      35.749  30.307  28.315  1.00  0.00     0.039 A 
ATOM     37  C   UNL A   1      35.975  29.793  29.599  1.00  0.00     0.014 A 
ATOM     38  C   UNL A   1      36.821  30.405  27.418  1.00  0.00     0.014 A 
ATOM     39  C   UNL A   1      37.249  29.366  29.967  1.00  0.00     0.010 A 
ATOM     40  C   UNL A   1      38.074  29.918  27.752  1.00  0.00     0.010 A 
ATOM     41  C   UNL A   1      38.297  29.430  29.039  1.00  0.00    -0.014 A 
BRANCH  41  42
ATOM     42  C   UNL A   1      39.661  29.041  29.448  1.00  0.00     0.031 A 
ATOM     43  C   UNL A   1      40.437  30.144  30.132  1.00  0.00     0.074 A 
ATOM     44  C   UNL A   1      40.055  27.779  29.118  1.00  0.00     0.049 A 
ATOM     45  N   UNL A   1      41.698  30.427  30.047  1.00  0.00    -0.248 NA
ATOM     46  C   UNL A   1      39.696  31.127  30.956  1.00  0.00     0.031 C 
ATOM     47  C   UNL A   1      39.172  26.791  28.467  1.00  0.00     0.029 A 
ATOM     48  N   UNL A   1      41.231  27.072  29.243  1.00  0.00    -0.354 N 
ATOM     49  C   UNL A   1      41.934  31.551  30.859  1.00  0.00     0.074 A 
ATOM     50  C   UNL A   1      40.647  31.989  31.325  1.00  0.00     0.031 C 
ATOM     51  C   UNL A   1      39.837  25.650  28.219  1.00  0.00     0.029 A 
ATOM     52  C   UNL A   1      41.211  25.789  28.656  1.00  0.00     0.049 A 
ATOM     53  H   UNL A   1      42.022  27.433  29.705  1.00  0.00     0.167 HD
ATOM     54  C   UNL A   1      43.184  31.993  31.181  1.00  0.00     0.031 A 
ATOM     55  C   UNL A   1      42.231  24.908  28.449  1.00  0.00     0.031 A 
ATOM     56  C   UNL A   1      44.190  31.183  30.572  1.00  0.00     0.049 A 
ATOM     57  C   UNL A   1      43.468  25.539  28.946  1.00  0.00     0.074 A 
ATOM     58  C   UNL A   1      44.660  31.031  29.292  1.00  0.00     0.029 A 
ATOM     59  N   UNL A   1      44.674  30.144  31.331  1.00  0.00    -0.354 N 
ATOM     60  N   UNL A   1      43.787  25.703  30.193  1.00  0.00    -0.248 NA
ATOM     61  C   UNL A   1      44.392  26.135  27.971  1.00  0.00     0.031 C 
ATOM     62  C   UNL A   1      45.060  29.671  29.221  1.00  0.00     0.029 A 
ATOM     63  C   UNL A   1      44.877  29.087  30.476  1.00  0.00     0.049 A 
ATOM     64  H   UNL A   1      44.843  30.155  32.300  1.00  0.00     0.167 HD
ATOM     65  C   UNL A   1      44.723  26.713  30.142  1.00  0.00     0.074 A 
ATOM     66  C   UNL A   1      45.252  26.722  28.798  1.00  0.00     0.031 C 
ATOM     67  C   UNL A   1      44.641  27.760  31.000  1.00  0.00     0.031 A 
BRANCH  54  68
ATOM     68  C   UNL A   1      43.625  32.994  32.213  1.00  0.00    -0.014 A 
ATOM     69  C   UNL A   1      43.521  32.623  33.576  1.00  0.00     0.009 A 
ATOM     70  C   UNL A   1      43.882  34.341  31.941  1.00  0.00     0.009 A 
ATOM     71  C   UNL A   1      43.593  33.561  34.608  1.00  0.00     0.001 A 
ATOM     72  C   UNL A   1      43.993  35.280  32.978  1.00  0.00     0.001 A 
ATOM     73  C   UNL A   1      43.820  34.896  34.306  1.00  0.00     0.000 A 
ENDBRANCH  54  68
BRANCH  55  74
ATOM     74  C   UNL A   1      42.351  23.602  27.713  1.00  0.00    -0.014 A 
ATOM     75  C   UNL A   1      42.263  22.336  28.302  1.00  0.00     0.009 A 
ATOM     76  C   UNL A   1      42.566  23.612  26.314  1.00  0.00     0.009 A 
ATOM     77  C   UNL A   1      42.269  21.161  27.527  1.00  0.00     0.001 A 
ATOM     78  C   UNL A   1      42.562  22.451  25.535  1.00  0.00     0.001 A 
ATOM     79  C   UNL A   1      42.393  21.221  26.143  1.00  0.00     0.000 A 
ENDBRANCH  55  74
BRANCH  67  80
ATOM     80  C   UNL A   1      43.838  27.474  32.256  1.00  0.00    -0.014 A 
ATOM     81  C   UNL A   1      42.549  28.001  32.411  1.00  0.00     0.009 A 
ATOM     82  C   UNL A   1      44.391  26.781  33.346  1.00  0.00     0.009 A 
ATOM     83  C   UNL A   1      41.851  27.856  33.617  1.00  0.00     0.001 A 
ATOM     84  C   UNL A   1      43.695  26.625  34.550  1.00  0.00     0.001 A 
ATOM     85  C   UNL A   1      42.425  27.170  34.686  1.00  0.00     0.000 A 
ENDBRANCH  67  80
ENDBRANCH  41  42
ENDBRANCH  33  36
ENDBRANCH  31  32
ENDBRANCH  30  31
ENDBRANCH   1  30
TORSDOF 16
ENDMDL
MODEL 2
REMARK VINA RESULT:     -11.4      1.894      2.900
REMARK SMILES COc1ccc(-c2ccc(CCC(=O)NCCCNC(=O)c3ccc(-c4c5nc(c(-c6ccccc6)c6ccc([nH]6)c(-c6ccccc6)c6nc(c(-c7ccccc7)c7ccc4[nH]7)C=C6)C=C5)cc3)n2-c2ccc(C(C)=O)cc2)cc1
REMARK SMILES IDX 16 1 15 2 13 3 14 4 12 6 11 7 10 8 7 9 8 10 70 11 9 12 6 13
REMARK SMILES IDX 3 14 4 15 81 16 5 17 80 18 2 19 1 20 71 21 72 22 79 23 73 24
REMARK SMILES IDX 78 25 74 26 75 27 76 28 77 29 17 30 18 31 19 32 20 33 21 35
REMARK SMILES IDX 22 36 23 37 69 38 24 39 68 40 25 41 26 42 27 43 62 44 28 45
REMARK SMILES IDX 67 46 61 47 63 48 29 49 66 50 60 51 59 52 30 54 52 55 37 56
REMARK SMILES IDX 51 57 38 58 41 59 50 60 64 61 39 62 40 63 49 65 65 66 42 67
REMARK SMILES IDX 31 68 32 69 36 70 33 71 35 72 34 73 53 74 54 75 58 76 55 77
REMARK SMILES IDX 57 78 56 79 43 80 44 81 48 82 45 83 47 84 46 85
REMARK H PARENT 15 5 19 34 63 53 41 64
REMARK Flexibility Score: inf
ROOT
ATOM      1  C   UNL A   1      31.891  29.731  25.278  1.00  0.00     0.117 C 
ENDROOT
BRANCH   1   2
ATOM      2  N   UNL A   1      33.055  28.861  25.336  1.00  0.00    -0.356 N 
ATOM      3  C   UNL A   1      33.387  27.800  24.544  1.00  0.00     0.220 C 
ATOM      4  O   UNL A   1      34.344  27.102  24.881  1.00  0.00    -0.275 OA
ATOM      5  H   UNL A   1      33.699  29.068  26.050  1.00  0.00     0.163 HD
BRANCH   3   6
ATOM      6  C   UNL A   1      32.629  27.530  23.258  1.00  0.00     0.106 C 
BRANCH   6   7
ATOM      7  C   UNL A   1      33.052  26.219  22.585  1.00  0.00     0.064 C 
BRANCH   7   8
ATOM      8  C   UNL A   1      32.325  25.022  23.145  1.00  0.00     0.024 A 
ATOM      9  C   UNL A   1      31.998  22.843  23.652  1.00  0.00     0.053 A 
ATOM     10  C   UNL A   1      30.760  23.470  23.591  1.00  0.00     0.029 A 
ATOM     11  N   UNL A   1      32.954  23.860  23.602  1.00  0.00    -0.314 N 
ATOM     12  C   UNL A   1      30.964  24.831  23.277  1.00  0.00     0.024 A 
BRANCH   9  13
ATOM     13  C   UNL A   1      32.248  21.432  23.954  1.00  0.00    -0.001 A 
ATOM     14  C   UNL A   1      32.827  18.740  24.514  1.00  0.00     0.118 A 
ATOM     15  C   UNL A   1      32.632  19.163  23.199  1.00  0.00     0.047 A 
ATOM     16  C   UNL A   1      32.763  19.668  25.552  1.00  0.00     0.047 A 
ATOM     17  C   UNL A   1      32.336  20.499  22.919  1.00  0.00     0.014 A 
ATOM     18  C   UNL A   1      32.474  21.009  25.269  1.00  0.00     0.014 A 
BRANCH  14  19
ATOM     19  O   UNL A   1      33.133  17.417  24.673  1.00  0.00    -0.497 OA
ATOM     20  C   UNL A   1      33.532  16.749  23.480  1.00  0.00     0.278 C 
ENDBRANCH  14  19
ENDBRANCH   9  13
BRANCH  11  21
ATOM     21  C   UNL A   1      34.262  23.797  24.149  1.00  0.00     0.046 A 
ATOM     22  C   UNL A   1      34.393  23.987  25.529  1.00  0.00     0.027 A 
ATOM     23  C   UNL A   1      35.368  23.428  23.386  1.00  0.00     0.027 A 
ATOM     24  C   UNL A   1      35.623  23.784  26.156  1.00  0.00     0.014 A 
ATOM     25  C   UNL A   1      36.604  23.243  24.016  1.00  0.00     0.014 A 
ATOM     26  C   UNL A   1      36.738  23.395  25.408  1.00  0.00     0.017 A 
BRANCH  26  27
ATOM     27  C   UNL A   1      38.069  23.113  26.025  1.00  0.00     0.159 C 
ATOM     28  C   UNL A   1      38.828  24.189  26.766  1.00  0.00     0.093 C 
ATOM     29  O   UNL A   1      38.539  21.978  25.943  1.00  0.00    -0.295 OA
ENDBRANCH  26  27
ENDBRANCH  11  21
ENDBRANCH   7   8
ENDBRANCH   6   7
ENDBRANCH   3   6
ENDBRANCH   1   2
BRANCH   1  30
ATOM     30  C   UNL A   1      31.726  30.514  26.574  1.00  0.00     0.042 C 
BRANCH  30  31
ATOM     31  C   UNL A   1      32.945  31.344  26.938  1.00  0.00     0.118 C 
BRANCH  31  32
ATOM     32  N   UNL A   1      32.598  32.679  27.389  1.00  0.00    -0.352 N 
ATOM     33  C   UNL A   1      33.245  33.482  28.289  1.00  0.00     0.251 C 
ATOM     34  H   UNL A   1      31.781  33.061  26.992  1.00  0.00     0.163 HD
ATOM     35  O   UNL A   1      32.684  34.518  28.670  1.00  0.00    -0.269 OA
BRANCH  33  36
ATOM     36  C   UNL A   1      34.581  33.135  28.833  1.00  0.00     0.039 A 
ATOM     37  C   UNL A   1      35.714  33.637  28.178  1.00  0.00     0.014 A 
ATOM     38  C   UNL A   1      34.746  32.274  29.925  1.00  0.00     0.014 A 
ATOM     39  C   UNL A   1      36.988  33.297  28.627  1.00  0.00     0.010 A 
ATOM     40  C   UNL A   1      36.008  31.987  30.420  1.00  0.00     0.010 A 
ATOM     41  C   UNL A   1      37.131  32.470  29.749  1.00  0.00    -0.014 A 
BRANCH  41  42
ATOM     42  C   UNL A   1      38.478  32.055  30.186  1.00  0.00     0.031 A 
ATOM     43  C   UNL A   1      39.144  33.025  31.136  1.00  0.00     0.074 A 
ATOM     44  C   UNL A   1      38.958  30.899  29.649  1.00  0.00     0.049 A 
ATOM     45  N   UNL A   1      40.392  33.362  31.213  1.00  0.00    -0.248 NA
ATOM     46  C   UNL A   1      38.295  33.798  32.071  1.00  0.00     0.031 C 
ATOM     47  C   UNL A   1      38.177  30.030  28.746  1.00  0.00     0.029 A 
ATOM     48  N   UNL A   1      40.156  30.222  29.731  1.00  0.00    -0.354 N 
ATOM     49  C   UNL A   1      40.510  34.309  32.246  1.00  0.00     0.074 A 
ATOM     50  C   UNL A   1      39.172  34.602  32.680  1.00  0.00     0.031 C 
ATOM     51  C   UNL A   1      38.916  28.985  28.335  1.00  0.00     0.029 A 
ATOM     52  C   UNL A   1      40.245  29.081  28.904  1.00  0.00     0.049 A 
ATOM     53  H   UNL A   1      40.891  30.510  30.319  1.00  0.00     0.167 HD
ATOM     54  C   UNL A   1      41.709  34.721  32.751  1.00  0.00     0.031 A 
ATOM     55  C   UNL A   1      41.320  28.294  28.615  1.00  0.00     0.031 A 
ATOM     56  C   UNL A   1      42.797  34.084  32.082  1.00  0.00     0.049 A 
ATOM     57  C   UNL A   1      42.483  28.856  29.326  1.00  0.00     0.074 A 
ATOM     58  C   UNL A   1      43.369  34.206  30.841  1.00  0.00     0.029 A 
ATOM     59  N   UNL A   1      43.274  32.932  32.660  1.00  0.00    -0.354 N 
ATOM     60  N   UNL A   1      42.699  28.779  30.603  1.00  0.00    -0.248 NA
ATOM     61  C   UNL A   1      43.446  29.666  28.568  1.00  0.00     0.031 C 
ATOM     62  C   UNL A   1      43.840  32.903  30.537  1.00  0.00     0.029 A 
ATOM     63  C   UNL A   1      43.593  32.074  31.634  1.00  0.00     0.049 A 
ATOM     64  H   UNL A   1      43.369  32.756  33.623  1.00  0.00     0.167 HD
ATOM     65  C   UNL A   1      43.584  29.811  30.830  1.00  0.00     0.074 A 
ATOM     66  C   UNL A   1      44.211  30.106  29.563  1.00  0.00     0.031 C 
ATOM     67  C   UNL A   1      43.386  30.662  31.867  1.00  0.00     0.031 A 
BRANCH  54  68
ATOM     68  C   UNL A   1      42.020  35.511  33.993  1.00  0.00    -0.014 A 
ATOM     69  C   UNL A   1      42.846  36.652  33.858  1.00  0.00     0.009 A 
ATOM     70  C   UNL A   1      41.771  35.059  35.293  1.00  0.00     0.009 A 
ATOM     71  C   UNL A   1      43.454  37.263  34.957  1.00  0.00     0.001 A 
ATOM     72  C   UNL A   1      42.349  35.694  36.403  1.00  0.00     0.001 A 
ATOM     73  C   UNL A   1      43.211  36.776  36.233  1.00  0.00     0.000 A 
ENDBRANCH  54  68
BRANCH  55  74
ATOM     74  C   UNL A   1      41.561  27.167  27.650  1.00  0.00    -0.014 A 
ATOM     75  C   UNL A   1      41.286  27.209  26.278  1.00  0.00     0.009 A 
ATOM     76  C   UNL A   1      42.113  25.953  28.125  1.00  0.00     0.009 A 
ATOM     77  C   UNL A   1      41.649  26.154  25.421  1.00  0.00     0.001 A 
ATOM     78  C   UNL A   1      42.488  24.904  27.280  1.00  0.00     0.001 A 
ATOM     79  C   UNL A   1      42.273  25.014  25.918  1.00  0.00     0.000 A 
ENDBRANCH  55  74
BRANCH  67  80
ATOM     80  C   UNL A   1      42.506  30.104  32.971  1.00  0.00    -0.014 A 
ATOM     81  C   UNL A   1      41.157  30.472  33.060  1.00  0.00     0.009 A 
ATOM     82  C   UNL A   1      43.030  29.304  34.001  1.00  0.00     0.009 A 
ATOM     83  C   UNL A   1      40.371  30.070  34.147  1.00  0.00     0.001 A 
ATOM     84  C   UNL A   1      42.247  28.892  35.085  1.00  0.00     0.001 A 
ATOM     85  C   UNL A   1      40.916  29.283  35.159  1.00  0.00     0.000 A 
ENDBRANCH  67  80
ENDBRANCH  41  42
ENDBRANCH  33  36
ENDBRANCH  31  32
ENDBRANCH  30  31
ENDBRANCH   1  30
TORSDOF 16
ENDMDL
MODEL 3
REMARK VINA RESULT:     -11.0      1.946      6.252
REMARK SMILES COc1ccc(-c2ccc(CCC(=O)NCCCNC(=O)c3ccc(-c4c5nc(c(-c6ccccc6)c6ccc([nH]6)c(-c6ccccc6)c6nc(c(-c7ccccc7)c7ccc4[nH]7)C=C6)C=C5)cc3)n2-c2ccc(C(C)=O)cc2)cc1
REMARK SMILES IDX 16 1 15 2 13 3 14 4 12 6 11 7 10 8 7 9 8 10 70 11 9 12 6 13
REMARK SMILES IDX 3 14 4 15 81 16 5 17 80 18 2 19 1 20 71 21 72 22 79 23 73 24
REMARK SMILES IDX 78 25 74 26 75 27 76 28 77 29 17 30 18 31 19 32 20 33 21 35
REMARK SMILES IDX 22 36 23 37 69 38 24 39 68 40 25 41 26 42 27 43 62 44 28 45
REMARK SMILES IDX 67 46 61 47 63 48 29 49 66 50 60 51 59 52 30 54 52 55 37 56
REMARK SMILES IDX 51 57 38 58 41 59 50 60 64 61 39 62 40 63 49 65 65 66 42 67
REMARK SMILES IDX 31 68 32 69 36 70 33 71 35 72 34 73 53 74 54 75 58 76 55 77
REMARK SMILES IDX 57 78 56 79 43 80 44 81 48 82 45 83 47 84 46 85
REMARK H PARENT 15 5 19 34 63 53 41 64
REMARK Flexibility Score: inf
ROOT
ATOM      1  C   UNL A   1      33.331  28.562  24.936  1.00  0.00     0.117 C 
ENDROOT
BRANCH   1   2
ATOM      2  N   UNL A   1      31.903  28.494  24.670  1.00  0.00    -0.356 N 
ATOM      3  C   UNL A   1      31.248  28.162  23.521  1.00  0.00     0.220 C 
ATOM      4  O   UNL A   1      30.029  28.332  23.477  1.00  0.00    -0.275 OA
ATOM      5  H   UNL A   1      31.322  28.719  25.432  1.00  0.00     0.163 HD
BRANCH   3   6
ATOM      6  C   UNL A   1      31.999  27.547  22.354  1.00  0.00     0.106 C 
BRANCH   6   7
ATOM      7  C   UNL A   1      32.959  26.434  22.788  1.00  0.00     0.064 C 
BRANCH   7   8
ATOM      8  C   UNL A   1      32.237  25.179  23.209  1.00  0.00     0.024 A 
ATOM      9  C   UNL A   1      31.911  22.955  23.456  1.00  0.00     0.053 A 
ATOM     10  C   UNL A   1      30.673  23.586  23.485  1.00  0.00     0.029 A 
ATOM     11  N   UNL A   1      32.868  23.971  23.516  1.00  0.00    -0.314 N 
ATOM     12  C   UNL A   1      30.877  24.975  23.333  1.00  0.00     0.024 A 
BRANCH   9  13
ATOM     13  C   UNL A   1      32.162  21.519  23.583  1.00  0.00    -0.001 A 
ATOM     14  C   UNL A   1      32.548  18.748  23.849  1.00  0.00     0.118 A 
ATOM     15  C   UNL A   1      32.575  19.577  24.970  1.00  0.00     0.047 A 
ATOM     16  C   UNL A   1      32.298  19.297  22.593  1.00  0.00     0.047 A 
ATOM     17  C   UNL A   1      32.391  20.956  24.840  1.00  0.00     0.014 A 
ATOM     18  C   UNL A   1      32.107  20.679  22.464  1.00  0.00     0.014 A 
BRANCH  14  19
ATOM     19  O   UNL A   1      32.716  17.413  24.093  1.00  0.00    -0.497 OA
ATOM     20  C   UNL A   1      32.637  17.043  25.467  1.00  0.00     0.278 C 
ENDBRANCH  14  19
ENDBRANCH   9  13
BRANCH  11  21
ATOM     21  C   UNL A   1      34.183  23.841  24.036  1.00  0.00     0.046 A 
ATOM     22  C   UNL A   1      34.369  24.125  25.394  1.00  0.00     0.027 A 
ATOM     23  C   UNL A   1      35.233  23.325  23.279  1.00  0.00     0.027 A 
ATOM     24  C   UNL A   1      35.596  23.869  26.007  1.00  0.00     0.014 A 
ATOM     25  C   UNL A   1      36.467  23.087  23.894  1.00  0.00     0.014 A 
ATOM     26  C   UNL A   1      36.653  23.334  25.266  1.00  0.00     0.017 A 
BRANCH  26  27
ATOM     27  C   UNL A   1      37.976  22.991  25.872  1.00  0.00     0.159 C 
ATOM     28  C   UNL A   1      38.598  21.630  25.665  1.00  0.00     0.093 C 
ATOM     29  O   UNL A   1      38.572  23.843  26.531  1.00  0.00    -0.295 OA
ENDBRANCH  26  27
ENDBRANCH  11  21
ENDBRANCH   7   8
ENDBRANCH   6   7
ENDBRANCH   3   6
ENDBRANCH   1   2
BRANCH   1  30
ATOM     30  C   UNL A   1      33.623  28.368  26.418  1.00  0.00     0.042 C 
BRANCH  30  31
ATOM     31  C   UNL A   1      35.005  28.845  26.830  1.00  0.00     0.118 C 
BRANCH  31  32
ATOM     32  N   UNL A   1      34.960  30.015  27.688  1.00  0.00    -0.352 N 
ATOM     33  C   UNL A   1      35.859  30.426  28.635  1.00  0.00     0.251 C 
ATOM     34  H   UNL A   1      34.172  30.594  27.573  1.00  0.00     0.163 HD
ATOM     35  O   UNL A   1      35.544  31.359  29.386  1.00  0.00    -0.269 OA
BRANCH  33  36
ATOM     36  C   UNL A   1      37.179  29.772  28.801  1.00  0.00     0.039 A 
ATOM     37  C   UNL A   1      37.341  28.861  29.854  1.00  0.00     0.014 A 
ATOM     38  C   UNL A   1      38.278  30.083  27.991  1.00  0.00     0.014 A 
ATOM     39  C   UNL A   1      38.578  28.260  30.075  1.00  0.00     0.010 A 
ATOM     40  C   UNL A   1      39.493  29.438  28.160  1.00  0.00     0.010 A 
ATOM     41  C   UNL A   1      39.652  28.552  29.224  1.00  0.00    -0.014 A 
BRANCH  41  42
ATOM     42  C   UNL A   1      40.981  27.967  29.496  1.00  0.00     0.031 A 
ATOM     43  C   UNL A   1      41.367  26.851  28.552  1.00  0.00     0.074 A 
ATOM     44  C   UNL A   1      41.652  28.465  30.571  1.00  0.00     0.049 A 
ATOM     45  N   UNL A   1      42.023  25.763  28.802  1.00  0.00    -0.248 NA
ATOM     46  C   UNL A   1      40.880  26.904  27.154  1.00  0.00     0.031 C 
ATOM     47  C   UNL A   1      41.160  29.587  31.396  1.00  0.00     0.029 A 
ATOM     48  N   UNL A   1      42.843  28.157  31.192  1.00  0.00    -0.354 N 
ATOM     49  C   UNL A   1      42.113  25.038  27.600  1.00  0.00     0.074 A 
ATOM     50  C   UNL A   1      41.316  25.750  26.639  1.00  0.00     0.031 C 
ATOM     51  C   UNL A   1      42.002  29.835  32.413  1.00  0.00     0.029 A 
ATOM     52  C   UNL A   1      43.102  28.894  32.367  1.00  0.00     0.049 A 
ATOM     53  H   UNL A   1      43.464  27.477  30.843  1.00  0.00     0.167 HD
ATOM     54  C   UNL A   1      42.921  23.950  27.440  1.00  0.00     0.031 A 
ATOM     55  C   UNL A   1      44.080  28.730  33.303  1.00  0.00     0.031 A 
ATOM     56  C   UNL A   1      43.625  23.649  28.645  1.00  0.00     0.049 A 
ATOM     57  C   UNL A   1      44.890  27.566  32.897  1.00  0.00     0.074 A 
ATOM     58  C   UNL A   1      43.274  23.111  29.857  1.00  0.00     0.029 A 
ATOM     59  N   UNL A   1      44.878  24.201  28.770  1.00  0.00    -0.354 N 
ATOM     60  N   UNL A   1      45.742  27.540  31.918  1.00  0.00    -0.248 NA
ATOM     61  C   UNL A   1      44.661  26.281  33.573  1.00  0.00     0.031 C 
ATOM     62  C   UNL A   1      44.144  23.735  30.787  1.00  0.00     0.029 A 
ATOM     63  C   UNL A   1      45.023  24.565  30.088  1.00  0.00     0.049 A 
ATOM     64  H   UNL A   1      45.542  24.315  28.053  1.00  0.00     0.167 HD
ATOM     65  C   UNL A   1      45.856  26.195  31.644  1.00  0.00     0.074 A 
ATOM     66  C   UNL A   1      45.430  25.491  32.830  1.00  0.00     0.031 C 
ATOM     67  C   UNL A   1      45.798  25.755  30.362  1.00  0.00     0.031 A 
BRANCH  54  68
ATOM     68  C   UNL A   1      43.333  23.221  26.190  1.00  0.00    -0.014 A 
ATOM     69  C   UNL A   1      43.379  21.807  26.238  1.00  0.00     0.009 A 
ATOM     70  C   UNL A   1      43.917  23.838  25.079  1.00  0.00     0.009 A 
ATOM     71  C   UNL A   1      44.040  21.053  25.266  1.00  0.00     0.001 A 
ATOM     72  C   UNL A   1      44.549  23.080  24.081  1.00  0.00     0.001 A 
ATOM     73  C   UNL A   1      44.635  21.694  24.189  1.00  0.00     0.000 A 
ENDBRANCH  54  68
BRANCH  55  74
ATOM     74  C   UNL A   1      44.358  29.348  34.645  1.00  0.00    -0.014 A 
ATOM     75  C   UNL A   1      43.583  29.156  35.795  1.00  0.00     0.009 A 
ATOM     76  C   UNL A   1      45.484  30.191  34.802  1.00  0.00     0.009 A 
ATOM     77  C   UNL A   1      43.975  29.674  37.042  1.00  0.00     0.001 A 
ATOM     78  C   UNL A   1      45.887  30.701  36.039  1.00  0.00     0.001 A 
ATOM     79  C   UNL A   1      45.139  30.425  37.169  1.00  0.00     0.000 A 
ENDBRANCH  55  74
BRANCH  67  80
ATOM     80  C   UNL A   1      46.122  26.815  29.325  1.00  0.00    -0.014 A 
ATOM     81  C   UNL A   1      45.102  27.392  28.556  1.00  0.00     0.009 A 
ATOM     82  C   UNL A   1      47.446  27.166  29.014  1.00  0.00     0.009 A 
ATOM     83  C   UNL A   1      45.401  28.272  27.508  1.00  0.00     0.001 A 
ATOM     84  C   UNL A   1      47.750  28.051  27.974  1.00  0.00     0.001 A 
ATOM     85  C   UNL A   1      46.723  28.599  27.216  1.00  0.00     0.000 A 
ENDBRANCH  67  80
ENDBRANCH  41  42
ENDBRANCH  33  36
ENDBRANCH  31  32
ENDBRANCH  30  31
ENDBRANCH   1  30
TORSDOF 16
ENDMDL
