MODEL 1
REMARK VINA RESULT:     -11.3      0.000      0.000
REMARK SMILES CCc1cc(OC(F)(F)F)cc2c1O[C@@H](C(F)(F)F)C(C(=O)NCCCNC(=O)c1ccc(-c3c4nc(c(-c5ccccc5)c5ccc([nH]5)c(-c5ccccc5)c5nc(c(-c6ccccc6)c6ccc3[nH]6)C=C5)C=C4)cc1)=C2
REMARK SMILES IDX 25 1 24 2 23 3 21 4 22 5 20 7 3 8 4 9 13 10 5 11 12 12 14 13
REMARK SMILES IDX 11 14 78 15 15 16 2 17 1 18 6 19 7 20 8 21 9 22 10 23 16 24
REMARK SMILES IDX 17 25 18 26 19 27 26 28 27 29 28 30 29 32 30 33 31 34 77 35
REMARK SMILES IDX 32 36 76 37 33 38 34 39 35 40 70 41 36 42 75 43 69 44 71 45
REMARK SMILES IDX 37 46 74 47 68 48 67 49 38 51 60 52 45 53 59 54 46 55 49 56
REMARK SMILES IDX 58 57 72 58 47 59 48 60 57 62 73 63 50 64 39 65 40 66 44 67
REMARK SMILES IDX 41 68 43 69 42 70 61 71 62 72 66 73 63 74 65 75 64 76 51 77
REMARK SMILES IDX 52 78 56 79 53 80 55 81 54 82
REMARK H PARENT 23 6 27 31 71 50 49 61
REMARK Flexibility Score: inf
ROOT
ATOM      1  C   UNL A   1      32.248  27.938  27.755  1.00  0.00     0.042 C 
ENDROOT
BRANCH   1   2
ATOM      2  C   UNL A   1      31.391  27.357  26.626  1.00  0.00     0.118 C 
BRANCH   2   3
ATOM      3  N   UNL A   1      31.859  27.828  25.331  1.00  0.00    -0.352 N 
ATOM      4  C   UNL A   1      32.585  27.247  24.342  1.00  0.00     0.251 C 
ATOM      5  O   UNL A   1      32.947  27.951  23.402  1.00  0.00    -0.270 OA
ATOM      6  H   UNL A   1      31.594  28.756  25.132  1.00  0.00     0.163 HD
BRANCH   4   7
ATOM      7  C   UNL A   1      32.901  25.795  24.317  1.00  0.00     0.067 C 
ATOM      8  C   UNL A   1      33.479  21.620  24.244  1.00  0.00    -0.002 A 
ATOM      9  C   UNL A   1      34.653  21.098  24.825  1.00  0.00     0.054 A 
ATOM     10  C   UNL A   1      33.288  23.014  24.248  1.00  0.00     0.131 A 
ATOM     11  C   UNL A   1      35.591  21.933  25.433  1.00  0.00     0.130 A 
ATOM     12  C   UNL A   1      34.233  23.855  24.835  1.00  0.00     0.021 A 
ATOM     13  O   UNL A   1      32.128  23.496  23.716  1.00  0.00    -0.475 OA
ATOM     14  C   UNL A   1      35.376  23.311  25.428  1.00  0.00     0.058 A 
ATOM     15  C   UNL A   1      33.998  25.288  24.893  1.00  0.00     0.025 C 
ATOM     16  C   UNL A   1      32.002  24.922  23.450  1.00  0.00     0.314 C 
BRANCH   8  17
ATOM     17  C   UNL A   1      32.480  20.701  23.567  1.00  0.00     0.036 C 
ATOM     18  C   UNL A   1      32.448  19.275  24.108  1.00  0.00     0.009 C 
ENDBRANCH   8  17
BRANCH  11  19
ATOM     19  O   UNL A   1      36.740  21.549  26.063  1.00  0.00    -0.406 OA
BRANCH  19  20
ATOM     20  C   UNL A   1      37.951  21.601  25.327  1.00  0.00     0.573 C 
ATOM     21  F   UNL A   1      38.767  22.570  25.795  1.00  0.00    -0.132 F 
ATOM     22  F   UNL A   1      38.589  20.412  25.366  1.00  0.00    -0.132 F 
ATOM     23  F   UNL A   1      37.660  21.882  24.038  1.00  0.00    -0.132 F 
ENDBRANCH  19  20
ENDBRANCH  11  19
BRANCH  16  24
ATOM     24  C   UNL A   1      30.492  25.255  23.489  1.00  0.00     0.429 C 
ATOM     25  F   UNL A   1      29.730  24.311  22.895  1.00  0.00    -0.167 F 
ATOM     26  F   UNL A   1      30.043  25.331  24.772  1.00  0.00    -0.167 F 
ATOM     27  F   UNL A   1      30.214  26.445  22.909  1.00  0.00    -0.167 F 
ENDBRANCH  16  24
ENDBRANCH   4   7
ENDBRANCH   2   3
ENDBRANCH   1   2
BRANCH   1  28
ATOM     28  C   UNL A   1      33.530  28.608  27.264  1.00  0.00     0.118 C 
BRANCH  28  29
ATOM     29  N   UNL A   1      33.525  30.040  27.516  1.00  0.00    -0.352 N 
ATOM     30  C   UNL A   1      34.459  30.830  28.136  1.00  0.00     0.251 C 
ATOM     31  H   UNL A   1      32.726  30.516  27.193  1.00  0.00     0.163 HD
ATOM     32  O   UNL A   1      34.164  31.979  28.450  1.00  0.00    -0.269 OA
BRANCH  30  33
ATOM     33  C   UNL A   1      35.815  30.316  28.436  1.00  0.00     0.039 A 
ATOM     34  C   UNL A   1      36.780  30.342  27.423  1.00  0.00     0.014 A 
ATOM     35  C   UNL A   1      36.126  29.752  29.677  1.00  0.00     0.014 A 
ATOM     36  C   UNL A   1      38.062  29.844  27.665  1.00  0.00     0.010 A 
ATOM     37  C   UNL A   1      37.422  29.309  29.937  1.00  0.00     0.010 A 
ATOM     38  C   UNL A   1      38.401  29.342  28.932  1.00  0.00    -0.014 A 
BRANCH  38  39
ATOM     39  C   UNL A   1      39.771  28.849  29.220  1.00  0.00     0.031 A 
ATOM     40  C   UNL A   1      40.782  29.748  29.879  1.00  0.00     0.074 A 
ATOM     41  C   UNL A   1      40.128  27.610  28.829  1.00  0.00     0.049 A 
ATOM     42  N   UNL A   1      42.043  29.516  30.147  1.00  0.00    -0.248 NA
ATOM     43  C   UNL A   1      40.323  31.092  30.267  1.00  0.00     0.031 C 
ATOM     44  C   UNL A   1      39.257  26.653  28.145  1.00  0.00     0.029 A 
ATOM     45  N   UNL A   1      41.327  26.949  28.937  1.00  0.00    -0.354 N 
ATOM     46  C   UNL A   1      42.532  30.690  30.707  1.00  0.00     0.074 A 
ATOM     47  C   UNL A   1      41.443  31.643  30.711  1.00  0.00     0.031 C 
ATOM     48  C   UNL A   1      39.944  25.523  27.908  1.00  0.00     0.029 A 
ATOM     49  C   UNL A   1      41.311  25.690  28.389  1.00  0.00     0.049 A 
ATOM     50  H   UNL A   1      42.121  27.340  29.368  1.00  0.00     0.167 HD
ATOM     51  C   UNL A   1      43.773  30.948  31.185  1.00  0.00     0.031 A 
ATOM     52  C   UNL A   1      42.291  24.773  28.277  1.00  0.00     0.031 A 
ATOM     53  C   UNL A   1      44.850  29.995  31.205  1.00  0.00     0.049 A 
ATOM     54  C   UNL A   1      43.655  25.081  28.826  1.00  0.00     0.074 A 
ATOM     55  C   UNL A   1      46.120  30.139  31.738  1.00  0.00     0.029 A 
ATOM     56  N   UNL A   1      44.785  28.721  30.664  1.00  0.00    -0.354 N 
ATOM     57  N   UNL A   1      44.079  26.169  29.422  1.00  0.00    -0.248 NA
ATOM     58  C   UNL A   1      44.675  24.029  28.695  1.00  0.00     0.031 C 
ATOM     59  C   UNL A   1      46.838  28.968  31.479  1.00  0.00     0.029 A 
ATOM     60  C   UNL A   1      46.000  28.077  30.828  1.00  0.00     0.049 A 
ATOM     61  H   UNL A   1      43.993  28.331  30.228  1.00  0.00     0.167 HD
ATOM     62  C   UNL A   1      45.403  25.923  29.760  1.00  0.00     0.074 A 
ATOM     63  C   UNL A   1      45.707  24.578  29.318  1.00  0.00     0.031 C 
ATOM     64  C   UNL A   1      46.288  26.739  30.383  1.00  0.00     0.031 A 
BRANCH  51  65
ATOM     65  C   UNL A   1      44.040  32.327  31.722  1.00  0.00    -0.014 A 
ATOM     66  C   UNL A   1      44.432  33.376  30.876  1.00  0.00     0.009 A 
ATOM     67  C   UNL A   1      43.846  32.593  33.086  1.00  0.00     0.009 A 
ATOM     68  C   UNL A   1      44.658  34.655  31.391  1.00  0.00     0.001 A 
ATOM     69  C   UNL A   1      44.046  33.877  33.595  1.00  0.00     0.001 A 
ATOM     70  C   UNL A   1      44.459  34.905  32.749  1.00  0.00     0.000 A 
ENDBRANCH  51  65
BRANCH  52  71
ATOM     71  C   UNL A   1      42.018  23.469  27.619  1.00  0.00    -0.014 A 
ATOM     72  C   UNL A   1      41.433  22.417  28.341  1.00  0.00     0.009 A 
ATOM     73  C   UNL A   1      42.348  23.267  26.270  1.00  0.00     0.009 A 
ATOM     74  C   UNL A   1      41.211  21.179  27.731  1.00  0.00     0.001 A 
ATOM     75  C   UNL A   1      42.100  22.038  25.656  1.00  0.00     0.001 A 
ATOM     76  C   UNL A   1      41.542  20.993  26.389  1.00  0.00     0.000 A 
ENDBRANCH  52  71
BRANCH  64  77
ATOM     77  C   UNL A   1      47.658  26.187  30.651  1.00  0.00    -0.014 A 
ATOM     78  C   UNL A   1      48.642  26.165  29.652  1.00  0.00     0.009 A 
ATOM     79  C   UNL A   1      47.980  25.719  31.935  1.00  0.00     0.009 A 
ATOM     80  C   UNL A   1      49.913  25.656  29.924  1.00  0.00     0.001 A 
ATOM     81  C   UNL A   1      49.259  25.234  32.212  1.00  0.00     0.001 A 
ATOM     82  C   UNL A   1      50.221  25.195  31.205  1.00  0.00     0.000 A 
ENDBRANCH  64  77
ENDBRANCH  38  39
ENDBRANCH  30  33
ENDBRANCH  28  29
ENDBRANCH   1  28
TORSDOF 14
ENDMDL
MODEL 2
REMARK VINA RESULT:     -11.0      2.350      7.327
REMARK SMILES CCc1cc(OC(F)(F)F)cc2c1O[C@@H](C(F)(F)F)C(C(=O)NCCCNC(=O)c1ccc(-c3c4nc(c(-c5ccccc5)c5ccc([nH]5)c(-c5ccccc5)c5nc(c(-c6ccccc6)c6ccc3[nH]6)C=C5)C=C4)cc1)=C2
REMARK SMILES IDX 25 1 24 2 23 3 21 4 22 5 20 7 3 8 4 9 13 10 5 11 12 12 14 13
REMARK SMILES IDX 11 14 78 15 15 16 2 17 1 18 6 19 7 20 8 21 9 22 10 23 16 24
REMARK SMILES IDX 17 25 18 26 19 27 26 28 27 29 28 30 29 32 30 33 31 34 77 35
REMARK SMILES IDX 32 36 76 37 33 38 34 39 35 40 70 41 36 42 75 43 69 44 71 45
REMARK SMILES IDX 37 46 74 47 68 48 67 49 38 51 60 52 45 53 59 54 46 55 49 56
REMARK SMILES IDX 58 57 72 58 47 59 48 60 57 62 73 63 50 64 39 65 40 66 44 67
REMARK SMILES IDX 41 68 43 69 42 70 61 71 62 72 66 73 63 74 65 75 64 76 51 77
REMARK SMILES IDX 52 78 56 79 53 80 55 81 54 82
REMARK H PARENT 23 6 27 31 71 50 49 61
REMARK Flexibility Score: inf
ROOT
ATOM      1  C   UNL A   1      36.844  20.072  25.407  1.00  0.00     0.042 C 
ENDROOT
BRANCH   1   2
ATOM      2  C   UNL A   1      35.788  21.162  25.200  1.00  0.00     0.118 C 
BRANCH   2   3
ATOM      3  N   UNL A   1      36.094  21.958  24.020  1.00  0.00    -0.352 N 
ATOM      4  C   UNL A   1      35.522  23.061  23.474  1.00  0.00     0.251 C 
ATOM      5  O   UNL A   1      35.928  23.438  22.377  1.00  0.00    -0.270 OA
ATOM      6  H   UNL A   1      36.874  21.628  23.516  1.00  0.00     0.163 HD
BRANCH   4   7
ATOM      7  C   UNL A   1      34.483  23.863  24.171  1.00  0.00     0.067 C 
ATOM      8  C   UNL A   1      31.321  26.025  25.931  1.00  0.00    -0.002 A 
ATOM      9  C   UNL A   1      31.626  27.223  26.608  1.00  0.00     0.054 A 
ATOM     10  C   UNL A   1      32.374  25.288  25.357  1.00  0.00     0.131 A 
ATOM     11  C   UNL A   1      32.936  27.701  26.676  1.00  0.00     0.130 A 
ATOM     12  C   UNL A   1      33.687  25.750  25.440  1.00  0.00     0.021 A 
ATOM     13  O   UNL A   1      32.052  24.152  24.673  1.00  0.00    -0.475 OA
ATOM     14  C   UNL A   1      33.961  26.954  26.095  1.00  0.00     0.058 A 
ATOM     15  C   UNL A   1      34.760  25.017  24.790  1.00  0.00     0.025 C 
ATOM     16  C   UNL A   1      33.107  23.220  24.299  1.00  0.00     0.314 C 
BRANCH   8  17
ATOM     17  C   UNL A   1      29.896  25.507  25.886  1.00  0.00     0.036 C 
ATOM     18  C   UNL A   1      29.088  25.952  24.671  1.00  0.00     0.009 C 
ENDBRANCH   8  17
BRANCH  11  19
ATOM     19  O   UNL A   1      33.354  28.860  27.263  1.00  0.00    -0.406 OA
BRANCH  19  20
ATOM     20  C   UNL A   1      32.907  30.086  26.708  1.00  0.00     0.573 C 
ATOM     21  F   UNL A   1      32.843  30.019  25.361  1.00  0.00    -0.132 F 
ATOM     22  F   UNL A   1      31.699  30.427  27.203  1.00  0.00    -0.132 F 
ATOM     23  F   UNL A   1      33.788  31.055  27.039  1.00  0.00    -0.132 F 
ENDBRANCH  19  20
ENDBRANCH  11  19
BRANCH  16  24
ATOM     24  C   UNL A   1      32.603  22.444  23.060  1.00  0.00     0.429 C 
ATOM     25  F   UNL A   1      33.106  22.920  21.901  1.00  0.00    -0.167 F 
ATOM     26  F   UNL A   1      32.985  21.139  23.114  1.00  0.00    -0.167 F 
ATOM     27  F   UNL A   1      31.253  22.449  22.966  1.00  0.00    -0.167 F 
ENDBRANCH  16  24
ENDBRANCH   4   7
ENDBRANCH   2   3
ENDBRANCH   1   2
BRANCH   1  28
ATOM     28  C   UNL A   1      38.272  20.551  25.150  1.00  0.00     0.118 C 
BRANCH  28  29
ATOM     29  N   UNL A   1      39.252  19.523  25.462  1.00  0.00    -0.352 N 
ATOM     30  C   UNL A   1      40.525  19.640  25.961  1.00  0.00     0.251 C 
ATOM     31  H   UNL A   1      38.958  18.600  25.287  1.00  0.00     0.163 HD
ATOM     32  O   UNL A   1      41.272  18.667  25.940  1.00  0.00    -0.269 OA
BRANCH  30  33
ATOM     33  C   UNL A   1      41.012  20.923  26.518  1.00  0.00     0.039 A 
ATOM     34  C   UNL A   1      41.591  21.854  25.648  1.00  0.00     0.014 A 
ATOM     35  C   UNL A   1      40.965  21.190  27.890  1.00  0.00     0.014 A 
ATOM     36  C   UNL A   1      42.083  23.063  26.144  1.00  0.00     0.010 A 
ATOM     37  C   UNL A   1      41.402  22.421  28.376  1.00  0.00     0.010 A 
ATOM     38  C   UNL A   1      41.972  23.367  27.511  1.00  0.00    -0.014 A 
BRANCH  38  39
ATOM     39  C   UNL A   1      42.450  24.666  28.048  1.00  0.00     0.031 A 
ATOM     40  C   UNL A   1      41.474  25.770  28.353  1.00  0.00     0.074 A 
ATOM     41  C   UNL A   1      43.772  24.877  28.201  1.00  0.00     0.049 A 
ATOM     42  N   UNL A   1      41.709  26.991  28.762  1.00  0.00    -0.248 NA
ATOM     43  C   UNL A   1      40.047  25.470  28.149  1.00  0.00     0.031 C 
ATOM     44  C   UNL A   1      44.826  23.905  27.905  1.00  0.00     0.029 A 
ATOM     45  N   UNL A   1      44.455  25.987  28.631  1.00  0.00    -0.354 N 
ATOM     46  C   UNL A   1      40.468  27.610  28.837  1.00  0.00     0.074 A 
ATOM     47  C   UNL A   1      39.484  26.642  28.401  1.00  0.00     0.031 C 
ATOM     48  C   UNL A   1      46.021  24.455  28.175  1.00  0.00     0.029 A 
ATOM     49  C   UNL A   1      45.820  25.828  28.627  1.00  0.00     0.049 A 
ATOM     50  H   UNL A   1      44.010  26.818  28.915  1.00  0.00     0.167 HD
ATOM     51  C   UNL A   1      40.172  28.868  29.244  1.00  0.00     0.031 A 
ATOM     52  C   UNL A   1      46.802  26.693  28.944  1.00  0.00     0.031 A 
ATOM     53  C   UNL A   1      41.144  29.824  29.701  1.00  0.00     0.049 A 
ATOM     54  C   UNL A   1      46.445  28.078  29.402  1.00  0.00     0.074 A 
ATOM     55  C   UNL A   1      40.933  31.096  30.205  1.00  0.00     0.029 A 
ATOM     56  N   UNL A   1      42.514  29.614  29.707  1.00  0.00    -0.354 N 
ATOM     57  N   UNL A   1      45.260  28.622  29.541  1.00  0.00    -0.248 NA
ATOM     58  C   UNL A   1      47.562  28.967  29.758  1.00  0.00     0.031 C 
ATOM     59  C   UNL A   1      42.177  31.673  30.473  1.00  0.00     0.029 A 
ATOM     60  C   UNL A   1      43.162  30.742  30.182  1.00  0.00     0.049 A 
ATOM     61  H   UNL A   1      42.960  28.785  29.417  1.00  0.00     0.167 HD
ATOM     62  C   UNL A   1      45.487  29.904  30.024  1.00  0.00     0.074 A 
ATOM     63  C   UNL A   1      46.920  30.051  30.169  1.00  0.00     0.031 C 
ATOM     64  C   UNL A   1      44.588  30.873  30.321  1.00  0.00     0.031 A 
BRANCH  51  65
ATOM     65  C   UNL A   1      38.729  29.291  29.203  1.00  0.00    -0.014 A 
ATOM     66  C   UNL A   1      37.898  29.158  30.325  1.00  0.00     0.009 A 
ATOM     67  C   UNL A   1      38.209  29.879  28.039  1.00  0.00     0.009 A 
ATOM     68  C   UNL A   1      36.564  29.573  30.272  1.00  0.00     0.001 A 
ATOM     69  C   UNL A   1      36.885  30.317  27.997  1.00  0.00     0.001 A 
ATOM     70  C   UNL A   1      36.062  30.157  29.110  1.00  0.00     0.000 A 
ENDBRANCH  51  65
BRANCH  52  71
ATOM     71  C   UNL A   1      48.224  26.273  28.842  1.00  0.00    -0.014 A 
ATOM     72  C   UNL A   1      48.936  26.457  27.647  1.00  0.00     0.009 A 
ATOM     73  C   UNL A   1      48.872  25.680  29.936  1.00  0.00     0.009 A 
ATOM     74  C   UNL A   1      50.262  26.027  27.542  1.00  0.00     0.001 A 
ATOM     75  C   UNL A   1      50.205  25.277  29.836  1.00  0.00     0.001 A 
ATOM     76  C   UNL A   1      50.896  25.442  28.637  1.00  0.00     0.000 A 
ENDBRANCH  52  71
BRANCH  64  77
ATOM     77  C   UNL A   1      45.127  32.165  30.864  1.00  0.00    -0.014 A 
ATOM     78  C   UNL A   1      45.390  32.327  32.232  1.00  0.00     0.009 A 
ATOM     79  C   UNL A   1      45.412  33.222  29.985  1.00  0.00     0.009 A 
ATOM     80  C   UNL A   1      45.899  33.534  32.715  1.00  0.00     0.001 A 
ATOM     81  C   UNL A   1      45.945  34.419  30.467  1.00  0.00     0.001 A 
ATOM     82  C   UNL A   1      46.180  34.576  31.831  1.00  0.00     0.000 A 
ENDBRANCH  64  77
ENDBRANCH  38  39
ENDBRANCH  30  33
ENDBRANCH  28  29
ENDBRANCH   1  28
TORSDOF 14
ENDMDL
MODEL 3
REMARK VINA RESULT:     -10.9      2.624      7.712
REMARK SMILES CCc1cc(OC(F)(F)F)cc2c1O[C@@H](C(F)(F)F)C(C(=O)NCCCNC(=O)c1ccc(-c3c4nc(c(-c5ccccc5)c5ccc([nH]5)c(-c5ccccc5)c5nc(c(-c6ccccc6)c6ccc3[nH]6)C=C5)C=C4)cc1)=C2
REMARK SMILES IDX 25 1 24 2 23 3 21 4 22 5 20 7 3 8 4 9 13 10 5 11 12 12 14 13
REMARK SMILES IDX 11 14 78 15 15 16 2 17 1 18 6 19 7 20 8 21 9 22 10 23 16 24
REMARK SMILES IDX 17 25 18 26 19 27 26 28 27 29 28 30 29 32 30 33 31 34 77 35
REMARK SMILES IDX 32 36 76 37 33 38 34 39 35 40 70 41 36 42 75 43 69 44 71 45
REMARK SMILES IDX 37 46 74 47 68 48 67 49 38 51 60 52 45 53 59 54 46 55 49 56
REMARK SMILES IDX 58 57 72 58 47 59 48 60 57 62 73 63 50 64 39 65 40 66 44 67
REMARK SMILES IDX 41 68 43 69 42 70 61 71 62 72 66 73 63 74 65 75 64 76 51 77
REMARK SMILES IDX 52 78 56 79 53 80 55 81 54 82
REMARK H PARENT 23 6 27 31 71 50 49 61
REMARK Flexibility Score: inf
ROOT
ATOM      1  C   UNL A   1      35.543  22.351  26.621  1.00  0.00     0.042 C 
ENDROOT
BRANCH   1   2
ATOM      2  C   UNL A   1      35.033  21.466  25.478  1.00  0.00     0.118 C 
BRANCH   2   3
ATOM      3  N   UNL A   1      35.474  21.985  24.191  1.00  0.00    -0.352 N 
ATOM      4  C   UNL A   1      35.043  23.009  23.411  1.00  0.00     0.251 C 
ATOM      5  O   UNL A   1      35.536  23.127  22.291  1.00  0.00    -0.270 OA
ATOM      6  H   UNL A   1      36.238  21.495  23.811  1.00  0.00     0.163 HD
BRANCH   4   7
ATOM      7  C   UNL A   1      34.060  24.022  23.874  1.00  0.00     0.067 C 
ATOM      8  C   UNL A   1      31.051  26.753  24.997  1.00  0.00    -0.002 A 
ATOM      9  C   UNL A   1      31.439  28.050  25.390  1.00  0.00     0.054 A 
ATOM     10  C   UNL A   1      32.051  25.830  24.639  1.00  0.00     0.131 A 
ATOM     11  C   UNL A   1      32.780  28.436  25.384  1.00  0.00     0.130 A 
ATOM     12  C   UNL A   1      33.395  26.203  24.652  1.00  0.00     0.021 A 
ATOM     13  O   UNL A   1      31.652  24.593  24.225  1.00  0.00    -0.475 OA
ATOM     14  C   UNL A   1      33.752  27.504  25.020  1.00  0.00     0.058 A 
ATOM     15  C   UNL A   1      34.417  25.265  24.219  1.00  0.00     0.025 C 
ATOM     16  C   UNL A   1      32.637  23.527  24.106  1.00  0.00     0.314 C 
BRANCH   8  17
ATOM     17  C   UNL A   1      29.591  26.343  25.031  1.00  0.00     0.036 C 
ATOM     18  C   UNL A   1      28.799  26.677  23.770  1.00  0.00     0.009 C 
ENDBRANCH   8  17
BRANCH  11  19
ATOM     19  O   UNL A   1      33.278  29.667  25.701  1.00  0.00    -0.406 OA
BRANCH  19  20
ATOM     20  C   UNL A   1      33.634  29.913  27.051  1.00  0.00     0.573 C 
ATOM     21  F   UNL A   1      33.714  28.763  27.754  1.00  0.00    -0.132 F 
ATOM     22  F   UNL A   1      34.809  30.574  27.126  1.00  0.00    -0.132 F 
ATOM     23  F   UNL A   1      32.679  30.685  27.614  1.00  0.00    -0.132 F 
ENDBRANCH  19  20
ENDBRANCH  11  19
BRANCH  16  24
ATOM     24  C   UNL A   1      32.090  22.523  23.064  1.00  0.00     0.429 C 
ATOM     25  F   UNL A   1      32.668  22.658  21.851  1.00  0.00    -0.167 F 
ATOM     26  F   UNL A   1      32.340  21.241  23.446  1.00  0.00    -0.167 F 
ATOM     27  F   UNL A   1      30.750  22.628  22.905  1.00  0.00    -0.167 F 
ENDBRANCH  16  24
ENDBRANCH   4   7
ENDBRANCH   2   3
ENDBRANCH   1   2
BRANCH   1  28
ATOM     28  C   UNL A   1      36.761  23.192  26.244  1.00  0.00     0.118 C 
BRANCH  28  29
ATOM     29  N   UNL A   1      37.970  22.390  26.164  1.00  0.00    -0.352 N 
ATOM     30  C   UNL A   1      39.282  22.752  26.338  1.00  0.00     0.251 C 
ATOM     31  H   UNL A   1      37.826  21.439  25.951  1.00  0.00     0.163 HD
ATOM     32  O   UNL A   1      40.171  21.974  26.005  1.00  0.00    -0.269 OA
BRANCH  30  33
ATOM     33  C   UNL A   1      39.641  24.068  26.915  1.00  0.00     0.039 A 
ATOM     34  C   UNL A   1      39.300  24.329  28.247  1.00  0.00     0.014 A 
ATOM     35  C   UNL A   1      40.247  25.065  26.144  1.00  0.00     0.014 A 
ATOM     36  C   UNL A   1      39.602  25.569  28.816  1.00  0.00     0.010 A 
ATOM     37  C   UNL A   1      40.602  26.280  26.730  1.00  0.00     0.010 A 
ATOM     38  C   UNL A   1      40.276  26.547  28.068  1.00  0.00    -0.014 A 
BRANCH  38  39
ATOM     39  C   UNL A   1      40.644  27.854  28.669  1.00  0.00     0.031 A 
ATOM     40  C   UNL A   1      42.023  28.073  29.231  1.00  0.00     0.074 A 
ATOM     41  C   UNL A   1      39.716  28.825  28.771  1.00  0.00     0.049 A 
ATOM     42  N   UNL A   1      42.505  29.118  29.854  1.00  0.00    -0.248 NA
ATOM     43  C   UNL A   1      42.980  26.962  29.095  1.00  0.00     0.031 C 
ATOM     44  C   UNL A   1      38.332  28.727  28.303  1.00  0.00     0.029 A 
ATOM     45  N   UNL A   1      39.794  30.082  29.316  1.00  0.00    -0.354 N 
ATOM     46  C   UNL A   1      43.806  28.782  30.207  1.00  0.00     0.074 A 
ATOM     47  C   UNL A   1      44.029  27.425  29.759  1.00  0.00     0.031 C 
ATOM     48  C   UNL A   1      37.696  29.880  28.568  1.00  0.00     0.029 A 
ATOM     49  C   UNL A   1      38.613  30.782  29.255  1.00  0.00     0.049 A 
ATOM     50  H   UNL A   1      40.618  30.448  29.712  1.00  0.00     0.167 HD
ATOM     51  C   UNL A   1      44.735  29.540  30.838  1.00  0.00     0.031 A 
ATOM     52  C   UNL A   1      38.300  32.010  29.710  1.00  0.00     0.031 A 
ATOM     53  C   UNL A   1      44.524  30.897  31.263  1.00  0.00     0.049 A 
ATOM     54  C   UNL A   1      39.353  32.832  30.397  1.00  0.00     0.074 A 
ATOM     55  C   UNL A   1      45.430  31.771  31.841  1.00  0.00     0.029 A 
ATOM     56  N   UNL A   1      43.322  31.578  31.159  1.00  0.00    -0.354 N 
ATOM     57  N   UNL A   1      40.602  32.527  30.654  1.00  0.00    -0.248 NA
ATOM     58  C   UNL A   1      38.956  34.175  30.847  1.00  0.00     0.031 C 
ATOM     59  C   UNL A   1      44.763  32.965  32.129  1.00  0.00     0.029 A 
ATOM     60  C   UNL A   1      43.455  32.853  31.685  1.00  0.00     0.049 A 
ATOM     61  H   UNL A   1      42.496  31.211  30.768  1.00  0.00     0.167 HD
ATOM     62  C   UNL A   1      41.146  33.646  31.270  1.00  0.00     0.074 A 
ATOM     63  C   UNL A   1      40.096  34.642  31.334  1.00  0.00     0.031 C 
ATOM     64  C   UNL A   1      42.402  33.832  31.741  1.00  0.00     0.031 A 
BRANCH  51  65
ATOM     65  C   UNL A   1      46.072  28.910  31.119  1.00  0.00    -0.014 A 
ATOM     66  C   UNL A   1      46.313  28.210  32.311  1.00  0.00     0.009 A 
ATOM     67  C   UNL A   1      47.089  28.977  30.154  1.00  0.00     0.009 A 
ATOM     68  C   UNL A   1      47.556  27.617  32.545  1.00  0.00     0.001 A 
ATOM     69  C   UNL A   1      48.321  28.361  30.378  1.00  0.00     0.001 A 
ATOM     70  C   UNL A   1      48.556  27.689  31.576  1.00  0.00     0.000 A 
ENDBRANCH  51  65
BRANCH  52  71
ATOM     71  C   UNL A   1      36.925  32.542  29.528  1.00  0.00    -0.014 A 
ATOM     72  C   UNL A   1      35.942  32.323  30.505  1.00  0.00     0.009 A 
ATOM     73  C   UNL A   1      36.587  33.264  28.373  1.00  0.00     0.009 A 
ATOM     74  C   UNL A   1      34.639  32.792  30.314  1.00  0.00     0.001 A 
ATOM     75  C   UNL A   1      35.292  33.755  28.198  1.00  0.00     0.001 A 
ATOM     76  C   UNL A   1      34.317  33.511  29.163  1.00  0.00     0.000 A 
ENDBRANCH  52  71
BRANCH  64  77
ATOM     77  C   UNL A   1      42.720  35.174  32.337  1.00  0.00    -0.014 A 
ATOM     78  C   UNL A   1      42.374  35.482  33.661  1.00  0.00     0.009 A 
ATOM     79  C   UNL A   1      43.410  36.127  31.573  1.00  0.00     0.009 A 
ATOM     80  C   UNL A   1      42.687  36.731  34.199  1.00  0.00     0.001 A 
ATOM     81  C   UNL A   1      43.744  37.367  32.121  1.00  0.00     0.001 A 
ATOM     82  C   UNL A   1      43.375  37.671  33.430  1.00  0.00     0.000 A 
ENDBRANCH  64  77
ENDBRANCH  38  39
ENDBRANCH  30  33
ENDBRANCH  28  29
ENDBRANCH   1  28
TORSDOF 14
ENDMDL
