MODEL 1
REMARK VINA RESULT:     -11.8      0.000      0.000
REMARK SMILES Nc1nc(SCc2c(C(=O)NCCCNC(=O)c3ccc(-c4c5nc(c(-c6ccccc6)c6ccc([nH]6)c(-c6ccccc6)c6nc(c(-c7ccccc7)c7ccc4[nH]7)C=C6)C=C5)cc3)sc3cccc(F)c23)n[nH]1
REMARK SMILES IDX 12 1 11 2 9 3 10 4 8 6 7 7 73 8 66 9 67 10 71 11 68 12 70 13
REMARK SMILES IDX 72 14 69 15 6 16 5 17 4 18 2 19 3 20 75 21 74 22 1 24 13 27
REMARK SMILES IDX 14 28 15 29 16 30 17 32 18 33 19 34 65 35 20 36 64 37 21 38
REMARK SMILES IDX 22 39 23 40 58 41 24 42 63 43 57 44 59 45 25 46 62 47 56 48
REMARK SMILES IDX 55 49 26 51 48 52 33 53 47 54 34 55 37 56 46 57 60 58 35 59
REMARK SMILES IDX 36 60 45 62 61 63 38 64 27 65 28 66 32 67 29 68 31 69 30 70
REMARK SMILES IDX 49 71 50 72 54 73 51 74 53 75 52 76 39 77 40 78 44 79 41 80
REMARK SMILES IDX 43 81 42 82
REMARK H PARENT 11 5 75 23 1 25 1 26 15 31 59 50 37 61
REMARK Flexibility Score: inf
ROOT
ATOM      1  C   UNL A   1      33.728  27.553  25.886  1.00  0.00     0.118 C 
ENDROOT
BRANCH   1   2
ATOM      2  N   UNL A   1      33.870  27.590  24.442  1.00  0.00    -0.351 N 
ATOM      3  C   UNL A   1      33.588  26.632  23.488  1.00  0.00     0.261 C 
ATOM      4  O   UNL A   1      33.691  26.993  22.306  1.00  0.00    -0.268 OA
ATOM      5  H   UNL A   1      34.227  28.436  24.084  1.00  0.00     0.163 HD
BRANCH   3   6
ATOM      6  C   UNL A   1      33.329  25.267  23.883  1.00  0.00     0.097 A 
ATOM      7  C   UNL A   1      32.196  24.514  24.173  1.00  0.00    -0.003 A 
ATOM      8  C   UNL A   1      32.565  23.752  25.370  1.00  0.00     0.033 A 
ATOM      9  S   UNL A   1      34.693  24.217  24.041  1.00  0.00    -0.130 S 
ATOM     10  C   UNL A   1      33.931  23.446  25.371  1.00  0.00     0.038 A 
ATOM     11  C   UNL A   1      31.822  23.312  26.492  1.00  0.00     0.132 A 
ATOM     12  C   UNL A   1      34.539  22.658  26.364  1.00  0.00     0.020 A 
ATOM     13  C   UNL A   1      32.441  22.646  27.556  1.00  0.00     0.040 A 
ATOM     14  F   UNL A   1      30.531  23.654  26.613  1.00  0.00    -0.206 F 
ATOM     15  C   UNL A   1      33.784  22.299  27.479  1.00  0.00     0.005 A 
BRANCH   7  16
ATOM     16  C   UNL A   1      30.787  24.652  23.655  1.00  0.00     0.116 C 
BRANCH  16  17
ATOM     17  S   UNL A   1      29.773  26.021  24.258  1.00  0.00    -0.080 SA
BRANCH  17  18
ATOM     18  C   UNL A   1      30.293  27.553  23.613  1.00  0.00     0.210 A 
ATOM     19  C   UNL A   1      30.605  29.225  22.360  1.00  0.00     0.216 A 
ATOM     20  N   UNL A   1      30.347  27.937  22.301  1.00  0.00    -0.186 NA
ATOM     21  N   UNL A   1      30.891  29.547  23.652  1.00  0.00    -0.245 N 
ATOM     22  N   UNL A   1      30.709  28.499  24.466  1.00  0.00    -0.145 NA
ATOM     23  H   UNL A   1      31.194  30.435  23.949  1.00  0.00     0.193 HD
BRANCH  19  24
ATOM     24  N   UNL A   1      30.577  30.149  21.385  1.00  0.00    -0.368 N 
ATOM     25  H   UNL A   1      31.379  30.687  21.193  1.00  0.00     0.159 HD
ATOM     26  H   UNL A   1      29.754  30.289  20.864  1.00  0.00     0.159 HD
ENDBRANCH  19  24
ENDBRANCH  17  18
ENDBRANCH  16  17
ENDBRANCH   7  16
ENDBRANCH   3   6
ENDBRANCH   1   2
BRANCH   1  27
ATOM     27  C   UNL A   1      33.495  28.918  26.533  1.00  0.00     0.042 C 
BRANCH  27  28
ATOM     28  C   UNL A   1      34.731  29.462  27.262  1.00  0.00     0.118 C 
BRANCH  28  29
ATOM     29  N   UNL A   1      34.541  30.774  27.885  1.00  0.00    -0.352 N 
ATOM     30  C   UNL A   1      35.232  31.291  28.962  1.00  0.00     0.251 C 
ATOM     31  H   UNL A   1      33.844  31.349  27.494  1.00  0.00     0.163 HD
ATOM     32  O   UNL A   1      34.817  32.280  29.574  1.00  0.00    -0.269 OA
BRANCH  30  33
ATOM     33  C   UNL A   1      36.484  30.642  29.385  1.00  0.00     0.039 A 
ATOM     34  C   UNL A   1      36.485  29.553  30.258  1.00  0.00     0.014 A 
ATOM     35  C   UNL A   1      37.680  31.126  28.857  1.00  0.00     0.014 A 
ATOM     36  C   UNL A   1      37.685  28.884  30.506  1.00  0.00     0.010 A 
ATOM     37  C   UNL A   1      38.855  30.427  29.048  1.00  0.00     0.010 A 
ATOM     38  C   UNL A   1      38.866  29.303  29.874  1.00  0.00    -0.014 A 
BRANCH  38  39
ATOM     39  C   UNL A   1      40.081  28.488  29.970  1.00  0.00     0.031 A 
ATOM     40  C   UNL A   1      40.682  28.340  31.333  1.00  0.00     0.074 A 
ATOM     41  C   UNL A   1      40.515  27.675  28.985  1.00  0.00     0.049 A 
ATOM     42  N   UNL A   1      41.886  28.621  31.716  1.00  0.00    -0.248 NA
ATOM     43  C   UNL A   1      39.820  27.827  32.411  1.00  0.00     0.031 C 
ATOM     44  C   UNL A   1      39.880  27.381  27.697  1.00  0.00     0.029 A 
ATOM     45  N   UNL A   1      41.582  26.826  29.001  1.00  0.00    -0.354 N 
ATOM     46  C   UNL A   1      41.984  28.213  33.046  1.00  0.00     0.074 A 
ATOM     47  C   UNL A   1      40.660  27.807  33.447  1.00  0.00     0.031 C 
ATOM     48  C   UNL A   1      40.435  26.267  27.169  1.00  0.00     0.029 A 
ATOM     49  C   UNL A   1      41.563  25.871  27.995  1.00  0.00     0.049 A 
ATOM     50  H   UNL A   1      42.302  26.884  29.670  1.00  0.00     0.167 HD
ATOM     51  C   UNL A   1      43.174  28.087  33.699  1.00  0.00     0.031 A 
ATOM     52  C   UNL A   1      42.391  24.807  27.880  1.00  0.00     0.031 A 
ATOM     53  C   UNL A   1      44.257  28.719  33.003  1.00  0.00     0.049 A 
ATOM     54  C   UNL A   1      43.599  25.097  28.686  1.00  0.00     0.074 A 
ATOM     55  C   UNL A   1      44.552  30.011  32.619  1.00  0.00     0.029 A 
ATOM     56  N   UNL A   1      45.101  27.914  32.277  1.00  0.00    -0.354 N 
ATOM     57  N   UNL A   1      44.447  26.042  28.404  1.00  0.00    -0.248 NA
ATOM     58  C   UNL A   1      43.683  24.564  30.035  1.00  0.00     0.031 C 
ATOM     59  C   UNL A   1      45.177  29.879  31.344  1.00  0.00     0.029 A 
ATOM     60  C   UNL A   1      45.254  28.515  31.055  1.00  0.00     0.049 A 
ATOM     61  H   UNL A   1      45.515  27.072  32.577  1.00  0.00     0.167 HD
ATOM     62  C   UNL A   1      44.883  26.508  29.634  1.00  0.00     0.074 A 
ATOM     63  C   UNL A   1      44.477  25.483  30.590  1.00  0.00     0.031 C 
ATOM     64  C   UNL A   1      45.283  27.803  29.797  1.00  0.00     0.031 A 
BRANCH  51  65
ATOM     65  C   UNL A   1      43.422  27.126  34.830  1.00  0.00    -0.014 A 
ATOM     66  C   UNL A   1      43.432  25.742  34.577  1.00  0.00     0.009 A 
ATOM     67  C   UNL A   1      43.385  27.527  36.178  1.00  0.00     0.009 A 
ATOM     68  C   UNL A   1      43.383  24.810  35.622  1.00  0.00     0.001 A 
ATOM     69  C   UNL A   1      43.374  26.600  37.224  1.00  0.00     0.001 A 
ATOM     70  C   UNL A   1      43.353  25.240  36.946  1.00  0.00     0.000 A 
ENDBRANCH  51  65
BRANCH  52  71
ATOM     71  C   UNL A   1      42.107  23.459  27.345  1.00  0.00    -0.014 A 
ATOM     72  C   UNL A   1      42.954  22.883  26.384  1.00  0.00     0.009 A 
ATOM     73  C   UNL A   1      41.171  22.620  27.977  1.00  0.00     0.009 A 
ATOM     74  C   UNL A   1      42.908  21.510  26.111  1.00  0.00     0.001 A 
ATOM     75  C   UNL A   1      41.117  21.250  27.696  1.00  0.00     0.001 A 
ATOM     76  C   UNL A   1      42.000  20.692  26.779  1.00  0.00     0.000 A 
ENDBRANCH  52  71
BRANCH  64  77
ATOM     77  C   UNL A   1      45.455  28.651  28.562  1.00  0.00    -0.014 A 
ATOM     78  C   UNL A   1      44.387  29.360  27.982  1.00  0.00     0.009 A 
ATOM     79  C   UNL A   1      46.751  28.896  28.090  1.00  0.00     0.009 A 
ATOM     80  C   UNL A   1      44.610  30.278  26.952  1.00  0.00     0.001 A 
ATOM     81  C   UNL A   1      46.977  29.826  27.071  1.00  0.00     0.001 A 
ATOM     82  C   UNL A   1      45.907  30.517  26.503  1.00  0.00     0.000 A 
ENDBRANCH  64  77
ENDBRANCH  38  39
ENDBRANCH  30  33
ENDBRANCH  28  29
ENDBRANCH  27  28
ENDBRANCH   1  27
TORSDOF 14
ENDMDL
MODEL 2
REMARK VINA RESULT:     -11.7      3.478      8.048
REMARK SMILES Nc1nc(SCc2c(C(=O)NCCCNC(=O)c3ccc(-c4c5nc(c(-c6ccccc6)c6ccc([nH]6)c(-c6ccccc6)c6nc(c(-c7ccccc7)c7ccc4[nH]7)C=C6)C=C5)cc3)sc3cccc(F)c23)n[nH]1
REMARK SMILES IDX 12 1 11 2 9 3 10 4 8 6 7 7 73 8 66 9 67 10 71 11 68 12 70 13
REMARK SMILES IDX 72 14 69 15 6 16 5 17 4 18 2 19 3 20 75 21 74 22 1 24 13 27
REMARK SMILES IDX 14 28 15 29 16 30 17 32 18 33 19 34 65 35 20 36 64 37 21 38
REMARK SMILES IDX 22 39 23 40 58 41 24 42 63 43 57 44 59 45 25 46 62 47 56 48
REMARK SMILES IDX 55 49 26 51 48 52 33 53 47 54 34 55 37 56 46 57 60 58 35 59
REMARK SMILES IDX 36 60 45 62 61 63 38 64 27 65 28 66 32 67 29 68 31 69 30 70
REMARK SMILES IDX 49 71 50 72 54 73 51 74 53 75 52 76 39 77 40 78 44 79 41 80
REMARK SMILES IDX 43 81 42 82
REMARK H PARENT 11 5 75 23 1 25 1 26 15 31 59 50 37 61
REMARK Flexibility Score: inf
ROOT
ATOM      1  C   UNL A   1      35.523  23.894  25.894  1.00  0.00     0.118 C 
ENDROOT
BRANCH   1   2
ATOM      2  N   UNL A   1      34.433  23.356  26.689  1.00  0.00    -0.351 N 
ATOM      3  C   UNL A   1      33.066  23.486  26.542  1.00  0.00     0.261 C 
ATOM      4  O   UNL A   1      32.369  22.803  27.306  1.00  0.00    -0.268 OA
ATOM      5  H   UNL A   1      34.716  22.809  27.458  1.00  0.00     0.163 HD
BRANCH   3   6
ATOM      6  C   UNL A   1      32.523  24.475  25.639  1.00  0.00     0.097 A 
ATOM      7  C   UNL A   1      32.011  24.464  24.346  1.00  0.00    -0.003 A 
ATOM      8  C   UNL A   1      32.604  25.647  23.714  1.00  0.00     0.033 A 
ATOM      9  S   UNL A   1      32.415  26.100  26.218  1.00  0.00    -0.130 S 
ATOM     10  C   UNL A   1      32.799  26.672  24.646  1.00  0.00     0.038 A 
ATOM     11  C   UNL A   1      33.021  25.916  22.388  1.00  0.00     0.132 A 
ATOM     12  C   UNL A   1      33.283  27.945  24.296  1.00  0.00     0.020 A 
ATOM     13  C   UNL A   1      33.633  27.129  22.051  1.00  0.00     0.040 A 
ATOM     14  F   UNL A   1      32.960  24.949  21.460  1.00  0.00    -0.206 F 
ATOM     15  C   UNL A   1      33.738  28.145  22.994  1.00  0.00     0.005 A 
BRANCH   7  16
ATOM     16  C   UNL A   1      31.306  23.363  23.596  1.00  0.00     0.116 C 
BRANCH  16  17
ATOM     17  S   UNL A   1      32.290  21.992  22.947  1.00  0.00    -0.080 SA
BRANCH  17  18
ATOM     18  C   UNL A   1      32.825  20.917  24.208  1.00  0.00     0.210 A 
ATOM     19  C   UNL A   1      32.945  19.358  25.628  1.00  0.00     0.216 A 
ATOM     20  N   UNL A   1      32.063  20.093  24.990  1.00  0.00    -0.186 NA
ATOM     21  N   UNL A   1      34.185  19.866  25.384  1.00  0.00    -0.245 N 
ATOM     22  N   UNL A   1      34.134  20.864  24.491  1.00  0.00    -0.145 NA
ATOM     23  H   UNL A   1      35.012  19.543  25.808  1.00  0.00     0.193 HD
BRANCH  19  24
ATOM     24  N   UNL A   1      32.763  18.259  26.379  1.00  0.00    -0.368 N 
ATOM     25  H   UNL A   1      32.884  18.303  27.355  1.00  0.00     0.159 HD
ATOM     26  H   UNL A   1      32.508  17.409  25.953  1.00  0.00     0.159 HD
ENDBRANCH  19  24
ENDBRANCH  17  18
ENDBRANCH  16  17
ENDBRANCH   7  16
ENDBRANCH   3   6
ENDBRANCH   1   2
BRANCH   1  27
ATOM     27  C   UNL A   1      36.733  22.970  25.773  1.00  0.00     0.042 C 
BRANCH  27  28
ATOM     28  C   UNL A   1      38.067  23.677  26.049  1.00  0.00     0.118 C 
BRANCH  28  29
ATOM     29  N   UNL A   1      39.209  22.777  26.225  1.00  0.00    -0.352 N 
ATOM     30  C   UNL A   1      40.518  23.134  26.478  1.00  0.00     0.251 C 
ATOM     31  H   UNL A   1      39.022  21.813  26.156  1.00  0.00     0.163 HD
ATOM     32  O   UNL A   1      41.440  22.324  26.341  1.00  0.00    -0.269 OA
BRANCH  30  33
ATOM     33  C   UNL A   1      40.812  24.509  26.914  1.00  0.00     0.039 A 
ATOM     34  C   UNL A   1      40.603  25.603  26.073  1.00  0.00     0.014 A 
ATOM     35  C   UNL A   1      41.275  24.695  28.215  1.00  0.00     0.014 A 
ATOM     36  C   UNL A   1      40.756  26.892  26.586  1.00  0.00     0.010 A 
ATOM     37  C   UNL A   1      41.362  25.968  28.743  1.00  0.00     0.010 A 
ATOM     38  C   UNL A   1      41.105  27.074  27.934  1.00  0.00    -0.014 A 
BRANCH  38  39
ATOM     39  C   UNL A   1      41.068  28.413  28.529  1.00  0.00     0.031 A 
ATOM     40  C   UNL A   1      42.200  29.330  28.183  1.00  0.00     0.074 A 
ATOM     41  C   UNL A   1      39.978  28.935  29.129  1.00  0.00     0.049 A 
ATOM     42  N   UNL A   1      43.009  29.946  28.983  1.00  0.00    -0.248 NA
ATOM     43  C   UNL A   1      42.469  29.580  26.757  1.00  0.00     0.031 C 
ATOM     44  C   UNL A   1      38.640  28.352  29.259  1.00  0.00     0.029 A 
ATOM     45  N   UNL A   1      39.818  30.187  29.644  1.00  0.00    -0.354 N 
ATOM     46  C   UNL A   1      43.816  30.755  28.184  1.00  0.00     0.074 A 
ATOM     47  C   UNL A   1      43.495  30.429  26.817  1.00  0.00     0.031 C 
ATOM     48  C   UNL A   1      37.760  29.322  29.595  1.00  0.00     0.029 A 
ATOM     49  C   UNL A   1      38.496  30.546  29.862  1.00  0.00     0.049 A 
ATOM     50  H   UNL A   1      40.574  30.785  29.843  1.00  0.00     0.167 HD
ATOM     51  C   UNL A   1      44.594  31.756  28.686  1.00  0.00     0.031 A 
ATOM     52  C   UNL A   1      38.041  31.776  30.196  1.00  0.00     0.031 A 
ATOM     53  C   UNL A   1      44.749  31.675  30.110  1.00  0.00     0.049 A 
ATOM     54  C   UNL A   1      39.180  32.530  30.768  1.00  0.00     0.074 A 
ATOM     55  C   UNL A   1      45.289  30.755  30.985  1.00  0.00     0.029 A 
ATOM     56  N   UNL A   1      43.983  32.516  30.881  1.00  0.00    -0.354 N 
ATOM     57  N   UNL A   1      39.761  32.221  31.890  1.00  0.00    -0.248 NA
ATOM     58  C   UNL A   1      39.925  33.430  29.905  1.00  0.00     0.031 C 
ATOM     59  C   UNL A   1      44.428  30.783  32.120  1.00  0.00     0.029 A 
ATOM     60  C   UNL A   1      43.444  31.743  31.876  1.00  0.00     0.049 A 
ATOM     61  H   UNL A   1      43.849  33.481  30.745  1.00  0.00     0.167 HD
ATOM     62  C   UNL A   1      41.096  32.541  31.699  1.00  0.00     0.074 A 
ATOM     63  C   UNL A   1      41.112  33.393  30.514  1.00  0.00     0.031 C 
ATOM     64  C   UNL A   1      42.084  31.864  32.353  1.00  0.00     0.031 A 
BRANCH  51  65
ATOM     65  C   UNL A   1      44.975  32.996  27.924  1.00  0.00    -0.014 A 
ATOM     66  C   UNL A   1      43.978  33.914  27.545  1.00  0.00     0.009 A 
ATOM     67  C   UNL A   1      46.246  33.159  27.342  1.00  0.00     0.009 A 
ATOM     68  C   UNL A   1      44.236  34.925  26.610  1.00  0.00     0.001 A 
ATOM     69  C   UNL A   1      46.516  34.191  26.438  1.00  0.00     0.001 A 
ATOM     70  C   UNL A   1      45.506  35.063  26.057  1.00  0.00     0.000 A 
ENDBRANCH  51  65
BRANCH  52  71
ATOM     71  C   UNL A   1      36.771  32.434  29.819  1.00  0.00    -0.014 A 
ATOM     72  C   UNL A   1      35.965  33.035  30.798  1.00  0.00     0.009 A 
ATOM     73  C   UNL A   1      36.487  32.722  28.471  1.00  0.00     0.009 A 
ATOM     74  C   UNL A   1      34.952  33.937  30.446  1.00  0.00     0.001 A 
ATOM     75  C   UNL A   1      35.469  33.614  28.118  1.00  0.00     0.001 A 
ATOM     76  C   UNL A   1      34.716  34.238  29.107  1.00  0.00     0.000 A 
ENDBRANCH  52  71
BRANCH  64  77
ATOM     77  C   UNL A   1      41.683  30.915  33.454  1.00  0.00    -0.014 A 
ATOM     78  C   UNL A   1      41.368  29.567  33.206  1.00  0.00     0.009 A 
ATOM     79  C   UNL A   1      41.816  31.334  34.784  1.00  0.00     0.009 A 
ATOM     80  C   UNL A   1      41.178  28.669  34.261  1.00  0.00     0.001 A 
ATOM     81  C   UNL A   1      41.643  30.434  35.838  1.00  0.00     0.001 A 
ATOM     82  C   UNL A   1      41.325  29.101  35.577  1.00  0.00     0.000 A 
ENDBRANCH  64  77
ENDBRANCH  38  39
ENDBRANCH  30  33
ENDBRANCH  28  29
ENDBRANCH  27  28
ENDBRANCH   1  27
TORSDOF 14
ENDMDL
MODEL 3
REMARK VINA RESULT:     -11.7      5.869     10.774
REMARK SMILES Nc1nc(SCc2c(C(=O)NCCCNC(=O)c3ccc(-c4c5nc(c(-c6ccccc6)c6ccc([nH]6)c(-c6ccccc6)c6nc(c(-c7ccccc7)c7ccc4[nH]7)C=C6)C=C5)cc3)sc3cccc(F)c23)n[nH]1
REMARK SMILES IDX 12 1 11 2 9 3 10 4 8 6 7 7 73 8 66 9 67 10 71 11 68 12 70 13
REMARK SMILES IDX 72 14 69 15 6 16 5 17 4 18 2 19 3 20 75 21 74 22 1 24 13 27
REMARK SMILES IDX 14 28 15 29 16 30 17 32 18 33 19 34 65 35 20 36 64 37 21 38
REMARK SMILES IDX 22 39 23 40 58 41 24 42 63 43 57 44 59 45 25 46 62 47 56 48
REMARK SMILES IDX 55 49 26 51 48 52 33 53 47 54 34 55 37 56 46 57 60 58 35 59
REMARK SMILES IDX 36 60 45 62 61 63 38 64 27 65 28 66 32 67 29 68 31 69 30 70
REMARK SMILES IDX 49 71 50 72 54 73 51 74 53 75 52 76 39 77 40 78 44 79 41 80
REMARK SMILES IDX 43 81 42 82
REMARK H PARENT 11 5 75 23 1 25 1 26 15 31 59 50 37 61
REMARK Flexibility Score: inf
ROOT
ATOM      1  C   UNL A   1      43.073  26.794  25.504  1.00  0.00     0.118 C 
ENDROOT
BRANCH   1   2
ATOM      2  N   UNL A   1      44.210  27.347  24.790  1.00  0.00    -0.351 N 
ATOM      3  C   UNL A   1      45.565  27.139  24.963  1.00  0.00     0.261 C 
ATOM      4  O   UNL A   1      46.307  27.654  24.113  1.00  0.00    -0.268 OA
ATOM      5  H   UNL A   1      43.977  27.972  24.065  1.00  0.00     0.163 HD
BRANCH   3   6
ATOM      6  C   UNL A   1      46.053  26.477  26.150  1.00  0.00     0.097 A 
ATOM      7  C   UNL A   1      46.412  25.176  26.486  1.00  0.00    -0.003 A 
ATOM      8  C   UNL A   1      45.816  24.967  27.808  1.00  0.00     0.033 A 
ATOM      9  S   UNL A   1      46.315  27.456  27.550  1.00  0.00    -0.130 S 
ATOM     10  C   UNL A   1      45.784  26.160  28.541  1.00  0.00     0.038 A 
ATOM     11  C   UNL A   1      45.264  23.828  28.441  1.00  0.00     0.132 A 
ATOM     12  C   UNL A   1      45.333  26.231  29.871  1.00  0.00     0.020 A 
ATOM     13  C   UNL A   1      44.684  23.911  29.712  1.00  0.00     0.040 A 
ATOM     14  F   UNL A   1      45.165  22.672  27.767  1.00  0.00    -0.206 F 
ATOM     15  C   UNL A   1      44.742  25.099  30.431  1.00  0.00     0.005 A 
BRANCH   7  16
ATOM     16  C   UNL A   1      46.965  24.073  25.619  1.00  0.00     0.116 C 
BRANCH  16  17
ATOM     17  S   UNL A   1      45.924  23.403  24.303  1.00  0.00    -0.080 SA
BRANCH  17  18
ATOM     18  C   UNL A   1      45.566  21.716  24.548  1.00  0.00     0.210 A 
ATOM     19  C   UNL A   1      45.600  19.711  25.212  1.00  0.00     0.216 A 
ATOM     20  N   UNL A   1      46.395  20.743  25.033  1.00  0.00    -0.186 NA
ATOM     21  N   UNL A   1      44.388  20.002  24.663  1.00  0.00    -0.245 N 
ATOM     22  N   UNL A   1      44.345  21.268  24.225  1.00  0.00    -0.145 NA
ATOM     23  H   UNL A   1      43.642  19.366  24.595  1.00  0.00     0.193 HD
BRANCH  19  24
ATOM     24  N   UNL A   1      45.833  18.550  25.846  1.00  0.00    -0.368 N 
ATOM     25  H   UNL A   1      45.654  18.471  26.811  1.00  0.00     0.159 HD
ATOM     26  H   UNL A   1      46.184  17.778  25.346  1.00  0.00     0.159 HD
ENDBRANCH  19  24
ENDBRANCH  17  18
ENDBRANCH  16  17
ENDBRANCH   7  16
ENDBRANCH   3   6
ENDBRANCH   1   2
BRANCH   1  27
ATOM     27  C   UNL A   1      42.495  25.524  24.883  1.00  0.00     0.042 C 
BRANCH  27  28
ATOM     28  C   UNL A   1      42.834  24.253  25.673  1.00  0.00     0.118 C 
BRANCH  28  29
ATOM     29  N   UNL A   1      41.689  23.382  25.946  1.00  0.00    -0.352 N 
ATOM     30  C   UNL A   1      40.747  23.534  26.944  1.00  0.00     0.251 C 
ATOM     31  H   UNL A   1      41.578  22.603  25.354  1.00  0.00     0.163 HD
ATOM     32  O   UNL A   1      39.990  22.610  27.256  1.00  0.00    -0.269 OA
BRANCH  30  33
ATOM     33  C   UNL A   1      40.655  24.824  27.648  1.00  0.00     0.039 A 
ATOM     34  C   UNL A   1      41.600  25.206  28.601  1.00  0.00     0.014 A 
ATOM     35  C   UNL A   1      39.608  25.678  27.307  1.00  0.00     0.014 A 
ATOM     36  C   UNL A   1      41.549  26.499  29.127  1.00  0.00     0.010 A 
ATOM     37  C   UNL A   1      39.594  26.977  27.775  1.00  0.00     0.010 A 
ATOM     38  C   UNL A   1      40.562  27.396  28.687  1.00  0.00    -0.014 A 
BRANCH  38  39
ATOM     39  C   UNL A   1      40.624  28.807  29.079  1.00  0.00     0.031 A 
ATOM     40  C   UNL A   1      41.822  29.578  28.617  1.00  0.00     0.074 A 
ATOM     41  C   UNL A   1      39.575  29.491  29.581  1.00  0.00     0.049 A 
ATOM     42  N   UNL A   1      42.674  30.244  29.328  1.00  0.00    -0.248 NA
ATOM     43  C   UNL A   1      42.112  29.594  27.173  1.00  0.00     0.031 C 
ATOM     44  C   UNL A   1      38.197  29.033  29.777  1.00  0.00     0.029 A 
ATOM     45  N   UNL A   1      39.507  30.814  29.905  1.00  0.00    -0.354 N 
ATOM     46  C   UNL A   1      43.541  30.865  28.430  1.00  0.00     0.074 A 
ATOM     47  C   UNL A   1      43.199  30.366  27.121  1.00  0.00     0.031 C 
ATOM     48  C   UNL A   1      37.391  30.105  29.956  1.00  0.00     0.029 A 
ATOM     49  C   UNL A   1      38.215  31.297  30.051  1.00  0.00     0.049 A 
ATOM     50  H   UNL A   1      40.306  31.377  30.024  1.00  0.00     0.167 HD
ATOM     51  C   UNL A   1      44.390  31.869  28.789  1.00  0.00     0.031 A 
ATOM     52  C   UNL A   1      37.853  32.593  30.194  1.00  0.00     0.031 A 
ATOM     53  C   UNL A   1      44.535  31.987  30.212  1.00  0.00     0.049 A 
ATOM     54  C   UNL A   1      39.044  33.337  30.665  1.00  0.00     0.074 A 
ATOM     55  C   UNL A   1      45.003  31.169  31.219  1.00  0.00     0.029 A 
ATOM     56  N   UNL A   1      43.832  32.986  30.841  1.00  0.00    -0.354 N 
ATOM     57  N   UNL A   1      39.598  33.154  31.827  1.00  0.00    -0.248 NA
ATOM     58  C   UNL A   1      39.856  34.043  29.689  1.00  0.00     0.031 C 
ATOM     59  C   UNL A   1      44.144  31.427  32.327  1.00  0.00     0.029 A 
ATOM     60  C   UNL A   1      43.235  32.411  31.932  1.00  0.00     0.049 A 
ATOM     61  H   UNL A   1      43.771  33.928  30.563  1.00  0.00     0.167 HD
ATOM     62  C   UNL A   1      40.953  33.344  31.609  1.00  0.00     0.074 A 
ATOM     63  C   UNL A   1      41.036  34.009  30.312  1.00  0.00     0.031 C 
ATOM     64  C   UNL A   1      41.887  32.700  32.367  1.00  0.00     0.031 A 
BRANCH  51  65
ATOM     65  C   UNL A   1      44.863  32.952  27.859  1.00  0.00    -0.014 A 
ATOM     66  C   UNL A   1      43.940  33.878  27.340  1.00  0.00     0.009 A 
ATOM     67  C   UNL A   1      46.142  32.930  27.271  1.00  0.00     0.009 A 
ATOM     68  C   UNL A   1      44.273  34.719  26.272  1.00  0.00     0.001 A 
ATOM     69  C   UNL A   1      46.490  33.795  26.230  1.00  0.00     0.001 A 
ATOM     70  C   UNL A   1      45.549  34.678  25.716  1.00  0.00     0.000 A 
ENDBRANCH  51  65
BRANCH  52  71
ATOM     71  C   UNL A   1      36.637  33.279  29.708  1.00  0.00    -0.014 A 
ATOM     72  C   UNL A   1      36.275  33.207  28.353  1.00  0.00     0.009 A 
ATOM     73  C   UNL A   1      35.678  33.767  30.615  1.00  0.00     0.009 A 
ATOM     74  C   UNL A   1      34.985  33.551  27.931  1.00  0.00     0.001 A 
ATOM     75  C   UNL A   1      34.392  34.121  30.192  1.00  0.00     0.001 A 
ATOM     76  C   UNL A   1      34.039  33.993  28.853  1.00  0.00     0.000 A 
ENDBRANCH  52  71
BRANCH  64  77
ATOM     77  C   UNL A   1      41.414  31.955  33.591  1.00  0.00    -0.014 A 
ATOM     78  C   UNL A   1      40.954  30.628  33.531  1.00  0.00     0.009 A 
ATOM     79  C   UNL A   1      41.620  32.533  34.850  1.00  0.00     0.009 A 
ATOM     80  C   UNL A   1      40.695  29.905  34.699  1.00  0.00     0.001 A 
ATOM     81  C   UNL A   1      41.377  31.806  36.019  1.00  0.00     0.001 A 
ATOM     82  C   UNL A   1      40.916  30.492  35.943  1.00  0.00     0.000 A 
ENDBRANCH  64  77
ENDBRANCH  38  39
ENDBRANCH  30  33
ENDBRANCH  28  29
ENDBRANCH  27  28
ENDBRANCH   1  27
TORSDOF 14
ENDMDL
