MODEL 1
REMARK VINA RESULT:     -11.3      0.000      0.000
REMARK SMILES C/C(=N/OCc1ccccc1Nc1c(Cl)cccc1Cl)C(=O)NCCCNC(=O)c1ccc(-c2c3nc(c(-c4ccccc4)c4ccc([nH]4)c(-c4ccccc4)c4nc(c(-c5ccccc5)c5ccc2[nH]5)C=C4)C=C3)cc1
REMARK SMILES IDX 21 1 22 2 23 3 2 5 1 6 3 7 4 8 5 9 6 10 7 11 11 12 8 13
REMARK SMILES IDX 10 14 9 15 12 16 13 18 14 19 19 20 15 21 16 22 18 23 20 24
REMARK SMILES IDX 17 25 24 26 25 27 26 28 27 29 28 30 29 32 30 33 31 34 77 35
REMARK SMILES IDX 32 36 76 37 33 38 34 39 35 40 70 41 36 42 75 43 69 44 71 45
REMARK SMILES IDX 37 46 74 47 68 48 67 49 38 51 60 52 45 53 59 54 46 55 49 56
REMARK SMILES IDX 58 57 72 58 47 59 48 60 57 62 73 63 50 64 39 65 40 66 44 67
REMARK SMILES IDX 41 68 43 69 42 70 61 71 62 72 66 73 63 74 65 75 64 76 51 77
REMARK SMILES IDX 52 78 56 79 53 80 55 81 54 82
REMARK H PARENT 23 4 12 17 27 31 71 50 49 61
REMARK Flexibility Score: inf
ROOT
ATOM      1  C   UNL A   1      31.416  25.242  25.316  1.00  0.00     0.268 C 
ATOM      2  O   UNL A   1      30.674  24.260  25.403  1.00  0.00    -0.268 OA
ATOM      3  N   UNL A   1      31.031  26.346  26.035  1.00  0.00    -0.351 N 
ATOM      4  H   UNL A   1      30.288  26.151  26.653  1.00  0.00     0.163 HD
ENDROOT
BRANCH   1   5
ATOM      5  C   UNL A   1      32.690  25.044  24.494  1.00  0.00     0.141 C 
ATOM      6  C   UNL A   1      32.520  25.364  23.019  1.00  0.00     0.077 C 
ATOM      7  N   UNL A   1      33.887  24.672  24.844  1.00  0.00    -0.086 NA
BRANCH   7   8
ATOM      8  O   UNL A   1      34.025  24.403  26.188  1.00  0.00    -0.390 OA
BRANCH   8   9
ATOM      9  C   UNL A   1      34.179  23.006  26.436  1.00  0.00     0.302 C 
BRANCH   9  10
ATOM     10  C   UNL A   1      35.423  22.313  25.906  1.00  0.00     0.016 A 
ATOM     11  C   UNL A   1      36.586  23.117  25.897  1.00  0.00     0.009 A 
ATOM     12  C   UNL A   1      35.529  20.958  25.518  1.00  0.00     0.045 A 
ATOM     13  C   UNL A   1      37.816  22.617  25.480  1.00  0.00     0.001 A 
ATOM     14  C   UNL A   1      36.779  20.485  25.082  1.00  0.00     0.026 A 
ATOM     15  C   UNL A   1      37.910  21.300  25.060  1.00  0.00     0.002 A 
BRANCH  12  16
ATOM     16  N   UNL A   1      34.430  20.071  25.582  1.00  0.00    -0.353 N 
ATOM     17  H   UNL A   1      34.042  19.966  26.482  1.00  0.00     0.167 HD
BRANCH  16  18
ATOM     18  C   UNL A   1      33.786  19.305  24.573  1.00  0.00     0.076 A 
ATOM     19  C   UNL A   1      32.747  19.879  23.807  1.00  0.00     0.066 A 
ATOM     20  C   UNL A   1      34.169  17.992  24.219  1.00  0.00     0.066 A 
ATOM     21  Cl  UNL A   1      32.158  21.466  24.137  1.00  0.00    -0.082 Cl
ATOM     22  C   UNL A   1      32.149  19.207  22.732  1.00  0.00     0.023 A 
ATOM     23  C   UNL A   1      33.586  17.328  23.125  1.00  0.00     0.023 A 
ATOM     24  Cl  UNL A   1      35.290  17.061  25.158  1.00  0.00    -0.082 Cl
ATOM     25  C   UNL A   1      32.582  17.936  22.378  1.00  0.00     0.003 A 
ENDBRANCH  16  18
ENDBRANCH  12  16
ENDBRANCH   9  10
ENDBRANCH   8   9
ENDBRANCH   7   8
ENDBRANCH   1   5
BRANCH   3  26
ATOM     26  C   UNL A   1      31.457  27.731  26.103  1.00  0.00     0.118 C 
BRANCH  26  27
ATOM     27  C   UNL A   1      32.111  28.039  27.450  1.00  0.00     0.042 C 
BRANCH  27  28
ATOM     28  C   UNL A   1      33.489  28.653  27.287  1.00  0.00     0.118 C 
BRANCH  28  29
ATOM     29  N   UNL A   1      33.486  30.064  27.657  1.00  0.00    -0.352 N 
ATOM     30  C   UNL A   1      34.442  30.803  28.299  1.00  0.00     0.251 C 
ATOM     31  H   UNL A   1      32.672  30.560  27.408  1.00  0.00     0.163 HD
ATOM     32  O   UNL A   1      34.164  31.925  28.726  1.00  0.00    -0.269 OA
BRANCH  30  33
ATOM     33  C   UNL A   1      35.800  30.260  28.495  1.00  0.00     0.039 A 
ATOM     34  C   UNL A   1      36.716  30.327  27.440  1.00  0.00     0.014 A 
ATOM     35  C   UNL A   1      36.167  29.669  29.706  1.00  0.00     0.014 A 
ATOM     36  C   UNL A   1      38.011  29.843  27.620  1.00  0.00     0.010 A 
ATOM     37  C   UNL A   1      37.484  29.284  29.916  1.00  0.00     0.010 A 
ATOM     38  C   UNL A   1      38.413  29.347  28.870  1.00  0.00    -0.014 A 
BRANCH  38  39
ATOM     39  C   UNL A   1      39.793  28.857  29.100  1.00  0.00     0.031 A 
ATOM     40  C   UNL A   1      40.819  29.768  29.714  1.00  0.00     0.074 A 
ATOM     41  C   UNL A   1      40.135  27.619  28.696  1.00  0.00     0.049 A 
ATOM     42  N   UNL A   1      42.089  29.547  29.945  1.00  0.00    -0.248 NA
ATOM     43  C   UNL A   1      40.368  31.118  30.090  1.00  0.00     0.031 C 
ATOM     44  C   UNL A   1      39.236  26.658  28.052  1.00  0.00     0.029 A 
ATOM     45  N   UNL A   1      41.334  26.958  28.769  1.00  0.00    -0.354 N 
ATOM     46  C   UNL A   1      42.587  30.732  30.469  1.00  0.00     0.074 A 
ATOM     47  C   UNL A   1      41.502  31.689  30.461  1.00  0.00     0.031 C 
ATOM     48  C   UNL A   1      39.905  25.516  27.828  1.00  0.00     0.029 A 
ATOM     49  C   UNL A   1      41.287  25.681  28.267  1.00  0.00     0.049 A 
ATOM     50  H   UNL A   1      42.150  27.360  29.145  1.00  0.00     0.167 HD
ATOM     51  C   UNL A   1      43.829  30.997  30.939  1.00  0.00     0.031 A 
ATOM     52  C   UNL A   1      42.251  24.747  28.170  1.00  0.00     0.031 A 
ATOM     53  C   UNL A   1      44.903  30.040  30.946  1.00  0.00     0.049 A 
ATOM     54  C   UNL A   1      43.629  25.070  28.675  1.00  0.00     0.074 A 
ATOM     55  C   UNL A   1      46.185  30.184  31.445  1.00  0.00     0.029 A 
ATOM     56  N   UNL A   1      44.817  28.758  30.421  1.00  0.00    -0.354 N 
ATOM     57  N   UNL A   1      44.069  26.172  29.231  1.00  0.00    -0.248 NA
ATOM     58  C   UNL A   1      44.640  24.011  28.548  1.00  0.00     0.031 C 
ATOM     59  C   UNL A   1      46.893  29.010  31.168  1.00  0.00     0.029 A 
ATOM     60  C   UNL A   1      46.032  28.110  30.558  1.00  0.00     0.049 A 
ATOM     61  H   UNL A   1      44.011  28.368  30.013  1.00  0.00     0.167 HD
ATOM     62  C   UNL A   1      45.400  25.932  29.548  1.00  0.00     0.074 A 
ATOM     63  C   UNL A   1      45.688  24.573  29.135  1.00  0.00     0.031 C 
ATOM     64  C   UNL A   1      46.301  26.759  30.133  1.00  0.00     0.031 A 
BRANCH  51  65
ATOM     65  C   UNL A   1      44.086  32.385  31.463  1.00  0.00    -0.014 A 
ATOM     66  C   UNL A   1      44.015  32.672  32.837  1.00  0.00     0.009 A 
ATOM     67  C   UNL A   1      44.400  33.421  30.572  1.00  0.00     0.009 A 
ATOM     68  C   UNL A   1      44.199  33.977  33.300  1.00  0.00     0.001 A 
ATOM     69  C   UNL A   1      44.619  34.719  31.040  1.00  0.00     0.001 A 
ATOM     70  C   UNL A   1      44.504  34.999  32.401  1.00  0.00     0.000 A 
ENDBRANCH  51  65
BRANCH  52  71
ATOM     71  C   UNL A   1      41.934  23.411  27.604  1.00  0.00    -0.014 A 
ATOM     72  C   UNL A   1      42.207  23.129  26.257  1.00  0.00     0.009 A 
ATOM     73  C   UNL A   1      41.375  22.405  28.407  1.00  0.00     0.009 A 
ATOM     74  C   UNL A   1      41.909  21.874  25.721  1.00  0.00     0.001 A 
ATOM     75  C   UNL A   1      41.105  21.142  27.876  1.00  0.00     0.001 A 
ATOM     76  C   UNL A   1      41.363  20.880  26.531  1.00  0.00     0.000 A 
ENDBRANCH  52  71
BRANCH  64  77
ATOM     77  C   UNL A   1      47.673  26.203  30.393  1.00  0.00    -0.014 A 
ATOM     78  C   UNL A   1      48.062  25.781  31.675  1.00  0.00     0.009 A 
ATOM     79  C   UNL A   1      48.577  26.064  29.328  1.00  0.00     0.009 A 
ATOM     80  C   UNL A   1      49.342  25.266  31.888  1.00  0.00     0.001 A 
ATOM     81  C   UNL A   1      49.843  25.518  29.539  1.00  0.00     0.001 A 
ATOM     82  C   UNL A   1      50.229  25.130  30.821  1.00  0.00     0.000 A 
ENDBRANCH  64  77
ENDBRANCH  38  39
ENDBRANCH  30  33
ENDBRANCH  28  29
ENDBRANCH  27  28
ENDBRANCH  26  27
ENDBRANCH   3  26
TORSDOF 15
ENDMDL
MODEL 2
REMARK VINA RESULT:     -11.2      2.967      8.548
REMARK SMILES C/C(=N/OCc1ccccc1Nc1c(Cl)cccc1Cl)C(=O)NCCCNC(=O)c1ccc(-c2c3nc(c(-c4ccccc4)c4ccc([nH]4)c(-c4ccccc4)c4nc(c(-c5ccccc5)c5ccc2[nH]5)C=C4)C=C3)cc1
REMARK SMILES IDX 21 1 22 2 23 3 2 5 1 6 3 7 4 8 5 9 6 10 7 11 11 12 8 13
REMARK SMILES IDX 10 14 9 15 12 16 13 18 14 19 19 20 15 21 16 22 18 23 20 24
REMARK SMILES IDX 17 25 24 26 25 27 26 28 27 29 28 30 29 32 30 33 31 34 77 35
REMARK SMILES IDX 32 36 76 37 33 38 34 39 35 40 70 41 36 42 75 43 69 44 71 45
REMARK SMILES IDX 37 46 74 47 68 48 67 49 38 51 60 52 45 53 59 54 46 55 49 56
REMARK SMILES IDX 58 57 72 58 47 59 48 60 57 62 73 63 50 64 39 65 40 66 44 67
REMARK SMILES IDX 41 68 43 69 42 70 61 71 62 72 66 73 63 74 65 75 64 76 51 77
REMARK SMILES IDX 52 78 56 79 53 80 55 81 54 82
REMARK H PARENT 23 4 12 17 27 31 71 50 49 61
REMARK Flexibility Score: inf
ROOT
ATOM      1  C   UNL A   1      33.722  23.726  23.197  1.00  0.00     0.268 C 
ATOM      2  O   UNL A   1      33.584  24.004  22.003  1.00  0.00    -0.268 OA
ATOM      3  N   UNL A   1      34.745  22.860  23.494  1.00  0.00    -0.351 N 
ATOM      4  H   UNL A   1      35.334  22.697  22.721  1.00  0.00     0.163 HD
ENDROOT
BRANCH   1   5
ATOM      5  C   UNL A   1      32.791  24.458  24.164  1.00  0.00     0.141 C 
ATOM      6  C   UNL A   1      31.566  23.653  24.559  1.00  0.00     0.077 C 
ATOM      7  N   UNL A   1      32.880  25.634  24.714  1.00  0.00    -0.086 NA
BRANCH   7   8
ATOM      8  O   UNL A   1      34.006  26.342  24.358  1.00  0.00    -0.390 OA
BRANCH   8   9
ATOM      9  C   UNL A   1      33.690  27.677  23.963  1.00  0.00     0.302 C 
BRANCH   9  10
ATOM     10  C   UNL A   1      33.204  28.647  25.028  1.00  0.00     0.016 A 
ATOM     11  C   UNL A   1      33.960  28.636  26.223  1.00  0.00     0.009 A 
ATOM     12  C   UNL A   1      32.154  29.584  24.895  1.00  0.00     0.045 A 
ATOM     13  C   UNL A   1      33.669  29.494  27.279  1.00  0.00     0.001 A 
ATOM     14  C   UNL A   1      31.869  30.425  25.985  1.00  0.00     0.026 A 
ATOM     15  C   UNL A   1      32.613  30.383  27.163  1.00  0.00     0.002 A 
BRANCH  12  16
ATOM     16  N   UNL A   1      31.411  29.712  23.700  1.00  0.00    -0.353 N 
ATOM     17  H   UNL A   1      31.954  29.903  22.900  1.00  0.00     0.167 HD
BRANCH  16  18
ATOM     18  C   UNL A   1      30.015  29.613  23.451  1.00  0.00     0.076 A 
ATOM     19  C   UNL A   1      29.446  28.363  23.115  1.00  0.00     0.066 A 
ATOM     20  C   UNL A   1      29.113  30.691  23.588  1.00  0.00     0.066 A 
ATOM     21  Cl  UNL A   1      30.424  26.961  22.892  1.00  0.00    -0.082 Cl
ATOM     22  C   UNL A   1      28.064  28.187  22.962  1.00  0.00     0.023 A 
ATOM     23  C   UNL A   1      27.726  30.507  23.459  1.00  0.00     0.023 A 
ATOM     24  Cl  UNL A   1      29.642  32.327  23.811  1.00  0.00    -0.082 Cl
ATOM     25  C   UNL A   1      27.200  29.256  23.153  1.00  0.00     0.003 A 
ENDBRANCH  16  18
ENDBRANCH  12  16
ENDBRANCH   9  10
ENDBRANCH   8   9
ENDBRANCH   7   8
ENDBRANCH   1   5
BRANCH   3  26
ATOM     26  C   UNL A   1      35.166  22.129  24.673  1.00  0.00     0.118 C 
BRANCH  26  27
ATOM     27  C   UNL A   1      35.826  23.060  25.691  1.00  0.00     0.042 C 
BRANCH  27  28
ATOM     28  C   UNL A   1      37.143  23.617  25.182  1.00  0.00     0.118 C 
BRANCH  28  29
ATOM     29  N   UNL A   1      38.246  22.706  25.468  1.00  0.00    -0.352 N 
ATOM     30  C   UNL A   1      39.450  22.951  26.073  1.00  0.00     0.251 C 
ATOM     31  H   UNL A   1      38.104  21.774  25.182  1.00  0.00     0.163 HD
ATOM     32  O   UNL A   1      40.344  22.105  26.020  1.00  0.00    -0.269 OA
BRANCH  30  33
ATOM     33  C   UNL A   1      39.687  24.226  26.776  1.00  0.00     0.039 A 
ATOM     34  C   UNL A   1      39.197  24.385  28.076  1.00  0.00     0.014 A 
ATOM     35  C   UNL A   1      40.373  25.270  26.153  1.00  0.00     0.014 A 
ATOM     36  C   UNL A   1      39.437  25.574  28.763  1.00  0.00     0.010 A 
ATOM     37  C   UNL A   1      40.701  26.410  26.874  1.00  0.00     0.010 A 
ATOM     38  C   UNL A   1      40.219  26.583  28.177  1.00  0.00    -0.014 A 
BRANCH  38  39
ATOM     39  C   UNL A   1      40.520  27.843  28.897  1.00  0.00     0.031 A 
ATOM     40  C   UNL A   1      41.843  28.015  29.589  1.00  0.00     0.074 A 
ATOM     41  C   UNL A   1      39.578  28.803  28.980  1.00  0.00     0.049 A 
ATOM     42  N   UNL A   1      42.273  29.015  30.316  1.00  0.00    -0.248 NA
ATOM     43  C   UNL A   1      42.798  26.899  29.479  1.00  0.00     0.031 C 
ATOM     44  C   UNL A   1      38.242  28.734  28.382  1.00  0.00     0.029 A 
ATOM     45  N   UNL A   1      39.604  30.024  29.602  1.00  0.00    -0.354 N 
ATOM     46  C   UNL A   1      43.533  28.640  30.762  1.00  0.00     0.074 A 
ATOM     47  C   UNL A   1      43.771  27.296  30.283  1.00  0.00     0.031 C 
ATOM     48  C   UNL A   1      37.593  29.882  28.631  1.00  0.00     0.029 A 
ATOM     49  C   UNL A   1      38.445  30.744  29.444  1.00  0.00     0.049 A 
ATOM     50  H   UNL A   1      40.377  30.353  30.113  1.00  0.00     0.167 HD
ATOM     51  C   UNL A   1      44.425  29.356  31.487  1.00  0.00     0.031 A 
ATOM     52  C   UNL A   1      38.107  31.962  29.905  1.00  0.00     0.031 A 
ATOM     53  C   UNL A   1      44.183  30.693  31.959  1.00  0.00     0.049 A 
ATOM     54  C   UNL A   1      39.102  32.731  30.727  1.00  0.00     0.074 A 
ATOM     55  C   UNL A   1      45.036  31.531  32.656  1.00  0.00     0.029 A 
ATOM     56  N   UNL A   1      42.993  31.385  31.784  1.00  0.00    -0.354 N 
ATOM     57  N   UNL A   1      40.317  32.391  31.085  1.00  0.00    -0.248 NA
ATOM     58  C   UNL A   1      38.681  34.057  31.199  1.00  0.00     0.031 C 
ATOM     59  C   UNL A   1      44.340  32.707  32.954  1.00  0.00     0.029 A 
ATOM     60  C   UNL A   1      43.078  32.629  32.385  1.00  0.00     0.049 A 
ATOM     61  H   UNL A   1      42.206  31.042  31.304  1.00  0.00     0.167 HD
ATOM     62  C   UNL A   1      40.818  33.472  31.799  1.00  0.00     0.074 A 
ATOM     63  C   UNL A   1      39.779  34.483  31.808  1.00  0.00     0.031 C 
ATOM     64  C   UNL A   1      42.029  33.619  32.390  1.00  0.00     0.031 A 
BRANCH  51  65
ATOM     65  C   UNL A   1      45.733  28.690  31.823  1.00  0.00    -0.014 A 
ATOM     66  C   UNL A   1      46.844  28.786  30.968  1.00  0.00     0.009 A 
ATOM     67  C   UNL A   1      45.857  27.953  33.010  1.00  0.00     0.009 A 
ATOM     68  C   UNL A   1      48.031  28.114  31.267  1.00  0.00     0.001 A 
ATOM     69  C   UNL A   1      47.056  27.310  33.325  1.00  0.00     0.001 A 
ATOM     70  C   UNL A   1      48.137  27.379  32.447  1.00  0.00     0.000 A 
ENDBRANCH  51  65
BRANCH  52  71
ATOM     71  C   UNL A   1      36.781  32.540  29.566  1.00  0.00    -0.014 A 
ATOM     72  C   UNL A   1      36.584  33.187  28.336  1.00  0.00     0.009 A 
ATOM     73  C   UNL A   1      35.702  32.435  30.457  1.00  0.00     0.009 A 
ATOM     74  C   UNL A   1      35.339  33.733  28.015  1.00  0.00     0.001 A 
ATOM     75  C   UNL A   1      34.451  32.955  30.120  1.00  0.00     0.001 A 
ATOM     76  C   UNL A   1      34.273  33.612  28.903  1.00  0.00     0.000 A 
ENDBRANCH  52  71
BRANCH  64  77
ATOM     77  C   UNL A   1      42.310  34.932  33.063  1.00  0.00    -0.014 A 
ATOM     78  C   UNL A   1      43.084  35.925  32.442  1.00  0.00     0.009 A 
ATOM     79  C   UNL A   1      41.756  35.194  34.327  1.00  0.00     0.009 A 
ATOM     80  C   UNL A   1      43.326  37.138  33.089  1.00  0.00     0.001 A 
ATOM     81  C   UNL A   1      41.973  36.420  34.956  1.00  0.00     0.001 A 
ATOM     82  C   UNL A   1      42.767  37.387  34.342  1.00  0.00     0.000 A 
ENDBRANCH  64  77
ENDBRANCH  38  39
ENDBRANCH  30  33
ENDBRANCH  28  29
ENDBRANCH  27  28
ENDBRANCH  26  27
ENDBRANCH   3  26
TORSDOF 15
ENDMDL
MODEL 3
REMARK VINA RESULT:     -11.2      4.473     10.193
REMARK SMILES C/C(=N/OCc1ccccc1Nc1c(Cl)cccc1Cl)C(=O)NCCCNC(=O)c1ccc(-c2c3nc(c(-c4ccccc4)c4ccc([nH]4)c(-c4ccccc4)c4nc(c(-c5ccccc5)c5ccc2[nH]5)C=C4)C=C3)cc1
REMARK SMILES IDX 21 1 22 2 23 3 2 5 1 6 3 7 4 8 5 9 6 10 7 11 11 12 8 13
REMARK SMILES IDX 10 14 9 15 12 16 13 18 14 19 19 20 15 21 16 22 18 23 20 24
REMARK SMILES IDX 17 25 24 26 25 27 26 28 27 29 28 30 29 32 30 33 31 34 77 35
REMARK SMILES IDX 32 36 76 37 33 38 34 39 35 40 70 41 36 42 75 43 69 44 71 45
REMARK SMILES IDX 37 46 74 47 68 48 67 49 38 51 60 52 45 53 59 54 46 55 49 56
REMARK SMILES IDX 58 57 72 58 47 59 48 60 57 62 73 63 50 64 39 65 40 66 44 67
REMARK SMILES IDX 41 68 43 69 42 70 61 71 62 72 66 73 63 74 65 75 64 76 51 77
REMARK SMILES IDX 52 78 56 79 53 80 55 81 54 82
REMARK H PARENT 23 4 12 17 27 31 71 50 49 61
REMARK Flexibility Score: inf
ROOT
ATOM      1  C   UNL A   1      44.350  19.928  24.539  1.00  0.00     0.268 C 
ATOM      2  O   UNL A   1      44.420  19.843  23.310  1.00  0.00    -0.268 OA
ATOM      3  N   UNL A   1      43.145  19.572  25.093  1.00  0.00    -0.351 N 
ATOM      4  H   UNL A   1      42.543  19.146  24.440  1.00  0.00     0.163 HD
ENDROOT
BRANCH   1   5
ATOM      5  C   UNL A   1      45.640  20.327  25.254  1.00  0.00     0.141 C 
ATOM      6  C   UNL A   1      46.646  19.195  25.376  1.00  0.00     0.077 C 
ATOM      7  N   UNL A   1      46.027  21.465  25.753  1.00  0.00    -0.086 NA
BRANCH   7   8
ATOM      8  O   UNL A   1      45.110  22.484  25.617  1.00  0.00    -0.390 OA
BRANCH   8   9
ATOM      9  C   UNL A   1      44.253  22.580  26.755  1.00  0.00     0.302 C 
BRANCH   9  10
ATOM     10  C   UNL A   1      44.710  23.426  27.931  1.00  0.00     0.016 A 
ATOM     11  C   UNL A   1      43.858  23.377  29.059  1.00  0.00     0.009 A 
ATOM     12  C   UNL A   1      45.914  24.162  28.020  1.00  0.00     0.045 A 
ATOM     13  C   UNL A   1      44.159  24.063  30.232  1.00  0.00     0.001 A 
ATOM     14  C   UNL A   1      46.182  24.862  29.209  1.00  0.00     0.026 A 
ATOM     15  C   UNL A   1      45.318  24.817  30.303  1.00  0.00     0.002 A 
BRANCH  12  16
ATOM     16  N   UNL A   1      46.856  24.189  26.966  1.00  0.00    -0.353 N 
ATOM     17  H   UNL A   1      47.208  23.305  26.711  1.00  0.00     0.167 HD
BRANCH  16  18
ATOM     18  C   UNL A   1      47.381  25.270  26.209  1.00  0.00     0.076 A 
ATOM     19  C   UNL A   1      48.746  25.619  26.330  1.00  0.00     0.066 A 
ATOM     20  C   UNL A   1      46.633  26.002  25.260  1.00  0.00     0.066 A 
ATOM     21  Cl  UNL A   1      49.779  24.828  27.462  1.00  0.00    -0.082 Cl
ATOM     22  C   UNL A   1      49.340  26.606  25.532  1.00  0.00     0.023 A 
ATOM     23  C   UNL A   1      47.237  26.975  24.444  1.00  0.00     0.023 A 
ATOM     24  Cl  UNL A   1      44.914  25.845  25.105  1.00  0.00    -0.082 Cl
ATOM     25  C   UNL A   1      48.589  27.273  24.573  1.00  0.00     0.003 A 
ENDBRANCH  16  18
ENDBRANCH  12  16
ENDBRANCH   9  10
ENDBRANCH   8   9
ENDBRANCH   7   8
ENDBRANCH   1   5
BRANCH   3  26
ATOM     26  C   UNL A   1      42.549  19.674  26.411  1.00  0.00     0.118 C 
BRANCH  26  27
ATOM     27  C   UNL A   1      41.047  19.946  26.314  1.00  0.00     0.042 C 
BRANCH  27  28
ATOM     28  C   UNL A   1      40.734  21.431  26.348  1.00  0.00     0.118 C 
BRANCH  28  29
ATOM     29  N   UNL A   1      39.380  21.695  25.872  1.00  0.00    -0.352 N 
ATOM     30  C   UNL A   1      38.579  22.787  26.073  1.00  0.00     0.251 C 
ATOM     31  H   UNL A   1      38.982  20.980  25.324  1.00  0.00     0.163 HD
ATOM     32  O   UNL A   1      37.383  22.730  25.782  1.00  0.00    -0.269 OA
BRANCH  30  33
ATOM     33  C   UNL A   1      39.137  24.027  26.647  1.00  0.00     0.039 A 
ATOM     34  C   UNL A   1      39.889  24.874  25.829  1.00  0.00     0.014 A 
ATOM     35  C   UNL A   1      38.935  24.347  27.991  1.00  0.00     0.014 A 
ATOM     36  C   UNL A   1      40.399  26.063  26.351  1.00  0.00     0.010 A 
ATOM     37  C   UNL A   1      39.352  25.578  28.480  1.00  0.00     0.010 A 
ATOM     38  C   UNL A   1      40.107  26.438  27.672  1.00  0.00    -0.014 A 
BRANCH  38  39
ATOM     39  C   UNL A   1      40.605  27.711  28.242  1.00  0.00     0.031 A 
ATOM     40  C   UNL A   1      39.640  28.815  28.572  1.00  0.00     0.074 A 
ATOM     41  C   UNL A   1      41.930  27.895  28.401  1.00  0.00     0.049 A 
ATOM     42  N   UNL A   1      39.882  30.019  29.025  1.00  0.00    -0.248 NA
ATOM     43  C   UNL A   1      38.213  28.541  28.330  1.00  0.00     0.031 C 
ATOM     44  C   UNL A   1      42.967  26.911  28.080  1.00  0.00     0.029 A 
ATOM     45  N   UNL A   1      42.629  28.975  28.873  1.00  0.00    -0.354 N 
ATOM     46  C   UNL A   1      38.647  30.648  29.100  1.00  0.00     0.074 A 
ATOM     47  C   UNL A   1      37.665  29.719  28.585  1.00  0.00     0.031 C 
ATOM     48  C   UNL A   1      44.167  27.419  28.404  1.00  0.00     0.029 A 
ATOM     49  C   UNL A   1      43.987  28.777  28.909  1.00  0.00     0.049 A 
ATOM     50  H   UNL A   1      42.199  29.813  29.159  1.00  0.00     0.167 HD
ATOM     51  C   UNL A   1      38.349  31.879  29.577  1.00  0.00     0.031 A 
ATOM     52  C   UNL A   1      44.977  29.598  29.305  1.00  0.00     0.031 A 
ATOM     53  C   UNL A   1      39.330  32.798  30.090  1.00  0.00     0.049 A 
ATOM     54  C   UNL A   1      44.627  30.969  29.809  1.00  0.00     0.074 A 
ATOM     55  C   UNL A   1      39.134  34.049  30.646  1.00  0.00     0.029 A 
ATOM     56  N   UNL A   1      40.697  32.562  30.103  1.00  0.00    -0.354 N 
ATOM     57  N   UNL A   1      43.448  31.527  29.938  1.00  0.00    -0.248 NA
ATOM     58  C   UNL A   1      45.748  31.820  30.231  1.00  0.00     0.031 C 
ATOM     59  C   UNL A   1      40.388  34.595  30.940  1.00  0.00     0.029 A 
ATOM     60  C   UNL A   1      41.360  33.656  30.631  1.00  0.00     0.049 A 
ATOM     61  H   UNL A   1      41.131  31.738  29.784  1.00  0.00     0.167 HD
ATOM     62  C   UNL A   1      43.680  32.782  30.485  1.00  0.00     0.074 A 
ATOM     63  C   UNL A   1      45.112  32.896  30.675  1.00  0.00     0.031 C 
ATOM     64  C   UNL A   1      42.788  33.753  30.805  1.00  0.00     0.031 A 
BRANCH  51  65
ATOM     65  C   UNL A   1      36.904  32.300  29.544  1.00  0.00    -0.014 A 
ATOM     66  C   UNL A   1      36.320  32.819  28.376  1.00  0.00     0.009 A 
ATOM     67  C   UNL A   1      36.113  32.178  30.696  1.00  0.00     0.009 A 
ATOM     68  C   UNL A   1      34.994  33.258  28.379  1.00  0.00     0.001 A 
ATOM     69  C   UNL A   1      34.778  32.585  30.688  1.00  0.00     0.001 A 
ATOM     70  C   UNL A   1      34.223  33.137  29.535  1.00  0.00     0.000 A 
ENDBRANCH  51  65
BRANCH  52  71
ATOM     71  C   UNL A   1      46.386  29.128  29.273  1.00  0.00    -0.014 A 
ATOM     72  C   UNL A   1      46.926  28.431  30.365  1.00  0.00     0.009 A 
ATOM     73  C   UNL A   1      47.193  29.354  28.147  1.00  0.00     0.009 A 
ATOM     74  C   UNL A   1      48.250  27.989  30.339  1.00  0.00     0.001 A 
ATOM     75  C   UNL A   1      48.508  28.884  28.112  1.00  0.00     0.001 A 
ATOM     76  C   UNL A   1      49.038  28.210  29.212  1.00  0.00     0.000 A 
ENDBRANCH  52  71
BRANCH  64  77
ATOM     77  C   UNL A   1      43.334  35.006  31.428  1.00  0.00    -0.014 A 
ATOM     78  C   UNL A   1      43.443  35.145  32.821  1.00  0.00     0.009 A 
ATOM     79  C   UNL A   1      43.783  36.051  30.604  1.00  0.00     0.009 A 
ATOM     80  C   UNL A   1      43.956  36.320  33.374  1.00  0.00     0.001 A 
ATOM     81  C   UNL A   1      44.326  37.209  31.159  1.00  0.00     0.001 A 
ATOM     82  C   UNL A   1      44.402  37.348  32.543  1.00  0.00     0.000 A 
ENDBRANCH  64  77
ENDBRANCH  38  39
ENDBRANCH  30  33
ENDBRANCH  28  29
ENDBRANCH  27  28
ENDBRANCH  26  27
ENDBRANCH   3  26
TORSDOF 15
ENDMDL
