MODEL 1
REMARK VINA RESULT:     -11.5      0.000      0.000
REMARK SMILES COc1cccc(CC2(CO)CCN(c3nc(C)ccc3C(=O)NCCCNC(=O)c3ccc(-c4c5nc(c(-c6ccccc6)c6ccc([nH]6)c(-c6ccccc6)c6nc(c(-c7ccccc7)c7ccc4[nH]7)C=C6)C=C5)cc3)CC2)c1
REMARK SMILES IDX 25 1 24 2 22 3 23 4 21 6 15 7 16 8 17 9 20 10 18 11 19 12
REMARK SMILES IDX 14 13 9 14 12 15 80 16 13 17 79 18 8 19 7 20 3 21 4 22 81 23
REMARK SMILES IDX 5 24 6 25 2 26 1 27 10 28 11 29 26 31 27 32 28 33 29 34
REMARK SMILES IDX 30 36 31 37 32 38 78 39 33 40 77 41 34 42 35 43 36 44 71 45
REMARK SMILES IDX 37 46 76 47 70 48 72 49 38 50 75 51 69 52 68 53 39 55 61 56
REMARK SMILES IDX 46 57 60 58 47 59 50 60 59 61 73 62 48 63 49 64 58 66 74 67
REMARK SMILES IDX 51 68 40 69 41 70 45 71 42 72 44 73 43 74 62 75 63 76 67 77
REMARK SMILES IDX 64 78 66 79 65 80 52 81 53 82 57 83 54 84 56 85 55 86
REMARK H PARENT 24 5 11 30 28 35 72 54 50 65
REMARK Flexibility Score: inf
ROOT
ATOM      1  C   UNL A   1      34.926  25.085  25.328  1.00  0.00     0.118 C 
ENDROOT
BRANCH   1   2
ATOM      2  N   UNL A   1      34.759  25.437  23.933  1.00  0.00    -0.352 N 
ATOM      3  C   UNL A   1      33.712  25.697  23.081  1.00  0.00     0.255 C 
ATOM      4  O   UNL A   1      34.081  25.743  21.912  1.00  0.00    -0.269 OA
ATOM      5  H   UNL A   1      35.625  25.510  23.471  1.00  0.00     0.163 HD
BRANCH   3   6
ATOM      6  C   UNL A   1      32.283  25.924  23.492  1.00  0.00     0.082 A 
ATOM      7  C   UNL A   1      31.430  24.894  23.956  1.00  0.00     0.141 A 
ATOM      8  N   UNL A   1      30.087  25.116  24.081  1.00  0.00    -0.235 NA
ATOM      9  C   UNL A   1      29.560  26.334  23.848  1.00  0.00     0.040 A 
ATOM     10  C   UNL A   1      31.718  27.201  23.359  1.00  0.00     0.019 A 
ATOM     11  C   UNL A   1      28.076  26.466  24.004  1.00  0.00     0.067 C 
ATOM     12  C   UNL A   1      30.352  27.413  23.526  1.00  0.00     0.024 A 
BRANCH   7  13
ATOM     13  N   UNL A   1      31.776  23.624  24.365  1.00  0.00    -0.356 N 
ATOM     14  C   UNL A   1      32.954  21.169  25.491  1.00  0.00     0.001 C 
ATOM     15  C   UNL A   1      32.303  22.272  26.367  1.00  0.00     0.031 C 
ATOM     16  C   UNL A   1      33.368  21.775  24.128  1.00  0.00     0.031 C 
ATOM     17  C   UNL A   1      31.305  23.204  25.673  1.00  0.00     0.119 C 
ATOM     18  C   UNL A   1      32.286  22.614  23.458  1.00  0.00     0.119 C 
BRANCH  14  19
ATOM     19  C   UNL A   1      32.077  19.870  25.371  1.00  0.00     0.045 C 
BRANCH  19  20
ATOM     20  C   UNL A   1      32.584  18.671  24.603  1.00  0.00    -0.044 A 
ATOM     21  C   UNL A   1      33.712  16.519  24.549  1.00  0.00     0.119 A 
ATOM     22  C   UNL A   1      33.697  16.535  23.158  1.00  0.00     0.046 A 
ATOM     23  C   UNL A   1      33.172  17.584  25.273  1.00  0.00     0.050 A 
ATOM     24  C   UNL A   1      33.058  17.574  22.486  1.00  0.00     0.004 A 
ATOM     25  C   UNL A   1      32.478  18.620  23.207  1.00  0.00     0.004 A 
BRANCH  21  26
ATOM     26  O   UNL A   1      34.354  15.467  25.149  1.00  0.00    -0.497 OA
ATOM     27  C   UNL A   1      35.705  15.787  25.475  1.00  0.00     0.278 C 
ENDBRANCH  21  26
ENDBRANCH  19  20
ENDBRANCH  14  19
BRANCH  14  28
ATOM     28  C   UNL A   1      34.281  20.722  26.181  1.00  0.00     0.163 C 
BRANCH  28  29
ATOM     29  O   UNL A   1      34.390  21.212  27.511  1.00  0.00    -0.396 OA
ATOM     30  H   UNL A   1      33.883  20.640  28.109  1.00  0.00     0.210 HD
ENDBRANCH  28  29
ENDBRANCH  14  28
ENDBRANCH   7  13
ENDBRANCH   3   6
ENDBRANCH   1   2
BRANCH   1  31
ATOM     31  C   UNL A   1      35.668  23.751  25.454  1.00  0.00     0.042 C 
BRANCH  31  32
ATOM     32  C   UNL A   1      37.044  23.748  24.779  1.00  0.00     0.118 C 
BRANCH  32  33
ATOM     33  N   UNL A   1      37.944  22.767  25.370  1.00  0.00    -0.352 N 
ATOM     34  C   UNL A   1      39.056  22.941  26.157  1.00  0.00     0.251 C 
ATOM     35  H   UNL A   1      37.721  21.829  25.173  1.00  0.00     0.163 HD
ATOM     36  O   UNL A   1      39.820  21.999  26.345  1.00  0.00    -0.269 OA
BRANCH  34  37
ATOM     37  C   UNL A   1      39.349  24.251  26.776  1.00  0.00     0.039 A 
ATOM     38  C   UNL A   1      38.816  24.535  28.038  1.00  0.00     0.014 A 
ATOM     39  C   UNL A   1      40.100  25.217  26.102  1.00  0.00     0.014 A 
ATOM     40  C   UNL A   1      39.094  25.757  28.653  1.00  0.00     0.010 A 
ATOM     41  C   UNL A   1      40.425  26.412  26.739  1.00  0.00     0.010 A 
ATOM     42  C   UNL A   1      39.934  26.690  28.024  1.00  0.00    -0.014 A 
BRANCH  42  43
ATOM     43  C   UNL A   1      40.356  27.935  28.714  1.00  0.00     0.031 A 
ATOM     44  C   UNL A   1      41.692  28.024  29.393  1.00  0.00     0.074 A 
ATOM     45  C   UNL A   1      39.484  28.957  28.810  1.00  0.00     0.049 A 
ATOM     46  N   UNL A   1      42.183  28.995  30.120  1.00  0.00    -0.248 NA
ATOM     47  C   UNL A   1      42.580  26.861  29.258  1.00  0.00     0.031 C 
ATOM     48  C   UNL A   1      38.138  28.977  28.234  1.00  0.00     0.029 A 
ATOM     49  N   UNL A   1      39.591  30.167  29.448  1.00  0.00    -0.354 N 
ATOM     50  C   UNL A   1      43.429  28.553  30.547  1.00  0.00     0.074 A 
ATOM     51  C   UNL A   1      43.600  27.213  30.027  1.00  0.00     0.031 C 
ATOM     52  C   UNL A   1      37.547  30.142  28.540  1.00  0.00     0.029 A 
ATOM     53  C   UNL A   1      38.454  30.932  29.366  1.00  0.00     0.049 A 
ATOM     54  H   UNL A   1      40.405  30.459  29.920  1.00  0.00     0.167 HD
ATOM     55  C   UNL A   1      44.350  29.207  31.298  1.00  0.00     0.031 A 
ATOM     56  C   UNL A   1      38.161  32.127  29.911  1.00  0.00     0.031 A 
ATOM     57  C   UNL A   1      44.177  30.539  31.814  1.00  0.00     0.049 A 
ATOM     58  C   UNL A   1      39.185  32.825  30.755  1.00  0.00     0.074 A 
ATOM     59  C   UNL A   1      45.084  31.318  32.512  1.00  0.00     0.029 A 
ATOM     60  N   UNL A   1      43.012  31.282  31.706  1.00  0.00    -0.354 N 
ATOM     61  N   UNL A   1      40.393  32.430  31.078  1.00  0.00    -0.248 NA
ATOM     62  C   UNL A   1      38.808  34.133  31.309  1.00  0.00     0.031 C 
ATOM     63  C   UNL A   1      44.446  32.511  32.877  1.00  0.00     0.029 A 
ATOM     64  C   UNL A   1      43.160  32.494  32.361  1.00  0.00     0.049 A 
ATOM     65  H   UNL A   1      42.199  30.992  31.233  1.00  0.00     0.167 HD
ATOM     66  C   UNL A   1      40.923  33.441  31.867  1.00  0.00     0.074 A 
ATOM     67  C   UNL A   1      39.913  34.478  31.954  1.00  0.00     0.031 C 
ATOM     68  C   UNL A   1      42.137  33.503  32.466  1.00  0.00     0.031 A 
BRANCH  55  69
ATOM     69  C   UNL A   1      45.619  28.469  31.622  1.00  0.00    -0.014 A 
ATOM     70  C   UNL A   1      46.755  28.570  30.803  1.00  0.00     0.009 A 
ATOM     71  C   UNL A   1      45.684  27.670  32.775  1.00  0.00     0.009 A 
ATOM     72  C   UNL A   1      47.913  27.848  31.103  1.00  0.00     0.001 A 
ATOM     73  C   UNL A   1      46.853  26.971  33.089  1.00  0.00     0.001 A 
ATOM     74  C   UNL A   1      47.960  27.050  32.247  1.00  0.00     0.000 A 
ENDBRANCH  55  69
BRANCH  56  75
ATOM     75  C   UNL A   1      36.823  32.726  29.673  1.00  0.00    -0.014 A 
ATOM     76  C   UNL A   1      36.574  33.471  28.512  1.00  0.00     0.009 A 
ATOM     77  C   UNL A   1      35.775  32.512  30.583  1.00  0.00     0.009 A 
ATOM     78  C   UNL A   1      35.304  33.998  28.270  1.00  0.00     0.001 A 
ATOM     79  C   UNL A   1      34.500  33.019  30.327  1.00  0.00     0.001 A 
ATOM     80  C   UNL A   1      34.267  33.765  29.172  1.00  0.00     0.000 A 
ENDBRANCH  56  75
BRANCH  68  81
ATOM     81  C   UNL A   1      42.435  34.731  33.279  1.00  0.00    -0.014 A 
ATOM     82  C   UNL A   1      42.120  34.786  34.645  1.00  0.00     0.009 A 
ATOM     83  C   UNL A   1      43.072  35.830  32.682  1.00  0.00     0.009 A 
ATOM     84  C   UNL A   1      42.413  35.928  35.392  1.00  0.00     0.001 A 
ATOM     85  C   UNL A   1      43.387  36.961  33.437  1.00  0.00     0.001 A 
ATOM     86  C   UNL A   1      43.050  37.012  34.790  1.00  0.00     0.000 A 
ENDBRANCH  68  81
ENDBRANCH  42  43
ENDBRANCH  34  37
ENDBRANCH  32  33
ENDBRANCH  31  32
ENDBRANCH   1  31
TORSDOF 16
ENDMDL
MODEL 2
REMARK VINA RESULT:     -11.3      2.214      6.878
REMARK SMILES COc1cccc(CC2(CO)CCN(c3nc(C)ccc3C(=O)NCCCNC(=O)c3ccc(-c4c5nc(c(-c6ccccc6)c6ccc([nH]6)c(-c6ccccc6)c6nc(c(-c7ccccc7)c7ccc4[nH]7)C=C6)C=C5)cc3)CC2)c1
REMARK SMILES IDX 25 1 24 2 22 3 23 4 21 6 15 7 16 8 17 9 20 10 18 11 19 12
REMARK SMILES IDX 14 13 9 14 12 15 80 16 13 17 79 18 8 19 7 20 3 21 4 22 81 23
REMARK SMILES IDX 5 24 6 25 2 26 1 27 10 28 11 29 26 31 27 32 28 33 29 34
REMARK SMILES IDX 30 36 31 37 32 38 78 39 33 40 77 41 34 42 35 43 36 44 71 45
REMARK SMILES IDX 37 46 76 47 70 48 72 49 38 50 75 51 69 52 68 53 39 55 61 56
REMARK SMILES IDX 46 57 60 58 47 59 50 60 59 61 73 62 48 63 49 64 58 66 74 67
REMARK SMILES IDX 51 68 40 69 41 70 45 71 42 72 44 73 43 74 62 75 63 76 67 77
REMARK SMILES IDX 64 78 66 79 65 80 52 81 53 82 57 83 54 84 56 85 55 86
REMARK H PARENT 24 5 11 30 28 35 72 54 50 65
REMARK Flexibility Score: inf
ROOT
ATOM      1  C   UNL A   1      33.379  29.425  26.180  1.00  0.00     0.118 C 
ENDROOT
BRANCH   1   2
ATOM      2  N   UNL A   1      33.567  29.296  24.749  1.00  0.00    -0.352 N 
ATOM      3  C   UNL A   1      32.790  28.996  23.656  1.00  0.00     0.255 C 
ATOM      4  O   UNL A   1      33.472  28.802  22.655  1.00  0.00    -0.269 OA
ATOM      5  H   UNL A   1      34.501  29.470  24.490  1.00  0.00     0.163 HD
BRANCH   3   6
ATOM      6  C   UNL A   1      31.288  28.926  23.642  1.00  0.00     0.082 A 
ATOM      7  C   UNL A   1      30.556  27.772  24.014  1.00  0.00     0.141 A 
ATOM      8  N   UNL A   1      29.216  27.692  23.750  1.00  0.00    -0.235 NA
ATOM      9  C   UNL A   1      28.551  28.732  23.211  1.00  0.00     0.040 A 
ATOM     10  C   UNL A   1      30.546  30.023  23.179  1.00  0.00     0.019 A 
ATOM     11  C   UNL A   1      27.089  28.534  22.953  1.00  0.00     0.067 C 
ATOM     12  C   UNL A   1      29.176  29.931  22.950  1.00  0.00     0.024 A 
BRANCH   7  13
ATOM     13  N   UNL A   1      31.011  26.655  24.682  1.00  0.00    -0.356 N 
ATOM     14  C   UNL A   1      31.519  24.020  25.897  1.00  0.00     0.001 C 
ATOM     15  C   UNL A   1      31.597  24.274  24.368  1.00  0.00     0.031 C 
ATOM     16  C   UNL A   1      30.648  25.117  26.555  1.00  0.00     0.031 C 
ATOM     17  C   UNL A   1      31.822  25.721  23.920  1.00  0.00     0.119 C 
ATOM     18  C   UNL A   1      30.996  26.538  26.127  1.00  0.00     0.119 C 
BRANCH  14  19
ATOM     19  C   UNL A   1      32.928  23.836  26.571  1.00  0.00     0.045 C 
BRANCH  19  20
ATOM     20  C   UNL A   1      34.080  23.248  25.789  1.00  0.00    -0.044 A 
ATOM     21  C   UNL A   1      35.301  21.319  24.953  1.00  0.00     0.119 A 
ATOM     22  C   UNL A   1      36.322  22.150  24.501  1.00  0.00     0.046 A 
ATOM     23  C   UNL A   1      34.189  21.858  25.606  1.00  0.00     0.050 A 
ATOM     24  C   UNL A   1      36.191  23.532  24.618  1.00  0.00     0.004 A 
ATOM     25  C   UNL A   1      35.061  24.077  25.231  1.00  0.00     0.004 A 
BRANCH  21  26
ATOM     26  O   UNL A   1      35.490  19.970  24.807  1.00  0.00    -0.497 OA
ATOM     27  C   UNL A   1      34.252  19.269  24.711  1.00  0.00     0.278 C 
ENDBRANCH  21  26
ENDBRANCH  19  20
ENDBRANCH  14  19
BRANCH  14  28
ATOM     28  C   UNL A   1      30.760  22.676  26.128  1.00  0.00     0.163 C 
BRANCH  28  29
ATOM     29  O   UNL A   1      30.164  22.607  27.417  1.00  0.00    -0.396 OA
ATOM     30  H   UNL A   1      29.303  22.164  27.351  1.00  0.00     0.210 HD
ENDBRANCH  28  29
ENDBRANCH  14  28
ENDBRANCH   7  13
ENDBRANCH   3   6
ENDBRANCH   1   2
BRANCH   1  31
ATOM     31  C   UNL A   1      33.468  30.896  26.597  1.00  0.00     0.042 C 
BRANCH  31  32
ATOM     32  C   UNL A   1      32.210  31.411  27.305  1.00  0.00     0.118 C 
BRANCH  32  33
ATOM     33  N   UNL A   1      32.182  32.865  27.389  1.00  0.00    -0.352 N 
ATOM     34  C   UNL A   1      33.013  33.733  28.053  1.00  0.00     0.251 C 
ATOM     35  H   UNL A   1      31.450  33.294  26.891  1.00  0.00     0.163 HD
ATOM     36  O   UNL A   1      32.674  34.903  28.203  1.00  0.00    -0.269 OA
BRANCH  34  37
ATOM     37  C   UNL A   1      34.311  33.275  28.595  1.00  0.00     0.039 A 
ATOM     38  C   UNL A   1      34.348  32.731  29.883  1.00  0.00     0.014 A 
ATOM     39  C   UNL A   1      35.493  33.427  27.867  1.00  0.00     0.014 A 
ATOM     40  C   UNL A   1      35.556  32.273  30.411  1.00  0.00     0.010 A 
ATOM     41  C   UNL A   1      36.688  32.918  28.370  1.00  0.00     0.010 A 
ATOM     42  C   UNL A   1      36.730  32.327  29.642  1.00  0.00    -0.014 A 
BRANCH  42  43
ATOM     43  C   UNL A   1      37.997  31.724  30.126  1.00  0.00     0.031 A 
ATOM     44  C   UNL A   1      38.898  32.473  31.065  1.00  0.00     0.074 A 
ATOM     45  C   UNL A   1      38.383  30.531  29.634  1.00  0.00     0.049 A 
ATOM     46  N   UNL A   1      40.083  32.141  31.511  1.00  0.00    -0.248 NA
ATOM     47  C   UNL A   1      38.416  33.777  31.542  1.00  0.00     0.031 C 
ATOM     48  C   UNL A   1      37.620  29.723  28.680  1.00  0.00     0.029 A 
ATOM     49  N   UNL A   1      39.524  29.801  29.850  1.00  0.00    -0.354 N 
ATOM     50  C   UNL A   1      40.497  33.201  32.307  1.00  0.00     0.074 A 
ATOM     51  C   UNL A   1      39.452  34.203  32.249  1.00  0.00     0.031 C 
ATOM     52  C   UNL A   1      38.311  28.608  28.398  1.00  0.00     0.029 A 
ATOM     53  C   UNL A   1      39.580  28.641  29.117  1.00  0.00     0.049 A 
ATOM     54  H   UNL A   1      40.235  30.082  30.472  1.00  0.00     0.167 HD
ATOM     55  C   UNL A   1      41.640  33.327  33.025  1.00  0.00     0.031 A 
ATOM     56  C   UNL A   1      40.552  27.716  29.014  1.00  0.00     0.031 A 
ATOM     57  C   UNL A   1      42.677  32.331  33.079  1.00  0.00     0.049 A 
ATOM     58  C   UNL A   1      41.818  27.884  29.801  1.00  0.00     0.074 A 
ATOM     59  C   UNL A   1      43.831  32.328  33.843  1.00  0.00     0.029 A 
ATOM     60  N   UNL A   1      42.695  31.168  32.324  1.00  0.00    -0.354 N 
ATOM     61  N   UNL A   1      42.157  28.852  30.616  1.00  0.00    -0.248 NA
ATOM     62  C   UNL A   1      42.832  26.831  29.655  1.00  0.00     0.031 C 
ATOM     63  C   UNL A   1      44.576  31.191  33.506  1.00  0.00     0.029 A 
ATOM     64  C   UNL A   1      43.860  30.461  32.571  1.00  0.00     0.049 A 
ATOM     65  H   UNL A   1      41.984  30.886  31.705  1.00  0.00     0.167 HD
ATOM     66  C   UNL A   1      43.421  28.525  31.086  1.00  0.00     0.074 A 
ATOM     67  C   UNL A   1      43.778  27.256  30.481  1.00  0.00     0.031 C 
ATOM     68  C   UNL A   1      44.216  29.215  31.940  1.00  0.00     0.031 A 
BRANCH  55  69
ATOM     69  C   UNL A   1      41.832  34.607  33.790  1.00  0.00    -0.014 A 
ATOM     70  C   UNL A   1      42.566  35.678  33.254  1.00  0.00     0.009 A 
ATOM     71  C   UNL A   1      41.260  34.749  35.064  1.00  0.00     0.009 A 
ATOM     72  C   UNL A   1      42.763  36.845  33.997  1.00  0.00     0.001 A 
ATOM     73  C   UNL A   1      41.434  35.927  35.794  1.00  0.00     0.001 A 
ATOM     74  C   UNL A   1      42.196  36.968  35.265  1.00  0.00     0.000 A 
ENDBRANCH  55  69
BRANCH  56  75
ATOM     75  C   UNL A   1      40.354  26.551  28.114  1.00  0.00    -0.014 A 
ATOM     76  C   UNL A   1      39.666  25.416  28.563  1.00  0.00     0.009 A 
ATOM     77  C   UNL A   1      40.810  26.593  26.786  1.00  0.00     0.009 A 
ATOM     78  C   UNL A   1      39.444  24.338  27.702  1.00  0.00     0.001 A 
ATOM     79  C   UNL A   1      40.566  25.525  25.921  1.00  0.00     0.001 A 
ATOM     80  C   UNL A   1      39.887  24.397  26.381  1.00  0.00     0.000 A 
ENDBRANCH  56  75
BRANCH  68  81
ATOM     81  C   UNL A   1      45.555  28.615  32.263  1.00  0.00    -0.014 A 
ATOM     82  C   UNL A   1      46.689  28.929  31.499  1.00  0.00     0.009 A 
ATOM     83  C   UNL A   1      45.692  27.757  33.365  1.00  0.00     0.009 A 
ATOM     84  C   UNL A   1      47.930  28.375  31.816  1.00  0.00     0.001 A 
ATOM     85  C   UNL A   1      46.939  27.224  33.695  1.00  0.00     0.001 A 
ATOM     86  C   UNL A   1      48.055  27.527  32.916  1.00  0.00     0.000 A 
ENDBRANCH  68  81
ENDBRANCH  42  43
ENDBRANCH  34  37
ENDBRANCH  32  33
ENDBRANCH  31  32
ENDBRANCH   1  31
TORSDOF 16
ENDMDL
MODEL 3
REMARK VINA RESULT:     -11.3      2.667      8.132
REMARK SMILES COc1cccc(CC2(CO)CCN(c3nc(C)ccc3C(=O)NCCCNC(=O)c3ccc(-c4c5nc(c(-c6ccccc6)c6ccc([nH]6)c(-c6ccccc6)c6nc(c(-c7ccccc7)c7ccc4[nH]7)C=C6)C=C5)cc3)CC2)c1
REMARK SMILES IDX 25 1 24 2 22 3 23 4 21 6 15 7 16 8 17 9 20 10 18 11 19 12
REMARK SMILES IDX 14 13 9 14 12 15 80 16 13 17 79 18 8 19 7 20 3 21 4 22 81 23
REMARK SMILES IDX 5 24 6 25 2 26 1 27 10 28 11 29 26 31 27 32 28 33 29 34
REMARK SMILES IDX 30 36 31 37 32 38 78 39 33 40 77 41 34 42 35 43 36 44 71 45
REMARK SMILES IDX 37 46 76 47 70 48 72 49 38 50 75 51 69 52 68 53 39 55 61 56
REMARK SMILES IDX 46 57 60 58 47 59 50 60 59 61 73 62 48 63 49 64 58 66 74 67
REMARK SMILES IDX 51 68 40 69 41 70 45 71 42 72 44 73 43 74 62 75 63 76 67 77
REMARK SMILES IDX 64 78 66 79 65 80 52 81 53 82 57 83 54 84 56 85 55 86
REMARK H PARENT 24 5 11 30 28 35 72 54 50 65
REMARK Flexibility Score: inf
ROOT
ATOM      1  C   UNL A   1      37.668  22.173  25.098  1.00  0.00     0.118 C 
ENDROOT
BRANCH   1   2
ATOM      2  N   UNL A   1      36.615  22.213  26.093  1.00  0.00    -0.352 N 
ATOM      3  C   UNL A   1      35.297  21.833  26.177  1.00  0.00     0.255 C 
ATOM      4  O   UNL A   1      34.761  22.282  27.185  1.00  0.00    -0.269 OA
ATOM      5  H   UNL A   1      36.927  22.622  26.933  1.00  0.00     0.163 HD
BRANCH   3   6
ATOM      6  C   UNL A   1      34.572  20.961  25.190  1.00  0.00     0.082 A 
ATOM      7  C   UNL A   1      33.528  21.426  24.354  1.00  0.00     0.141 A 
ATOM      8  N   UNL A   1      32.753  20.538  23.661  1.00  0.00    -0.235 NA
ATOM      9  C   UNL A   1      33.015  19.217  23.691  1.00  0.00     0.040 A 
ATOM     10  C   UNL A   1      34.879  19.594  25.116  1.00  0.00     0.019 A 
ATOM     11  C   UNL A   1      32.098  18.332  22.905  1.00  0.00     0.067 C 
ATOM     12  C   UNL A   1      34.098  18.711  24.376  1.00  0.00     0.024 A 
BRANCH   7  13
ATOM     13  N   UNL A   1      33.174  22.731  24.084  1.00  0.00    -0.356 N 
ATOM     14  C   UNL A   1      32.855  25.506  23.147  1.00  0.00     0.001 C 
ATOM     15  C   UNL A   1      32.584  24.272  22.244  1.00  0.00     0.031 C 
ATOM     16  C   UNL A   1      33.787  25.093  24.312  1.00  0.00     0.031 C 
ATOM     17  C   UNL A   1      32.286  22.949  22.955  1.00  0.00     0.119 C 
ATOM     18  C   UNL A   1      33.370  23.813  25.028  1.00  0.00     0.119 C 
BRANCH  14  19
ATOM     19  C   UNL A   1      31.543  26.239  23.610  1.00  0.00     0.045 C 
BRANCH  19  20
ATOM     20  C   UNL A   1      31.539  27.085  24.862  1.00  0.00    -0.044 A 
ATOM     21  C   UNL A   1      32.028  29.174  26.003  1.00  0.00     0.119 A 
ATOM     22  C   UNL A   1      31.710  28.592  27.226  1.00  0.00     0.046 A 
ATOM     23  C   UNL A   1      31.957  28.426  24.825  1.00  0.00     0.050 A 
ATOM     24  C   UNL A   1      31.231  27.285  27.265  1.00  0.00     0.004 A 
ATOM     25  C   UNL A   1      31.118  26.547  26.085  1.00  0.00     0.004 A 
BRANCH  21  26
ATOM     26  O   UNL A   1      32.491  30.464  26.032  1.00  0.00    -0.497 OA
ATOM     27  C   UNL A   1      33.280  30.718  27.192  1.00  0.00     0.278 C 
ENDBRANCH  21  26
ENDBRANCH  19  20
ENDBRANCH  14  19
BRANCH  14  28
ATOM     28  C   UNL A   1      33.654  26.554  22.311  1.00  0.00     0.163 C 
BRANCH  28  29
ATOM     29  O   UNL A   1      33.371  26.464  20.920  1.00  0.00    -0.396 OA
ATOM     30  H   UNL A   1      33.027  27.315  20.605  1.00  0.00     0.210 HD
ENDBRANCH  28  29
ENDBRANCH  14  28
ENDBRANCH   7  13
ENDBRANCH   3   6
ENDBRANCH   1   2
BRANCH   1  31
ATOM     31  C   UNL A   1      38.270  20.767  25.017  1.00  0.00     0.042 C 
BRANCH  31  32
ATOM     32  C   UNL A   1      39.053  20.362  26.271  1.00  0.00     0.118 C 
BRANCH  32  33
ATOM     33  N   UNL A   1      40.217  19.546  25.953  1.00  0.00    -0.352 N 
ATOM     34  C   UNL A   1      41.549  19.878  25.907  1.00  0.00     0.251 C 
ATOM     35  H   UNL A   1      40.017  18.608  25.735  1.00  0.00     0.163 HD
ATOM     36  O   UNL A   1      42.346  19.112  25.375  1.00  0.00    -0.269 OA
BRANCH  34  37
ATOM     37  C   UNL A   1      42.034  21.150  26.484  1.00  0.00     0.039 A 
ATOM     38  C   UNL A   1      42.383  22.192  25.620  1.00  0.00     0.014 A 
ATOM     39  C   UNL A   1      42.196  21.302  27.863  1.00  0.00     0.014 A 
ATOM     40  C   UNL A   1      42.825  23.410  26.141  1.00  0.00     0.010 A 
ATOM     41  C   UNL A   1      42.582  22.534  28.385  1.00  0.00     0.010 A 
ATOM     42  C   UNL A   1      42.890  23.603  27.529  1.00  0.00    -0.014 A 
BRANCH  42  43
ATOM     43  C   UNL A   1      43.225  24.929  28.109  1.00  0.00     0.031 A 
ATOM     44  C   UNL A   1      42.151  25.944  28.379  1.00  0.00     0.074 A 
ATOM     45  C   UNL A   1      44.518  25.252  28.298  1.00  0.00     0.049 A 
ATOM     46  N   UNL A   1      42.272  27.180  28.791  1.00  0.00    -0.248 NA
ATOM     47  C   UNL A   1      40.766  25.522  28.129  1.00  0.00     0.031 C 
ATOM     48  C   UNL A   1      45.658  24.372  28.031  1.00  0.00     0.029 A 
ATOM     49  N   UNL A   1      45.093  26.418  28.739  1.00  0.00    -0.354 N 
ATOM     50  C   UNL A   1      40.981  27.691  28.832  1.00  0.00     0.074 A 
ATOM     51  C   UNL A   1      40.099  26.642  28.365  1.00  0.00     0.031 C 
ATOM     52  C   UNL A   1      46.794  25.026  28.318  1.00  0.00     0.029 A 
ATOM     53  C   UNL A   1      46.466  26.381  28.749  1.00  0.00     0.049 A 
ATOM     54  H   UNL A   1      44.572  27.204  29.021  1.00  0.00     0.167 HD
ATOM     55  C   UNL A   1      40.568  28.921  29.227  1.00  0.00     0.031 A 
ATOM     56  C   UNL A   1      47.366  27.336  29.048  1.00  0.00     0.031 A 
ATOM     57  C   UNL A   1      41.447  29.963  29.688  1.00  0.00     0.049 A 
ATOM     58  C   UNL A   1      46.888  28.696  29.464  1.00  0.00     0.074 A 
ATOM     59  C   UNL A   1      41.118  31.210  30.190  1.00  0.00     0.029 A 
ATOM     60  N   UNL A   1      42.831  29.885  29.686  1.00  0.00    -0.354 N 
ATOM     61  N   UNL A   1      45.659  29.136  29.579  1.00  0.00    -0.248 NA
ATOM     62  C   UNL A   1      47.921  29.688  29.792  1.00  0.00     0.031 C 
ATOM     63  C   UNL A   1      42.305  31.910  30.437  1.00  0.00     0.029 A 
ATOM     64  C   UNL A   1      43.373  31.079  30.137  1.00  0.00     0.049 A 
ATOM     65  H   UNL A   1      43.352  29.099  29.407  1.00  0.00     0.167 HD
ATOM     66  C   UNL A   1      45.768  30.455  29.999  1.00  0.00     0.074 A 
ATOM     67  C   UNL A   1      47.184  30.734  30.139  1.00  0.00     0.031 C 
ATOM     68  C   UNL A   1      44.783  31.353  30.243  1.00  0.00     0.031 A 
BRANCH  55  69
ATOM     69  C   UNL A   1      39.093  29.207  29.150  1.00  0.00    -0.014 A 
ATOM     70  C   UNL A   1      38.504  29.702  27.975  1.00  0.00     0.009 A 
ATOM     71  C   UNL A   1      38.278  28.964  30.266  1.00  0.00     0.009 A 
ATOM     72  C   UNL A   1      37.138  29.995  27.936  1.00  0.00     0.001 A 
ATOM     73  C   UNL A   1      36.908  29.231  30.216  1.00  0.00     0.001 A 
ATOM     74  C   UNL A   1      36.342  29.758  29.057  1.00  0.00     0.000 A 
ENDBRANCH  55  69
BRANCH  56  75
ATOM     75  C   UNL A   1      48.815  27.026  28.952  1.00  0.00    -0.014 A 
ATOM     76  C   UNL A   1      49.516  27.269  27.763  1.00  0.00     0.009 A 
ATOM     77  C   UNL A   1      49.511  26.530  30.066  1.00  0.00     0.009 A 
ATOM     78  C   UNL A   1      50.888  27.015  27.688  1.00  0.00     0.001 A 
ATOM     79  C   UNL A   1      50.887  26.301  29.996  1.00  0.00     0.001 A 
ATOM     80  C   UNL A   1      51.572  26.540  28.806  1.00  0.00     0.000 A 
ENDBRANCH  56  75
BRANCH  68  81
ATOM     81  C   UNL A   1      45.205  32.728  30.679  1.00  0.00    -0.014 A 
ATOM     82  C   UNL A   1      45.399  33.754  29.741  1.00  0.00     0.009 A 
ATOM     83  C   UNL A   1      45.374  33.011  32.042  1.00  0.00     0.009 A 
ATOM     84  C   UNL A   1      45.780  35.030  30.158  1.00  0.00     0.001 A 
ATOM     85  C   UNL A   1      45.730  34.294  32.460  1.00  0.00     0.001 A 
ATOM     86  C   UNL A   1      45.940  35.301  31.517  1.00  0.00     0.000 A 
ENDBRANCH  68  81
ENDBRANCH  42  43
ENDBRANCH  34  37
ENDBRANCH  32  33
ENDBRANCH  31  32
ENDBRANCH   1  31
TORSDOF 16
ENDMDL
