MODEL 1
REMARK VINA RESULT:     -11.9      0.000      0.000
REMARK SMILES CC(C)CCc1cc2c(cc1Cl)C=C(C(=O)NCCCNC(=O)c1ccc(-c3c4nc(c(-c5ccccc5)c5ccc([nH]5)c(-c5ccccc5)c5nc(c(-c6ccccc6)c6ccc3[nH]6)C=C5)C=C4)cc1)[C@H](C(F)(F)F)O2
REMARK SMILES IDX 18 1 17 2 15 3 16 4 14 6 6 7 7 8 11 9 8 10 10 11 12 12 9 13
REMARK SMILES IDX 77 14 13 15 72 16 5 17 4 18 2 19 1 20 3 21 73 22 74 23 75 24
REMARK SMILES IDX 76 25 19 26 20 27 21 28 22 29 23 31 24 32 25 33 71 34 26 35
REMARK SMILES IDX 70 36 27 37 28 38 29 39 64 40 30 41 69 42 63 43 65 44 31 45
REMARK SMILES IDX 68 46 62 47 61 48 32 50 54 51 39 52 53 53 40 54 43 55 52 56
REMARK SMILES IDX 66 57 41 58 42 59 51 61 67 62 44 63 33 64 34 65 38 66 35 67
REMARK SMILES IDX 37 68 36 69 55 70 56 71 60 72 57 73 59 74 58 75 45 76 46 77
REMARK SMILES IDX 50 78 47 79 49 80 48 81
REMARK H PARENT 17 5 21 30 65 49 43 60
REMARK Flexibility Score: inf
ROOT
ATOM      1  C   UNL A   1      36.163  21.276  24.757  1.00  0.00     0.118 C 
ENDROOT
BRANCH   1   2
ATOM      2  N   UNL A   1      35.395  21.107  25.980  1.00  0.00    -0.352 N 
ATOM      3  C   UNL A   1      34.283  21.645  26.529  1.00  0.00     0.251 C 
ATOM      4  O   UNL A   1      33.938  21.154  27.607  1.00  0.00    -0.270 OA
ATOM      5  H   UNL A   1      35.790  20.419  26.563  1.00  0.00     0.163 HD
BRANCH   3   6
ATOM      6  C   UNL A   1      33.476  22.743  25.926  1.00  0.00     0.067 C 
ATOM      7  C   UNL A   1      31.828  27.323  24.533  1.00  0.00    -0.026 A 
ATOM      8  C   UNL A   1      31.333  26.011  24.422  1.00  0.00     0.052 A 
ATOM      9  C   UNL A   1      33.038  27.511  25.224  1.00  0.00     0.045 A 
ATOM     10  C   UNL A   1      32.038  24.925  24.943  1.00  0.00     0.128 A 
ATOM     11  C   UNL A   1      33.750  26.416  25.730  1.00  0.00     0.032 A 
ATOM     12  Cl  UNL A   1      33.701  29.072  25.541  1.00  0.00    -0.084 Cl
ATOM     13  C   UNL A   1      33.250  25.120  25.594  1.00  0.00     0.019 A 
ATOM     14  O   UNL A   1      31.446  23.702  24.819  1.00  0.00    -0.475 OA
ATOM     15  C   UNL A   1      33.943  23.981  26.174  1.00  0.00     0.025 C 
ATOM     16  C   UNL A   1      32.292  22.537  25.022  1.00  0.00     0.314 C 
BRANCH   7  17
ATOM     17  C   UNL A   1      30.993  28.436  23.934  1.00  0.00     0.037 C 
BRANCH  17  18
ATOM     18  C   UNL A   1      29.623  28.059  23.347  1.00  0.00     0.008 C 
BRANCH  18  19
ATOM     19  C   UNL A   1      28.799  29.224  22.769  1.00  0.00    -0.017 C 
ATOM     20  C   UNL A   1      27.297  29.004  22.949  1.00  0.00     0.007 C 
ATOM     21  C   UNL A   1      29.225  30.535  23.435  1.00  0.00     0.007 C 
ENDBRANCH  18  19
ENDBRANCH  17  18
ENDBRANCH   7  17
BRANCH  16  22
ATOM     22  C   UNL A   1      32.651  21.924  23.660  1.00  0.00     0.429 C 
ATOM     23  F   UNL A   1      32.972  20.613  23.742  1.00  0.00    -0.167 F 
ATOM     24  F   UNL A   1      31.650  22.029  22.756  1.00  0.00    -0.167 F 
ATOM     25  F   UNL A   1      33.722  22.568  23.127  1.00  0.00    -0.167 F 
ENDBRANCH  16  22
ENDBRANCH   3   6
ENDBRANCH   1   2
BRANCH   1  26
ATOM     26  C   UNL A   1      37.331  20.298  24.697  1.00  0.00     0.042 C 
BRANCH  26  27
ATOM     27  C   UNL A   1      38.497  20.727  25.581  1.00  0.00     0.118 C 
BRANCH  27  28
ATOM     28  N   UNL A   1      39.528  19.699  25.661  1.00  0.00    -0.352 N 
ATOM     29  C   UNL A   1      40.860  19.807  25.984  1.00  0.00     0.251 C 
ATOM     30  H   UNL A   1      39.224  18.787  25.452  1.00  0.00     0.163 HD
ATOM     31  O   UNL A   1      41.620  18.868  25.758  1.00  0.00    -0.269 OA
BRANCH  29  32
ATOM     32  C   UNL A   1      41.384  21.055  26.578  1.00  0.00     0.039 A 
ATOM     33  C   UNL A   1      41.342  21.253  27.959  1.00  0.00     0.014 A 
ATOM     34  C   UNL A   1      41.926  22.040  25.748  1.00  0.00     0.014 A 
ATOM     35  C   UNL A   1      41.650  22.501  28.484  1.00  0.00     0.010 A 
ATOM     36  C   UNL A   1      42.343  23.257  26.295  1.00  0.00     0.010 A 
ATOM     37  C   UNL A   1      42.159  23.518  27.661  1.00  0.00    -0.014 A 
BRANCH  37  38
ATOM     38  C   UNL A   1      42.496  24.836  28.259  1.00  0.00     0.031 A 
ATOM     39  C   UNL A   1      43.917  25.182  28.617  1.00  0.00     0.074 A 
ATOM     40  C   UNL A   1      41.520  25.752  28.421  1.00  0.00     0.049 A 
ATOM     41  N   UNL A   1      44.388  26.295  29.121  1.00  0.00    -0.248 NA
ATOM     42  C   UNL A   1      44.940  24.149  28.387  1.00  0.00     0.031 C 
ATOM     43  C   UNL A   1      40.109  25.544  28.085  1.00  0.00     0.029 A 
ATOM     44  N   UNL A   1      41.566  27.047  28.870  1.00  0.00    -0.354 N 
ATOM     45  C   UNL A   1      45.753  26.091  29.283  1.00  0.00     0.074 A 
ATOM     46  C   UNL A   1      46.030  24.735  28.861  1.00  0.00     0.031 C 
ATOM     47  C   UNL A   1      39.441  26.690  28.270  1.00  0.00     0.029 A 
ATOM     48  C   UNL A   1      40.352  27.688  28.817  1.00  0.00     0.049 A 
ATOM     49  H   UNL A   1      42.389  27.475  29.199  1.00  0.00     0.167 HD
ATOM     50  C   UNL A   1      46.691  26.959  29.731  1.00  0.00     0.031 A 
ATOM     51  C   UNL A   1      39.999  28.937  29.177  1.00  0.00     0.031 A 
ATOM     52  C   UNL A   1      46.410  28.310  30.140  1.00  0.00     0.049 A 
ATOM     53  C   UNL A   1      41.044  29.861  29.729  1.00  0.00     0.074 A 
ATOM     54  C   UNL A   1      47.297  29.269  30.596  1.00  0.00     0.029 A 
ATOM     55  N   UNL A   1      45.152  28.894  30.143  1.00  0.00    -0.354 N 
ATOM     56  N   UNL A   1      42.330  29.652  29.875  1.00  0.00    -0.248 NA
ATOM     57  C   UNL A   1      40.596  31.190  30.166  1.00  0.00     0.031 C 
ATOM     58  C   UNL A   1      46.568  30.408  30.942  1.00  0.00     0.029 A 
ATOM     59  C   UNL A   1      45.237  30.190  30.623  1.00  0.00     0.049 A 
ATOM     60  H   UNL A   1      44.323  28.453  29.849  1.00  0.00     0.167 HD
ATOM     61  C   UNL A   1      42.847  30.823  30.408  1.00  0.00     0.074 A 
ATOM     62  C   UNL A   1      41.740  31.748  30.539  1.00  0.00     0.031 C 
ATOM     63  C   UNL A   1      44.126  31.103  30.757  1.00  0.00     0.031 A 
BRANCH  50  64
ATOM     64  C   UNL A   1      48.116  26.479  29.821  1.00  0.00    -0.014 A 
ATOM     65  C   UNL A   1      48.966  26.606  28.711  1.00  0.00     0.009 A 
ATOM     66  C   UNL A   1      48.596  25.825  30.967  1.00  0.00     0.009 A 
ATOM     67  C   UNL A   1      50.260  26.078  28.740  1.00  0.00     0.001 A 
ATOM     68  C   UNL A   1      49.901  25.328  31.005  1.00  0.00     0.001 A 
ATOM     69  C   UNL A   1      50.728  25.446  29.889  1.00  0.00     0.000 A 
ENDBRANCH  50  64
BRANCH  51  70
ATOM     70  C   UNL A   1      38.584  29.365  29.006  1.00  0.00    -0.014 A 
ATOM     71  C   UNL A   1      37.678  29.281  30.077  1.00  0.00     0.009 A 
ATOM     72  C   UNL A   1      38.110  29.772  27.751  1.00  0.00     0.009 A 
ATOM     73  C   UNL A   1      36.323  29.552  29.886  1.00  0.00     0.001 A 
ATOM     74  C   UNL A   1      36.758  30.077  27.570  1.00  0.00     0.001 A 
ATOM     75  C   UNL A   1      35.864  29.952  28.634  1.00  0.00     0.000 A 
ENDBRANCH  51  70
BRANCH  63  76
ATOM     76  C   UNL A   1      44.424  32.468  31.312  1.00  0.00    -0.014 A 
ATOM     77  C   UNL A   1      44.824  33.499  30.444  1.00  0.00     0.009 A 
ATOM     78  C   UNL A   1      44.423  32.707  32.694  1.00  0.00     0.009 A 
ATOM     79  C   UNL A   1      45.240  34.731  30.951  1.00  0.00     0.001 A 
ATOM     80  C   UNL A   1      44.809  33.952  33.196  1.00  0.00     0.001 A 
ATOM     81  C   UNL A   1      45.228  34.958  32.326  1.00  0.00     0.000 A 
ENDBRANCH  63  76
ENDBRANCH  37  38
ENDBRANCH  29  32
ENDBRANCH  27  28
ENDBRANCH  26  27
ENDBRANCH   1  26
TORSDOF 14
ENDMDL
MODEL 2
REMARK VINA RESULT:     -11.8      0.208      5.880
REMARK SMILES CC(C)CCc1cc2c(cc1Cl)C=C(C(=O)NCCCNC(=O)c1ccc(-c3c4nc(c(-c5ccccc5)c5ccc([nH]5)c(-c5ccccc5)c5nc(c(-c6ccccc6)c6ccc3[nH]6)C=C5)C=C4)cc1)[C@H](C(F)(F)F)O2
REMARK SMILES IDX 18 1 17 2 15 3 16 4 14 6 6 7 7 8 11 9 8 10 10 11 12 12 9 13
REMARK SMILES IDX 77 14 13 15 72 16 5 17 4 18 2 19 1 20 3 21 73 22 74 23 75 24
REMARK SMILES IDX 76 25 19 26 20 27 21 28 22 29 23 31 24 32 25 33 71 34 26 35
REMARK SMILES IDX 70 36 27 37 28 38 29 39 64 40 30 41 69 42 63 43 65 44 31 45
REMARK SMILES IDX 68 46 62 47 61 48 32 50 54 51 39 52 53 53 40 54 43 55 52 56
REMARK SMILES IDX 66 57 41 58 42 59 51 61 67 62 44 63 33 64 34 65 38 66 35 67
REMARK SMILES IDX 37 68 36 69 55 70 56 71 60 72 57 73 59 74 58 75 45 76 46 77
REMARK SMILES IDX 50 78 47 79 49 80 48 81
REMARK H PARENT 17 5 21 30 65 49 43 60
REMARK Flexibility Score: inf
ROOT
ATOM      1  C   UNL A   1      36.163  21.380  24.790  1.00  0.00     0.118 C 
ENDROOT
BRANCH   1   2
ATOM      2  N   UNL A   1      35.394  21.180  26.007  1.00  0.00    -0.352 N 
ATOM      3  C   UNL A   1      34.272  21.693  26.561  1.00  0.00     0.251 C 
ATOM      4  O   UNL A   1      33.931  21.179  27.630  1.00  0.00    -0.270 OA
ATOM      5  H   UNL A   1      35.796  20.488  26.580  1.00  0.00     0.163 HD
BRANCH   3   6
ATOM      6  C   UNL A   1      33.453  22.790  25.974  1.00  0.00     0.067 C 
ATOM      7  C   UNL A   1      31.738  27.371  24.663  1.00  0.00    -0.026 A 
ATOM      8  C   UNL A   1      31.267  26.052  24.520  1.00  0.00     0.052 A 
ATOM      9  C   UNL A   1      32.938  27.564  25.369  1.00  0.00     0.045 A 
ATOM     10  C   UNL A   1      31.985  24.968  25.024  1.00  0.00     0.128 A 
ATOM     11  C   UNL A   1      33.665  26.470  25.858  1.00  0.00     0.032 A 
ATOM     12  Cl  UNL A   1      33.572  29.129  25.725  1.00  0.00    -0.084 Cl
ATOM     13  C   UNL A   1      33.188  25.170  25.690  1.00  0.00     0.019 A 
ATOM     14  O   UNL A   1      31.416  23.738  24.869  1.00  0.00    -0.475 OA
ATOM     15  C   UNL A   1      33.895  24.030  26.253  1.00  0.00     0.025 C 
ATOM     16  C   UNL A   1      32.280  22.583  25.056  1.00  0.00     0.314 C 
BRANCH   7  17
ATOM     17  C   UNL A   1      30.889  28.481  24.080  1.00  0.00     0.037 C 
BRANCH  17  18
ATOM     18  C   UNL A   1      29.872  28.102  22.993  1.00  0.00     0.008 C 
BRANCH  18  19
ATOM     19  C   UNL A   1      28.823  29.176  22.653  1.00  0.00    -0.017 C 
ATOM     20  C   UNL A   1      27.412  28.739  23.046  1.00  0.00     0.007 C 
ATOM     21  C   UNL A   1      29.184  30.487  23.355  1.00  0.00     0.007 C 
ENDBRANCH  18  19
ENDBRANCH  17  18
ENDBRANCH   7  17
BRANCH  16  22
ATOM     22  C   UNL A   1      32.661  22.005  23.684  1.00  0.00     0.429 C 
ATOM     23  F   UNL A   1      32.991  20.696  23.740  1.00  0.00    -0.167 F 
ATOM     24  F   UNL A   1      31.671  22.125  22.770  1.00  0.00    -0.167 F 
ATOM     25  F   UNL A   1      33.734  22.670  23.181  1.00  0.00    -0.167 F 
ENDBRANCH  16  22
ENDBRANCH   3   6
ENDBRANCH   1   2
BRANCH   1  26
ATOM     26  C   UNL A   1      37.339  20.414  24.713  1.00  0.00     0.042 C 
BRANCH  26  27
ATOM     27  C   UNL A   1      38.495  20.828  25.618  1.00  0.00     0.118 C 
BRANCH  27  28
ATOM     28  N   UNL A   1      39.504  19.781  25.726  1.00  0.00    -0.352 N 
ATOM     29  C   UNL A   1      40.840  19.871  26.035  1.00  0.00     0.251 C 
ATOM     30  H   UNL A   1      39.178  18.868  25.553  1.00  0.00     0.163 HD
ATOM     31  O   UNL A   1      41.578  18.907  25.837  1.00  0.00    -0.269 OA
BRANCH  29  32
ATOM     32  C   UNL A   1      41.397  21.127  26.578  1.00  0.00     0.039 A 
ATOM     33  C   UNL A   1      41.343  21.391  27.948  1.00  0.00     0.014 A 
ATOM     34  C   UNL A   1      41.981  22.055  25.711  1.00  0.00     0.014 A 
ATOM     35  C   UNL A   1      41.685  22.651  28.420  1.00  0.00     0.010 A 
ATOM     36  C   UNL A   1      42.431  23.282  26.208  1.00  0.00     0.010 A 
ATOM     37  C   UNL A   1      42.238  23.612  27.558  1.00  0.00    -0.014 A 
BRANCH  37  38
ATOM     38  C   UNL A   1      42.609  24.945  28.099  1.00  0.00     0.031 A 
ATOM     39  C   UNL A   1      41.568  26.013  28.307  1.00  0.00     0.074 A 
ATOM     40  C   UNL A   1      43.887  25.173  28.464  1.00  0.00     0.049 A 
ATOM     41  N   UNL A   1      41.715  27.219  28.794  1.00  0.00    -0.248 NA
ATOM     42  C   UNL A   1      40.186  25.690  27.917  1.00  0.00     0.031 C 
ATOM     43  C   UNL A   1      44.980  24.206  28.337  1.00  0.00     0.029 A 
ATOM     44  N   UNL A   1      44.476  26.265  29.049  1.00  0.00    -0.354 N 
ATOM     45  C   UNL A   1      40.455  27.803  28.752  1.00  0.00     0.074 A 
ATOM     46  C   UNL A   1      39.561  26.834  28.157  1.00  0.00     0.031 C 
ATOM     47  C   UNL A   1      46.086  24.720  28.894  1.00  0.00     0.029 A 
ATOM     48  C   UNL A   1      45.806  26.080  29.339  1.00  0.00     0.049 A 
ATOM     49  H   UNL A   1      43.992  27.100  29.241  1.00  0.00     0.167 HD
ATOM     50  C   UNL A   1      40.076  29.030  29.182  1.00  0.00     0.031 A 
ATOM     51  C   UNL A   1      46.710  26.910  29.891  1.00  0.00     0.031 A 
ATOM     52  C   UNL A   1      40.970  29.986  29.781  1.00  0.00     0.049 A 
ATOM     53  C   UNL A   1      46.281  28.287  30.303  1.00  0.00     0.074 A 
ATOM     54  C   UNL A   1      40.676  31.251  30.260  1.00  0.00     0.029 A 
ATOM     55  N   UNL A   1      42.327  29.786  29.986  1.00  0.00    -0.354 N 
ATOM     56  N   UNL A   1      45.085  28.823  30.257  1.00  0.00    -0.248 NA
ATOM     57  C   UNL A   1      47.320  29.176  30.843  1.00  0.00     0.031 C 
ATOM     58  C   UNL A   1      41.865  31.842  30.689  1.00  0.00     0.029 A 
ATOM     59  C   UNL A   1      42.888  30.917  30.555  1.00  0.00     0.049 A 
ATOM     60  H   UNL A   1      42.818  28.963  29.759  1.00  0.00     0.167 HD
ATOM     61  C   UNL A   1      45.223  30.104  30.770  1.00  0.00     0.074 A 
ATOM     62  C   UNL A   1      46.614  30.259  31.143  1.00  0.00     0.031 C 
ATOM     63  C   UNL A   1      44.278  31.064  30.917  1.00  0.00     0.031 A 
BRANCH  50  64
ATOM     64  C   UNL A   1      38.634  29.428  29.009  1.00  0.00    -0.014 A 
ATOM     65  C   UNL A   1      37.742  29.301  30.087  1.00  0.00     0.009 A 
ATOM     66  C   UNL A   1      38.135  29.845  27.765  1.00  0.00     0.009 A 
ATOM     67  C   UNL A   1      36.381  29.570  29.920  1.00  0.00     0.001 A 
ATOM     68  C   UNL A   1      36.778  30.146  27.610  1.00  0.00     0.001 A 
ATOM     69  C   UNL A   1      35.902  29.998  28.685  1.00  0.00     0.000 A 
ENDBRANCH  50  64
BRANCH  51  70
ATOM     70  C   UNL A   1      48.105  26.431  30.087  1.00  0.00    -0.014 A 
ATOM     71  C   UNL A   1      49.033  26.488  29.033  1.00  0.00     0.009 A 
ATOM     72  C   UNL A   1      48.490  25.833  31.295  1.00  0.00     0.009 A 
ATOM     73  C   UNL A   1      50.300  25.918  29.169  1.00  0.00     0.001 A 
ATOM     74  C   UNL A   1      49.772  25.294  31.441  1.00  0.00     0.001 A 
ATOM     75  C   UNL A   1      50.669  25.323  30.373  1.00  0.00     0.000 A 
ENDBRANCH  51  70
BRANCH  63  76
ATOM     76  C   UNL A   1      44.695  32.380  31.515  1.00  0.00    -0.014 A 
ATOM     77  C   UNL A   1      44.655  32.553  32.909  1.00  0.00     0.009 A 
ATOM     78  C   UNL A   1      45.013  33.478  30.702  1.00  0.00     0.009 A 
ATOM     79  C   UNL A   1      44.901  33.805  33.475  1.00  0.00     0.001 A 
ATOM     80  C   UNL A   1      45.292  34.722  31.274  1.00  0.00     0.001 A 
ATOM     81  C   UNL A   1      45.223  34.887  32.658  1.00  0.00     0.000 A 
ENDBRANCH  63  76
ENDBRANCH  37  38
ENDBRANCH  29  32
ENDBRANCH  27  28
ENDBRANCH  26  27
ENDBRANCH   1  26
TORSDOF 14
ENDMDL
MODEL 3
REMARK VINA RESULT:     -11.7      4.448      9.350
REMARK SMILES CC(C)CCc1cc2c(cc1Cl)C=C(C(=O)NCCCNC(=O)c1ccc(-c3c4nc(c(-c5ccccc5)c5ccc([nH]5)c(-c5ccccc5)c5nc(c(-c6ccccc6)c6ccc3[nH]6)C=C5)C=C4)cc1)[C@H](C(F)(F)F)O2
REMARK SMILES IDX 18 1 17 2 15 3 16 4 14 6 6 7 7 8 11 9 8 10 10 11 12 12 9 13
REMARK SMILES IDX 77 14 13 15 72 16 5 17 4 18 2 19 1 20 3 21 73 22 74 23 75 24
REMARK SMILES IDX 76 25 19 26 20 27 21 28 22 29 23 31 24 32 25 33 71 34 26 35
REMARK SMILES IDX 70 36 27 37 28 38 29 39 64 40 30 41 69 42 63 43 65 44 31 45
REMARK SMILES IDX 68 46 62 47 61 48 32 50 54 51 39 52 53 53 40 54 43 55 52 56
REMARK SMILES IDX 66 57 41 58 42 59 51 61 67 62 44 63 33 64 34 65 38 66 35 67
REMARK SMILES IDX 37 68 36 69 55 70 56 71 60 72 57 73 59 74 58 75 45 76 46 77
REMARK SMILES IDX 50 78 47 79 49 80 48 81
REMARK H PARENT 17 5 21 30 65 49 43 60
REMARK Flexibility Score: inf
ROOT
ATOM      1  C   UNL A   1      31.478  30.764  26.259  1.00  0.00     0.118 C 
ENDROOT
BRANCH   1   2
ATOM      2  N   UNL A   1      31.025  30.403  24.926  1.00  0.00    -0.352 N 
ATOM      3  C   UNL A   1      31.021  29.295  24.151  1.00  0.00     0.251 C 
ATOM      4  O   UNL A   1      30.466  29.420  23.055  1.00  0.00    -0.270 OA
ATOM      5  H   UNL A   1      30.612  31.168  24.464  1.00  0.00     0.163 HD
BRANCH   3   6
ATOM      6  C   UNL A   1      31.613  27.982  24.533  1.00  0.00     0.067 C 
ATOM      7  C   UNL A   1      32.200  23.287  26.335  1.00  0.00    -0.026 A 
ATOM      8  C   UNL A   1      33.060  24.261  25.796  1.00  0.00     0.052 A 
ATOM      9  C   UNL A   1      30.845  23.627  26.497  1.00  0.00     0.045 A 
ATOM     10  C   UNL A   1      32.580  25.508  25.395  1.00  0.00     0.128 A 
ATOM     11  C   UNL A   1      30.365  24.874  26.078  1.00  0.00     0.032 A 
ATOM     12  Cl  UNL A   1      29.702  22.579  27.254  1.00  0.00    -0.084 Cl
ATOM     13  C   UNL A   1      31.233  25.820  25.529  1.00  0.00     0.019 A 
ATOM     14  O   UNL A   1      33.507  26.393  24.927  1.00  0.00    -0.475 OA
ATOM     15  C   UNL A   1      30.762  27.144  25.153  1.00  0.00     0.025 C 
ATOM     16  C   UNL A   1      33.008  27.540  24.186  1.00  0.00     0.314 C 
BRANCH   7  17
ATOM     17  C   UNL A   1      32.813  21.962  26.738  1.00  0.00     0.037 C 
BRANCH  17  18
ATOM     18  C   UNL A   1      33.372  21.069  25.620  1.00  0.00     0.008 C 
BRANCH  18  19
ATOM     19  C   UNL A   1      32.352  20.596  24.567  1.00  0.00    -0.017 C 
ATOM     20  C   UNL A   1      32.469  21.388  23.265  1.00  0.00     0.007 C 
ATOM     21  C   UNL A   1      32.548  19.102  24.297  1.00  0.00     0.007 C 
ENDBRANCH  18  19
ENDBRANCH  17  18
ENDBRANCH   7  17
BRANCH  16  22
ATOM     22  C   UNL A   1      33.230  27.311  22.682  1.00  0.00     0.429 C 
ATOM     23  F   UNL A   1      34.027  26.250  22.426  1.00  0.00    -0.167 F 
ATOM     24  F   UNL A   1      32.075  27.110  22.006  1.00  0.00    -0.167 F 
ATOM     25  F   UNL A   1      33.818  28.402  22.127  1.00  0.00    -0.167 F 
ENDBRANCH  16  22
ENDBRANCH   3   6
ENDBRANCH   1   2
BRANCH   1  26
ATOM     26  C   UNL A   1      31.374  32.266  26.491  1.00  0.00     0.042 C 
BRANCH  26  27
ATOM     27  C   UNL A   1      32.560  32.820  27.273  1.00  0.00     0.118 C 
BRANCH  27  28
ATOM     28  N   UNL A   1      32.371  34.221  27.632  1.00  0.00    -0.352 N 
ATOM     29  C   UNL A   1      32.995  34.978  28.595  1.00  0.00     0.251 C 
ATOM     30  H   UNL A   1      31.693  34.699  27.102  1.00  0.00     0.163 HD
ATOM     31  O   UNL A   1      32.527  36.071  28.909  1.00  0.00    -0.269 OA
BRANCH  29  32
ATOM     32  C   UNL A   1      34.209  34.473  29.269  1.00  0.00     0.039 A 
ATOM     33  C   UNL A   1      35.462  34.618  28.673  1.00  0.00     0.014 A 
ATOM     34  C   UNL A   1      34.097  33.848  30.514  1.00  0.00     0.014 A 
ATOM     35  C   UNL A   1      36.562  33.968  29.216  1.00  0.00     0.010 A 
ATOM     36  C   UNL A   1      35.229  33.292  31.117  1.00  0.00     0.010 A 
ATOM     37  C   UNL A   1      36.462  33.301  30.447  1.00  0.00    -0.014 A 
BRANCH  37  38
ATOM     38  C   UNL A   1      37.663  32.630  31.010  1.00  0.00     0.031 A 
ATOM     39  C   UNL A   1      38.256  33.078  32.319  1.00  0.00     0.074 A 
ATOM     40  C   UNL A   1      38.186  31.569  30.364  1.00  0.00     0.049 A 
ATOM     41  N   UNL A   1      39.283  32.587  32.966  1.00  0.00    -0.248 NA
ATOM     42  C   UNL A   1      37.620  34.224  32.990  1.00  0.00     0.031 C 
ATOM     43  C   UNL A   1      37.682  31.024  29.101  1.00  0.00     0.029 A 
ATOM     44  N   UNL A   1      39.225  30.736  30.693  1.00  0.00    -0.354 N 
ATOM     45  C   UNL A   1      39.427  33.371  34.104  1.00  0.00     0.074 A 
ATOM     46  C   UNL A   1      38.406  34.394  34.043  1.00  0.00     0.031 C 
ATOM     47  C   UNL A   1      38.363  29.910  28.801  1.00  0.00     0.029 A 
ATOM     48  C   UNL A   1      39.405  29.707  29.801  1.00  0.00     0.049 A 
ATOM     49  H   UNL A   1      39.786  30.863  31.491  1.00  0.00     0.167 HD
ATOM     50  C   UNL A   1      40.320  33.241  35.114  1.00  0.00     0.031 A 
ATOM     51  C   UNL A   1      40.313  28.713  29.775  1.00  0.00     0.031 A 
ATOM     52  C   UNL A   1      41.327  32.215  35.172  1.00  0.00     0.049 A 
ATOM     53  C   UNL A   1      41.332  28.626  30.873  1.00  0.00     0.074 A 
ATOM     54  C   UNL A   1      42.270  31.994  36.162  1.00  0.00     0.029 A 
ATOM     55  N   UNL A   1      41.525  31.239  34.207  1.00  0.00    -0.354 N 
ATOM     56  N   UNL A   1      41.454  29.376  31.942  1.00  0.00    -0.248 NA
ATOM     57  C   UNL A   1      42.339  27.562  30.765  1.00  0.00     0.031 C 
ATOM     58  C   UNL A   1      43.081  30.931  35.763  1.00  0.00     0.029 A 
ATOM     59  C   UNL A   1      42.594  30.434  34.564  1.00  0.00     0.049 A 
ATOM     60  H   UNL A   1      40.985  31.134  33.390  1.00  0.00     0.167 HD
ATOM     61  C   UNL A   1      42.539  28.869  32.640  1.00  0.00     0.074 A 
ATOM     62  C   UNL A   1      43.029  27.733  31.885  1.00  0.00     0.031 C 
ATOM     63  C   UNL A   1      43.080  29.309  33.802  1.00  0.00     0.031 A 
BRANCH  50  64
ATOM     64  C   UNL A   1      40.269  34.241  36.239  1.00  0.00    -0.014 A 
ATOM     65  C   UNL A   1      39.428  34.009  37.340  1.00  0.00     0.009 A 
ATOM     66  C   UNL A   1      40.980  35.450  36.176  1.00  0.00     0.009 A 
ATOM     67  C   UNL A   1      39.290  34.969  38.345  1.00  0.00     0.001 A 
ATOM     68  C   UNL A   1      40.866  36.394  37.200  1.00  0.00     0.001 A 
ATOM     69  C   UNL A   1      40.014  36.157  38.278  1.00  0.00     0.000 A 
ENDBRANCH  50  64
BRANCH  51  70
ATOM     70  C   UNL A   1      40.270  27.724  28.664  1.00  0.00    -0.014 A 
ATOM     71  C   UNL A   1      39.597  26.501  28.822  1.00  0.00     0.009 A 
ATOM     72  C   UNL A   1      40.976  27.958  27.475  1.00  0.00     0.009 A 
ATOM     73  C   UNL A   1      39.668  25.517  27.836  1.00  0.00     0.001 A 
ATOM     74  C   UNL A   1      41.017  26.984  26.474  1.00  0.00     0.001 A 
ATOM     75  C   UNL A   1      40.376  25.759  26.661  1.00  0.00     0.000 A 
ENDBRANCH  51  70
BRANCH  63  76
ATOM     76  C   UNL A   1      44.264  28.566  34.355  1.00  0.00    -0.014 A 
ATOM     77  C   UNL A   1      45.561  28.928  33.954  1.00  0.00     0.009 A 
ATOM     78  C   UNL A   1      44.097  27.441  35.177  1.00  0.00     0.009 A 
ATOM     79  C   UNL A   1      46.663  28.165  34.344  1.00  0.00     0.001 A 
ATOM     80  C   UNL A   1      45.204  26.699  35.592  1.00  0.00     0.001 A 
ATOM     81  C   UNL A   1      46.484  27.054  35.166  1.00  0.00     0.000 A 
ENDBRANCH  63  76
ENDBRANCH  37  38
ENDBRANCH  29  32
ENDBRANCH  27  28
ENDBRANCH  26  27
ENDBRANCH   1  26
TORSDOF 14
ENDMDL
