MODEL 1
REMARK VINA RESULT:     -11.8      0.000      0.000
REMARK SMILES Cc1c(C#N)c2ccccc2n1CC(=O)N1CC[C@H](O)C[C@@H]1C(=O)NCCCNC(=O)c1ccc(-c2c3nc(c(-c4ccccc4)c4ccc([nH]4)c(-c4ccccc4)c4nc(c(-c5ccccc5)c5ccc2[nH]5)C=C4)C=C3)cc1
REMARK SMILES IDX 26 1 25 2 23 3 24 4 22 6 16 7 17 8 18 9 21 10 19 11 14 12
REMARK SMILES IDX 15 13 13 14 12 15 1 16 2 17 3 18 6 19 11 20 7 21 10 22 8 23
REMARK SMILES IDX 9 24 4 25 5 26 20 27 27 29 28 30 29 31 30 32 31 34 32 35
REMARK SMILES IDX 33 36 79 37 34 38 78 39 35 40 36 41 37 42 72 43 38 44 77 45
REMARK SMILES IDX 71 46 73 47 39 48 76 49 70 50 69 51 40 53 62 54 47 55 61 56
REMARK SMILES IDX 48 57 51 58 60 59 74 60 49 61 50 62 59 64 75 65 52 66 41 67
REMARK SMILES IDX 42 68 46 69 43 70 45 71 44 72 63 73 64 74 68 75 65 76 67 77
REMARK SMILES IDX 66 78 53 79 54 80 58 81 55 82 57 83 56 84
REMARK H PARENT 25 5 20 28 29 33 73 52 51 63
REMARK Flexibility Score: inf
ROOT
ATOM      1  C   UNL A   1      32.761  27.641  25.487  1.00  0.00     0.117 C 
ENDROOT
BRANCH   1   2
ATOM      2  N   UNL A   1      33.182  27.017  24.249  1.00  0.00    -0.354 N 
ATOM      3  C   UNL A   1      33.593  25.751  23.991  1.00  0.00     0.242 C 
ATOM      4  O   UNL A   1      34.006  25.541  22.847  1.00  0.00    -0.273 OA
ATOM      5  H   UNL A   1      33.165  27.611  23.465  1.00  0.00     0.163 HD
BRANCH   3   6
ATOM      6  C   UNL A   1      33.498  24.643  25.071  1.00  0.00     0.177 C 
ATOM      7  N   UNL A   1      34.444  23.546  24.752  1.00  0.00    -0.329 N 
ATOM      8  C   UNL A   1      34.087  22.743  23.576  1.00  0.00     0.123 C 
ATOM      9  C   UNL A   1      32.674  22.179  23.689  1.00  0.00     0.053 C 
ATOM     10  C   UNL A   1      32.086  24.074  25.238  1.00  0.00     0.067 C 
ATOM     11  C   UNL A   1      31.646  23.247  24.035  1.00  0.00     0.118 C 
BRANCH   7  12
ATOM     12  C   UNL A   1      35.543  23.375  25.578  1.00  0.00     0.243 C 
ATOM     13  O   UNL A   1      35.372  23.054  26.764  1.00  0.00    -0.273 OA
BRANCH  12  14
ATOM     14  C   UNL A   1      36.960  23.747  25.159  1.00  0.00     0.222 C 
BRANCH  14  15
ATOM     15  N   UNL A   1      38.080  23.110  25.835  1.00  0.00    -0.334 N 
ATOM     16  C   UNL A   1      37.767  20.799  24.828  1.00  0.00     0.066 C 
ATOM     17  C   UNL A   1      38.483  21.795  25.678  1.00  0.00     0.034 A 
ATOM     18  C   UNL A   1      39.656  21.648  26.401  1.00  0.00     0.080 A 
ATOM     19  C   UNL A   1      39.956  22.883  27.041  1.00  0.00     0.018 A 
ATOM     20  C   UNL A   1      38.937  23.777  26.703  1.00  0.00     0.050 A 
ATOM     21  C   UNL A   1      41.017  23.338  27.854  1.00  0.00     0.012 A 
ATOM     22  C   UNL A   1      38.938  25.106  27.163  1.00  0.00     0.027 A 
ATOM     23  C   UNL A   1      41.029  24.661  28.305  1.00  0.00     0.001 A 
ATOM     24  C   UNL A   1      40.000  25.530  27.966  1.00  0.00     0.002 A 
BRANCH  18  25
ATOM     25  C   UNL A   1      40.460  20.458  26.447  1.00  0.00     0.102 C 
ATOM     26  N   UNL A   1      41.086  19.489  26.491  1.00  0.00    -0.192 NA
ENDBRANCH  18  25
ENDBRANCH  14  15
ENDBRANCH  12  14
ENDBRANCH   7  12
BRANCH  11  27
ATOM     27  O   UNL A   1      31.368  24.092  22.922  1.00  0.00    -0.393 OA
ATOM     28  H   UNL A   1      30.610  23.741  22.430  1.00  0.00     0.210 HD
ENDBRANCH  11  27
ENDBRANCH   3   6
ENDBRANCH   1   2
BRANCH   1  29
ATOM     29  C   UNL A   1      33.430  28.999  25.682  1.00  0.00     0.042 C 
BRANCH  29  30
ATOM     30  C   UNL A   1      33.685  29.361  27.146  1.00  0.00     0.118 C 
BRANCH  30  31
ATOM     31  N   UNL A   1      33.977  30.760  27.368  1.00  0.00    -0.352 N 
ATOM     32  C   UNL A   1      35.112  31.444  27.694  1.00  0.00     0.251 C 
ATOM     33  H   UNL A   1      33.190  31.342  27.261  1.00  0.00     0.163 HD
ATOM     34  O   UNL A   1      35.076  32.668  27.545  1.00  0.00    -0.269 OA
BRANCH  32  35
ATOM     35  C   UNL A   1      36.302  30.838  28.342  1.00  0.00     0.039 A 
ATOM     36  C   UNL A   1      37.239  31.516  29.122  1.00  0.00     0.014 A 
ATOM     37  C   UNL A   1      36.558  29.503  27.983  1.00  0.00     0.014 A 
ATOM     38  C   UNL A   1      38.504  30.973  29.299  1.00  0.00     0.010 A 
ATOM     39  C   UNL A   1      37.795  28.934  28.213  1.00  0.00     0.010 A 
ATOM     40  C   UNL A   1      38.799  29.723  28.749  1.00  0.00    -0.014 A 
BRANCH  40  41
ATOM     41  C   UNL A   1      40.140  29.177  28.896  1.00  0.00     0.031 A 
ATOM     42  C   UNL A   1      40.435  28.839  30.314  1.00  0.00     0.074 A 
ATOM     43  C   UNL A   1      40.953  28.922  27.846  1.00  0.00     0.049 A 
ATOM     44  N   UNL A   1      41.280  29.429  31.091  1.00  0.00    -0.248 NA
ATOM     45  C   UNL A   1      39.536  27.903  31.014  1.00  0.00     0.031 C 
ATOM     46  C   UNL A   1      40.667  29.030  26.410  1.00  0.00     0.029 A 
ATOM     47  N   UNL A   1      42.227  28.435  27.839  1.00  0.00    -0.354 N 
ATOM     48  C   UNL A   1      41.181  28.782  32.319  1.00  0.00     0.074 A 
ATOM     49  C   UNL A   1      39.976  27.999  32.269  1.00  0.00     0.031 C 
ATOM     50  C   UNL A   1      41.626  28.384  25.699  1.00  0.00     0.029 A 
ATOM     51  C   UNL A   1      42.675  27.956  26.605  1.00  0.00     0.049 A 
ATOM     52  H   UNL A   1      42.790  28.422  28.646  1.00  0.00     0.167 HD
ATOM     53  C   UNL A   1      42.244  28.740  33.166  1.00  0.00     0.031 A 
ATOM     54  C   UNL A   1      43.821  27.256  26.366  1.00  0.00     0.031 A 
ATOM     55  C   UNL A   1      43.218  29.741  32.818  1.00  0.00     0.049 A 
ATOM     56  C   UNL A   1      44.720  27.504  27.518  1.00  0.00     0.074 A 
ATOM     57  C   UNL A   1      43.234  31.120  32.817  1.00  0.00     0.029 A 
ATOM     58  N   UNL A   1      44.226  29.338  31.977  1.00  0.00    -0.354 N 
ATOM     59  N   UNL A   1      45.233  28.673  27.775  1.00  0.00    -0.248 NA
ATOM     60  C   UNL A   1      44.609  26.592  28.645  1.00  0.00     0.031 C 
ATOM     61  C   UNL A   1      43.940  31.474  31.633  1.00  0.00     0.029 A 
ATOM     62  C   UNL A   1      44.424  30.309  31.033  1.00  0.00     0.049 A 
ATOM     63  H   UNL A   1      44.723  28.490  32.043  1.00  0.00     0.167 HD
ATOM     64  C   UNL A   1      45.083  28.818  29.145  1.00  0.00     0.074 A 
ATOM     65  C   UNL A   1      44.728  27.482  29.634  1.00  0.00     0.031 C 
ATOM     66  C   UNL A   1      44.948  30.053  29.709  1.00  0.00     0.031 A 
BRANCH  53  67
ATOM     67  C   UNL A   1      42.603  27.524  33.983  1.00  0.00    -0.014 A 
ATOM     68  C   UNL A   1      41.888  27.106  35.121  1.00  0.00     0.009 A 
ATOM     69  C   UNL A   1      43.518  26.600  33.444  1.00  0.00     0.009 A 
ATOM     70  C   UNL A   1      42.053  25.835  35.679  1.00  0.00     0.001 A 
ATOM     71  C   UNL A   1      43.661  25.314  33.977  1.00  0.00     0.001 A 
ATOM     72  C   UNL A   1      42.925  24.931  35.092  1.00  0.00     0.000 A 
ENDBRANCH  53  67
BRANCH  54  73
ATOM     73  C   UNL A   1      44.004  26.028  25.538  1.00  0.00    -0.014 A 
ATOM     74  C   UNL A   1      42.935  25.131  25.370  1.00  0.00     0.009 A 
ATOM     75  C   UNL A   1      45.295  25.559  25.215  1.00  0.00     0.009 A 
ATOM     76  C   UNL A   1      43.148  23.808  24.954  1.00  0.00     0.001 A 
ATOM     77  C   UNL A   1      45.507  24.234  24.793  1.00  0.00     0.001 A 
ATOM     78  C   UNL A   1      44.434  23.353  24.682  1.00  0.00     0.000 A 
ENDBRANCH  54  73
BRANCH  66  79
ATOM     79  C   UNL A   1      45.177  31.277  28.850  1.00  0.00    -0.014 A 
ATOM     80  C   UNL A   1      46.407  31.934  29.003  1.00  0.00     0.009 A 
ATOM     81  C   UNL A   1      44.173  31.913  28.094  1.00  0.00     0.009 A 
ATOM     82  C   UNL A   1      46.621  33.205  28.468  1.00  0.00     0.001 A 
ATOM     83  C   UNL A   1      44.399  33.177  27.530  1.00  0.00     0.001 A 
ATOM     84  C   UNL A   1      45.617  33.828  27.734  1.00  0.00     0.000 A 
ENDBRANCH  66  79
ENDBRANCH  40  41
ENDBRANCH  32  35
ENDBRANCH  30  31
ENDBRANCH  29  30
ENDBRANCH   1  29
TORSDOF 15
ENDMDL
MODEL 2
REMARK VINA RESULT:     -11.7      2.039      7.979
REMARK SMILES Cc1c(C#N)c2ccccc2n1CC(=O)N1CC[C@H](O)C[C@@H]1C(=O)NCCCNC(=O)c1ccc(-c2c3nc(c(-c4ccccc4)c4ccc([nH]4)c(-c4ccccc4)c4nc(c(-c5ccccc5)c5ccc2[nH]5)C=C4)C=C3)cc1
REMARK SMILES IDX 26 1 25 2 23 3 24 4 22 6 16 7 17 8 18 9 21 10 19 11 14 12
REMARK SMILES IDX 15 13 13 14 12 15 1 16 2 17 3 18 6 19 11 20 7 21 10 22 8 23
REMARK SMILES IDX 9 24 4 25 5 26 20 27 27 29 28 30 29 31 30 32 31 34 32 35
REMARK SMILES IDX 33 36 79 37 34 38 78 39 35 40 36 41 37 42 72 43 38 44 77 45
REMARK SMILES IDX 71 46 73 47 39 48 76 49 70 50 69 51 40 53 62 54 47 55 61 56
REMARK SMILES IDX 48 57 51 58 60 59 74 60 49 61 50 62 59 64 75 65 52 66 41 67
REMARK SMILES IDX 42 68 46 69 43 70 45 71 44 72 63 73 64 74 68 75 65 76 67 77
REMARK SMILES IDX 66 78 53 79 54 80 58 81 55 82 57 83 56 84
REMARK H PARENT 25 5 20 28 29 33 73 52 51 63
REMARK Flexibility Score: inf
ROOT
ATOM      1  C   UNL A   1      34.907  23.304  24.860  1.00  0.00     0.117 C 
ENDROOT
BRANCH   1   2
ATOM      2  N   UNL A   1      33.730  23.538  25.672  1.00  0.00    -0.354 N 
ATOM      3  C   UNL A   1      32.885  24.597  25.720  1.00  0.00     0.242 C 
ATOM      4  O   UNL A   1      32.027  24.563  26.607  1.00  0.00    -0.273 OA
ATOM      5  H   UNL A   1      33.507  22.807  26.290  1.00  0.00     0.163 HD
BRANCH   3   6
ATOM      6  C   UNL A   1      32.981  25.747  24.684  1.00  0.00     0.177 C 
ATOM      7  N   UNL A   1      32.511  27.015  25.294  1.00  0.00    -0.329 N 
ATOM      8  C   UNL A   1      31.069  27.076  25.560  1.00  0.00     0.123 C 
ATOM      9  C   UNL A   1      30.253  26.781  24.306  1.00  0.00     0.053 C 
ATOM     10  C   UNL A   1      32.201  25.474  23.395  1.00  0.00     0.067 C 
ATOM     11  C   UNL A   1      30.692  25.500  23.612  1.00  0.00     0.118 C 
BRANCH   7  12
ATOM     12  C   UNL A   1      33.450  28.005  25.537  1.00  0.00     0.243 C 
ATOM     13  O   UNL A   1      34.010  28.564  24.582  1.00  0.00    -0.273 OA
BRANCH  12  14
ATOM     14  C   UNL A   1      33.976  28.322  26.931  1.00  0.00     0.222 C 
BRANCH  14  15
ATOM     15  N   UNL A   1      34.289  29.703  27.265  1.00  0.00    -0.334 N 
ATOM     16  C   UNL A   1      31.965  30.645  26.861  1.00  0.00     0.066 C 
ATOM     17  C   UNL A   1      33.395  30.760  27.273  1.00  0.00     0.034 A 
ATOM     18  C   UNL A   1      34.078  31.858  27.770  1.00  0.00     0.080 A 
ATOM     19  C   UNL A   1      35.422  31.477  28.037  1.00  0.00     0.018 A 
ATOM     20  C   UNL A   1      35.545  30.131  27.679  1.00  0.00     0.050 A 
ATOM     21  C   UNL A   1      36.545  32.141  28.578  1.00  0.00     0.012 A 
ATOM     22  C   UNL A   1      36.756  29.433  27.835  1.00  0.00     0.027 A 
ATOM     23  C   UNL A   1      37.748  31.449  28.745  1.00  0.00     0.001 A 
ATOM     24  C   UNL A   1      37.851  30.114  28.374  1.00  0.00     0.002 A 
BRANCH  18  25
ATOM     25  C   UNL A   1      33.502  33.149  28.024  1.00  0.00     0.102 C 
ATOM     26  N   UNL A   1      33.017  34.177  28.226  1.00  0.00    -0.192 NA
ENDBRANCH  18  25
ENDBRANCH  14  15
ENDBRANCH  12  14
ENDBRANCH   7  12
BRANCH  11  27
ATOM     27  O   UNL A   1      30.270  24.341  24.326  1.00  0.00    -0.393 OA
ATOM     28  H   UNL A   1      30.752  24.285  25.165  1.00  0.00     0.210 HD
ENDBRANCH  11  27
ENDBRANCH   3   6
ENDBRANCH   1   2
BRANCH   1  29
ATOM     29  C   UNL A   1      36.022  22.651  25.672  1.00  0.00     0.042 C 
BRANCH  29  30
ATOM     30  C   UNL A   1      37.426  23.119  25.286  1.00  0.00     0.118 C 
BRANCH  30  31
ATOM     31  N   UNL A   1      38.492  22.317  25.845  1.00  0.00    -0.352 N 
ATOM     32  C   UNL A   1      39.479  22.565  26.755  1.00  0.00     0.251 C 
ATOM     33  H   UNL A   1      38.510  21.397  25.494  1.00  0.00     0.163 HD
ATOM     34  O   UNL A   1      40.063  21.580  27.212  1.00  0.00    -0.269 OA
BRANCH  32  35
ATOM     35  C   UNL A   1      39.979  23.918  27.105  1.00  0.00     0.039 A 
ATOM     36  C   UNL A   1      41.245  24.213  27.613  1.00  0.00     0.014 A 
ATOM     37  C   UNL A   1      39.013  24.938  27.058  1.00  0.00     0.014 A 
ATOM     38  C   UNL A   1      41.446  25.401  28.302  1.00  0.00     0.010 A 
ATOM     39  C   UNL A   1      39.231  26.148  27.688  1.00  0.00     0.010 A 
ATOM     40  C   UNL A   1      40.396  26.315  28.420  1.00  0.00    -0.014 A 
BRANCH  40  41
ATOM     41  C   UNL A   1      40.596  27.538  29.181  1.00  0.00     0.031 A 
ATOM     42  C   UNL A   1      41.563  28.445  28.508  1.00  0.00     0.074 A 
ATOM     43  C   UNL A   1      39.898  27.833  30.303  1.00  0.00     0.049 A 
ATOM     44  N   UNL A   1      42.748  28.753  28.915  1.00  0.00    -0.248 NA
ATOM     45  C   UNL A   1      41.280  28.870  27.124  1.00  0.00     0.031 C 
ATOM     46  C   UNL A   1      38.787  27.097  30.917  1.00  0.00     0.029 A 
ATOM     47  N   UNL A   1      39.996  28.920  31.119  1.00  0.00    -0.354 N 
ATOM     48  C   UNL A   1      43.274  29.600  27.945  1.00  0.00     0.074 A 
ATOM     49  C   UNL A   1      42.419  29.480  26.795  1.00  0.00     0.031 C 
ATOM     50  C   UNL A   1      38.164  27.882  31.832  1.00  0.00     0.029 A 
ATOM     51  C   UNL A   1      38.919  29.111  31.989  1.00  0.00     0.049 A 
ATOM     52  H   UNL A   1      40.770  29.528  31.096  1.00  0.00     0.167 HD
ATOM     53  C   UNL A   1      44.212  30.529  28.273  1.00  0.00     0.031 A 
ATOM     54  C   UNL A   1      38.678  30.205  32.766  1.00  0.00     0.031 A 
ATOM     55  C   UNL A   1      44.822  30.219  29.539  1.00  0.00     0.049 A 
ATOM     56  C   UNL A   1      39.966  30.928  32.895  1.00  0.00     0.074 A 
ATOM     57  C   UNL A   1      45.624  29.199  30.005  1.00  0.00     0.029 A 
ATOM     58  N   UNL A   1      44.256  30.807  30.643  1.00  0.00    -0.354 N 
ATOM     59  N   UNL A   1      40.992  30.437  33.528  1.00  0.00    -0.248 NA
ATOM     60  C   UNL A   1      40.258  31.932  31.884  1.00  0.00     0.031 C 
ATOM     61  C   UNL A   1      45.146  28.931  31.318  1.00  0.00     0.029 A 
ATOM     62  C   UNL A   1      44.163  29.872  31.638  1.00  0.00     0.049 A 
ATOM     63  H   UNL A   1      43.965  31.745  30.707  1.00  0.00     0.167 HD
ATOM     64  C   UNL A   1      42.068  30.713  32.700  1.00  0.00     0.074 A 
ATOM     65  C   UNL A   1      41.558  31.674  31.718  1.00  0.00     0.031 C 
ATOM     66  C   UNL A   1      43.170  29.908  32.690  1.00  0.00     0.031 A 
BRANCH  53  67
ATOM     67  C   UNL A   1      44.235  31.921  27.692  1.00  0.00    -0.014 A 
ATOM     68  C   UNL A   1      44.529  32.204  26.345  1.00  0.00     0.009 A 
ATOM     69  C   UNL A   1      43.674  32.970  28.445  1.00  0.00     0.009 A 
ATOM     70  C   UNL A   1      44.258  33.449  25.769  1.00  0.00     0.001 A 
ATOM     71  C   UNL A   1      43.369  34.207  27.864  1.00  0.00     0.001 A 
ATOM     72  C   UNL A   1      43.658  34.444  26.525  1.00  0.00     0.000 A 
ENDBRANCH  53  67
BRANCH  54  73
ATOM     73  C   UNL A   1      37.395  30.942  32.963  1.00  0.00    -0.014 A 
ATOM     74  C   UNL A   1      36.402  30.895  31.970  1.00  0.00     0.009 A 
ATOM     75  C   UNL A   1      37.286  31.959  33.935  1.00  0.00     0.009 A 
ATOM     76  C   UNL A   1      35.378  31.853  31.912  1.00  0.00     0.001 A 
ATOM     77  C   UNL A   1      36.256  32.915  33.881  1.00  0.00     0.001 A 
ATOM     78  C   UNL A   1      35.314  32.872  32.856  1.00  0.00     0.000 A 
ENDBRANCH  54  73
BRANCH  66  79
ATOM     79  C   UNL A   1      43.297  28.831  33.745  1.00  0.00    -0.014 A 
ATOM     80  C   UNL A   1      44.284  29.019  34.724  1.00  0.00     0.009 A 
ATOM     81  C   UNL A   1      42.659  27.577  33.676  1.00  0.00     0.009 A 
ATOM     82  C   UNL A   1      44.666  27.983  35.576  1.00  0.00     0.001 A 
ATOM     83  C   UNL A   1      43.022  26.545  34.554  1.00  0.00     0.001 A 
ATOM     84  C   UNL A   1      44.037  26.745  35.491  1.00  0.00     0.000 A 
ENDBRANCH  66  79
ENDBRANCH  40  41
ENDBRANCH  32  35
ENDBRANCH  30  31
ENDBRANCH  29  30
ENDBRANCH   1  29
TORSDOF 15
ENDMDL
MODEL 3
REMARK VINA RESULT:     -11.6      2.017      3.500
REMARK SMILES Cc1c(C#N)c2ccccc2n1CC(=O)N1CC[C@H](O)C[C@@H]1C(=O)NCCCNC(=O)c1ccc(-c2c3nc(c(-c4ccccc4)c4ccc([nH]4)c(-c4ccccc4)c4nc(c(-c5ccccc5)c5ccc2[nH]5)C=C4)C=C3)cc1
REMARK SMILES IDX 26 1 25 2 23 3 24 4 22 6 16 7 17 8 18 9 21 10 19 11 14 12
REMARK SMILES IDX 15 13 13 14 12 15 1 16 2 17 3 18 6 19 11 20 7 21 10 22 8 23
REMARK SMILES IDX 9 24 4 25 5 26 20 27 27 29 28 30 29 31 30 32 31 34 32 35
REMARK SMILES IDX 33 36 79 37 34 38 78 39 35 40 36 41 37 42 72 43 38 44 77 45
REMARK SMILES IDX 71 46 73 47 39 48 76 49 70 50 69 51 40 53 62 54 47 55 61 56
REMARK SMILES IDX 48 57 51 58 60 59 74 60 49 61 50 62 59 64 75 65 52 66 41 67
REMARK SMILES IDX 42 68 46 69 43 70 45 71 44 72 63 73 64 74 68 75 65 76 67 77
REMARK SMILES IDX 66 78 53 79 54 80 58 81 55 82 57 83 56 84
REMARK H PARENT 25 5 20 28 29 33 73 52 51 63
REMARK Flexibility Score: inf
ROOT
ATOM      1  C   UNL A   1      33.537  29.481  26.861  1.00  0.00     0.117 C 
ENDROOT
BRANCH   1   2
ATOM      2  N   UNL A   1      33.665  29.699  25.435  1.00  0.00    -0.354 N 
ATOM      3  C   UNL A   1      33.392  28.884  24.387  1.00  0.00     0.242 C 
ATOM      4  O   UNL A   1      33.718  29.310  23.274  1.00  0.00    -0.273 OA
ATOM      5  H   UNL A   1      34.006  30.588  25.186  1.00  0.00     0.163 HD
BRANCH   3   6
ATOM      6  C   UNL A   1      32.674  27.526  24.594  1.00  0.00     0.177 C 
ATOM      7  N   UNL A   1      32.879  26.661  23.406  1.00  0.00    -0.329 N 
ATOM      8  C   UNL A   1      32.179  27.101  22.193  1.00  0.00     0.123 C 
ATOM      9  C   UNL A   1      30.684  27.281  22.440  1.00  0.00     0.053 C 
ATOM     10  C   UNL A   1      31.176  27.665  24.878  1.00  0.00     0.067 C 
ATOM     11  C   UNL A   1      30.395  28.144  23.659  1.00  0.00     0.118 C 
BRANCH   7  12
ATOM     12  C   UNL A   1      33.680  25.540  23.550  1.00  0.00     0.243 C 
ATOM     13  O   UNL A   1      33.998  24.882  22.547  1.00  0.00    -0.273 OA
BRANCH  12  14
ATOM     14  C   UNL A   1      34.045  24.952  24.907  1.00  0.00     0.222 C 
BRANCH  14  15
ATOM     15  N   UNL A   1      34.124  23.506  25.046  1.00  0.00    -0.334 N 
ATOM     16  C   UNL A   1      31.623  23.076  25.159  1.00  0.00     0.066 C 
ATOM     17  C   UNL A   1      33.049  22.637  25.129  1.00  0.00     0.034 A 
ATOM     18  C   UNL A   1      33.572  21.354  25.121  1.00  0.00     0.080 A 
ATOM     19  C   UNL A   1      34.991  21.439  25.070  1.00  0.00     0.018 A 
ATOM     20  C   UNL A   1      35.320  22.797  25.061  1.00  0.00     0.050 A 
ATOM     21  C   UNL A   1      36.032  20.488  25.000  1.00  0.00     0.012 A 
ATOM     22  C   UNL A   1      36.655  23.233  24.997  1.00  0.00     0.027 A 
ATOM     23  C   UNL A   1      37.361  20.915  24.926  1.00  0.00     0.001 A 
ATOM     24  C   UNL A   1      37.666  22.271  24.928  1.00  0.00     0.002 A 
BRANCH  18  25
ATOM     25  C   UNL A   1      32.799  20.143  25.109  1.00  0.00     0.102 C 
ATOM     26  N   UNL A   1      32.186  19.165  25.122  1.00  0.00    -0.192 NA
ENDBRANCH  18  25
ENDBRANCH  14  15
ENDBRANCH  12  14
ENDBRANCH   7  12
BRANCH  11  27
ATOM     27  O   UNL A   1      30.658  29.521  23.405  1.00  0.00    -0.393 OA
ATOM     28  H   UNL A   1      30.390  30.048  24.173  1.00  0.00     0.210 HD
ENDBRANCH  11  27
ENDBRANCH   3   6
ENDBRANCH   1   2
BRANCH   1  29
ATOM     29  C   UNL A   1      34.838  29.801  27.593  1.00  0.00     0.042 C 
BRANCH  29  30
ATOM     30  C   UNL A   1      35.061  31.294  27.839  1.00  0.00     0.118 C 
BRANCH  30  31
ATOM     31  N   UNL A   1      34.686  31.739  29.163  1.00  0.00    -0.352 N 
ATOM     32  C   UNL A   1      35.370  31.891  30.334  1.00  0.00     0.251 C 
ATOM     33  H   UNL A   1      33.734  31.985  29.235  1.00  0.00     0.163 HD
ATOM     34  O   UNL A   1      34.811  32.549  31.214  1.00  0.00    -0.269 OA
BRANCH  32  35
ATOM     35  C   UNL A   1      36.646  31.204  30.657  1.00  0.00     0.039 A 
ATOM     36  C   UNL A   1      37.922  31.757  30.543  1.00  0.00     0.014 A 
ATOM     37  C   UNL A   1      36.525  29.832  30.942  1.00  0.00     0.014 A 
ATOM     38  C   UNL A   1      39.024  30.921  30.441  1.00  0.00     0.010 A 
ATOM     39  C   UNL A   1      37.628  29.002  30.905  1.00  0.00     0.010 A 
ATOM     40  C   UNL A   1      38.848  29.536  30.522  1.00  0.00    -0.014 A 
BRANCH  40  41
ATOM     41  C   UNL A   1      39.999  28.660  30.369  1.00  0.00     0.031 A 
ATOM     42  C   UNL A   1      40.714  28.474  31.660  1.00  0.00     0.074 A 
ATOM     43  C   UNL A   1      40.297  28.026  29.212  1.00  0.00     0.049 A 
ATOM     44  N   UNL A   1      41.890  28.910  31.964  1.00  0.00    -0.248 NA
ATOM     45  C   UNL A   1      39.957  27.952  32.813  1.00  0.00     0.031 C 
ATOM     46  C   UNL A   1      39.534  27.989  27.958  1.00  0.00     0.029 A 
ATOM     47  N   UNL A   1      41.343  27.201  28.924  1.00  0.00    -0.354 N 
ATOM     48  C   UNL A   1      42.113  28.515  33.279  1.00  0.00     0.074 A 
ATOM     49  C   UNL A   1      40.836  28.110  33.802  1.00  0.00     0.031 C 
ATOM     50  C   UNL A   1      40.004  26.995  27.162  1.00  0.00     0.029 A 
ATOM     51  C   UNL A   1      41.195  26.431  27.768  1.00  0.00     0.049 A 
ATOM     52  H   UNL A   1      42.147  27.152  29.491  1.00  0.00     0.167 HD
ATOM     53  C   UNL A   1      43.377  28.302  33.732  1.00  0.00     0.031 A 
ATOM     54  C   UNL A   1      41.995  25.405  27.359  1.00  0.00     0.031 A 
ATOM     55  C   UNL A   1      44.345  28.918  32.863  1.00  0.00     0.049 A 
ATOM     56  C   UNL A   1      43.285  25.560  28.073  1.00  0.00     0.074 A 
ATOM     57  C   UNL A   1      44.654  30.218  32.522  1.00  0.00     0.029 A 
ATOM     58  N   UNL A   1      44.864  28.120  31.874  1.00  0.00    -0.354 N 
ATOM     59  N   UNL A   1      44.092  26.559  27.863  1.00  0.00    -0.248 NA
ATOM     60  C   UNL A   1      43.402  24.902  29.364  1.00  0.00     0.031 C 
ATOM     61  C   UNL A   1      44.934  30.170  31.127  1.00  0.00     0.029 A 
ATOM     62  C   UNL A   1      44.904  28.837  30.709  1.00  0.00     0.049 A 
ATOM     63  H   UNL A   1      45.157  27.187  31.984  1.00  0.00     0.167 HD
ATOM     64  C   UNL A   1      44.490  26.950  29.132  1.00  0.00     0.074 A 
ATOM     65  C   UNL A   1      44.063  25.862  30.017  1.00  0.00     0.031 C 
ATOM     66  C   UNL A   1      44.839  28.243  29.392  1.00  0.00     0.031 A 
BRANCH  53  67
ATOM     67  C   UNL A   1      43.742  27.175  34.666  1.00  0.00    -0.014 A 
ATOM     68  C   UNL A   1      43.828  27.311  36.064  1.00  0.00     0.009 A 
ATOM     69  C   UNL A   1      43.730  25.860  34.164  1.00  0.00     0.009 A 
ATOM     70  C   UNL A   1      43.874  26.207  36.919  1.00  0.00     0.001 A 
ATOM     71  C   UNL A   1      43.741  24.750  35.018  1.00  0.00     0.001 A 
ATOM     72  C   UNL A   1      43.809  24.925  36.395  1.00  0.00     0.000 A 
ENDBRANCH  53  67
BRANCH  54  73
ATOM     73  C   UNL A   1      41.595  24.064  26.840  1.00  0.00    -0.014 A 
ATOM     74  C   UNL A   1      40.578  23.339  27.484  1.00  0.00     0.009 A 
ATOM     75  C   UNL A   1      42.432  23.351  25.956  1.00  0.00     0.009 A 
ATOM     76  C   UNL A   1      40.435  21.955  27.301  1.00  0.00     0.001 A 
ATOM     77  C   UNL A   1      42.286  21.965  25.768  1.00  0.00     0.001 A 
ATOM     78  C   UNL A   1      41.298  21.265  26.457  1.00  0.00     0.000 A 
ENDBRANCH  54  73
BRANCH  66  79
ATOM     79  C   UNL A   1      44.992  29.204  28.233  1.00  0.00    -0.014 A 
ATOM     80  C   UNL A   1      46.299  29.447  27.784  1.00  0.00     0.009 A 
ATOM     81  C   UNL A   1      43.957  30.021  27.740  1.00  0.00     0.009 A 
ATOM     82  C   UNL A   1      46.581  30.500  26.913  1.00  0.00     0.001 A 
ATOM     83  C   UNL A   1      44.236  31.060  26.840  1.00  0.00     0.001 A 
ATOM     84  C   UNL A   1      45.551  31.308  26.442  1.00  0.00     0.000 A 
ENDBRANCH  66  79
ENDBRANCH  40  41
ENDBRANCH  32  35
ENDBRANCH  30  31
ENDBRANCH  29  30
ENDBRANCH   1  29
TORSDOF 15
ENDMDL
