MODEL 1
REMARK VINA RESULT:     -12.0      0.000      0.000
REMARK SMILES O=C(NCCCNC(=O)c1cccc(Nc2ccc([N+](=O)[O-])cc2)c1)c1ccc(-c2c3nc(c(-c4ccccc4)c4ccc([nH]4)c(-c4ccccc4)c4nc(c(-c5ccccc5)c5ccc2[nH]5)C=C4)C=C3)cc1
REMARK SMILES IDX 5 1 4 2 3 3 1 4 2 5 26 7 27 8 73 9 28 10 72 11 29 12 30 13
REMARK SMILES IDX 31 14 66 15 32 16 71 17 65 18 67 19 33 20 70 21 64 22 63 23
REMARK SMILES IDX 34 25 56 26 41 27 55 28 42 29 45 30 54 31 68 32 43 33 44 34
REMARK SMILES IDX 53 36 69 37 46 38 35 39 36 40 40 41 37 42 39 43 38 44 57 45
REMARK SMILES IDX 58 46 62 47 59 48 61 49 60 50 47 51 48 52 52 53 49 54 51 55
REMARK SMILES IDX 50 56 6 57 7 58 8 59 9 61 10 62 11 63 25 64 12 65 14 66
REMARK SMILES IDX 13 67 15 68 16 70 17 71 24 72 18 73 23 74 19 75 20 76 21 77
REMARK SMILES IDX 22 78
REMARK H PARENT 3 6 67 24 45 35 7 60 15 69
REMARK Flexibility Score: inf
ROOT
ATOM      1  C   UNL A   1      38.026  19.594  24.811  1.00  0.00     0.042 C 
ENDROOT
BRANCH   1   2
ATOM      2  C   UNL A   1      39.111  20.114  25.741  1.00  0.00     0.118 C 
BRANCH   2   3
ATOM      3  N   UNL A   1      40.287  19.253  25.777  1.00  0.00    -0.352 N 
ATOM      4  O   UNL A   1      42.470  18.706  25.866  1.00  0.00    -0.269 OA
ATOM      5  C   UNL A   1      41.597  19.547  26.069  1.00  0.00     0.251 C 
ATOM      6  H   UNL A   1      40.114  18.309  25.558  1.00  0.00     0.163 HD
BRANCH   5   7
ATOM      7  C   UNL A   1      41.964  20.876  26.602  1.00  0.00     0.039 A 
ATOM      8  C   UNL A   1      41.920  21.133  27.972  1.00  0.00     0.014 A 
ATOM      9  C   UNL A   1      42.382  21.876  25.719  1.00  0.00     0.014 A 
ATOM     10  C   UNL A   1      42.115  22.425  28.440  1.00  0.00     0.010 A 
ATOM     11  C   UNL A   1      42.689  23.151  26.205  1.00  0.00     0.010 A 
ATOM     12  C   UNL A   1      42.523  23.445  27.566  1.00  0.00    -0.014 A 
BRANCH  12  13
ATOM     13  C   UNL A   1      42.835  24.785  28.123  1.00  0.00     0.031 A 
ATOM     14  C   UNL A   1      44.245  25.193  28.442  1.00  0.00     0.074 A 
ATOM     15  C   UNL A   1      41.823  25.657  28.302  1.00  0.00     0.049 A 
ATOM     16  N   UNL A   1      44.685  26.341  28.895  1.00  0.00    -0.248 NA
ATOM     17  C   UNL A   1      45.300  24.188  28.236  1.00  0.00     0.031 C 
ATOM     18  C   UNL A   1      40.409  25.374  28.033  1.00  0.00     0.029 A 
ATOM     19  N   UNL A   1      41.825  26.961  28.723  1.00  0.00    -0.354 N 
ATOM     20  C   UNL A   1      46.057  26.191  29.048  1.00  0.00     0.074 A 
ATOM     21  C   UNL A   1      46.378  24.834  28.662  1.00  0.00     0.031 C 
ATOM     22  C   UNL A   1      39.691  26.487  28.238  1.00  0.00     0.029 A 
ATOM     23  C   UNL A   1      40.578  27.538  28.720  1.00  0.00     0.049 A 
ATOM     24  H   UNL A   1      42.640  27.438  29.000  1.00  0.00     0.167 HD
ATOM     25  C   UNL A   1      46.967  27.103  29.469  1.00  0.00     0.031 A 
ATOM     26  C   UNL A   1      40.182  28.771  29.081  1.00  0.00     0.031 A 
ATOM     27  C   UNL A   1      46.645  28.454  29.851  1.00  0.00     0.049 A 
ATOM     28  C   UNL A   1      41.208  29.749  29.570  1.00  0.00     0.074 A 
ATOM     29  C   UNL A   1      47.503  29.461  30.262  1.00  0.00     0.029 A 
ATOM     30  N   UNL A   1      45.365  28.986  29.875  1.00  0.00    -0.354 N 
ATOM     31  N   UNL A   1      42.505  29.599  29.678  1.00  0.00    -0.248 NA
ATOM     32  C   UNL A   1      40.713  31.067  29.989  1.00  0.00     0.031 C 
ATOM     33  C   UNL A   1      46.735  30.585  30.585  1.00  0.00     0.029 A 
ATOM     34  C   UNL A   1      45.407  30.297  30.319  1.00  0.00     0.049 A 
ATOM     35  H   UNL A   1      44.548  28.503  29.615  1.00  0.00     0.167 HD
ATOM     36  C   UNL A   1      42.985  30.807  30.161  1.00  0.00     0.074 A 
ATOM     37  C   UNL A   1      41.841  31.687  30.303  1.00  0.00     0.031 C 
ATOM     38  C   UNL A   1      44.259  31.156  30.464  1.00  0.00     0.031 A 
BRANCH  25  39
ATOM     39  C   UNL A   1      48.403  26.663  29.567  1.00  0.00    -0.014 A 
ATOM     40  C   UNL A   1      49.306  26.869  28.514  1.00  0.00     0.009 A 
ATOM     41  C   UNL A   1      48.870  26.079  30.756  1.00  0.00     0.009 A 
ATOM     42  C   UNL A   1      50.640  26.474  28.637  1.00  0.00     0.001 A 
ATOM     43  C   UNL A   1      50.209  25.708  30.886  1.00  0.00     0.001 A 
ATOM     44  C   UNL A   1      51.091  25.898  29.825  1.00  0.00     0.000 A 
ENDBRANCH  25  39
BRANCH  26  45
ATOM     45  C   UNL A   1      38.745  29.136  29.008  1.00  0.00    -0.014 A 
ATOM     46  C   UNL A   1      37.916  29.015  30.133  1.00  0.00     0.009 A 
ATOM     47  C   UNL A   1      38.197  29.625  27.811  1.00  0.00     0.009 A 
ATOM     48  C   UNL A   1      36.565  29.356  30.055  1.00  0.00     0.001 A 
ATOM     49  C   UNL A   1      36.854  29.995  27.745  1.00  0.00     0.001 A 
ATOM     50  C   UNL A   1      36.036  29.853  28.864  1.00  0.00     0.000 A 
ENDBRANCH  26  45
BRANCH  38  51
ATOM     51  C   UNL A   1      44.480  32.559  30.954  1.00  0.00    -0.014 A 
ATOM     52  C   UNL A   1      44.719  33.614  30.059  1.00  0.00     0.009 A 
ATOM     53  C   UNL A   1      44.432  32.829  32.330  1.00  0.00     0.009 A 
ATOM     54  C   UNL A   1      44.940  34.906  30.536  1.00  0.00     0.001 A 
ATOM     55  C   UNL A   1      44.625  34.128  32.803  1.00  0.00     0.001 A 
ATOM     56  C   UNL A   1      44.889  35.163  31.907  1.00  0.00     0.000 A 
ENDBRANCH  38  51
ENDBRANCH  12  13
ENDBRANCH   5   7
ENDBRANCH   2   3
ENDBRANCH   1   2
BRANCH   1  57
ATOM     57  C   UNL A   1      36.680  20.275  24.999  1.00  0.00     0.118 C 
BRANCH  57  58
ATOM     58  N   UNL A   1      36.821  21.655  25.445  1.00  0.00    -0.352 N 
ATOM     59  C   UNL A   1      36.178  22.790  25.022  1.00  0.00     0.251 C 
ATOM     60  H   UNL A   1      37.480  21.794  26.162  1.00  0.00     0.163 HD
ATOM     61  O   UNL A   1      36.610  23.891  25.348  1.00  0.00    -0.269 OA
BRANCH  59  62
ATOM     62  C   UNL A   1      34.971  22.695  24.178  1.00  0.00     0.041 A 
ATOM     63  C   UNL A   1      34.683  23.732  23.290  1.00  0.00     0.014 A 
ATOM     64  C   UNL A   1      34.094  21.613  24.305  1.00  0.00     0.039 A 
ATOM     65  C   UNL A   1      33.548  23.649  22.489  1.00  0.00     0.003 A 
ATOM     66  C   UNL A   1      32.965  21.501  23.490  1.00  0.00     0.039 A 
ATOM     67  C   UNL A   1      32.708  22.532  22.578  1.00  0.00     0.026 A 
BRANCH  66  68
ATOM     68  N   UNL A   1      32.165  20.350  23.609  1.00  0.00    -0.356 N 
ATOM     69  H   UNL A   1      31.219  20.478  23.369  1.00  0.00     0.167 HD
BRANCH  68  70
ATOM     70  C   UNL A   1      32.500  19.050  24.015  1.00  0.00     0.039 A 
ATOM     71  C   UNL A   1      32.971  18.150  23.050  1.00  0.00     0.033 A 
ATOM     72  C   UNL A   1      32.484  18.655  25.359  1.00  0.00     0.033 A 
ATOM     73  C   UNL A   1      33.460  16.895  23.419  1.00  0.00     0.088 A 
ATOM     74  C   UNL A   1      32.959  17.399  25.743  1.00  0.00     0.088 A 
ATOM     75  C   UNL A   1      33.467  16.530  24.770  1.00  0.00     0.269 A 
BRANCH  75  76
ATOM     76  N   UNL A   1      34.038  15.240  25.170  1.00  0.00     0.062 N 
ATOM     77  O   UNL A   1      35.273  15.146  25.215  1.00  0.00    -0.258 OA
ATOM     78  O   UNL A   1      33.252  14.323  25.448  1.00  0.00    -0.258 OA
ENDBRANCH  75  76
ENDBRANCH  68  70
ENDBRANCH  66  68
ENDBRANCH  59  62
ENDBRANCH  57  58
ENDBRANCH   1  57
TORSDOF 13
ENDMDL
MODEL 2
REMARK VINA RESULT:     -11.8      5.856     10.720
REMARK SMILES O=C(NCCCNC(=O)c1cccc(Nc2ccc([N+](=O)[O-])cc2)c1)c1ccc(-c2c3nc(c(-c4ccccc4)c4ccc([nH]4)c(-c4ccccc4)c4nc(c(-c5ccccc5)c5ccc2[nH]5)C=C4)C=C3)cc1
REMARK SMILES IDX 5 1 4 2 3 3 1 4 2 5 26 7 27 8 73 9 28 10 72 11 29 12 30 13
REMARK SMILES IDX 31 14 66 15 32 16 71 17 65 18 67 19 33 20 70 21 64 22 63 23
REMARK SMILES IDX 34 25 56 26 41 27 55 28 42 29 45 30 54 31 68 32 43 33 44 34
REMARK SMILES IDX 53 36 69 37 46 38 35 39 36 40 40 41 37 42 39 43 38 44 57 45
REMARK SMILES IDX 58 46 62 47 59 48 61 49 60 50 47 51 48 52 52 53 49 54 51 55
REMARK SMILES IDX 50 56 6 57 7 58 8 59 9 61 10 62 11 63 25 64 12 65 14 66
REMARK SMILES IDX 13 67 15 68 16 70 17 71 24 72 18 73 23 74 19 75 20 76 21 77
REMARK SMILES IDX 22 78
REMARK H PARENT 3 6 67 24 45 35 7 60 15 69
REMARK Flexibility Score: inf
ROOT
ATOM      1  C   UNL A   1      31.417  32.099  26.635  1.00  0.00     0.042 C 
ENDROOT
BRANCH   1   2
ATOM      2  C   UNL A   1      32.704  32.809  27.021  1.00  0.00     0.118 C 
BRANCH   2   3
ATOM      3  N   UNL A   1      32.472  34.123  27.610  1.00  0.00    -0.352 N 
ATOM      4  O   UNL A   1      32.631  35.793  29.112  1.00  0.00    -0.269 OA
ATOM      5  C   UNL A   1      33.101  34.754  28.655  1.00  0.00     0.251 C 
ATOM      6  H   UNL A   1      31.748  34.642  27.189  1.00  0.00     0.163 HD
BRANCH   5   7
ATOM      7  C   UNL A   1      34.326  34.177  29.248  1.00  0.00     0.039 A 
ATOM      8  C   UNL A   1      35.586  34.517  28.757  1.00  0.00     0.014 A 
ATOM      9  C   UNL A   1      34.215  33.298  30.330  1.00  0.00     0.014 A 
ATOM     10  C   UNL A   1      36.712  33.850  29.219  1.00  0.00     0.010 A 
ATOM     11  C   UNL A   1      35.362  32.711  30.872  1.00  0.00     0.010 A 
ATOM     12  C   UNL A   1      36.618  32.955  30.296  1.00  0.00    -0.014 A 
BRANCH  12  13
ATOM     13  C   UNL A   1      37.860  32.350  30.838  1.00  0.00     0.031 A 
ATOM     14  C   UNL A   1      38.490  32.854  32.106  1.00  0.00     0.074 A 
ATOM     15  C   UNL A   1      38.399  31.300  30.187  1.00  0.00     0.049 A 
ATOM     16  N   UNL A   1      39.552  32.406  32.729  1.00  0.00    -0.248 NA
ATOM     17  C   UNL A   1      37.857  34.012  32.758  1.00  0.00     0.031 C 
ATOM     18  C   UNL A   1      37.881  30.724  28.942  1.00  0.00     0.029 A 
ATOM     19  N   UNL A   1      39.479  30.514  30.491  1.00  0.00    -0.354 N 
ATOM     20  C   UNL A   1      39.727  33.236  33.829  1.00  0.00     0.074 A 
ATOM     21  C   UNL A   1      38.677  34.230  33.778  1.00  0.00     0.031 C 
ATOM     22  C   UNL A   1      38.606  29.642  28.623  1.00  0.00     0.029 A 
ATOM     23  C   UNL A   1      39.681  29.492  29.595  1.00  0.00     0.049 A 
ATOM     24  H   UNL A   1      40.056  30.666  31.275  1.00  0.00     0.167 HD
ATOM     25  C   UNL A   1      40.675  33.172  34.796  1.00  0.00     0.031 A 
ATOM     26  C   UNL A   1      40.633  28.544  29.547  1.00  0.00     0.031 A 
ATOM     27  C   UNL A   1      41.718  32.180  34.844  1.00  0.00     0.049 A 
ATOM     28  C   UNL A   1      41.686  28.516  30.613  1.00  0.00     0.074 A 
ATOM     29  C   UNL A   1      42.707  32.015  35.801  1.00  0.00     0.029 A 
ATOM     30  N   UNL A   1      41.913  31.188  33.895  1.00  0.00    -0.354 N 
ATOM     31  N   UNL A   1      41.816  29.289  31.664  1.00  0.00    -0.248 NA
ATOM     32  C   UNL A   1      42.723  27.485  30.487  1.00  0.00     0.031 C 
ATOM     33  C   UNL A   1      43.530  30.957  35.402  1.00  0.00     0.029 A 
ATOM     34  C   UNL A   1      43.020  30.425  34.228  1.00  0.00     0.049 A 
ATOM     35  H   UNL A   1      41.347  31.047  33.102  1.00  0.00     0.167 HD
ATOM     36  C   UNL A   1      42.940  28.829  32.333  1.00  0.00     0.074 A 
ATOM     37  C   UNL A   1      43.440  27.694  31.582  1.00  0.00     0.031 C 
ATOM     38  C   UNL A   1      43.511  29.306  33.466  1.00  0.00     0.031 A 
BRANCH  25  39
ATOM     39  C   UNL A   1      40.648  34.224  35.871  1.00  0.00    -0.014 A 
ATOM     40  C   UNL A   1      41.368  35.421  35.742  1.00  0.00     0.009 A 
ATOM     41  C   UNL A   1      39.844  34.035  37.007  1.00  0.00     0.009 A 
ATOM     42  C   UNL A   1      41.308  36.394  36.742  1.00  0.00     0.001 A 
ATOM     43  C   UNL A   1      39.766  35.020  37.993  1.00  0.00     0.001 A 
ATOM     44  C   UNL A   1      40.504  36.195  37.864  1.00  0.00     0.000 A 
ENDBRANCH  25  39
BRANCH  26  45
ATOM     45  C   UNL A   1      40.638  27.559  28.436  1.00  0.00    -0.014 A 
ATOM     46  C   UNL A   1      39.946  26.345  28.550  1.00  0.00     0.009 A 
ATOM     47  C   UNL A   1      41.324  27.840  27.242  1.00  0.00     0.009 A 
ATOM     48  C   UNL A   1      39.959  25.423  27.501  1.00  0.00     0.001 A 
ATOM     49  C   UNL A   1      41.308  26.931  26.184  1.00  0.00     0.001 A 
ATOM     50  C   UNL A   1      40.633  25.720  26.317  1.00  0.00     0.000 A 
ENDBRANCH  26  45
BRANCH  38  51
ATOM     51  C   UNL A   1      44.724  28.580  33.973  1.00  0.00    -0.014 A 
ATOM     52  C   UNL A   1      46.016  28.951  33.568  1.00  0.00     0.009 A 
ATOM     53  C   UNL A   1      44.570  27.522  34.882  1.00  0.00     0.009 A 
ATOM     54  C   UNL A   1      47.129  28.252  34.037  1.00  0.00     0.001 A 
ATOM     55  C   UNL A   1      45.687  26.844  35.372  1.00  0.00     0.001 A 
ATOM     56  C   UNL A   1      46.965  27.202  34.942  1.00  0.00     0.000 A 
ENDBRANCH  38  51
ENDBRANCH  12  13
ENDBRANCH   5   7
ENDBRANCH   2   3
ENDBRANCH   1   2
BRANCH   1  57
ATOM     57  C   UNL A   1      31.444  30.600  26.892  1.00  0.00     0.118 C 
BRANCH  57  58
ATOM     58  N   UNL A   1      32.734  30.010  26.564  1.00  0.00    -0.352 N 
ATOM     59  C   UNL A   1      33.049  28.734  26.175  1.00  0.00     0.251 C 
ATOM     60  H   UNL A   1      33.500  30.625  26.631  1.00  0.00     0.163 HD
ATOM     61  O   UNL A   1      34.220  28.367  26.182  1.00  0.00    -0.269 OA
BRANCH  59  62
ATOM     62  C   UNL A   1      31.989  27.800  25.748  1.00  0.00     0.041 A 
ATOM     63  C   UNL A   1      31.867  26.571  26.397  1.00  0.00     0.014 A 
ATOM     64  C   UNL A   1      31.155  28.111  24.668  1.00  0.00     0.039 A 
ATOM     65  C   UNL A   1      30.869  25.686  26.001  1.00  0.00     0.003 A 
ATOM     66  C   UNL A   1      30.131  27.246  24.275  1.00  0.00     0.039 A 
ATOM     67  C   UNL A   1      29.999  26.032  24.961  1.00  0.00     0.026 A 
BRANCH  66  68
ATOM     68  N   UNL A   1      29.275  27.650  23.236  1.00  0.00    -0.356 N 
ATOM     69  H   UNL A   1      28.859  26.913  22.734  1.00  0.00     0.167 HD
BRANCH  68  70
ATOM     70  C   UNL A   1      28.921  28.935  22.799  1.00  0.00     0.039 A 
ATOM     71  C   UNL A   1      27.896  29.610  23.474  1.00  0.00     0.033 A 
ATOM     72  C   UNL A   1      29.624  29.606  21.790  1.00  0.00     0.033 A 
ATOM     73  C   UNL A   1      27.604  30.944  23.184  1.00  0.00     0.088 A 
ATOM     74  C   UNL A   1      29.336  30.937  21.479  1.00  0.00     0.088 A 
ATOM     75  C   UNL A   1      28.338  31.609  22.195  1.00  0.00     0.269 A 
BRANCH  75  76
ATOM     76  N   UNL A   1      28.078  33.027  21.929  1.00  0.00     0.062 N 
ATOM     77  O   UNL A   1      27.578  33.326  20.835  1.00  0.00    -0.258 OA
ATOM     78  O   UNL A   1      28.365  33.842  22.817  1.00  0.00    -0.258 OA
ENDBRANCH  75  76
ENDBRANCH  68  70
ENDBRANCH  66  68
ENDBRANCH  59  62
ENDBRANCH  57  58
ENDBRANCH   1  57
TORSDOF 13
ENDMDL
MODEL 3
REMARK VINA RESULT:     -11.8      0.422      6.020
REMARK SMILES O=C(NCCCNC(=O)c1cccc(Nc2ccc([N+](=O)[O-])cc2)c1)c1ccc(-c2c3nc(c(-c4ccccc4)c4ccc([nH]4)c(-c4ccccc4)c4nc(c(-c5ccccc5)c5ccc2[nH]5)C=C4)C=C3)cc1
REMARK SMILES IDX 5 1 4 2 3 3 1 4 2 5 26 7 27 8 73 9 28 10 72 11 29 12 30 13
REMARK SMILES IDX 31 14 66 15 32 16 71 17 65 18 67 19 33 20 70 21 64 22 63 23
REMARK SMILES IDX 34 25 56 26 41 27 55 28 42 29 45 30 54 31 68 32 43 33 44 34
REMARK SMILES IDX 53 36 69 37 46 38 35 39 36 40 40 41 37 42 39 43 38 44 57 45
REMARK SMILES IDX 58 46 62 47 59 48 61 49 60 50 47 51 48 52 52 53 49 54 51 55
REMARK SMILES IDX 50 56 6 57 7 58 8 59 9 61 10 62 11 63 25 64 12 65 14 66
REMARK SMILES IDX 13 67 15 68 16 70 17 71 24 72 18 73 23 74 19 75 20 76 21 77
REMARK SMILES IDX 22 78
REMARK H PARENT 3 6 67 24 45 35 7 60 15 69
REMARK Flexibility Score: inf
ROOT
ATOM      1  C   UNL A   1      38.209  19.447  25.047  1.00  0.00     0.042 C 
ENDROOT
BRANCH   1   2
ATOM      2  C   UNL A   1      39.330  20.128  25.817  1.00  0.00     0.118 C 
BRANCH   2   3
ATOM      3  N   UNL A   1      40.463  19.244  26.068  1.00  0.00    -0.352 N 
ATOM      4  O   UNL A   1      42.606  18.651  26.421  1.00  0.00    -0.269 OA
ATOM      5  C   UNL A   1      41.753  19.536  26.437  1.00  0.00     0.251 C 
ATOM      6  H   UNL A   1      40.271  18.285  25.954  1.00  0.00     0.163 HD
BRANCH   5   7
ATOM      7  C   UNL A   1      42.126  20.911  26.829  1.00  0.00     0.039 A 
ATOM      8  C   UNL A   1      42.159  21.287  28.172  1.00  0.00     0.014 A 
ATOM      9  C   UNL A   1      42.473  21.836  25.839  1.00  0.00     0.014 A 
ATOM     10  C   UNL A   1      42.357  22.618  28.513  1.00  0.00     0.010 A 
ATOM     11  C   UNL A   1      42.785  23.152  26.193  1.00  0.00     0.010 A 
ATOM     12  C   UNL A   1      42.694  23.562  27.531  1.00  0.00    -0.014 A 
BRANCH  12  13
ATOM     13  C   UNL A   1      43.013  24.950  27.949  1.00  0.00     0.031 A 
ATOM     14  C   UNL A   1      41.930  25.960  28.208  1.00  0.00     0.074 A 
ATOM     15  C   UNL A   1      44.305  25.284  28.134  1.00  0.00     0.049 A 
ATOM     16  N   UNL A   1      42.045  27.199  28.617  1.00  0.00    -0.248 NA
ATOM     17  C   UNL A   1      40.542  25.533  27.974  1.00  0.00     0.031 C 
ATOM     18  C   UNL A   1      45.447  24.391  27.909  1.00  0.00     0.029 A 
ATOM     19  N   UNL A   1      44.878  26.447  28.578  1.00  0.00    -0.354 N 
ATOM     20  C   UNL A   1      40.752  27.705  28.668  1.00  0.00     0.074 A 
ATOM     21  C   UNL A   1      39.868  26.648  28.227  1.00  0.00     0.031 C 
ATOM     22  C   UNL A   1      46.574  25.018  28.272  1.00  0.00     0.029 A 
ATOM     23  C   UNL A   1      46.246  26.376  28.685  1.00  0.00     0.049 A 
ATOM     24  H   UNL A   1      44.359  27.255  28.798  1.00  0.00     0.167 HD
ATOM     25  C   UNL A   1      40.340  28.938  29.051  1.00  0.00     0.031 A 
ATOM     26  C   UNL A   1      47.144  27.305  29.059  1.00  0.00     0.031 A 
ATOM     27  C   UNL A   1      41.222  29.988  29.492  1.00  0.00     0.049 A 
ATOM     28  C   UNL A   1      46.661  28.668  29.450  1.00  0.00     0.074 A 
ATOM     29  C   UNL A   1      40.896  31.261  29.930  1.00  0.00     0.029 A 
ATOM     30  N   UNL A   1      42.604  29.890  29.546  1.00  0.00    -0.354 N 
ATOM     31  N   UNL A   1      45.432  29.118  29.523  1.00  0.00    -0.248 NA
ATOM     32  C   UNL A   1      47.689  29.652  29.810  1.00  0.00     0.031 C 
ATOM     33  C   UNL A   1      42.083  31.950  30.197  1.00  0.00     0.029 A 
ATOM     34  C   UNL A   1      43.146  31.088  29.984  1.00  0.00     0.049 A 
ATOM     35  H   UNL A   1      43.123  29.088  29.308  1.00  0.00     0.167 HD
ATOM     36  C   UNL A   1      45.537  30.433  29.951  1.00  0.00     0.074 A 
ATOM     37  C   UNL A   1      46.949  30.700  30.145  1.00  0.00     0.031 C 
ATOM     38  C   UNL A   1      44.553  31.340  30.162  1.00  0.00     0.031 A 
BRANCH  25  39
ATOM     39  C   UNL A   1      38.866  29.233  28.985  1.00  0.00    -0.014 A 
ATOM     40  C   UNL A   1      38.252  29.633  27.789  1.00  0.00     0.009 A 
ATOM     41  C   UNL A   1      38.070  29.056  30.129  1.00  0.00     0.009 A 
ATOM     42  C   UNL A   1      36.877  29.877  27.746  1.00  0.00     0.001 A 
ATOM     43  C   UNL A   1      36.693  29.276  30.077  1.00  0.00     0.001 A 
ATOM     44  C   UNL A   1      36.099  29.694  28.889  1.00  0.00     0.000 A 
ENDBRANCH  25  39
BRANCH  26  45
ATOM     45  C   UNL A   1      48.591  26.972  29.060  1.00  0.00    -0.014 A 
ATOM     46  C   UNL A   1      49.385  27.222  27.932  1.00  0.00     0.009 A 
ATOM     47  C   UNL A   1      49.190  26.415  30.202  1.00  0.00     0.009 A 
ATOM     48  C   UNL A   1      50.745  26.903  27.939  1.00  0.00     0.001 A 
ATOM     49  C   UNL A   1      50.555  26.127  30.218  1.00  0.00     0.001 A 
ATOM     50  C   UNL A   1      51.330  26.362  29.084  1.00  0.00     0.000 A 
ENDBRANCH  26  45
BRANCH  38  51
ATOM     51  C   UNL A   1      44.973  32.696  30.652  1.00  0.00    -0.014 A 
ATOM     52  C   UNL A   1      45.093  32.971  32.023  1.00  0.00     0.009 A 
ATOM     53  C   UNL A   1      45.270  33.708  29.725  1.00  0.00     0.009 A 
ATOM     54  C   UNL A   1      45.467  34.243  32.457  1.00  0.00     0.001 A 
ATOM     55  C   UNL A   1      45.672  34.970  30.161  1.00  0.00     0.001 A 
ATOM     56  C   UNL A   1      45.761  35.241  31.527  1.00  0.00     0.000 A 
ENDBRANCH  38  51
ENDBRANCH  12  13
ENDBRANCH   5   7
ENDBRANCH   2   3
ENDBRANCH   1   2
BRANCH   1  57
ATOM     57  C   UNL A   1      37.123  20.401  24.575  1.00  0.00     0.118 C 
BRANCH  57  58
ATOM     58  N   UNL A   1      37.072  21.615  25.378  1.00  0.00    -0.352 N 
ATOM     59  C   UNL A   1      36.261  22.714  25.266  1.00  0.00     0.251 C 
ATOM     60  H   UNL A   1      37.721  21.651  26.117  1.00  0.00     0.163 HD
ATOM     61  O   UNL A   1      36.536  23.739  25.883  1.00  0.00    -0.269 OA
BRANCH  59  62
ATOM     62  C   UNL A   1      35.061  22.675  24.407  1.00  0.00     0.041 A 
ATOM     63  C   UNL A   1      34.796  23.753  23.563  1.00  0.00     0.014 A 
ATOM     64  C   UNL A   1      34.167  21.600  24.479  1.00  0.00     0.039 A 
ATOM     65  C   UNL A   1      33.667  23.721  22.749  1.00  0.00     0.003 A 
ATOM     66  C   UNL A   1      33.045  21.540  23.650  1.00  0.00     0.039 A 
ATOM     67  C   UNL A   1      32.811  22.614  22.782  1.00  0.00     0.026 A 
BRANCH  66  68
ATOM     68  N   UNL A   1      32.228  20.397  23.711  1.00  0.00    -0.356 N 
ATOM     69  H   UNL A   1      31.291  20.545  23.448  1.00  0.00     0.167 HD
BRANCH  68  70
ATOM     70  C   UNL A   1      32.534  19.081  24.089  1.00  0.00     0.039 A 
ATOM     71  C   UNL A   1      32.992  18.195  23.106  1.00  0.00     0.033 A 
ATOM     72  C   UNL A   1      32.502  18.656  25.423  1.00  0.00     0.033 A 
ATOM     73  C   UNL A   1      33.455  16.923  23.448  1.00  0.00     0.088 A 
ATOM     74  C   UNL A   1      32.950  17.382  25.781  1.00  0.00     0.088 A 
ATOM     75  C   UNL A   1      33.446  16.527  24.790  1.00  0.00     0.269 A 
BRANCH  75  76
ATOM     76  N   UNL A   1      33.989  15.216  25.163  1.00  0.00     0.062 N 
ATOM     77  O   UNL A   1      35.222  15.083  25.166  1.00  0.00    -0.258 OA
ATOM     78  O   UNL A   1      33.185  14.323  25.462  1.00  0.00    -0.258 OA
ENDBRANCH  75  76
ENDBRANCH  68  70
ENDBRANCH  66  68
ENDBRANCH  59  62
ENDBRANCH  57  58
ENDBRANCH   1  57
TORSDOF 13
ENDMDL
