MODEL 1
REMARK VINA RESULT:     -12.4      0.000      0.000
REMARK SMILES Nn1c(S[C@@H](C(=O)NCCCNC(=O)c2ccc(-c3c4nc(c(-c5ccccc5)c5ccc([nH]5)c(-c5ccccc5)c5nc(c(-c6ccccc6)c6ccc3[nH]6)C=C5)C=C4)cc2)c2ccccc2)nc2ccc(Br)cc2c1=O
REMARK SMILES IDX 9 1 8 2 6 3 7 4 5 6 4 7 3 8 2 9 77 10 69 11 76 12 78 13
REMARK SMILES IDX 70 14 75 15 71 16 73 17 72 18 74 19 1 20 63 23 64 24 68 25
REMARK SMILES IDX 65 26 67 27 66 28 10 29 11 30 12 31 13 32 14 34 15 35 16 36
REMARK SMILES IDX 62 37 17 38 61 39 18 40 19 41 20 42 55 43 21 44 60 45 54 46
REMARK SMILES IDX 56 47 22 48 59 49 53 50 52 51 23 53 45 54 30 55 44 56 31 57
REMARK SMILES IDX 34 58 43 59 57 60 32 61 33 62 42 64 58 65 35 66 24 67 25 68
REMARK SMILES IDX 29 69 26 70 28 71 27 72 46 73 47 74 51 75 48 76 50 77 49 78
REMARK SMILES IDX 36 79 37 80 41 81 38 82 40 83 39 84
REMARK H PARENT 8 5 1 21 1 22 12 33 56 52 34 63
REMARK Flexibility Score: inf
ROOT
ATOM      1  C   UNL A   1      36.536  21.544  24.847  1.00  0.00     0.117 C 
ENDROOT
BRANCH   1   2
ATOM      2  N   UNL A   1      35.528  21.377  25.880  1.00  0.00    -0.355 N 
ATOM      3  C   UNL A   1      34.282  20.805  25.860  1.00  0.00     0.238 C 
ATOM      4  O   UNL A   1      33.658  20.933  26.920  1.00  0.00    -0.273 OA
ATOM      5  H   UNL A   1      35.788  21.742  26.756  1.00  0.00     0.163 HD
BRANCH   3   6
ATOM      6  C   UNL A   1      33.759  20.066  24.599  1.00  0.00     0.174 C 
BRANCH   6   7
ATOM      7  S   UNL A   1      32.401  21.011  23.852  1.00  0.00    -0.068 SA
BRANCH   7   8
ATOM      8  C   UNL A   1      32.222  22.628  24.491  1.00  0.00     0.191 A 
ATOM      9  N   UNL A   1      31.473  23.008  25.601  1.00  0.00    -0.202 N 
ATOM     10  C   UNL A   1      31.431  24.332  26.052  1.00  0.00     0.280 A 
ATOM     11  N   UNL A   1      32.919  23.487  23.810  1.00  0.00    -0.222 NA
ATOM     12  C   UNL A   1      32.188  25.310  25.265  1.00  0.00     0.069 A 
ATOM     13  O   UNL A   1      30.791  24.698  27.039  1.00  0.00    -0.267 OA
ATOM     14  C   UNL A   1      32.897  24.838  24.165  1.00  0.00     0.079 A 
ATOM     15  C   UNL A   1      32.171  26.668  25.597  1.00  0.00     0.031 A 
ATOM     16  C   UNL A   1      33.603  25.751  23.381  1.00  0.00     0.030 A 
ATOM     17  C   UNL A   1      32.876  27.565  24.802  1.00  0.00     0.018 A 
ATOM     18  C   UNL A   1      33.593  27.114  23.694  1.00  0.00     0.018 A 
ATOM     19  Br  UNL A   1      32.852  29.407  25.220  1.00  0.00    -0.051 Br
BRANCH   9  20
ATOM     20  N   UNL A   1      30.655  22.126  26.314  1.00  0.00    -0.334 N 
ATOM     21  H   UNL A   1      30.643  21.171  26.081  1.00  0.00     0.178 HD
ATOM     22  H   UNL A   1      30.093  22.462  27.048  1.00  0.00     0.178 HD
ENDBRANCH   9  20
ENDBRANCH   7   8
ENDBRANCH   6   7
BRANCH   6  23
ATOM     23  C   UNL A   1      33.544  18.544  24.621  1.00  0.00    -0.025 A 
ATOM     24  C   UNL A   1      32.653  17.971  25.555  1.00  0.00     0.005 A 
ATOM     25  C   UNL A   1      34.184  17.665  23.731  1.00  0.00     0.005 A 
ATOM     26  C   UNL A   1      32.504  16.586  25.672  1.00  0.00     0.000 A 
ATOM     27  C   UNL A   1      34.045  16.277  23.856  1.00  0.00     0.000 A 
ATOM     28  C   UNL A   1      33.220  15.738  24.836  1.00  0.00     0.000 A 
ENDBRANCH   6  23
ENDBRANCH   3   6
ENDBRANCH   1   2
BRANCH   1  29
ATOM     29  C   UNL A   1      37.599  20.444  24.877  1.00  0.00     0.042 C 
BRANCH  29  30
ATOM     30  C   UNL A   1      38.800  20.725  25.777  1.00  0.00     0.118 C 
BRANCH  30  31
ATOM     31  N   UNL A   1      39.811  19.679  25.739  1.00  0.00    -0.352 N 
ATOM     32  C   UNL A   1      41.153  19.732  26.038  1.00  0.00     0.251 C 
ATOM     33  H   UNL A   1      39.482  18.795  25.458  1.00  0.00     0.163 HD
ATOM     34  O   UNL A   1      41.864  18.755  25.818  1.00  0.00    -0.269 OA
BRANCH  32  35
ATOM     35  C   UNL A   1      41.757  20.971  26.575  1.00  0.00     0.039 A 
ATOM     36  C   UNL A   1      41.806  21.218  27.949  1.00  0.00     0.014 A 
ATOM     37  C   UNL A   1      42.278  21.910  25.680  1.00  0.00     0.014 A 
ATOM     38  C   UNL A   1      42.203  22.470  28.412  1.00  0.00     0.010 A 
ATOM     39  C   UNL A   1      42.751  23.136  26.153  1.00  0.00     0.010 A 
ATOM     40  C   UNL A   1      42.661  23.451  27.517  1.00  0.00    -0.014 A 
BRANCH  40  41
ATOM     41  C   UNL A   1      43.004  24.809  28.014  1.00  0.00     0.031 A 
ATOM     42  C   UNL A   1      41.918  25.825  28.262  1.00  0.00     0.074 A 
ATOM     43  C   UNL A   1      44.284  25.120  28.292  1.00  0.00     0.049 A 
ATOM     44  N   UNL A   1      42.026  27.057  28.695  1.00  0.00    -0.248 NA
ATOM     45  C   UNL A   1      40.532  25.409  27.988  1.00  0.00     0.031 C 
ATOM     46  C   UNL A   1      45.424  24.216  28.129  1.00  0.00     0.029 A 
ATOM     47  N   UNL A   1      44.840  26.271  28.791  1.00  0.00    -0.354 N 
ATOM     48  C   UNL A   1      40.733  27.564  28.724  1.00  0.00     0.074 A 
ATOM     49  C   UNL A   1      39.856  26.521  28.243  1.00  0.00     0.031 C 
ATOM     50  C   UNL A   1      46.534  24.828  28.568  1.00  0.00     0.029 A 
ATOM     51  C   UNL A   1      46.198  26.188  28.982  1.00  0.00     0.049 A 
ATOM     52  H   UNL A   1      44.316  27.080  28.992  1.00  0.00     0.167 HD
ATOM     53  C   UNL A   1      40.312  28.787  29.127  1.00  0.00     0.031 A 
ATOM     54  C   UNL A   1      47.081  27.101  29.428  1.00  0.00     0.031 A 
ATOM     55  C   UNL A   1      41.180  29.819  29.628  1.00  0.00     0.049 A 
ATOM     56  C   UNL A   1      46.597  28.471  29.810  1.00  0.00     0.074 A 
ATOM     57  C   UNL A   1      40.834  31.077  30.090  1.00  0.00     0.029 A 
ATOM     58  N   UNL A   1      42.557  29.715  29.735  1.00  0.00    -0.354 N 
ATOM     59  N   UNL A   1      45.371  28.931  29.837  1.00  0.00    -0.248 NA
ATOM     60  C   UNL A   1      47.617  29.451  30.213  1.00  0.00     0.031 C 
ATOM     61  C   UNL A   1      42.009  31.756  30.422  1.00  0.00     0.029 A 
ATOM     62  C   UNL A   1      43.079  30.898  30.227  1.00  0.00     0.049 A 
ATOM     63  H   UNL A   1      43.084  28.918  29.497  1.00  0.00     0.167 HD
ATOM     64  C   UNL A   1      45.467  30.246  30.275  1.00  0.00     0.074 A 
ATOM     65  C   UNL A   1      46.872  30.508  30.514  1.00  0.00     0.031 C 
ATOM     66  C   UNL A   1      44.477  31.151  30.460  1.00  0.00     0.031 A 
BRANCH  53  67
ATOM     67  C   UNL A   1      38.843  29.098  29.035  1.00  0.00    -0.014 A 
ATOM     68  C   UNL A   1      38.327  29.661  27.857  1.00  0.00     0.009 A 
ATOM     69  C   UNL A   1      37.994  28.932  30.138  1.00  0.00     0.009 A 
ATOM     70  C   UNL A   1      36.991  30.062  27.789  1.00  0.00     0.001 A 
ATOM     71  C   UNL A   1      36.652  29.310  30.060  1.00  0.00     0.001 A 
ATOM     72  C   UNL A   1      36.154  29.883  28.889  1.00  0.00     0.000 A 
ENDBRANCH  53  67
BRANCH  54  73
ATOM     73  C   UNL A   1      48.517  26.735  29.538  1.00  0.00    -0.014 A 
ATOM     74  C   UNL A   1      49.035  26.228  30.742  1.00  0.00     0.009 A 
ATOM     75  C   UNL A   1      49.389  26.941  28.459  1.00  0.00     0.009 A 
ATOM     76  C   UNL A   1      50.400  25.963  30.872  1.00  0.00     0.001 A 
ATOM     77  C   UNL A   1      50.748  26.648  28.583  1.00  0.00     0.001 A 
ATOM     78  C   UNL A   1      51.255  26.170  29.791  1.00  0.00     0.000 A 
ENDBRANCH  54  73
BRANCH  66  79
ATOM     79  C   UNL A   1      44.851  32.516  30.960  1.00  0.00    -0.014 A 
ATOM     80  C   UNL A   1      44.875  32.770  32.340  1.00  0.00     0.009 A 
ATOM     81  C   UNL A   1      45.055  33.578  30.067  1.00  0.00     0.009 A 
ATOM     82  C   UNL A   1      45.074  34.065  32.818  1.00  0.00     0.001 A 
ATOM     83  C   UNL A   1      45.279  34.870  30.549  1.00  0.00     0.001 A 
ATOM     84  C   UNL A   1      45.277  35.114  31.923  1.00  0.00     0.000 A 
ENDBRANCH  66  79
ENDBRANCH  40  41
ENDBRANCH  32  35
ENDBRANCH  30  31
ENDBRANCH  29  30
ENDBRANCH   1  29
TORSDOF 14
ENDMDL
MODEL 2
REMARK VINA RESULT:     -12.4      0.272      5.812
REMARK SMILES Nn1c(S[C@@H](C(=O)NCCCNC(=O)c2ccc(-c3c4nc(c(-c5ccccc5)c5ccc([nH]5)c(-c5ccccc5)c5nc(c(-c6ccccc6)c6ccc3[nH]6)C=C5)C=C4)cc2)c2ccccc2)nc2ccc(Br)cc2c1=O
REMARK SMILES IDX 9 1 8 2 6 3 7 4 5 6 4 7 3 8 2 9 77 10 69 11 76 12 78 13
REMARK SMILES IDX 70 14 75 15 71 16 73 17 72 18 74 19 1 20 63 23 64 24 68 25
REMARK SMILES IDX 65 26 67 27 66 28 10 29 11 30 12 31 13 32 14 34 15 35 16 36
REMARK SMILES IDX 62 37 17 38 61 39 18 40 19 41 20 42 55 43 21 44 60 45 54 46
REMARK SMILES IDX 56 47 22 48 59 49 53 50 52 51 23 53 45 54 30 55 44 56 31 57
REMARK SMILES IDX 34 58 43 59 57 60 32 61 33 62 42 64 58 65 35 66 24 67 25 68
REMARK SMILES IDX 29 69 26 70 28 71 27 72 46 73 47 74 51 75 48 76 50 77 49 78
REMARK SMILES IDX 36 79 37 80 41 81 38 82 40 83 39 84
REMARK H PARENT 8 5 1 21 1 22 12 33 56 52 34 63
REMARK Flexibility Score: inf
ROOT
ATOM      1  C   UNL A   1      36.526  21.251  24.802  1.00  0.00     0.117 C 
ENDROOT
BRANCH   1   2
ATOM      2  N   UNL A   1      35.497  21.234  25.828  1.00  0.00    -0.355 N 
ATOM      3  C   UNL A   1      34.207  20.767  25.825  1.00  0.00     0.238 C 
ATOM      4  O   UNL A   1      33.586  21.012  26.865  1.00  0.00    -0.273 OA
ATOM      5  H   UNL A   1      35.778  21.631  26.684  1.00  0.00     0.163 HD
BRANCH   3   6
ATOM      6  C   UNL A   1      33.637  19.996  24.604  1.00  0.00     0.174 C 
BRANCH   6   7
ATOM      7  S   UNL A   1      32.214  20.893  23.922  1.00  0.00    -0.068 SA
BRANCH   7   8
ATOM      8  C   UNL A   1      32.083  22.546  24.472  1.00  0.00     0.191 A 
ATOM      9  N   UNL A   1      31.326  23.011  25.544  1.00  0.00    -0.202 N 
ATOM     10  C   UNL A   1      31.324  24.358  25.925  1.00  0.00     0.280 A 
ATOM     11  N   UNL A   1      32.825  23.343  23.763  1.00  0.00    -0.222 NA
ATOM     12  C   UNL A   1      32.133  25.264  25.106  1.00  0.00     0.069 A 
ATOM     13  O   UNL A   1      30.679  24.798  26.878  1.00  0.00    -0.267 OA
ATOM     14  C   UNL A   1      32.846  24.710  24.048  1.00  0.00     0.079 A 
ATOM     15  C   UNL A   1      32.161  26.638  25.367  1.00  0.00     0.031 A 
ATOM     16  C   UNL A   1      33.602  25.555  23.233  1.00  0.00     0.030 A 
ATOM     17  C   UNL A   1      32.915  27.466  24.543  1.00  0.00     0.018 A 
ATOM     18  C   UNL A   1      33.636  26.932  23.476  1.00  0.00     0.018 A 
ATOM     19  Br  UNL A   1      32.951  29.327  24.865  1.00  0.00    -0.051 Br
BRANCH   9  20
ATOM     20  N   UNL A   1      30.462  22.198  26.283  1.00  0.00    -0.334 N 
ATOM     21  H   UNL A   1      29.569  22.529  26.532  1.00  0.00     0.178 HD
ATOM     22  H   UNL A   1      30.746  21.296  26.554  1.00  0.00     0.178 HD
ENDBRANCH   9  20
ENDBRANCH   7   8
ENDBRANCH   6   7
BRANCH   6  23
ATOM     23  C   UNL A   1      33.467  18.469  24.657  1.00  0.00    -0.025 A 
ATOM     24  C   UNL A   1      32.597  17.889  25.605  1.00  0.00     0.005 A 
ATOM     25  C   UNL A   1      34.129  17.592  23.781  1.00  0.00     0.005 A 
ATOM     26  C   UNL A   1      32.489  16.503  25.750  1.00  0.00     0.000 A 
ATOM     27  C   UNL A   1      34.031  16.204  23.933  1.00  0.00     0.000 A 
ATOM     28  C   UNL A   1      33.226  15.660  24.927  1.00  0.00     0.000 A 
ENDBRANCH   6  23
ENDBRANCH   3   6
ENDBRANCH   1   2
BRANCH   1  29
ATOM     29  C   UNL A   1      37.551  20.129  24.975  1.00  0.00     0.042 C 
BRANCH  29  30
ATOM     30  C   UNL A   1      38.785  20.498  25.795  1.00  0.00     0.118 C 
BRANCH  30  31
ATOM     31  N   UNL A   1      39.827  19.482  25.764  1.00  0.00    -0.352 N 
ATOM     32  C   UNL A   1      41.166  19.576  26.062  1.00  0.00     0.251 C 
ATOM     33  H   UNL A   1      39.524  18.587  25.487  1.00  0.00     0.163 HD
ATOM     34  O   UNL A   1      41.906  18.619  25.848  1.00  0.00    -0.269 OA
BRANCH  32  35
ATOM     35  C   UNL A   1      41.733  20.836  26.592  1.00  0.00     0.039 A 
ATOM     36  C   UNL A   1      41.783  21.088  27.965  1.00  0.00     0.014 A 
ATOM     37  C   UNL A   1      42.217  21.789  25.691  1.00  0.00     0.014 A 
ATOM     38  C   UNL A   1      42.142  22.354  28.423  1.00  0.00     0.010 A 
ATOM     39  C   UNL A   1      42.653  23.032  26.158  1.00  0.00     0.010 A 
ATOM     40  C   UNL A   1      42.562  23.346  27.522  1.00  0.00    -0.014 A 
BRANCH  40  41
ATOM     41  C   UNL A   1      42.863  24.717  28.014  1.00  0.00     0.031 A 
ATOM     42  C   UNL A   1      44.289  25.148  28.240  1.00  0.00     0.074 A 
ATOM     43  C   UNL A   1      41.861  25.594  28.211  1.00  0.00     0.049 A 
ATOM     44  N   UNL A   1      44.744  26.302  28.663  1.00  0.00    -0.248 NA
ATOM     45  C   UNL A   1      45.344  24.160  27.957  1.00  0.00     0.031 C 
ATOM     46  C   UNL A   1      40.441  25.313  27.996  1.00  0.00     0.029 A 
ATOM     47  N   UNL A   1      41.884  26.906  28.615  1.00  0.00    -0.354 N 
ATOM     48  C   UNL A   1      46.126  26.170  28.717  1.00  0.00     0.074 A 
ATOM     49  C   UNL A   1      46.439  24.820  28.308  1.00  0.00     0.031 C 
ATOM     50  C   UNL A   1      39.734  26.431  28.220  1.00  0.00     0.029 A 
ATOM     51  C   UNL A   1      40.640  27.490  28.656  1.00  0.00     0.049 A 
ATOM     52  H   UNL A   1      42.711  27.382  28.853  1.00  0.00     0.167 HD
ATOM     53  C   UNL A   1      47.052  27.095  29.066  1.00  0.00     0.031 A 
ATOM     54  C   UNL A   1      40.264  28.732  29.016  1.00  0.00     0.031 A 
ATOM     55  C   UNL A   1      46.743  28.446  29.450  1.00  0.00     0.049 A 
ATOM     56  C   UNL A   1      41.305  29.720  29.458  1.00  0.00     0.074 A 
ATOM     57  C   UNL A   1      47.622  29.461  29.787  1.00  0.00     0.029 A 
ATOM     58  N   UNL A   1      45.465  28.971  29.548  1.00  0.00    -0.354 N 
ATOM     59  N   UNL A   1      42.607  29.580  29.496  1.00  0.00    -0.248 NA
ATOM     60  C   UNL A   1      40.827  31.034  29.915  1.00  0.00     0.031 C 
ATOM     61  C   UNL A   1      46.873  30.584  30.145  1.00  0.00     0.029 A 
ATOM     62  C   UNL A   1      45.531  30.287  29.970  1.00  0.00     0.049 A 
ATOM     63  H   UNL A   1      44.636  28.480  29.347  1.00  0.00     0.167 HD
ATOM     64  C   UNL A   1      43.106  30.789  29.964  1.00  0.00     0.074 A 
ATOM     65  C   UNL A   1      41.967  31.657  30.184  1.00  0.00     0.031 C 
ATOM     66  C   UNL A   1      44.394  31.143  30.189  1.00  0.00     0.031 A 
BRANCH  53  67
ATOM     67  C   UNL A   1      48.499  26.686  29.063  1.00  0.00    -0.014 A 
ATOM     68  C   UNL A   1      49.074  26.166  30.235  1.00  0.00     0.009 A 
ATOM     69  C   UNL A   1      49.316  26.906  27.946  1.00  0.00     0.009 A 
ATOM     70  C   UNL A   1      50.440  25.886  30.291  1.00  0.00     0.001 A 
ATOM     71  C   UNL A   1      50.678  26.601  27.995  1.00  0.00     0.001 A 
ATOM     72  C   UNL A   1      51.240  26.100  29.170  1.00  0.00     0.000 A 
ENDBRANCH  53  67
BRANCH  54  73
ATOM     73  C   UNL A   1      38.826  29.101  28.964  1.00  0.00    -0.014 A 
ATOM     74  C   UNL A   1      38.277  29.678  27.806  1.00  0.00     0.009 A 
ATOM     75  C   UNL A   1      38.006  28.930  30.089  1.00  0.00     0.009 A 
ATOM     76  C   UNL A   1      36.947  30.103  27.786  1.00  0.00     0.001 A 
ATOM     77  C   UNL A   1      36.669  29.330  30.057  1.00  0.00     0.001 A 
ATOM     78  C   UNL A   1      36.143  29.925  28.910  1.00  0.00     0.000 A 
ENDBRANCH  54  73
BRANCH  66  79
ATOM     79  C   UNL A   1      44.669  32.531  30.688  1.00  0.00    -0.014 A 
ATOM     80  C   UNL A   1      44.658  32.790  32.068  1.00  0.00     0.009 A 
ATOM     81  C   UNL A   1      44.811  33.603  29.795  1.00  0.00     0.009 A 
ATOM     82  C   UNL A   1      44.761  34.097  32.545  1.00  0.00     0.001 A 
ATOM     83  C   UNL A   1      44.941  34.908  30.276  1.00  0.00     0.001 A 
ATOM     84  C   UNL A   1      44.904  35.155  31.648  1.00  0.00     0.000 A 
ENDBRANCH  66  79
ENDBRANCH  40  41
ENDBRANCH  32  35
ENDBRANCH  30  31
ENDBRANCH  29  30
ENDBRANCH   1  29
TORSDOF 14
ENDMDL
MODEL 3
REMARK VINA RESULT:     -12.3      4.674      9.716
REMARK SMILES Nn1c(S[C@@H](C(=O)NCCCNC(=O)c2ccc(-c3c4nc(c(-c5ccccc5)c5ccc([nH]5)c(-c5ccccc5)c5nc(c(-c6ccccc6)c6ccc3[nH]6)C=C5)C=C4)cc2)c2ccccc2)nc2ccc(Br)cc2c1=O
REMARK SMILES IDX 9 1 8 2 6 3 7 4 5 6 4 7 3 8 2 9 77 10 69 11 76 12 78 13
REMARK SMILES IDX 70 14 75 15 71 16 73 17 72 18 74 19 1 20 63 23 64 24 68 25
REMARK SMILES IDX 65 26 67 27 66 28 10 29 11 30 12 31 13 32 14 34 15 35 16 36
REMARK SMILES IDX 62 37 17 38 61 39 18 40 19 41 20 42 55 43 21 44 60 45 54 46
REMARK SMILES IDX 56 47 22 48 59 49 53 50 52 51 23 53 45 54 30 55 44 56 31 57
REMARK SMILES IDX 34 58 43 59 57 60 32 61 33 62 42 64 58 65 35 66 24 67 25 68
REMARK SMILES IDX 29 69 26 70 28 71 27 72 46 73 47 74 51 75 48 76 50 77 49 78
REMARK SMILES IDX 36 79 37 80 41 81 38 82 40 83 39 84
REMARK H PARENT 8 5 1 21 1 22 12 33 56 52 34 63
REMARK Flexibility Score: inf
ROOT
ATOM      1  C   UNL A   1      31.784  29.944  26.245  1.00  0.00     0.117 C 
ENDROOT
BRANCH   1   2
ATOM      2  N   UNL A   1      32.305  29.683  24.914  1.00  0.00    -0.355 N 
ATOM      3  C   UNL A   1      31.688  29.328  23.741  1.00  0.00     0.238 C 
ATOM      4  O   UNL A   1      32.473  29.094  22.816  1.00  0.00    -0.273 OA
ATOM      5  H   UNL A   1      33.282  29.779  24.840  1.00  0.00     0.163 HD
BRANCH   3   6
ATOM      6  C   UNL A   1      30.140  29.256  23.639  1.00  0.00     0.174 C 
BRANCH   6   7
ATOM      7  S   UNL A   1      29.636  27.589  23.130  1.00  0.00    -0.068 SA
BRANCH   7   8
ATOM      8  C   UNL A   1      30.827  26.353  23.457  1.00  0.00     0.191 A 
ATOM      9  N   UNL A   1      31.821  25.903  22.591  1.00  0.00    -0.202 N 
ATOM     10  C   UNL A   1      32.753  24.930  22.971  1.00  0.00     0.280 A 
ATOM     11  N   UNL A   1      30.709  25.887  24.663  1.00  0.00    -0.222 NA
ATOM     12  C   UNL A   1      32.601  24.378  24.319  1.00  0.00     0.069 A 
ATOM     13  O   UNL A   1      33.654  24.523  22.236  1.00  0.00    -0.267 OA
ATOM     14  C   UNL A   1      31.571  24.881  25.107  1.00  0.00     0.079 A 
ATOM     15  C   UNL A   1      33.447  23.364  24.781  1.00  0.00     0.031 A 
ATOM     16  C   UNL A   1      31.385  24.352  26.386  1.00  0.00     0.030 A 
ATOM     17  C   UNL A   1      33.244  22.845  26.055  1.00  0.00     0.018 A 
ATOM     18  C   UNL A   1      32.217  23.334  26.861  1.00  0.00     0.018 A 
ATOM     19  Br  UNL A   1      34.361  21.461  26.691  1.00  0.00    -0.051 Br
BRANCH   9  20
ATOM     20  N   UNL A   1      31.933  26.328  21.264  1.00  0.00    -0.334 N 
ATOM     21  H   UNL A   1      31.486  27.154  20.973  1.00  0.00     0.178 HD
ATOM     22  H   UNL A   1      32.459  25.800  20.622  1.00  0.00     0.178 HD
ENDBRANCH   9  20
ENDBRANCH   7   8
ENDBRANCH   6   7
BRANCH   6  23
ATOM     23  C   UNL A   1      29.350  30.396  22.976  1.00  0.00    -0.025 A 
ATOM     24  C   UNL A   1      28.891  30.257  21.648  1.00  0.00     0.005 A 
ATOM     25  C   UNL A   1      29.029  31.594  23.637  1.00  0.00     0.005 A 
ATOM     26  C   UNL A   1      28.255  31.306  20.979  1.00  0.00     0.000 A 
ATOM     27  C   UNL A   1      28.403  32.650  22.964  1.00  0.00     0.000 A 
ATOM     28  C   UNL A   1      28.033  32.512  21.631  1.00  0.00     0.000 A 
ENDBRANCH   6  23
ENDBRANCH   3   6
ENDBRANCH   1   2
BRANCH   1  29
ATOM     29  C   UNL A   1      31.536  31.431  26.501  1.00  0.00     0.042 C 
BRANCH  29  30
ATOM     30  C   UNL A   1      32.722  32.196  27.083  1.00  0.00     0.118 C 
BRANCH  30  31
ATOM     31  N   UNL A   1      32.416  33.580  27.411  1.00  0.00    -0.352 N 
ATOM     32  C   UNL A   1      33.024  34.437  28.299  1.00  0.00     0.251 C 
ATOM     33  H   UNL A   1      31.654  33.964  26.919  1.00  0.00     0.163 HD
ATOM     34  O   UNL A   1      32.527  35.538  28.520  1.00  0.00    -0.269 OA
BRANCH  32  35
ATOM     35  C   UNL A   1      34.245  34.025  29.026  1.00  0.00     0.039 A 
ATOM     36  C   UNL A   1      35.516  34.388  28.576  1.00  0.00     0.014 A 
ATOM     37  C   UNL A   1      34.111  33.251  30.183  1.00  0.00     0.014 A 
ATOM     38  C   UNL A   1      36.646  33.828  29.168  1.00  0.00     0.010 A 
ATOM     39  C   UNL A   1      35.249  32.754  30.825  1.00  0.00     0.010 A 
ATOM     40  C   UNL A   1      36.523  32.989  30.287  1.00  0.00    -0.014 A 
BRANCH  40  41
ATOM     41  C   UNL A   1      37.728  32.332  30.859  1.00  0.00     0.031 A 
ATOM     42  C   UNL A   1      38.317  32.821  32.158  1.00  0.00     0.074 A 
ATOM     43  C   UNL A   1      38.269  31.266  30.240  1.00  0.00     0.049 A 
ATOM     44  N   UNL A   1      39.362  32.372  32.809  1.00  0.00    -0.248 NA
ATOM     45  C   UNL A   1      37.650  33.958  32.813  1.00  0.00     0.031 C 
ATOM     46  C   UNL A   1      37.775  30.674  28.997  1.00  0.00     0.029 A 
ATOM     47  N   UNL A   1      39.338  30.475  30.584  1.00  0.00    -0.354 N 
ATOM     48  C   UNL A   1      39.488  33.183  33.931  1.00  0.00     0.074 A 
ATOM     49  C   UNL A   1      38.431  34.166  33.864  1.00  0.00     0.031 C 
ATOM     50  C   UNL A   1      38.505  29.586  28.709  1.00  0.00     0.029 A 
ATOM     51  C   UNL A   1      39.559  29.439  29.710  1.00  0.00     0.049 A 
ATOM     52  H   UNL A   1      39.893  30.637  31.381  1.00  0.00     0.167 HD
ATOM     53  C   UNL A   1      40.396  33.106  34.932  1.00  0.00     0.031 A 
ATOM     54  C   UNL A   1      40.507  28.483  29.701  1.00  0.00     0.031 A 
ATOM     55  C   UNL A   1      41.434  32.114  35.012  1.00  0.00     0.049 A 
ATOM     56  C   UNL A   1      41.541  28.458  30.790  1.00  0.00     0.074 A 
ATOM     57  C   UNL A   1      42.378  31.942  36.010  1.00  0.00     0.029 A 
ATOM     58  N   UNL A   1      41.664  31.129  34.066  1.00  0.00    -0.354 N 
ATOM     59  N   UNL A   1      41.640  29.228  31.846  1.00  0.00    -0.248 NA
ATOM     60  C   UNL A   1      42.598  27.441  30.685  1.00  0.00     0.031 C 
ATOM     61  C   UNL A   1      43.216  30.889  35.638  1.00  0.00     0.029 A 
ATOM     62  C   UNL A   1      42.755  30.365  34.442  1.00  0.00     0.049 A 
ATOM     63  H   UNL A   1      41.131  30.994  33.249  1.00  0.00     0.167 HD
ATOM     64  C   UNL A   1      42.758  28.780  32.539  1.00  0.00     0.074 A 
ATOM     65  C   UNL A   1      43.296  27.662  31.791  1.00  0.00     0.031 C 
ATOM     66  C   UNL A   1      43.286  29.256  33.691  1.00  0.00     0.031 A 
BRANCH  53  67
ATOM     67  C   UNL A   1      40.329  34.131  36.031  1.00  0.00    -0.014 A 
ATOM     68  C   UNL A   1      39.510  33.896  37.148  1.00  0.00     0.009 A 
ATOM     69  C   UNL A   1      40.987  35.364  35.918  1.00  0.00     0.009 A 
ATOM     70  C   UNL A   1      39.343  34.880  38.124  1.00  0.00     0.001 A 
ATOM     71  C   UNL A   1      40.838  36.337  36.908  1.00  0.00     0.001 A 
ATOM     72  C   UNL A   1      40.011  36.098  38.005  1.00  0.00     0.000 A 
ENDBRANCH  53  67
BRANCH  54  73
ATOM     73  C   UNL A   1      40.509  27.468  28.615  1.00  0.00    -0.014 A 
ATOM     74  C   UNL A   1      41.206  27.704  27.418  1.00  0.00     0.009 A 
ATOM     75  C   UNL A   1      39.770  26.284  28.746  1.00  0.00     0.009 A 
ATOM     76  C   UNL A   1      41.139  26.790  26.365  1.00  0.00     0.001 A 
ATOM     77  C   UNL A   1      39.728  25.358  27.702  1.00  0.00     0.001 A 
ATOM     78  C   UNL A   1      40.403  25.616  26.510  1.00  0.00     0.000 A 
ENDBRANCH  54  73
BRANCH  66  79
ATOM     79  C   UNL A   1      44.504  28.577  34.244  1.00  0.00    -0.014 A 
ATOM     80  C   UNL A   1      45.781  28.987  33.826  1.00  0.00     0.009 A 
ATOM     81  C   UNL A   1      44.388  27.454  35.077  1.00  0.00     0.009 A 
ATOM     82  C   UNL A   1      46.915  28.273  34.212  1.00  0.00     0.001 A 
ATOM     83  C   UNL A   1      45.528  26.756  35.481  1.00  0.00     0.001 A 
ATOM     84  C   UNL A   1      46.789  27.159  35.040  1.00  0.00     0.000 A 
ENDBRANCH  66  79
ENDBRANCH  40  41
ENDBRANCH  32  35
ENDBRANCH  30  31
ENDBRANCH  29  30
ENDBRANCH   1  29
TORSDOF 14
ENDMDL
