MODEL 1
REMARK VINA RESULT:     -12.1      0.000      0.000
REMARK SMILES COc1ccc(-c2cc([C@@H]3CC[N@@H+](CC(=O)NCCCNC(=O)c4ccc(-c5c6nc(c(-c7ccccc7)c7ccc([nH]7)c(-c7ccccc7)c7nc(c(-c8ccccc8)c8ccc5[nH]8)C=C7)C=C6)cc4)C3)ccn2)c2ccc(C)nc12
REMARK SMILES IDX 18 1 17 2 15 3 16 4 14 6 13 7 10 8 11 9 72 10 12 11 9 13
REMARK SMILES IDX 7 14 8 15 75 16 74 17 73 18 6 19 3 20 4 21 82 22 5 23 76 24
REMARK SMILES IDX 81 25 77 26 79 27 78 28 80 29 2 30 1 31 19 32 20 33 21 34
REMARK SMILES IDX 22 35 23 37 24 38 25 39 71 40 26 41 70 42 27 43 28 44 29 45
REMARK SMILES IDX 64 46 30 47 69 48 63 49 65 50 31 51 68 52 62 53 61 54 32 56
REMARK SMILES IDX 54 57 39 58 53 59 40 60 43 61 52 62 66 63 41 64 42 65 51 67
REMARK SMILES IDX 67 68 44 69 33 70 34 71 38 72 35 73 37 74 36 75 55 76 56 77
REMARK SMILES IDX 60 78 57 79 59 80 58 81 45 82 46 83 50 84 47 85 49 86 48 87
REMARK H PARENT 17 5 13 12 21 36 65 55 43 66
REMARK Flexibility Score: inf
ROOT
ATOM      1  C   UNL A   1      34.519  34.771  27.640  1.00  0.00     0.118 C 
ENDROOT
BRANCH   1   2
ATOM      2  N   UNL A   1      35.621  33.841  27.849  1.00  0.00    -0.351 N 
ATOM      3  C   UNL A   1      35.677  32.491  28.051  1.00  0.00     0.275 C 
ATOM      4  O   UNL A   1      36.800  32.003  28.219  1.00  0.00    -0.269 OA
ATOM      5  H   UNL A   1      36.505  34.274  27.843  1.00  0.00     0.163 HD
BRANCH   3   6
ATOM      6  C   UNL A   1      34.420  31.615  28.101  1.00  0.00     0.363 C 
BRANCH   6   7
ATOM      7  N   UNL A   1      34.163  30.798  26.891  1.00  0.00    -0.327 N 
ATOM      8  C   UNL A   1      33.686  28.405  27.055  1.00  0.00     0.080 C 
ATOM      9  C   UNL A   1      32.430  29.244  27.308  1.00  0.00     0.075 C 
ATOM     10  C   UNL A   1      34.800  29.465  26.875  1.00  0.00     0.271 C 
ATOM     11  C   UNL A   1      32.743  30.581  26.655  1.00  0.00     0.263 C 
ATOM     12  H   UNL A   1      34.586  31.368  26.158  1.00  0.00     0.348 HD
BRANCH   8  13
ATOM     13  C   UNL A   1      33.396  27.486  25.882  1.00  0.00    -0.035 A 
ATOM     14  C   UNL A   1      33.179  25.235  25.009  1.00  0.00     0.071 A 
ATOM     15  C   UNL A   1      33.152  26.126  26.080  1.00  0.00     0.033 A 
ATOM     16  N   UNL A   1      33.389  25.648  23.740  1.00  0.00    -0.256 NA
ATOM     17  C   UNL A   1      33.562  26.977  23.548  1.00  0.00     0.112 A 
ATOM     18  C   UNL A   1      33.583  27.918  24.570  1.00  0.00     0.024 A 
BRANCH  14  19
ATOM     19  C   UNL A   1      33.144  23.782  25.259  1.00  0.00     0.010 A 
ATOM     20  C   UNL A   1      32.947  20.995  25.381  1.00  0.00     0.145 A 
ATOM     21  C   UNL A   1      31.789  21.775  25.397  1.00  0.00     0.049 A 
ATOM     22  C   UNL A   1      34.228  21.564  25.277  1.00  0.00     0.113 A 
ATOM     23  C   UNL A   1      31.888  23.157  25.340  1.00  0.00     0.015 A 
ATOM     24  C   UNL A   1      34.323  22.975  25.264  1.00  0.00     0.013 A 
ATOM     25  N   UNL A   1      35.333  20.784  25.167  1.00  0.00    -0.249 NA
ATOM     26  C   UNL A   1      35.626  23.520  25.235  1.00  0.00     0.013 A 
ATOM     27  C   UNL A   1      36.558  21.348  25.063  1.00  0.00     0.038 A 
ATOM     28  C   UNL A   1      36.748  22.712  25.126  1.00  0.00     0.024 A 
ATOM     29  C   UNL A   1      37.722  20.419  24.905  1.00  0.00     0.067 C 
BRANCH  20  30
ATOM     30  O   UNL A   1      32.707  19.637  25.415  1.00  0.00    -0.494 OA
ATOM     31  C   UNL A   1      32.501  19.086  24.115  1.00  0.00     0.278 C 
ENDBRANCH  20  30
ENDBRANCH  14  19
ENDBRANCH   8  13
ENDBRANCH   6   7
ENDBRANCH   3   6
ENDBRANCH   1   2
BRANCH   1  32
ATOM     32  C   UNL A   1      34.041  35.515  28.900  1.00  0.00     0.042 C 
BRANCH  32  33
ATOM     33  C   UNL A   1      32.984  34.817  29.757  1.00  0.00     0.118 C 
BRANCH  33  34
ATOM     34  N   UNL A   1      32.482  35.684  30.802  1.00  0.00    -0.352 N 
ATOM     35  C   UNL A   1      32.799  35.715  32.137  1.00  0.00     0.251 C 
ATOM     36  H   UNL A   1      31.815  36.348  30.513  1.00  0.00     0.163 HD
ATOM     37  O   UNL A   1      32.078  36.351  32.903  1.00  0.00    -0.269 OA
BRANCH  35  38
ATOM     38  C   UNL A   1      33.989  35.011  32.683  1.00  0.00     0.039 A 
ATOM     39  C   UNL A   1      35.240  35.625  32.540  1.00  0.00     0.014 A 
ATOM     40  C   UNL A   1      33.917  33.717  33.211  1.00  0.00     0.014 A 
ATOM     41  C   UNL A   1      36.407  34.952  32.918  1.00  0.00     0.010 A 
ATOM     42  C   UNL A   1      35.084  33.056  33.622  1.00  0.00     0.010 A 
ATOM     43  C   UNL A   1      36.342  33.658  33.458  1.00  0.00    -0.014 A 
BRANCH  43  44
ATOM     44  C   UNL A   1      37.591  32.928  33.810  1.00  0.00     0.031 A 
ATOM     45  C   UNL A   1      38.185  31.921  32.860  1.00  0.00     0.074 A 
ATOM     46  C   UNL A   1      38.205  33.168  34.984  1.00  0.00     0.049 A 
ATOM     47  N   UNL A   1      39.283  31.214  32.985  1.00  0.00    -0.248 NA
ATOM     48  C   UNL A   1      37.449  31.670  31.612  1.00  0.00     0.031 C 
ATOM     49  C   UNL A   1      37.741  34.104  36.007  1.00  0.00     0.029 A 
ATOM     50  N   UNL A   1      39.359  32.640  35.512  1.00  0.00    -0.354 N 
ATOM     51  C   UNL A   1      39.363  30.430  31.842  1.00  0.00     0.074 A 
ATOM     52  C   UNL A   1      38.188  30.724  31.047  1.00  0.00     0.031 C 
ATOM     53  C   UNL A   1      38.611  34.101  37.030  1.00  0.00     0.029 A 
ATOM     54  C   UNL A   1      39.681  33.147  36.747  1.00  0.00     0.049 A 
ATOM     55  H   UNL A   1      39.903  31.963  35.048  1.00  0.00     0.167 HD
ATOM     56  C   UNL A   1      40.330  29.554  31.474  1.00  0.00     0.031 A 
ATOM     57  C   UNL A   1      40.719  32.878  37.560  1.00  0.00     0.031 A 
ATOM     58  C   UNL A   1      41.509  29.260  32.244  1.00  0.00     0.049 A 
ATOM     59  C   UNL A   1      41.768  31.888  37.140  1.00  0.00     0.074 A 
ATOM     60  C   UNL A   1      42.569  28.430  31.916  1.00  0.00     0.029 A 
ATOM     61  N   UNL A   1      41.785  29.780  33.497  1.00  0.00    -0.354 N 
ATOM     62  N   UNL A   1      41.858  31.204  36.027  1.00  0.00    -0.248 NA
ATOM     63  C   UNL A   1      42.864  31.641  38.090  1.00  0.00     0.031 C 
ATOM     64  C   UNL A   1      43.466  28.417  32.989  1.00  0.00     0.029 A 
ATOM     65  C   UNL A   1      42.983  29.269  33.968  1.00  0.00     0.049 A 
ATOM     66  H   UNL A   1      41.214  30.420  33.982  1.00  0.00     0.167 HD
ATOM     67  C   UNL A   1      43.029  30.464  36.132  1.00  0.00     0.074 A 
ATOM     68  C   UNL A   1      43.622  30.791  37.412  1.00  0.00     0.031 C 
ATOM     69  C   UNL A   1      43.564  29.593  35.243  1.00  0.00     0.031 A 
BRANCH  56  70
ATOM     70  C   UNL A   1      40.148  28.832  30.169  1.00  0.00    -0.014 A 
ATOM     71  C   UNL A   1      39.495  27.591  30.113  1.00  0.00     0.009 A 
ATOM     72  C   UNL A   1      40.588  29.426  28.976  1.00  0.00     0.009 A 
ATOM     73  C   UNL A   1      39.313  26.945  28.888  1.00  0.00     0.001 A 
ATOM     74  C   UNL A   1      40.386  28.787  27.751  1.00  0.00     0.001 A 
ATOM     75  C   UNL A   1      39.755  27.545  27.709  1.00  0.00     0.000 A 
ENDBRANCH  56  70
BRANCH  57  76
ATOM     76  C   UNL A   1      40.834  33.577  38.866  1.00  0.00    -0.014 A 
ATOM     77  C   UNL A   1      40.209  33.054  40.007  1.00  0.00     0.009 A 
ATOM     78  C   UNL A   1      41.559  34.773  38.971  1.00  0.00     0.009 A 
ATOM     79  C   UNL A   1      40.292  33.728  41.227  1.00  0.00     0.001 A 
ATOM     80  C   UNL A   1      41.658  35.433  40.197  1.00  0.00     0.001 A 
ATOM     81  C   UNL A   1      41.018  34.914  41.322  1.00  0.00     0.000 A 
ENDBRANCH  57  76
BRANCH  69  82
ATOM     82  C   UNL A   1      44.867  28.946  35.616  1.00  0.00    -0.014 A 
ATOM     83  C   UNL A   1      46.093  29.531  35.261  1.00  0.00     0.009 A 
ATOM     84  C   UNL A   1      44.869  27.752  36.353  1.00  0.00     0.009 A 
ATOM     85  C   UNL A   1      47.296  28.915  35.613  1.00  0.00     0.001 A 
ATOM     86  C   UNL A   1      46.073  27.149  36.720  1.00  0.00     0.001 A 
ATOM     87  C   UNL A   1      47.285  27.727  36.344  1.00  0.00     0.000 A 
ENDBRANCH  69  82
ENDBRANCH  43  44
ENDBRANCH  35  38
ENDBRANCH  33  34
ENDBRANCH  32  33
ENDBRANCH   1  32
TORSDOF 14
ENDMDL
MODEL 2
REMARK VINA RESULT:     -11.8      3.342      9.666
REMARK SMILES COc1ccc(-c2cc([C@@H]3CC[N@@H+](CC(=O)NCCCNC(=O)c4ccc(-c5c6nc(c(-c7ccccc7)c7ccc([nH]7)c(-c7ccccc7)c7nc(c(-c8ccccc8)c8ccc5[nH]8)C=C7)C=C6)cc4)C3)ccn2)c2ccc(C)nc12
REMARK SMILES IDX 18 1 17 2 15 3 16 4 14 6 13 7 10 8 11 9 72 10 12 11 9 13
REMARK SMILES IDX 7 14 8 15 75 16 74 17 73 18 6 19 3 20 4 21 82 22 5 23 76 24
REMARK SMILES IDX 81 25 77 26 79 27 78 28 80 29 2 30 1 31 19 32 20 33 21 34
REMARK SMILES IDX 22 35 23 37 24 38 25 39 71 40 26 41 70 42 27 43 28 44 29 45
REMARK SMILES IDX 64 46 30 47 69 48 63 49 65 50 31 51 68 52 62 53 61 54 32 56
REMARK SMILES IDX 54 57 39 58 53 59 40 60 43 61 52 62 66 63 41 64 42 65 51 67
REMARK SMILES IDX 67 68 44 69 33 70 34 71 38 72 35 73 37 74 36 75 55 76 56 77
REMARK SMILES IDX 60 78 57 79 59 80 58 81 45 82 46 83 50 84 47 85 49 86 48 87
REMARK H PARENT 17 5 13 12 21 36 65 55 43 66
REMARK Flexibility Score: inf
ROOT
ATOM      1  C   UNL A   1      42.657  21.157  26.384  1.00  0.00     0.118 C 
ENDROOT
BRANCH   1   2
ATOM      2  N   UNL A   1      41.874  22.101  27.169  1.00  0.00    -0.351 N 
ATOM      3  C   UNL A   1      40.591  22.561  27.068  1.00  0.00     0.275 C 
ATOM      4  O   UNL A   1      40.236  23.398  27.906  1.00  0.00    -0.269 OA
ATOM      5  H   UNL A   1      42.370  22.487  27.927  1.00  0.00     0.163 HD
BRANCH   3   6
ATOM      6  C   UNL A   1      39.637  22.099  25.961  1.00  0.00     0.363 C 
BRANCH   6   7
ATOM      7  N   UNL A   1      38.193  22.237  26.264  1.00  0.00    -0.327 N 
ATOM      8  C   UNL A   1      36.734  23.627  24.879  1.00  0.00     0.080 C 
ATOM      9  C   UNL A   1      36.934  22.239  24.263  1.00  0.00     0.075 C 
ATOM     10  C   UNL A   1      37.641  23.602  26.132  1.00  0.00     0.271 C 
ATOM     11  C   UNL A   1      37.363  21.374  25.437  1.00  0.00     0.263 C 
ATOM     12  H   UNL A   1      38.157  21.967  27.248  1.00  0.00     0.348 HD
BRANCH   8  13
ATOM     13  C   UNL A   1      35.244  23.823  25.095  1.00  0.00    -0.035 A 
ATOM     14  C   UNL A   1      33.240  25.128  24.702  1.00  0.00     0.071 A 
ATOM     15  C   UNL A   1      34.521  24.731  24.321  1.00  0.00     0.033 A 
ATOM     16  N   UNL A   1      32.628  24.622  25.795  1.00  0.00    -0.256 NA
ATOM     17  C   UNL A   1      33.312  23.693  26.505  1.00  0.00     0.112 A 
ATOM     18  C   UNL A   1      34.604  23.276  26.206  1.00  0.00     0.024 A 
BRANCH  14  19
ATOM     19  C   UNL A   1      32.580  26.249  24.006  1.00  0.00     0.010 A 
ATOM     20  C   UNL A   1      31.004  28.196  22.764  1.00  0.00     0.145 A 
ATOM     21  C   UNL A   1      31.169  26.948  22.161  1.00  0.00     0.049 A 
ATOM     22  C   UNL A   1      31.587  28.509  24.004  1.00  0.00     0.113 A 
ATOM     23  C   UNL A   1      31.954  25.984  22.776  1.00  0.00     0.015 A 
ATOM     24  C   UNL A   1      32.421  27.537  24.603  1.00  0.00     0.013 A 
ATOM     25  N   UNL A   1      31.335  29.694  24.616  1.00  0.00    -0.249 NA
ATOM     26  C   UNL A   1      33.053  27.906  25.811  1.00  0.00     0.013 A 
ATOM     27  C   UNL A   1      31.900  29.976  25.812  1.00  0.00     0.038 A 
ATOM     28  C   UNL A   1      32.790  29.121  26.426  1.00  0.00     0.024 A 
ATOM     29  C   UNL A   1      31.541  31.287  26.441  1.00  0.00     0.067 C 
BRANCH  20  30
ATOM     30  O   UNL A   1      30.179  29.052  22.062  1.00  0.00    -0.494 OA
ATOM     31  C   UNL A   1      28.828  29.004  22.519  1.00  0.00     0.278 C 
ENDBRANCH  20  30
ENDBRANCH  14  19
ENDBRANCH   8  13
ENDBRANCH   6   7
ENDBRANCH   3   6
ENDBRANCH   1   2
BRANCH   1  32
ATOM     32  C   UNL A   1      43.779  21.781  25.536  1.00  0.00     0.042 C 
BRANCH  32  33
ATOM     33  C   UNL A   1      43.483  23.130  24.880  1.00  0.00     0.118 C 
BRANCH  33  34
ATOM     34  N   UNL A   1      44.688  23.906  24.679  1.00  0.00    -0.352 N 
ATOM     35  C   UNL A   1      44.999  25.167  25.126  1.00  0.00     0.251 C 
ATOM     36  H   UNL A   1      45.387  23.466  24.144  1.00  0.00     0.163 HD
ATOM     37  O   UNL A   1      45.965  25.748  24.636  1.00  0.00    -0.269 OA
BRANCH  35  38
ATOM     38  C   UNL A   1      44.210  25.846  26.187  1.00  0.00     0.039 A 
ATOM     39  C   UNL A   1      44.314  27.239  26.295  1.00  0.00     0.014 A 
ATOM     40  C   UNL A   1      43.481  25.138  27.148  1.00  0.00     0.014 A 
ATOM     41  C   UNL A   1      43.697  27.916  27.353  1.00  0.00     0.010 A 
ATOM     42  C   UNL A   1      42.835  25.820  28.189  1.00  0.00     0.010 A 
ATOM     43  C   UNL A   1      42.955  27.214  28.314  1.00  0.00    -0.014 A 
BRANCH  43  44
ATOM     44  C   UNL A   1      42.346  27.934  29.466  1.00  0.00     0.031 A 
ATOM     45  C   UNL A   1      43.001  27.907  30.822  1.00  0.00     0.074 A 
ATOM     46  C   UNL A   1      41.200  28.622  29.301  1.00  0.00     0.049 A 
ATOM     47  N   UNL A   1      42.630  28.501  31.931  1.00  0.00    -0.248 NA
ATOM     48  C   UNL A   1      44.227  27.105  30.952  1.00  0.00     0.031 C 
ATOM     49  C   UNL A   1      40.448  28.728  28.052  1.00  0.00     0.029 A 
ATOM     50  N   UNL A   1      40.472  29.368  30.195  1.00  0.00    -0.354 N 
ATOM     51  C   UNL A   1      43.567  28.138  32.889  1.00  0.00     0.074 A 
ATOM     52  C   UNL A   1      44.507  27.246  32.241  1.00  0.00     0.031 C 
ATOM     53  C   UNL A   1      39.375  29.510  28.253  1.00  0.00     0.029 A 
ATOM     54  C   UNL A   1      39.350  29.943  29.648  1.00  0.00     0.049 A 
ATOM     55  H   UNL A   1      40.729  29.481  31.139  1.00  0.00     0.167 HD
ATOM     56  C   UNL A   1      43.651  28.517  34.188  1.00  0.00     0.031 A 
ATOM     57  C   UNL A   1      38.409  30.729  30.203  1.00  0.00     0.031 A 
ATOM     58  C   UNL A   1      42.734  29.412  34.844  1.00  0.00     0.049 A 
ATOM     59  C   UNL A   1      38.513  31.120  31.649  1.00  0.00     0.074 A 
ATOM     60  C   UNL A   1      42.781  29.897  36.141  1.00  0.00     0.029 A 
ATOM     61  N   UNL A   1      41.603  29.953  34.258  1.00  0.00    -0.354 N 
ATOM     62  N   UNL A   1      39.441  30.817  32.523  1.00  0.00    -0.248 NA
ATOM     63  C   UNL A   1      37.439  31.972  32.183  1.00  0.00     0.031 C 
ATOM     64  C   UNL A   1      41.654  30.698  36.352  1.00  0.00     0.029 A 
ATOM     65  C   UNL A   1      40.928  30.744  35.174  1.00  0.00     0.049 A 
ATOM     66  H   UNL A   1      41.319  29.799  33.328  1.00  0.00     0.167 HD
ATOM     67  C   UNL A   1      39.076  31.457  33.700  1.00  0.00     0.074 A 
ATOM     68  C   UNL A   1      37.848  32.175  33.428  1.00  0.00     0.031 C 
ATOM     69  C   UNL A   1      39.706  31.450  34.899  1.00  0.00     0.031 A 
BRANCH  56  70
ATOM     70  C   UNL A   1      44.781  27.953  35.001  1.00  0.00    -0.014 A 
ATOM     71  C   UNL A   1      44.640  26.742  35.695  1.00  0.00     0.009 A 
ATOM     72  C   UNL A   1      46.018  28.616  35.030  1.00  0.00     0.009 A 
ATOM     73  C   UNL A   1      45.710  26.220  36.426  1.00  0.00     0.001 A 
ATOM     74  C   UNL A   1      47.091  28.081  35.744  1.00  0.00     0.001 A 
ATOM     75  C   UNL A   1      46.934  26.888  36.447  1.00  0.00     0.000 A 
ENDBRANCH  56  70
BRANCH  57  76
ATOM     76  C   UNL A   1      37.279  31.223  29.375  1.00  0.00    -0.014 A 
ATOM     77  C   UNL A   1      37.284  32.534  28.877  1.00  0.00     0.009 A 
ATOM     78  C   UNL A   1      36.187  30.389  29.092  1.00  0.00     0.009 A 
ATOM     79  C   UNL A   1      36.207  33.006  28.125  1.00  0.00     0.001 A 
ATOM     80  C   UNL A   1      35.122  30.858  28.322  1.00  0.00     0.001 A 
ATOM     81  C   UNL A   1      35.130  32.168  27.845  1.00  0.00     0.000 A 
ENDBRANCH  57  76
BRANCH  69  82
ATOM     82  C   UNL A   1      39.088  32.260  36.003  1.00  0.00    -0.014 A 
ATOM     83  C   UNL A   1      38.149  31.694  36.878  1.00  0.00     0.009 A 
ATOM     84  C   UNL A   1      39.470  33.599  36.184  1.00  0.00     0.009 A 
ATOM     85  C   UNL A   1      37.582  32.462  37.897  1.00  0.00     0.001 A 
ATOM     86  C   UNL A   1      38.917  34.358  37.216  1.00  0.00     0.001 A 
ATOM     87  C   UNL A   1      37.968  33.792  38.067  1.00  0.00     0.000 A 
ENDBRANCH  69  82
ENDBRANCH  43  44
ENDBRANCH  35  38
ENDBRANCH  33  34
ENDBRANCH  32  33
ENDBRANCH   1  32
TORSDOF 14
ENDMDL
MODEL 3
REMARK VINA RESULT:     -11.7      2.522      8.514
REMARK SMILES COc1ccc(-c2cc([C@@H]3CC[N@@H+](CC(=O)NCCCNC(=O)c4ccc(-c5c6nc(c(-c7ccccc7)c7ccc([nH]7)c(-c7ccccc7)c7nc(c(-c8ccccc8)c8ccc5[nH]8)C=C7)C=C6)cc4)C3)ccn2)c2ccc(C)nc12
REMARK SMILES IDX 18 1 17 2 15 3 16 4 14 6 13 7 10 8 11 9 72 10 12 11 9 13
REMARK SMILES IDX 7 14 8 15 75 16 74 17 73 18 6 19 3 20 4 21 82 22 5 23 76 24
REMARK SMILES IDX 81 25 77 26 79 27 78 28 80 29 2 30 1 31 19 32 20 33 21 34
REMARK SMILES IDX 22 35 23 37 24 38 25 39 71 40 26 41 70 42 27 43 28 44 29 45
REMARK SMILES IDX 64 46 30 47 69 48 63 49 65 50 31 51 68 52 62 53 61 54 32 56
REMARK SMILES IDX 54 57 39 58 53 59 40 60 43 61 52 62 66 63 41 64 42 65 51 67
REMARK SMILES IDX 67 68 44 69 33 70 34 71 38 72 35 73 37 74 36 75 55 76 56 77
REMARK SMILES IDX 60 78 57 79 59 80 58 81 45 82 46 83 50 84 47 85 49 86 48 87
REMARK H PARENT 17 5 13 12 21 36 65 55 43 66
REMARK Flexibility Score: inf
ROOT
ATOM      1  C   UNL A   1      38.916  22.962  26.702  1.00  0.00     0.118 C 
ENDROOT
BRANCH   1   2
ATOM      2  N   UNL A   1      38.457  22.669  25.351  1.00  0.00    -0.351 N 
ATOM      3  C   UNL A   1      37.390  21.973  24.857  1.00  0.00     0.275 C 
ATOM      4  O   UNL A   1      37.302  21.894  23.627  1.00  0.00    -0.269 OA
ATOM      5  H   UNL A   1      39.035  23.050  24.650  1.00  0.00     0.163 HD
BRANCH   3   6
ATOM      6  C   UNL A   1      36.362  21.292  25.768  1.00  0.00     0.363 C 
BRANCH   6   7
ATOM      7  N   UNL A   1      35.258  22.159  26.244  1.00  0.00    -0.327 N 
ATOM      8  C   UNL A   1      33.101  22.211  25.094  1.00  0.00     0.080 C 
ATOM      9  C   UNL A   1      33.191  21.026  26.058  1.00  0.00     0.075 C 
ATOM     10  C   UNL A   1      34.501  22.864  25.189  1.00  0.00     0.271 C 
ATOM     11  C   UNL A   1      34.280  21.431  27.039  1.00  0.00     0.263 C 
ATOM     12  H   UNL A   1      35.759  22.851  26.801  1.00  0.00     0.348 HD
BRANCH   8  13
ATOM     13  C   UNL A   1      31.906  23.050  25.508  1.00  0.00    -0.035 A 
ATOM     14  C   UNL A   1      30.970  25.228  26.019  1.00  0.00     0.071 A 
ATOM     15  C   UNL A   1      31.925  24.440  25.379  1.00  0.00     0.033 A 
ATOM     16  N   UNL A   1      29.965  24.687  26.743  1.00  0.00    -0.256 NA
ATOM     17  C   UNL A   1      29.916  23.336  26.810  1.00  0.00     0.112 A 
ATOM     18  C   UNL A   1      30.852  22.489  26.228  1.00  0.00     0.024 A 
BRANCH  14  19
ATOM     19  C   UNL A   1      31.133  26.693  26.062  1.00  0.00     0.010 A 
ATOM     20  C   UNL A   1      31.804  29.407  26.058  1.00  0.00     0.145 A 
ATOM     21  C   UNL A   1      32.234  28.586  27.102  1.00  0.00     0.049 A 
ATOM     22  C   UNL A   1      31.056  28.910  24.977  1.00  0.00     0.113 A 
ATOM     23  C   UNL A   1      31.898  27.241  27.105  1.00  0.00     0.015 A 
ATOM     24  C   UNL A   1      30.680  27.547  25.009  1.00  0.00     0.013 A 
ATOM     25  N   UNL A   1      30.730  29.704  23.927  1.00  0.00    -0.249 NA
ATOM     26  C   UNL A   1      29.866  27.091  23.948  1.00  0.00     0.013 A 
ATOM     27  C   UNL A   1      30.015  29.207  22.892  1.00  0.00     0.038 A 
ATOM     28  C   UNL A   1      29.537  27.915  22.882  1.00  0.00     0.024 A 
ATOM     29  C   UNL A   1      29.731  30.138  21.753  1.00  0.00     0.067 C 
BRANCH  20  30
ATOM     30  O   UNL A   1      32.229  30.716  26.163  1.00  0.00    -0.494 OA
ATOM     31  C   UNL A   1      33.060  30.930  27.304  1.00  0.00     0.278 C 
ENDBRANCH  20  30
ENDBRANCH  14  19
ENDBRANCH   8  13
ENDBRANCH   6   7
ENDBRANCH   3   6
ENDBRANCH   1   2
BRANCH   1  32
ATOM     32  C   UNL A   1      40.195  22.225  27.135  1.00  0.00     0.042 C 
BRANCH  32  33
ATOM     33  C   UNL A   1      41.469  23.062  27.259  1.00  0.00     0.118 C 
BRANCH  33  34
ATOM     34  N   UNL A   1      41.641  23.948  26.127  1.00  0.00    -0.352 N 
ATOM     35  C   UNL A   1      41.515  25.313  26.060  1.00  0.00     0.251 C 
ATOM     36  H   UNL A   1      41.884  23.507  25.281  1.00  0.00     0.163 HD
ATOM     37  O   UNL A   1      41.450  25.849  24.956  1.00  0.00    -0.269 OA
BRANCH  35  38
ATOM     38  C   UNL A   1      41.462  26.163  27.279  1.00  0.00     0.039 A 
ATOM     39  C   UNL A   1      40.325  26.075  28.093  1.00  0.00     0.014 A 
ATOM     40  C   UNL A   1      42.436  27.125  27.565  1.00  0.00     0.014 A 
ATOM     41  C   UNL A   1      40.163  26.942  29.180  1.00  0.00     0.010 A 
ATOM     42  C   UNL A   1      42.289  27.971  28.673  1.00  0.00     0.010 A 
ATOM     43  C   UNL A   1      41.140  27.903  29.479  1.00  0.00    -0.014 A 
BRANCH  43  44
ATOM     44  C   UNL A   1      40.937  28.856  30.603  1.00  0.00     0.031 A 
ATOM     45  C   UNL A   1      39.834  29.880  30.553  1.00  0.00     0.074 A 
ATOM     46  C   UNL A   1      41.740  28.806  31.684  1.00  0.00     0.049 A 
ATOM     47  N   UNL A   1      39.489  30.770  31.453  1.00  0.00    -0.248 NA
ATOM     48  C   UNL A   1      39.016  29.917  29.331  1.00  0.00     0.031 C 
ATOM     49  C   UNL A   1      42.855  27.878  31.868  1.00  0.00     0.029 A 
ATOM     50  N   UNL A   1      41.735  29.556  32.835  1.00  0.00    -0.354 N 
ATOM     51  C   UNL A   1      38.426  31.475  30.905  1.00  0.00     0.074 A 
ATOM     52  C   UNL A   1      38.201  30.933  29.581  1.00  0.00     0.031 C 
ATOM     53  C   UNL A   1      43.414  28.100  33.069  1.00  0.00     0.029 A 
ATOM     54  C   UNL A   1      42.714  29.198  33.730  1.00  0.00     0.049 A 
ATOM     55  H   UNL A   1      41.091  30.282  33.002  1.00  0.00     0.167 HD
ATOM     56  C   UNL A   1      37.692  32.474  31.452  1.00  0.00     0.031 A 
ATOM     57  C   UNL A   1      43.014  29.694  34.944  1.00  0.00     0.031 A 
ATOM     58  C   UNL A   1      37.894  33.016  32.770  1.00  0.00     0.049 A 
ATOM     59  C   UNL A   1      42.199  30.816  35.522  1.00  0.00     0.074 A 
ATOM     60  C   UNL A   1      37.155  33.988  33.426  1.00  0.00     0.029 A 
ATOM     61  N   UNL A   1      38.908  32.638  33.633  1.00  0.00    -0.354 N 
ATOM     62  N   UNL A   1      41.157  31.427  35.013  1.00  0.00    -0.248 NA
ATOM     63  C   UNL A   1      42.598  31.309  36.849  1.00  0.00     0.031 C 
ATOM     64  C   UNL A   1      37.749  34.227  34.669  1.00  0.00     0.029 A 
ATOM     65  C   UNL A   1      38.833  33.376  34.803  1.00  0.00     0.049 A 
ATOM     66  H   UNL A   1      39.583  31.947  33.444  1.00  0.00     0.167 HD
ATOM     67  C   UNL A   1      40.764  32.359  35.965  1.00  0.00     0.074 A 
ATOM     68  C   UNL A   1      41.671  32.227  37.086  1.00  0.00     0.031 C 
ATOM     69  C   UNL A   1      39.740  33.244  35.911  1.00  0.00     0.031 A 
BRANCH  56  70
ATOM     70  C   UNL A   1      36.593  33.063  30.614  1.00  0.00    -0.014 A 
ATOM     71  C   UNL A   1      36.880  33.919  29.541  1.00  0.00     0.009 A 
ATOM     72  C   UNL A   1      35.258  32.713  30.870  1.00  0.00     0.009 A 
ATOM     73  C   UNL A   1      35.847  34.438  28.758  1.00  0.00     0.001 A 
ATOM     74  C   UNL A   1      34.229  33.217  30.071  1.00  0.00     0.001 A 
ATOM     75  C   UNL A   1      34.524  34.084  29.021  1.00  0.00     0.000 A 
ENDBRANCH  56  70
BRANCH  57  76
ATOM     76  C   UNL A   1      44.143  29.118  35.718  1.00  0.00    -0.014 A 
ATOM     77  C   UNL A   1      43.904  28.157  36.712  1.00  0.00     0.009 A 
ATOM     78  C   UNL A   1      45.460  29.535  35.473  1.00  0.00     0.009 A 
ATOM     79  C   UNL A   1      44.963  27.638  37.459  1.00  0.00     0.001 A 
ATOM     80  C   UNL A   1      46.518  28.998  36.208  1.00  0.00     0.001 A 
ATOM     81  C   UNL A   1      46.268  28.056  37.205  1.00  0.00     0.000 A 
ENDBRANCH  57  76
BRANCH  69  82
ATOM     82  C   UNL A   1      39.533  34.126  37.109  1.00  0.00    -0.014 A 
ATOM     83  C   UNL A   1      39.986  35.454  37.118  1.00  0.00     0.009 A 
ATOM     84  C   UNL A   1      38.854  33.629  38.233  1.00  0.00     0.009 A 
ATOM     85  C   UNL A   1      39.788  36.259  38.242  1.00  0.00     0.001 A 
ATOM     86  C   UNL A   1      38.640  34.442  39.347  1.00  0.00     0.001 A 
ATOM     87  C   UNL A   1      39.113  35.754  39.353  1.00  0.00     0.000 A 
ENDBRANCH  69  82
ENDBRANCH  43  44
ENDBRANCH  35  38
ENDBRANCH  33  34
ENDBRANCH  32  33
ENDBRANCH   1  32
TORSDOF 14
ENDMDL
