MODEL 1
REMARK VINA RESULT:     -13.0      0.000      0.000
REMARK SMILES Cc1cccc(-c2cc(C[C@]3(C(=O)NCCCNC(=O)c4ccc(-c5c6nc(c(-c7ccccc7)c7ccc([nH]7)c(-c7ccccc7)c7nc(c(-c8ccccc8)c8ccc5[nH]8)C=C7)C=C6)cc4)CCCN(C(=O)C(C)C)C3)on2)c1
REMARK SMILES IDX 15 1 14 2 12 3 13 4 11 6 69 7 78 8 70 9 72 10 71 11 10 12
REMARK SMILES IDX 9 13 7 14 8 15 80 16 79 17 6 18 1 19 2 20 3 21 81 22 4 23
REMARK SMILES IDX 5 24 73 25 74 26 75 27 76 28 77 29 16 30 17 31 18 32 19 33
REMARK SMILES IDX 20 35 21 36 22 37 68 38 23 39 67 40 24 41 25 42 26 43 61 44
REMARK SMILES IDX 27 45 66 46 60 47 62 48 28 49 65 50 59 51 58 52 29 54 51 55
REMARK SMILES IDX 36 56 50 57 37 58 40 59 49 60 63 61 38 62 39 63 48 65 64 66
REMARK SMILES IDX 41 67 30 68 31 69 35 70 32 71 34 72 33 73 52 74 53 75 57 76
REMARK SMILES IDX 54 77 56 78 55 79 42 80 43 81 47 82 44 83 46 84 45 85
REMARK H PARENT 14 5 18 34 62 53 40 64
REMARK Flexibility Score: inf
ROOT
ATOM      1  C   UNL A   1      33.017  29.609  26.590  1.00  0.00     0.117 C 
ENDROOT
BRANCH   1   2
ATOM      2  N   UNL A   1      32.229  28.452  27.011  1.00  0.00    -0.355 N 
ATOM      3  C   UNL A   1      31.531  27.479  26.349  1.00  0.00     0.228 C 
ATOM      4  O   UNL A   1      31.071  26.584  27.069  1.00  0.00    -0.274 OA
ATOM      5  H   UNL A   1      32.193  28.349  27.990  1.00  0.00     0.163 HD
BRANCH   3   6
ATOM      6  C   UNL A   1      31.250  27.493  24.820  1.00  0.00     0.074 C 
ATOM      7  C   UNL A   1      30.605  26.121  24.465  1.00  0.00     0.021 C 
ATOM      8  C   UNL A   1      30.428  28.760  24.467  1.00  0.00     0.136 C 
ATOM      9  C   UNL A   1      29.500  26.138  23.415  1.00  0.00     0.023 C 
ATOM     10  N   UNL A   1      29.426  28.552  23.417  1.00  0.00    -0.341 N 
ATOM     11  C   UNL A   1      28.616  27.357  23.564  1.00  0.00     0.119 C 
BRANCH   6  12
ATOM     12  C   UNL A   1      32.644  27.597  24.098  1.00  0.00     0.097 C 
BRANCH  12  13
ATOM     13  C   UNL A   1      33.353  26.302  23.867  1.00  0.00     0.138 A 
ATOM     14  C   UNL A   1      34.446  24.375  23.824  1.00  0.00     0.114 A 
ATOM     15  C   UNL A   1      33.956  25.383  24.693  1.00  0.00     0.077 A 
ATOM     16  N   UNL A   1      34.135  24.662  22.551  1.00  0.00    -0.080 NA
ATOM     17  O   UNL A   1      33.431  25.854  22.585  1.00  0.00    -0.361 OA
BRANCH  14  18
ATOM     18  C   UNL A   1      35.217  23.193  24.186  1.00  0.00     0.004 A 
ATOM     19  C   UNL A   1      34.702  19.480  24.881  1.00  0.00     0.044 C 
ATOM     20  C   UNL A   1      35.346  20.825  24.727  1.00  0.00    -0.050 A 
ATOM     21  C   UNL A   1      36.721  20.958  24.962  1.00  0.00     0.003 A 
ATOM     22  C   UNL A   1      34.595  21.952  24.353  1.00  0.00     0.014 A 
ATOM     23  C   UNL A   1      37.345  22.190  24.793  1.00  0.00     0.001 A 
ATOM     24  C   UNL A   1      36.596  23.294  24.394  1.00  0.00     0.010 A 
ENDBRANCH  14  18
ENDBRANCH  12  13
ENDBRANCH   6  12
BRANCH  10  25
ATOM     25  C   UNL A   1      29.330  29.488  22.402  1.00  0.00     0.225 C 
ATOM     26  O   UNL A   1      30.271  29.663  21.618  1.00  0.00    -0.275 OA
BRANCH  25  27
ATOM     27  C   UNL A   1      28.084  30.364  22.231  1.00  0.00     0.072 C 
ATOM     28  C   UNL A   1      27.684  31.225  23.427  1.00  0.00     0.018 C 
ATOM     29  C   UNL A   1      28.126  31.154  20.931  1.00  0.00     0.018 C 
ENDBRANCH  25  27
ENDBRANCH  10  25
ENDBRANCH   3   6
ENDBRANCH   1   2
BRANCH   1  30
ATOM     30  C   UNL A   1      34.513  29.462  26.834  1.00  0.00     0.042 C 
BRANCH  30  31
ATOM     31  C   UNL A   1      35.113  30.612  27.621  1.00  0.00     0.118 C 
BRANCH  31  32
ATOM     32  N   UNL A   1      34.221  31.751  27.812  1.00  0.00    -0.352 N 
ATOM     33  C   UNL A   1      34.370  32.842  28.662  1.00  0.00     0.251 C 
ATOM     34  H   UNL A   1      33.402  31.747  27.266  1.00  0.00     0.163 HD
ATOM     35  O   UNL A   1      33.532  33.722  28.693  1.00  0.00    -0.269 OA
BRANCH  33  36
ATOM     36  C   UNL A   1      35.639  32.983  29.419  1.00  0.00     0.039 A 
ATOM     37  C   UNL A   1      36.712  33.607  28.775  1.00  0.00     0.014 A 
ATOM     38  C   UNL A   1      35.843  32.262  30.589  1.00  0.00     0.014 A 
ATOM     39  C   UNL A   1      38.009  33.262  29.141  1.00  0.00     0.010 A 
ATOM     40  C   UNL A   1      37.116  31.808  30.859  1.00  0.00     0.010 A 
ATOM     41  C   UNL A   1      38.193  32.259  30.090  1.00  0.00    -0.014 A 
BRANCH  41  42
ATOM     42  C   UNL A   1      39.448  31.536  30.256  1.00  0.00     0.031 A 
ATOM     43  C   UNL A   1      39.656  30.243  29.577  1.00  0.00     0.074 A 
ATOM     44  C   UNL A   1      40.449  32.079  30.983  1.00  0.00     0.049 A 
ATOM     45  N   UNL A   1      40.485  29.342  29.981  1.00  0.00    -0.248 NA
ATOM     46  C   UNL A   1      38.889  29.835  28.406  1.00  0.00     0.031 C 
ATOM     47  C   UNL A   1      41.846  31.658  31.030  1.00  0.00     0.029 A 
ATOM     48  N   UNL A   1      40.340  33.018  32.004  1.00  0.00    -0.354 N 
ATOM     49  C   UNL A   1      40.588  28.401  28.984  1.00  0.00     0.074 A 
ATOM     50  C   UNL A   1      39.510  28.703  28.071  1.00  0.00     0.031 C 
ATOM     51  C   UNL A   1      42.410  32.141  32.149  1.00  0.00     0.029 A 
ATOM     52  C   UNL A   1      41.357  32.762  32.937  1.00  0.00     0.049 A 
ATOM     53  H   UNL A   1      39.670  33.735  32.062  1.00  0.00     0.167 HD
ATOM     54  C   UNL A   1      41.664  27.566  28.958  1.00  0.00     0.031 A 
ATOM     55  C   UNL A   1      41.057  32.430  34.227  1.00  0.00     0.031 A 
ATOM     56  C   UNL A   1      42.521  27.748  30.128  1.00  0.00     0.049 A 
ATOM     57  C   UNL A   1      41.516  31.043  34.622  1.00  0.00     0.074 A 
ATOM     58  C   UNL A   1      43.723  28.409  30.322  1.00  0.00     0.029 A 
ATOM     59  N   UNL A   1      42.019  27.464  31.393  1.00  0.00    -0.354 N 
ATOM     60  N   UNL A   1      41.855  30.115  33.770  1.00  0.00    -0.248 NA
ATOM     61  C   UNL A   1      41.588  30.576  36.006  1.00  0.00     0.031 C 
ATOM     62  C   UNL A   1      43.914  28.572  31.720  1.00  0.00     0.029 A 
ATOM     63  C   UNL A   1      42.842  27.989  32.371  1.00  0.00     0.049 A 
ATOM     64  H   UNL A   1      41.193  26.959  31.568  1.00  0.00     0.167 HD
ATOM     65  C   UNL A   1      42.164  28.960  34.442  1.00  0.00     0.074 A 
ATOM     66  C   UNL A   1      41.996  29.305  35.842  1.00  0.00     0.031 C 
ATOM     67  C   UNL A   1      42.514  27.819  33.780  1.00  0.00     0.031 A 
BRANCH  54  68
ATOM     68  C   UNL A   1      42.089  26.806  27.722  1.00  0.00    -0.014 A 
ATOM     69  C   UNL A   1      42.556  27.513  26.599  1.00  0.00     0.009 A 
ATOM     70  C   UNL A   1      41.996  25.412  27.570  1.00  0.00     0.009 A 
ATOM     71  C   UNL A   1      42.810  26.884  25.373  1.00  0.00     0.001 A 
ATOM     72  C   UNL A   1      42.207  24.779  26.338  1.00  0.00     0.001 A 
ATOM     73  C   UNL A   1      42.604  25.518  25.234  1.00  0.00     0.000 A 
ENDBRANCH  54  68
BRANCH  55  74
ATOM     74  C   UNL A   1      39.823  33.091  34.737  1.00  0.00    -0.014 A 
ATOM     75  C   UNL A   1      38.595  32.418  34.581  1.00  0.00     0.009 A 
ATOM     76  C   UNL A   1      39.902  34.135  35.670  1.00  0.00     0.009 A 
ATOM     77  C   UNL A   1      37.512  32.701  35.420  1.00  0.00     0.001 A 
ATOM     78  C   UNL A   1      38.811  34.421  36.501  1.00  0.00     0.001 A 
ATOM     79  C   UNL A   1      37.632  33.681  36.401  1.00  0.00     0.000 A 
ENDBRANCH  55  74
BRANCH  67  80
ATOM     80  C   UNL A   1      42.651  26.437  34.380  1.00  0.00    -0.014 A 
ATOM     81  C   UNL A   1      41.690  25.822  35.191  1.00  0.00     0.009 A 
ATOM     82  C   UNL A   1      43.759  25.641  34.005  1.00  0.00     0.009 A 
ATOM     83  C   UNL A   1      41.846  24.500  35.636  1.00  0.00     0.001 A 
ATOM     84  C   UNL A   1      43.897  24.310  34.407  1.00  0.00     0.001 A 
ATOM     85  C   UNL A   1      42.942  23.742  35.236  1.00  0.00     0.000 A 
ENDBRANCH  67  80
ENDBRANCH  41  42
ENDBRANCH  33  36
ENDBRANCH  31  32
ENDBRANCH  30  31
ENDBRANCH   1  30
TORSDOF 15
ENDMDL
MODEL 2
REMARK VINA RESULT:     -12.9      1.935      3.332
REMARK SMILES Cc1cccc(-c2cc(C[C@]3(C(=O)NCCCNC(=O)c4ccc(-c5c6nc(c(-c7ccccc7)c7ccc([nH]7)c(-c7ccccc7)c7nc(c(-c8ccccc8)c8ccc5[nH]8)C=C7)C=C6)cc4)CCCN(C(=O)C(C)C)C3)on2)c1
REMARK SMILES IDX 15 1 14 2 12 3 13 4 11 6 69 7 78 8 70 9 72 10 71 11 10 12
REMARK SMILES IDX 9 13 7 14 8 15 80 16 79 17 6 18 1 19 2 20 3 21 81 22 4 23
REMARK SMILES IDX 5 24 73 25 74 26 75 27 76 28 77 29 16 30 17 31 18 32 19 33
REMARK SMILES IDX 20 35 21 36 22 37 68 38 23 39 67 40 24 41 25 42 26 43 61 44
REMARK SMILES IDX 27 45 66 46 60 47 62 48 28 49 65 50 59 51 58 52 29 54 51 55
REMARK SMILES IDX 36 56 50 57 37 58 40 59 49 60 63 61 38 62 39 63 48 65 64 66
REMARK SMILES IDX 41 67 30 68 31 69 35 70 32 71 34 72 33 73 52 74 53 75 57 76
REMARK SMILES IDX 54 77 56 78 55 79 42 80 43 81 47 82 44 83 46 84 45 85
REMARK H PARENT 14 5 18 34 62 53 40 64
REMARK Flexibility Score: inf
ROOT
ATOM      1  C   UNL A   1      32.632  30.094  26.352  1.00  0.00     0.117 C 
ENDROOT
BRANCH   1   2
ATOM      2  N   UNL A   1      32.095  28.806  26.785  1.00  0.00    -0.355 N 
ATOM      3  C   UNL A   1      31.546  27.732  26.138  1.00  0.00     0.228 C 
ATOM      4  O   UNL A   1      31.301  26.757  26.859  1.00  0.00    -0.274 OA
ATOM      5  H   UNL A   1      32.136  28.683  27.762  1.00  0.00     0.163 HD
BRANCH   3   6
ATOM      6  C   UNL A   1      31.177  27.718  24.629  1.00  0.00     0.074 C 
ATOM      7  C   UNL A   1      30.487  26.352  24.343  1.00  0.00     0.021 C 
ATOM      8  C   UNL A   1      30.361  28.994  24.294  1.00  0.00     0.136 C 
ATOM      9  C   UNL A   1      29.323  26.369  23.359  1.00  0.00     0.023 C 
ATOM     10  N   UNL A   1      29.295  28.784  23.309  1.00  0.00    -0.341 N 
ATOM     11  C   UNL A   1      28.472  27.608  23.530  1.00  0.00     0.119 C 
BRANCH   6  12
ATOM     12  C   UNL A   1      32.529  27.778  23.824  1.00  0.00     0.097 C 
BRANCH  12  13
ATOM     13  C   UNL A   1      33.213  26.468  23.609  1.00  0.00     0.138 A 
ATOM     14  C   UNL A   1      34.235  24.502  23.591  1.00  0.00     0.114 A 
ATOM     15  C   UNL A   1      33.683  25.486  24.449  1.00  0.00     0.077 A 
ATOM     16  N   UNL A   1      34.087  24.863  22.307  1.00  0.00    -0.080 NA
ATOM     17  O   UNL A   1      33.425  26.079  22.322  1.00  0.00    -0.361 OA
BRANCH  14  18
ATOM     18  C   UNL A   1      34.917  23.273  23.976  1.00  0.00     0.004 A 
ATOM     19  C   UNL A   1      34.105  19.699  25.027  1.00  0.00     0.044 C 
ATOM     20  C   UNL A   1      34.862  20.952  24.700  1.00  0.00    -0.050 A 
ATOM     21  C   UNL A   1      36.260  20.952  24.792  1.00  0.00     0.003 A 
ATOM     22  C   UNL A   1      34.193  22.122  24.305  1.00  0.00     0.014 A 
ATOM     23  C   UNL A   1      36.985  22.092  24.462  1.00  0.00     0.001 A 
ATOM     24  C   UNL A   1      36.313  23.239  24.043  1.00  0.00     0.010 A 
ENDBRANCH  14  18
ENDBRANCH  12  13
ENDBRANCH   6  12
BRANCH  10  25
ATOM     25  C   UNL A   1      29.158  29.699  22.280  1.00  0.00     0.225 C 
ATOM     26  O   UNL A   1      29.990  29.745  21.366  1.00  0.00    -0.275 OA
BRANCH  25  27
ATOM     27  C   UNL A   1      28.004  30.707  22.250  1.00  0.00     0.072 C 
ATOM     28  C   UNL A   1      27.606  31.331  23.585  1.00  0.00     0.018 C 
ATOM     29  C   UNL A   1      28.194  31.746  21.153  1.00  0.00     0.018 C 
ENDBRANCH  25  27
ENDBRANCH  10  25
ENDBRANCH   3   6
ENDBRANCH   1   2
BRANCH   1  30
ATOM     30  C   UNL A   1      34.101  30.300  26.698  1.00  0.00     0.042 C 
BRANCH  30  31
ATOM     31  C   UNL A   1      34.413  30.080  28.167  1.00  0.00     0.118 C 
BRANCH  31  32
ATOM     32  N   UNL A   1      35.247  31.112  28.775  1.00  0.00    -0.352 N 
ATOM     33  C   UNL A   1      36.570  31.028  29.193  1.00  0.00     0.251 C 
ATOM     34  H   UNL A   1      34.814  31.986  28.905  1.00  0.00     0.163 HD
ATOM     35  O   UNL A   1      37.130  31.995  29.674  1.00  0.00    -0.269 OA
BRANCH  33  36
ATOM     36  C   UNL A   1      37.327  29.783  28.909  1.00  0.00     0.039 A 
ATOM     37  C   UNL A   1      37.474  28.862  29.950  1.00  0.00     0.014 A 
ATOM     38  C   UNL A   1      38.108  29.682  27.764  1.00  0.00     0.014 A 
ATOM     39  C   UNL A   1      38.591  28.033  29.963  1.00  0.00     0.010 A 
ATOM     40  C   UNL A   1      39.285  28.972  27.842  1.00  0.00     0.010 A 
ATOM     41  C   UNL A   1      39.557  28.197  28.973  1.00  0.00    -0.014 A 
BRANCH  41  42
ATOM     42  C   UNL A   1      40.922  27.701  29.100  1.00  0.00     0.031 A 
ATOM     43  C   UNL A   1      41.271  26.352  28.615  1.00  0.00     0.074 A 
ATOM     44  C   UNL A   1      41.887  28.500  29.607  1.00  0.00     0.049 A 
ATOM     45  N   UNL A   1      42.268  25.663  29.054  1.00  0.00    -0.248 NA
ATOM     46  C   UNL A   1      40.472  25.641  27.623  1.00  0.00     0.031 C 
ATOM     47  C   UNL A   1      43.332  28.297  29.552  1.00  0.00     0.029 A 
ATOM     48  N   UNL A   1      41.726  29.577  30.472  1.00  0.00    -0.354 N 
ATOM     49  C   UNL A   1      42.426  24.587  28.213  1.00  0.00     0.074 A 
ATOM     50  C   UNL A   1      41.233  24.567  27.400  1.00  0.00     0.031 C 
ATOM     51  C   UNL A   1      43.914  29.043  30.505  1.00  0.00     0.029 A 
ATOM     52  C   UNL A   1      42.854  29.635  31.305  1.00  0.00     0.049 A 
ATOM     53  H   UNL A   1      40.957  30.191  30.496  1.00  0.00     0.167 HD
ATOM     54  C   UNL A   1      43.614  23.922  28.191  1.00  0.00     0.031 A 
ATOM     55  C   UNL A   1      42.734  29.495  32.658  1.00  0.00     0.031 A 
ATOM     56  C   UNL A   1      44.538  24.426  29.206  1.00  0.00     0.049 A 
ATOM     57  C   UNL A   1      43.445  28.278  33.210  1.00  0.00     0.074 A 
ATOM     58  C   UNL A   1      45.631  25.274  29.148  1.00  0.00     0.029 A 
ATOM     59  N   UNL A   1      44.210  24.298  30.551  1.00  0.00    -0.354 N 
ATOM     60  N   UNL A   1      43.847  27.274  32.481  1.00  0.00    -0.248 NA
ATOM     61  C   UNL A   1      43.721  28.076  34.631  1.00  0.00     0.031 C 
ATOM     62  C   UNL A   1      45.924  25.705  30.469  1.00  0.00     0.029 A 
ATOM     63  C   UNL A   1      45.025  25.098  31.328  1.00  0.00     0.049 A 
ATOM     64  H   UNL A   1      43.495  23.719  30.901  1.00  0.00     0.167 HD
ATOM     65  C   UNL A   1      44.399  26.310  33.285  1.00  0.00     0.074 A 
ATOM     66  C   UNL A   1      44.310  26.867  34.623  1.00  0.00     0.031 C 
ATOM     67  C   UNL A   1      44.863  25.132  32.775  1.00  0.00     0.031 A 
BRANCH  54  68
ATOM     68  C   UNL A   1      44.038  23.026  27.049  1.00  0.00    -0.014 A 
ATOM     69  C   UNL A   1      43.194  21.976  26.642  1.00  0.00     0.009 A 
ATOM     70  C   UNL A   1      45.269  23.115  26.378  1.00  0.00     0.009 A 
ATOM     71  C   UNL A   1      43.597  21.015  25.705  1.00  0.00     0.001 A 
ATOM     72  C   UNL A   1      45.698  22.137  25.470  1.00  0.00     0.001 A 
ATOM     73  C   UNL A   1      44.865  21.078  25.142  1.00  0.00     0.000 A 
ENDBRANCH  54  68
BRANCH  55  74
ATOM     74  C   UNL A   1      41.464  30.053  33.201  1.00  0.00    -0.014 A 
ATOM     75  C   UNL A   1      41.313  31.454  33.236  1.00  0.00     0.009 A 
ATOM     76  C   UNL A   1      40.318  29.252  33.310  1.00  0.00     0.009 A 
ATOM     77  C   UNL A   1      40.041  32.036  33.257  1.00  0.00     0.001 A 
ATOM     78  C   UNL A   1      39.048  29.840  33.340  1.00  0.00     0.001 A 
ATOM     79  C   UNL A   1      38.908  31.227  33.277  1.00  0.00     0.000 A 
ENDBRANCH  55  74
BRANCH  67  80
ATOM     80  C   UNL A   1      45.277  23.911  33.566  1.00  0.00    -0.014 A 
ATOM     81  C   UNL A   1      46.566  23.682  34.062  1.00  0.00     0.009 A 
ATOM     82  C   UNL A   1      44.280  22.985  33.956  1.00  0.00     0.009 A 
ATOM     83  C   UNL A   1      46.853  22.569  34.866  1.00  0.00     0.001 A 
ATOM     84  C   UNL A   1      44.550  21.901  34.795  1.00  0.00     0.001 A 
ATOM     85  C   UNL A   1      45.845  21.686  35.241  1.00  0.00     0.000 A 
ENDBRANCH  67  80
ENDBRANCH  41  42
ENDBRANCH  33  36
ENDBRANCH  31  32
ENDBRANCH  30  31
ENDBRANCH   1  30
TORSDOF 15
ENDMDL
MODEL 3
REMARK VINA RESULT:     -12.8      2.060      3.643
REMARK SMILES Cc1cccc(-c2cc(C[C@]3(C(=O)NCCCNC(=O)c4ccc(-c5c6nc(c(-c7ccccc7)c7ccc([nH]7)c(-c7ccccc7)c7nc(c(-c8ccccc8)c8ccc5[nH]8)C=C7)C=C6)cc4)CCCN(C(=O)C(C)C)C3)on2)c1
REMARK SMILES IDX 15 1 14 2 12 3 13 4 11 6 69 7 78 8 70 9 72 10 71 11 10 12
REMARK SMILES IDX 9 13 7 14 8 15 80 16 79 17 6 18 1 19 2 20 3 21 81 22 4 23
REMARK SMILES IDX 5 24 73 25 74 26 75 27 76 28 77 29 16 30 17 31 18 32 19 33
REMARK SMILES IDX 20 35 21 36 22 37 68 38 23 39 67 40 24 41 25 42 26 43 61 44
REMARK SMILES IDX 27 45 66 46 60 47 62 48 28 49 65 50 59 51 58 52 29 54 51 55
REMARK SMILES IDX 36 56 50 57 37 58 40 59 49 60 63 61 38 62 39 63 48 65 64 66
REMARK SMILES IDX 41 67 30 68 31 69 35 70 32 71 34 72 33 73 52 74 53 75 57 76
REMARK SMILES IDX 54 77 56 78 55 79 42 80 43 81 47 82 44 83 46 84 45 85
REMARK H PARENT 14 5 18 34 62 53 40 64
REMARK Flexibility Score: inf
ROOT
ATOM      1  C   UNL A   1      31.413  30.156  26.031  1.00  0.00     0.117 C 
ENDROOT
BRANCH   1   2
ATOM      2  N   UNL A   1      31.337  30.018  24.579  1.00  0.00    -0.355 N 
ATOM      3  C   UNL A   1      31.408  28.960  23.714  1.00  0.00     0.228 C 
ATOM      4  O   UNL A   1      31.187  29.238  22.529  1.00  0.00    -0.274 OA
ATOM      5  H   UNL A   1      31.205  30.879  24.119  1.00  0.00     0.163 HD
BRANCH   3   6
ATOM      6  C   UNL A   1      31.801  27.516  24.132  1.00  0.00     0.074 C 
ATOM      7  C   UNL A   1      33.261  27.582  24.670  1.00  0.00     0.021 C 
ATOM      8  C   UNL A   1      30.727  26.957  25.101  1.00  0.00     0.136 C 
ATOM      9  C   UNL A   1      33.590  26.691  25.862  1.00  0.00     0.023 C 
ATOM     10  N   UNL A   1      31.265  26.109  26.169  1.00  0.00    -0.341 N 
ATOM     11  C   UNL A   1      32.439  26.635  26.843  1.00  0.00     0.119 C 
BRANCH   6  12
ATOM     12  C   UNL A   1      31.785  26.638  22.826  1.00  0.00     0.097 C 
BRANCH  12  13
ATOM     13  C   UNL A   1      32.517  25.338  22.909  1.00  0.00     0.138 A 
ATOM     14  C   UNL A   1      33.381  23.322  23.220  1.00  0.00     0.114 A 
ATOM     15  C   UNL A   1      32.284  24.152  23.564  1.00  0.00     0.077 A 
ATOM     16  N   UNL A   1      34.214  23.966  22.388  1.00  0.00    -0.080 NA
ATOM     17  O   UNL A   1      33.657  25.216  22.177  1.00  0.00    -0.361 OA
BRANCH  14  18
ATOM     18  C   UNL A   1      33.652  21.972  23.695  1.00  0.00     0.004 A 
ATOM     19  C   UNL A   1      32.153  18.470  23.525  1.00  0.00     0.044 C 
ATOM     20  C   UNL A   1      33.048  19.622  23.871  1.00  0.00    -0.050 A 
ATOM     21  C   UNL A   1      34.161  19.402  24.694  1.00  0.00     0.003 A 
ATOM     22  C   UNL A   1      32.790  20.914  23.386  1.00  0.00     0.014 A 
ATOM     23  C   UNL A   1      35.024  20.449  25.001  1.00  0.00     0.001 A 
ATOM     24  C   UNL A   1      34.774  21.722  24.490  1.00  0.00     0.010 A 
ENDBRANCH  14  18
ENDBRANCH  12  13
ENDBRANCH   6  12
BRANCH  10  25
ATOM     25  C   UNL A   1      30.626  24.914  26.448  1.00  0.00     0.225 C 
ATOM     26  O   UNL A   1      29.465  24.908  26.876  1.00  0.00    -0.275 OA
BRANCH  25  27
ATOM     27  C   UNL A   1      31.334  23.565  26.276  1.00  0.00     0.072 C 
ATOM     28  C   UNL A   1      32.467  23.258  27.252  1.00  0.00     0.018 C 
ATOM     29  C   UNL A   1      30.338  22.420  26.159  1.00  0.00     0.018 C 
ENDBRANCH  25  27
ENDBRANCH  10  25
ENDBRANCH   3   6
ENDBRANCH   1   2
BRANCH   1  30
ATOM     30  C   UNL A   1      32.364  31.250  26.500  1.00  0.00     0.042 C 
BRANCH  30  31
ATOM     31  C   UNL A   1      33.561  30.721  27.269  1.00  0.00     0.118 C 
BRANCH  31  32
ATOM     32  N   UNL A   1      34.177  31.685  28.176  1.00  0.00    -0.352 N 
ATOM     33  C   UNL A   1      35.333  31.550  28.936  1.00  0.00     0.251 C 
ATOM     34  H   UNL A   1      33.709  32.547  28.262  1.00  0.00     0.163 HD
ATOM     35  O   UNL A   1      35.722  32.462  29.640  1.00  0.00    -0.269 OA
BRANCH  33  36
ATOM     36  C   UNL A   1      36.161  30.330  28.759  1.00  0.00     0.039 A 
ATOM     37  C   UNL A   1      36.400  29.540  29.887  1.00  0.00     0.014 A 
ATOM     38  C   UNL A   1      36.911  30.152  27.603  1.00  0.00     0.014 A 
ATOM     39  C   UNL A   1      37.568  28.788  29.947  1.00  0.00     0.010 A 
ATOM     40  C   UNL A   1      38.134  29.528  27.712  1.00  0.00     0.010 A 
ATOM     41  C   UNL A   1      38.491  28.901  28.909  1.00  0.00    -0.014 A 
BRANCH  41  42
ATOM     42  C   UNL A   1      39.888  28.506  29.037  1.00  0.00     0.031 A 
ATOM     43  C   UNL A   1      40.347  27.212  28.497  1.00  0.00     0.074 A 
ATOM     44  C   UNL A   1      40.781  29.352  29.596  1.00  0.00     0.049 A 
ATOM     45  N   UNL A   1      41.389  26.582  28.922  1.00  0.00    -0.248 NA
ATOM     46  C   UNL A   1      39.621  26.488  27.461  1.00  0.00     0.031 C 
ATOM     47  C   UNL A   1      42.238  29.265  29.557  1.00  0.00     0.029 A 
ATOM     48  N   UNL A   1      40.524  30.373  30.506  1.00  0.00    -0.354 N 
ATOM     49  C   UNL A   1      41.642  25.562  28.036  1.00  0.00     0.074 A 
ATOM     50  C   UNL A   1      40.465  25.488  27.202  1.00  0.00     0.031 C 
ATOM     51  C   UNL A   1      42.747  30.008  30.553  1.00  0.00     0.029 A 
ATOM     52  C   UNL A   1      41.633  30.479  31.360  1.00  0.00     0.049 A 
ATOM     53  H   UNL A   1      39.710  30.924  30.545  1.00  0.00     0.167 HD
ATOM     54  C   UNL A   1      42.879  24.993  28.005  1.00  0.00     0.031 A 
ATOM     55  C   UNL A   1      41.506  30.268  32.703  1.00  0.00     0.031 A 
ATOM     56  C   UNL A   1      43.747  25.518  29.057  1.00  0.00     0.049 A 
ATOM     57  C   UNL A   1      42.302  29.085  33.212  1.00  0.00     0.074 A 
ATOM     58  C   UNL A   1      44.771  26.451  29.057  1.00  0.00     0.029 A 
ATOM     59  N   UNL A   1      43.411  25.304  30.389  1.00  0.00    -0.354 N 
ATOM     60  N   UNL A   1      42.791  28.149  32.446  1.00  0.00    -0.248 NA
ATOM     61  C   UNL A   1      42.573  28.839  34.627  1.00  0.00     0.031 C 
ATOM     62  C   UNL A   1      45.011  26.841  30.401  1.00  0.00     0.029 A 
ATOM     63  C   UNL A   1      44.151  26.127  31.216  1.00  0.00     0.049 A 
ATOM     64  H   UNL A   1      42.739  24.655  30.701  1.00  0.00     0.167 HD
ATOM     65  C   UNL A   1      43.404  27.195  33.215  1.00  0.00     0.074 A 
ATOM     66  C   UNL A   1      43.254  27.680  34.574  1.00  0.00     0.031 C 
ATOM     67  C   UNL A   1      43.967  26.081  32.660  1.00  0.00     0.031 A 
BRANCH  54  68
ATOM     68  C   UNL A   1      43.387  24.186  26.831  1.00  0.00    -0.014 A 
ATOM     69  C   UNL A   1      44.324  24.756  25.951  1.00  0.00     0.009 A 
ATOM     70  C   UNL A   1      42.942  22.895  26.497  1.00  0.00     0.009 A 
ATOM     71  C   UNL A   1      44.709  24.126  24.760  1.00  0.00     0.001 A 
ATOM     72  C   UNL A   1      43.289  22.275  25.289  1.00  0.00     0.001 A 
ATOM     73  C   UNL A   1      44.166  22.897  24.413  1.00  0.00     0.000 A 
ENDBRANCH  54  68
BRANCH  55  74
ATOM     74  C   UNL A   1      40.188  30.699  33.249  1.00  0.00    -0.014 A 
ATOM     75  C   UNL A   1      39.925  32.081  33.339  1.00  0.00     0.009 A 
ATOM     76  C   UNL A   1      39.109  29.806  33.308  1.00  0.00     0.009 A 
ATOM     77  C   UNL A   1      38.611  32.559  33.364  1.00  0.00     0.001 A 
ATOM     78  C   UNL A   1      37.795  30.290  33.343  1.00  0.00     0.001 A 
ATOM     79  C   UNL A   1      37.546  31.664  33.333  1.00  0.00     0.000 A 
ENDBRANCH  55  74
BRANCH  67  80
ATOM     80  C   UNL A   1      44.463  24.860  33.402  1.00  0.00    -0.014 A 
ATOM     81  C   UNL A   1      45.812  24.554  33.620  1.00  0.00     0.009 A 
ATOM     82  C   UNL A   1      43.518  24.023  34.041  1.00  0.00     0.009 A 
ATOM     83  C   UNL A   1      46.195  23.451  34.397  1.00  0.00     0.001 A 
ATOM     84  C   UNL A   1      43.894  22.951  34.854  1.00  0.00     0.001 A 
ATOM     85  C   UNL A   1      45.239  22.657  35.022  1.00  0.00     0.000 A 
ENDBRANCH  67  80
ENDBRANCH  41  42
ENDBRANCH  33  36
ENDBRANCH  31  32
ENDBRANCH  30  31
ENDBRANCH   1  30
TORSDOF 15
ENDMDL
