MODEL 1
REMARK VINA RESULT:      -9.3      0.000      0.000
REMARK SMILES C[C@H](SCCO)[C@@H](C)C(=O)NCCCNC(=O)c1ccc(-c2c3nc(c(-c4ccccc4)c4ccc([nH]4)c(-c4ccccc4)c4nc(c(-c5ccccc5)c5ccc2[nH]5)C=C4)C=C3)cc1
REMARK SMILES IDX 9 1 10 2 11 3 7 5 8 6 2 7 1 8 3 9 4 10 5 11 6 12 12 14 13 15
REMARK SMILES IDX 14 16 15 17 16 18 17 20 18 21 19 22 65 23 20 24 64 25 21 26
REMARK SMILES IDX 22 27 23 28 58 29 24 30 63 31 57 32 59 33 25 34 62 35 56 36
REMARK SMILES IDX 55 37 26 39 48 40 33 41 47 42 34 43 37 44 46 45 60 46 35 47
REMARK SMILES IDX 36 48 45 50 61 51 38 52 27 53 28 54 32 55 29 56 31 57 30 58
REMARK SMILES IDX 49 59 50 60 54 61 51 62 53 63 52 64 39 65 40 66 44 67 41 68
REMARK SMILES IDX 43 69 42 70
REMARK H PARENT 11 4 6 13 15 19 59 38 37 49
REMARK Flexibility Score: inf
ROOT
ATOM      1  C   UNL A   1      31.552  24.623  26.497  1.00  0.00     0.223 C 
ATOM      2  O   UNL A   1      31.026  23.720  27.155  1.00  0.00    -0.275 OA
ATOM      3  N   UNL A   1      31.319  25.898  26.905  1.00  0.00    -0.356 N 
ATOM      4  H   UNL A   1      30.764  25.966  27.715  1.00  0.00     0.163 HD
ENDROOT
BRANCH   1   5
ATOM      5  C   UNL A   1      32.430  24.285  25.293  1.00  0.00     0.088 C 
ATOM      6  C   UNL A   1      31.571  23.639  24.206  1.00  0.00     0.019 C 
BRANCH   5   7
ATOM      7  C   UNL A   1      33.733  23.565  25.711  1.00  0.00     0.055 C 
ATOM      8  C   UNL A   1      34.956  24.429  25.354  1.00  0.00     0.020 C 
BRANCH   7   9
ATOM      9  S   UNL A   1      34.021  21.929  24.906  1.00  0.00    -0.156 SA
BRANCH   9  10
ATOM     10  C   UNL A   1      33.096  20.772  25.988  1.00  0.00     0.098 C 
BRANCH  10  11
ATOM     11  C   UNL A   1      33.011  19.334  25.484  1.00  0.00     0.167 C 
BRANCH  11  12
ATOM     12  O   UNL A   1      32.792  18.408  26.541  1.00  0.00    -0.396 OA
ATOM     13  H   UNL A   1      31.907  18.544  26.913  1.00  0.00     0.210 HD
ENDBRANCH  11  12
ENDBRANCH  10  11
ENDBRANCH   9  10
ENDBRANCH   7   9
ENDBRANCH   5   7
ENDBRANCH   1   5
BRANCH   3  14
ATOM     14  C   UNL A   1      31.739  27.179  26.363  1.00  0.00     0.117 C 
BRANCH  14  15
ATOM     15  C   UNL A   1      32.129  28.163  27.460  1.00  0.00     0.042 C 
BRANCH  15  16
ATOM     16  C   UNL A   1      33.510  28.782  27.278  1.00  0.00     0.118 C 
BRANCH  16  17
ATOM     17  N   UNL A   1      33.550  30.186  27.671  1.00  0.00    -0.352 N 
ATOM     18  C   UNL A   1      34.527  30.898  28.312  1.00  0.00     0.251 C 
ATOM     19  H   UNL A   1      32.745  30.703  27.439  1.00  0.00     0.163 HD
ATOM     20  O   UNL A   1      34.274  32.033  28.726  1.00  0.00    -0.269 OA
BRANCH  18  21
ATOM     21  C   UNL A   1      35.872  30.329  28.529  1.00  0.00     0.039 A 
ATOM     22  C   UNL A   1      36.802  30.374  27.485  1.00  0.00     0.014 A 
ATOM     23  C   UNL A   1      36.214  29.714  29.737  1.00  0.00     0.014 A 
ATOM     24  C   UNL A   1      38.087  29.861  27.674  1.00  0.00     0.010 A 
ATOM     25  C   UNL A   1      37.518  29.277  29.951  1.00  0.00     0.010 A 
ATOM     26  C   UNL A   1      38.467  29.339  28.920  1.00  0.00    -0.014 A 
BRANCH  26  27
ATOM     27  C   UNL A   1      39.848  28.849  29.162  1.00  0.00     0.031 A 
ATOM     28  C   UNL A   1      40.878  29.757  29.777  1.00  0.00     0.074 A 
ATOM     29  C   UNL A   1      40.193  27.607  28.769  1.00  0.00     0.049 A 
ATOM     30  N   UNL A   1      42.148  29.531  30.004  1.00  0.00    -0.248 NA
ATOM     31  C   UNL A   1      40.430  31.104  30.164  1.00  0.00     0.031 C 
ATOM     32  C   UNL A   1      39.300  26.641  28.129  1.00  0.00     0.029 A 
ATOM     33  N   UNL A   1      41.395  26.949  28.846  1.00  0.00    -0.354 N 
ATOM     34  C   UNL A   1      42.652  30.711  30.538  1.00  0.00     0.074 A 
ATOM     35  C   UNL A   1      41.564  31.664  30.557  1.00  0.00     0.031 C 
ATOM     36  C   UNL A   1      39.976  25.505  27.897  1.00  0.00     0.029 A 
ATOM     37  C   UNL A   1      41.358  25.676  28.331  1.00  0.00     0.049 A 
ATOM     38  H   UNL A   1      42.206  27.351  29.234  1.00  0.00     0.167 HD
ATOM     39  C   UNL A   1      43.902  30.973  30.989  1.00  0.00     0.031 A 
ATOM     40  C   UNL A   1      42.330  24.752  28.215  1.00  0.00     0.031 A 
ATOM     41  C   UNL A   1      44.981  30.022  30.982  1.00  0.00     0.049 A 
ATOM     42  C   UNL A   1      43.712  25.071  28.712  1.00  0.00     0.074 A 
ATOM     43  C   UNL A   1      46.267  30.174  31.470  1.00  0.00     0.029 A 
ATOM     44  N   UNL A   1      44.900  28.742  30.458  1.00  0.00    -0.354 N 
ATOM     45  N   UNL A   1      44.155  26.169  29.273  1.00  0.00    -0.248 NA
ATOM     46  C   UNL A   1      44.726  24.015  28.568  1.00  0.00     0.031 C 
ATOM     47  C   UNL A   1      46.979  29.002  31.196  1.00  0.00     0.029 A 
ATOM     48  C   UNL A   1      46.121  28.100  30.588  1.00  0.00     0.049 A 
ATOM     49  H   UNL A   1      44.094  28.347  30.052  1.00  0.00     0.167 HD
ATOM     50  C   UNL A   1      45.489  25.929  29.575  1.00  0.00     0.074 A 
ATOM     51  C   UNL A   1      45.779  24.575  29.148  1.00  0.00     0.031 C 
ATOM     52  C   UNL A   1      46.394  26.754  30.155  1.00  0.00     0.031 A 
BRANCH  39  53
ATOM     53  C   UNL A   1      44.169  32.353  31.524  1.00  0.00    -0.014 A 
ATOM     54  C   UNL A   1      44.614  33.387  30.682  1.00  0.00     0.009 A 
ATOM     55  C   UNL A   1      43.947  32.633  32.880  1.00  0.00     0.009 A 
ATOM     56  C   UNL A   1      44.867  34.659  31.198  1.00  0.00     0.001 A 
ATOM     57  C   UNL A   1      44.171  33.914  33.387  1.00  0.00     0.001 A 
ATOM     58  C   UNL A   1      44.641  34.923  32.548  1.00  0.00     0.000 A 
ENDBRANCH  39  53
BRANCH  40  59
ATOM     59  C   UNL A   1      42.027  23.426  27.616  1.00  0.00    -0.014 A 
ATOM     60  C   UNL A   1      42.296  23.181  26.261  1.00  0.00     0.009 A 
ATOM     61  C   UNL A   1      41.466  22.402  28.393  1.00  0.00     0.009 A 
ATOM     62  C   UNL A   1      41.986  21.944  25.691  1.00  0.00     0.001 A 
ATOM     63  C   UNL A   1      41.183  21.156  27.827  1.00  0.00     0.001 A 
ATOM     64  C   UNL A   1      41.435  20.932  26.474  1.00  0.00     0.000 A 
ENDBRANCH  40  59
BRANCH  52  65
ATOM     65  C   UNL A   1      47.771  26.204  30.395  1.00  0.00    -0.014 A 
ATOM     66  C   UNL A   1      48.738  26.191  29.377  1.00  0.00     0.009 A 
ATOM     67  C   UNL A   1      48.117  25.730  31.670  1.00  0.00     0.009 A 
ATOM     68  C   UNL A   1      50.014  25.681  29.624  1.00  0.00     0.001 A 
ATOM     69  C   UNL A   1      49.402  25.247  31.921  1.00  0.00     0.001 A 
ATOM     70  C   UNL A   1      50.346  25.214  30.896  1.00  0.00     0.000 A 
ENDBRANCH  52  65
ENDBRANCH  26  27
ENDBRANCH  18  21
ENDBRANCH  16  17
ENDBRANCH  15  16
ENDBRANCH  14  15
ENDBRANCH   3  14
TORSDOF 15
ENDMDL
MODEL 2
REMARK VINA RESULT:      -9.1      2.976      7.617
REMARK SMILES C[C@H](SCCO)[C@@H](C)C(=O)NCCCNC(=O)c1ccc(-c2c3nc(c(-c4ccccc4)c4ccc([nH]4)c(-c4ccccc4)c4nc(c(-c5ccccc5)c5ccc2[nH]5)C=C4)C=C3)cc1
REMARK SMILES IDX 9 1 10 2 11 3 7 5 8 6 2 7 1 8 3 9 4 10 5 11 6 12 12 14 13 15
REMARK SMILES IDX 14 16 15 17 16 18 17 20 18 21 19 22 65 23 20 24 64 25 21 26
REMARK SMILES IDX 22 27 23 28 58 29 24 30 63 31 57 32 59 33 25 34 62 35 56 36
REMARK SMILES IDX 55 37 26 39 48 40 33 41 47 42 34 43 37 44 46 45 60 46 35 47
REMARK SMILES IDX 36 48 45 50 61 51 38 52 27 53 28 54 32 55 29 56 31 57 30 58
REMARK SMILES IDX 49 59 50 60 54 61 51 62 53 63 52 64 39 65 40 66 44 67 41 68
REMARK SMILES IDX 43 69 42 70
REMARK H PARENT 11 4 6 13 15 19 59 38 37 49
REMARK Flexibility Score: inf
ROOT
ATOM      1  C   UNL A   1      36.306  22.734  23.746  1.00  0.00     0.223 C 
ATOM      2  O   UNL A   1      36.798  23.509  22.920  1.00  0.00    -0.275 OA
ATOM      3  N   UNL A   1      37.030  21.626  24.058  1.00  0.00    -0.356 N 
ATOM      4  H   UNL A   1      37.901  21.573  23.602  1.00  0.00     0.163 HD
ENDROOT
BRANCH   1   5
ATOM      5  C   UNL A   1      34.950  23.043  24.379  1.00  0.00     0.088 C 
ATOM      6  C   UNL A   1      35.128  23.238  25.884  1.00  0.00     0.019 C 
BRANCH   5   7
ATOM      7  C   UNL A   1      33.853  22.067  23.898  1.00  0.00     0.055 C 
ATOM      8  C   UNL A   1      32.851  22.799  22.987  1.00  0.00     0.020 C 
BRANCH   7   9
ATOM      9  S   UNL A   1      32.842  21.296  25.238  1.00  0.00    -0.156 SA
BRANCH   9  10
ATOM     10  C   UNL A   1      32.447  19.642  24.552  1.00  0.00     0.098 C 
BRANCH  10  11
ATOM     11  C   UNL A   1      33.071  18.463  25.293  1.00  0.00     0.167 C 
BRANCH  11  12
ATOM     12  O   UNL A   1      32.609  18.369  26.636  1.00  0.00    -0.396 OA
ATOM     13  H   UNL A   1      31.648  18.235  26.639  1.00  0.00     0.210 HD
ENDBRANCH  11  12
ENDBRANCH  10  11
ENDBRANCH   9  10
ENDBRANCH   7   9
ENDBRANCH   5   7
ENDBRANCH   1   5
BRANCH   3  14
ATOM     14  C   UNL A   1      36.753  20.509  24.943  1.00  0.00     0.117 C 
BRANCH  14  15
ATOM     15  C   UNL A   1      37.927  19.540  25.025  1.00  0.00     0.042 C 
BRANCH  15  16
ATOM     16  C   UNL A   1      39.118  20.070  25.814  1.00  0.00     0.118 C 
BRANCH  16  17
ATOM     17  N   UNL A   1      40.211  19.107  25.892  1.00  0.00    -0.352 N 
ATOM     18  C   UNL A   1      41.550  19.302  26.098  1.00  0.00     0.251 C 
ATOM     19  H   UNL A   1      39.942  18.167  25.778  1.00  0.00     0.163 HD
ATOM     20  O   UNL A   1      42.331  18.361  25.930  1.00  0.00    -0.269 OA
BRANCH  18  21
ATOM     21  C   UNL A   1      42.078  20.621  26.503  1.00  0.00     0.039 A 
ATOM     22  C   UNL A   1      42.575  21.481  25.518  1.00  0.00     0.014 A 
ATOM     23  C   UNL A   1      42.125  21.003  27.847  1.00  0.00     0.014 A 
ATOM     24  C   UNL A   1      43.060  22.741  25.873  1.00  0.00     0.010 A 
ATOM     25  C   UNL A   1      42.534  22.289  28.190  1.00  0.00     0.010 A 
ATOM     26  C   UNL A   1      43.012  23.170  27.209  1.00  0.00    -0.014 A 
BRANCH  26  27
ATOM     27  C   UNL A   1      43.461  24.530  27.600  1.00  0.00     0.031 A 
ATOM     28  C   UNL A   1      42.453  25.585  27.967  1.00  0.00     0.074 A 
ATOM     29  C   UNL A   1      44.772  24.837  27.560  1.00  0.00     0.049 A 
ATOM     30  N   UNL A   1      42.648  26.845  28.269  1.00  0.00    -0.248 NA
ATOM     31  C   UNL A   1      41.038  25.180  27.971  1.00  0.00     0.031 C 
ATOM     32  C   UNL A   1      45.847  23.917  27.186  1.00  0.00     0.029 A 
ATOM     33  N   UNL A   1      45.422  26.014  27.833  1.00  0.00    -0.354 N 
ATOM     34  C   UNL A   1      41.384  27.383  28.477  1.00  0.00     0.074 A 
ATOM     35  C   UNL A   1      40.428  26.329  28.220  1.00  0.00     0.031 C 
ATOM     36  C   UNL A   1      47.024  24.556  27.279  1.00  0.00     0.029 A 
ATOM     37  C   UNL A   1      46.785  25.939  27.677  1.00  0.00     0.049 A 
ATOM     38  H   UNL A   1      44.956  26.835  28.114  1.00  0.00     0.167 HD
ATOM     39  C   UNL A   1      41.049  28.637  28.865  1.00  0.00     0.031 A 
ATOM     40  C   UNL A   1      47.735  26.879  27.831  1.00  0.00     0.031 A 
ATOM     41  C   UNL A   1      41.999  29.683  29.133  1.00  0.00     0.049 A 
ATOM     42  C   UNL A   1      47.337  28.266  28.250  1.00  0.00     0.074 A 
ATOM     43  C   UNL A   1      41.761  30.969  29.586  1.00  0.00     0.029 A 
ATOM     44  N   UNL A   1      43.370  29.563  28.969  1.00  0.00    -0.354 N 
ATOM     45  N   UNL A   1      46.143  28.741  28.505  1.00  0.00    -0.248 NA
ATOM     46  C   UNL A   1      48.423  29.244  28.412  1.00  0.00     0.031 C 
ATOM     47  C   UNL A   1      42.985  31.643  29.649  1.00  0.00     0.029 A 
ATOM     48  C   UNL A   1      43.990  30.760  29.290  1.00  0.00     0.049 A 
ATOM     49  H   UNL A   1      43.835  28.748  28.670  1.00  0.00     0.167 HD
ATOM     50  C   UNL A   1      46.334  30.064  28.884  1.00  0.00     0.074 A 
ATOM     51  C   UNL A   1      47.761  30.311  28.840  1.00  0.00     0.031 C 
ATOM     52  C   UNL A   1      45.411  30.990  29.239  1.00  0.00     0.031 A 
BRANCH  39  53
ATOM     53  C   UNL A   1      39.585  28.947  29.015  1.00  0.00    -0.014 A 
ATOM     54  C   UNL A   1      38.915  28.733  30.231  1.00  0.00     0.009 A 
ATOM     55  C   UNL A   1      38.870  29.486  27.934  1.00  0.00     0.009 A 
ATOM     56  C   UNL A   1      37.553  29.016  30.349  1.00  0.00     0.001 A 
ATOM     57  C   UNL A   1      37.515  29.797  28.064  1.00  0.00     0.001 A 
ATOM     58  C   UNL A   1      36.856  29.552  29.267  1.00  0.00     0.000 A 
ENDBRANCH  39  53
BRANCH  40  59
ATOM     59  C   UNL A   1      49.164  26.536  27.604  1.00  0.00    -0.014 A 
ATOM     60  C   UNL A   1      49.734  26.677  26.329  1.00  0.00     0.009 A 
ATOM     61  C   UNL A   1      49.962  26.065  28.656  1.00  0.00     0.009 A 
ATOM     62  C   UNL A   1      51.068  26.329  26.109  1.00  0.00     0.001 A 
ATOM     63  C   UNL A   1      51.305  25.744  28.439  1.00  0.00     0.001 A 
ATOM     64  C   UNL A   1      51.853  25.869  27.164  1.00  0.00     0.000 A 
ENDBRANCH  40  59
BRANCH  52  65
ATOM     65  C   UNL A   1      45.918  32.346  29.642  1.00  0.00    -0.014 A 
ATOM     66  C   UNL A   1      46.282  32.623  30.969  1.00  0.00     0.009 A 
ATOM     67  C   UNL A   1      46.071  33.347  28.671  1.00  0.00     0.009 A 
ATOM     68  C   UNL A   1      46.758  33.888  31.320  1.00  0.00     0.001 A 
ATOM     69  C   UNL A   1      46.573  34.601  29.019  1.00  0.00     0.001 A 
ATOM     70  C   UNL A   1      46.908  34.873  30.345  1.00  0.00     0.000 A 
ENDBRANCH  52  65
ENDBRANCH  26  27
ENDBRANCH  18  21
ENDBRANCH  16  17
ENDBRANCH  15  16
ENDBRANCH  14  15
ENDBRANCH   3  14
TORSDOF 15
ENDMDL
MODEL 3
REMARK VINA RESULT:      -9.0      3.450      4.979
REMARK SMILES C[C@H](SCCO)[C@@H](C)C(=O)NCCCNC(=O)c1ccc(-c2c3nc(c(-c4ccccc4)c4ccc([nH]4)c(-c4ccccc4)c4nc(c(-c5ccccc5)c5ccc2[nH]5)C=C4)C=C3)cc1
REMARK SMILES IDX 9 1 10 2 11 3 7 5 8 6 2 7 1 8 3 9 4 10 5 11 6 12 12 14 13 15
REMARK SMILES IDX 14 16 15 17 16 18 17 20 18 21 19 22 65 23 20 24 64 25 21 26
REMARK SMILES IDX 22 27 23 28 58 29 24 30 63 31 57 32 59 33 25 34 62 35 56 36
REMARK SMILES IDX 55 37 26 39 48 40 33 41 47 42 34 43 37 44 46 45 60 46 35 47
REMARK SMILES IDX 36 48 45 50 61 51 38 52 27 53 28 54 32 55 29 56 31 57 30 58
REMARK SMILES IDX 49 59 50 60 54 61 51 62 53 63 52 64 39 65 40 66 44 67 41 68
REMARK SMILES IDX 43 69 42 70
REMARK H PARENT 11 4 6 13 15 19 59 38 37 49
REMARK Flexibility Score: inf
ROOT
ATOM      1  C   UNL A   1      33.288  29.005  26.069  1.00  0.00     0.223 C 
ATOM      2  O   UNL A   1      34.267  28.632  26.723  1.00  0.00    -0.275 OA
ATOM      3  N   UNL A   1      32.624  30.100  26.525  1.00  0.00    -0.356 N 
ATOM      4  H   UNL A   1      33.020  30.503  27.332  1.00  0.00     0.163 HD
ENDROOT
BRANCH   1   5
ATOM      5  C   UNL A   1      32.878  28.256  24.802  1.00  0.00     0.088 C 
ATOM      6  C   UNL A   1      33.450  28.976  23.581  1.00  0.00     0.019 C 
BRANCH   5   7
ATOM      7  C   UNL A   1      31.372  27.908  24.799  1.00  0.00     0.055 C 
ATOM      8  C   UNL A   1      31.084  26.785  25.812  1.00  0.00     0.020 C 
BRANCH   7   9
ATOM      9  S   UNL A   1      30.704  27.311  23.185  1.00  0.00    -0.156 SA
BRANCH   9  10
ATOM     10  C   UNL A   1      29.331  28.482  22.852  1.00  0.00     0.098 C 
BRANCH  10  11
ATOM     11  C   UNL A   1      29.755  29.921  22.574  1.00  0.00     0.167 C 
BRANCH  11  12
ATOM     12  O   UNL A   1      30.483  30.039  21.357  1.00  0.00    -0.396 OA
ATOM     13  H   UNL A   1      30.359  30.928  20.990  1.00  0.00     0.210 HD
ENDBRANCH  11  12
ENDBRANCH  10  11
ENDBRANCH   9  10
ENDBRANCH   7   9
ENDBRANCH   5   7
ENDBRANCH   1   5
BRANCH   3  14
ATOM     14  C   UNL A   1      31.438  30.784  26.039  1.00  0.00     0.117 C 
BRANCH  14  15
ATOM     15  C   UNL A   1      31.335  32.205  26.581  1.00  0.00     0.042 C 
BRANCH  15  16
ATOM     16  C   UNL A   1      32.654  32.774  27.092  1.00  0.00     0.118 C 
BRANCH  16  17
ATOM     17  N   UNL A   1      32.489  34.066  27.747  1.00  0.00    -0.352 N 
ATOM     18  C   UNL A   1      33.192  34.634  28.775  1.00  0.00     0.251 C 
ATOM     19  H   UNL A   1      31.753  34.617  27.395  1.00  0.00     0.163 HD
ATOM     20  O   UNL A   1      32.759  35.657  29.311  1.00  0.00    -0.269 OA
BRANCH  18  21
ATOM     21  C   UNL A   1      34.452  34.035  29.262  1.00  0.00     0.039 A 
ATOM     22  C   UNL A   1      34.414  33.203  30.385  1.00  0.00     0.014 A 
ATOM     23  C   UNL A   1      35.676  34.318  28.649  1.00  0.00     0.014 A 
ATOM     24  C   UNL A   1      35.588  32.608  30.853  1.00  0.00     0.010 A 
ATOM     25  C   UNL A   1      36.831  33.663  29.066  1.00  0.00     0.010 A 
ATOM     26  C   UNL A   1      36.802  32.806  30.176  1.00  0.00    -0.014 A 
BRANCH  26  27
ATOM     27  C   UNL A   1      38.050  32.132  30.616  1.00  0.00     0.031 A 
ATOM     28  C   UNL A   1      38.916  32.757  31.675  1.00  0.00     0.074 A 
ATOM     29  C   UNL A   1      38.438  30.990  30.015  1.00  0.00     0.049 A 
ATOM     30  N   UNL A   1      40.072  32.353  32.141  1.00  0.00    -0.248 NA
ATOM     31  C   UNL A   1      38.434  34.013  32.273  1.00  0.00     0.031 C 
ATOM     32  C   UNL A   1      37.707  30.302  28.950  1.00  0.00     0.029 A 
ATOM     33  N   UNL A   1      39.551  30.212  30.213  1.00  0.00    -0.354 N 
ATOM     34  C   UNL A   1      40.463  33.314  33.066  1.00  0.00     0.074 A 
ATOM     35  C   UNL A   1      39.446  34.343  33.062  1.00  0.00     0.031 C 
ATOM     36  C   UNL A   1      38.376  29.189  28.608  1.00  0.00     0.029 A 
ATOM     37  C   UNL A   1      39.601  29.108  29.396  1.00  0.00     0.049 A 
ATOM     38  H   UNL A   1      40.246  30.423  30.877  1.00  0.00     0.167 HD
ATOM     39  C   UNL A   1      41.559  33.330  33.861  1.00  0.00     0.031 A 
ATOM     40  C   UNL A   1      40.533  28.142  29.289  1.00  0.00     0.031 A 
ATOM     41  C   UNL A   1      42.564  32.301  33.876  1.00  0.00     0.049 A 
ATOM     42  C   UNL A   1      41.746  28.189  30.174  1.00  0.00     0.074 A 
ATOM     43  C   UNL A   1      43.682  32.199  34.685  1.00  0.00     0.029 A 
ATOM     44  N   UNL A   1      42.575  31.198  33.037  1.00  0.00    -0.354 N 
ATOM     45  N   UNL A   1      42.068  29.071  31.089  1.00  0.00    -0.248 NA
ATOM     46  C   UNL A   1      42.720  27.099  30.017  1.00  0.00     0.031 C 
ATOM     47  C   UNL A   1      44.395  31.058  34.304  1.00  0.00     0.029 A 
ATOM     48  C   UNL A   1      43.693  30.420  33.294  1.00  0.00     0.049 A 
ATOM     49  H   UNL A   1      41.889  30.996  32.359  1.00  0.00     0.167 HD
ATOM     50  C   UNL A   1      43.266  28.629  31.636  1.00  0.00     0.074 A 
ATOM     51  C   UNL A   1      43.605  27.393  30.961  1.00  0.00     0.031 C 
ATOM     52  C   UNL A   1      44.017  29.195  32.612  1.00  0.00     0.031 A 
BRANCH  39  53
ATOM     53  C   UNL A   1      41.730  34.509  34.779  1.00  0.00    -0.014 A 
ATOM     54  C   UNL A   1      42.392  35.674  34.355  1.00  0.00     0.009 A 
ATOM     55  C   UNL A   1      41.198  34.467  36.077  1.00  0.00     0.009 A 
ATOM     56  C   UNL A   1      42.551  36.754  35.226  1.00  0.00     0.001 A 
ATOM     57  C   UNL A   1      41.331  35.560  36.935  1.00  0.00     0.001 A 
ATOM     58  C   UNL A   1      42.016  36.698  36.512  1.00  0.00     0.000 A 
ENDBRANCH  39  53
BRANCH  40  59
ATOM     59  C   UNL A   1      40.346  27.035  28.315  1.00  0.00    -0.014 A 
ATOM     60  C   UNL A   1      39.656  25.871  28.688  1.00  0.00     0.009 A 
ATOM     61  C   UNL A   1      40.856  27.135  27.013  1.00  0.00     0.009 A 
ATOM     62  C   UNL A   1      39.504  24.819  27.782  1.00  0.00     0.001 A 
ATOM     63  C   UNL A   1      40.678  26.092  26.100  1.00  0.00     0.001 A 
ATOM     64  C   UNL A   1      40.010  24.932  26.489  1.00  0.00     0.000 A 
ENDBRANCH  40  59
BRANCH  52  65
ATOM     65  C   UNL A   1      45.260  28.464  33.032  1.00  0.00    -0.014 A 
ATOM     66  C   UNL A   1      46.510  28.768  32.471  1.00  0.00     0.009 A 
ATOM     67  C   UNL A   1      45.184  27.484  34.034  1.00  0.00     0.009 A 
ATOM     68  C   UNL A   1      47.654  28.080  32.881  1.00  0.00     0.001 A 
ATOM     69  C   UNL A   1      46.333  26.818  34.463  1.00  0.00     0.001 A 
ATOM     70  C   UNL A   1      47.565  27.110  33.879  1.00  0.00     0.000 A 
ENDBRANCH  52  65
ENDBRANCH  26  27
ENDBRANCH  18  21
ENDBRANCH  16  17
ENDBRANCH  15  16
ENDBRANCH  14  15
ENDBRANCH   3  14
TORSDOF 15
ENDMDL
