MODEL 1
REMARK VINA RESULT:     -12.8      0.000      0.000
REMARK SMILES COc1cc([C@@H]2CC(=O)Nc3c(C(=O)NCCCNC(=O)c4ccc(-c5c6nc(c(-c7ccccc7)c7ccc([nH]7)c(-c7ccccc7)c7nc(c(-c8ccccc8)c8ccc5[nH]8)C=C7)C=C6)cc4)cn(-c4ccc(F)cc4)c32)c(OC)c2c1OCO2
REMARK SMILES IDX 17 1 16 2 15 3 13 4 14 5 12 7 6 8 7 9 79 10 8 11 11 12 71 13
REMARK SMILES IDX 9 14 10 15 70 16 5 18 3 19 4 20 84 21 83 22 85 23 80 24
REMARK SMILES IDX 87 25 86 26 2 27 1 28 81 29 82 30 72 31 73 32 78 33 74 34
REMARK SMILES IDX 77 35 75 36 76 37 18 38 19 39 20 40 21 42 22 43 23 44 69 45
REMARK SMILES IDX 24 46 68 47 25 48 26 49 27 50 62 51 28 52 67 53 61 54 63 55
REMARK SMILES IDX 29 56 66 57 60 58 59 59 30 61 52 62 37 63 51 64 38 65 41 66
REMARK SMILES IDX 50 67 64 68 39 69 40 70 49 72 65 73 42 74 31 75 32 76 36 77
REMARK SMILES IDX 33 78 35 79 34 80 53 81 54 82 58 83 55 84 57 85 56 86 43 87
REMARK SMILES IDX 44 88 48 89 45 90 47 91 46 92
REMARK H PARENT 15 6 10 17 19 41 63 60 41 71
REMARK Flexibility Score: inf
ROOT
ATOM      1  C   UNL A   1      34.865  28.616  27.260  1.00  0.00     0.042 C 
ENDROOT
BRANCH   1   2
ATOM      2  C   UNL A   1      33.349  28.693  27.008  1.00  0.00     0.118 C 
BRANCH   2   3
ATOM      3  N   UNL A   1      33.018  28.479  25.616  1.00  0.00    -0.352 N 
ATOM      4  C   UNL A   1      33.014  27.366  24.814  1.00  0.00     0.254 C 
ATOM      5  O   UNL A   1      32.577  27.554  23.673  1.00  0.00    -0.269 OA
ATOM      6  H   UNL A   1      32.739  29.300  25.149  1.00  0.00     0.163 HD
BRANCH   4   7
ATOM      7  C   UNL A   1      33.441  26.024  25.235  1.00  0.00     0.081 A 
ATOM      8  C   UNL A   1      33.461  22.484  26.410  1.00  0.00     0.082 C 
ATOM      9  C   UNL A   1      32.337  22.560  27.451  1.00  0.00     0.115 C 
ATOM     10  C   UNL A   1      33.766  23.856  25.884  1.00  0.00     0.055 A 
ATOM     11  C   UNL A   1      31.232  23.479  27.011  1.00  0.00     0.225 C 
ATOM     12  C   UNL A   1      32.850  24.883  25.852  1.00  0.00     0.076 A 
ATOM     13  N   UNL A   1      34.970  24.341  25.439  1.00  0.00    -0.317 N 
ATOM     14  O   UNL A   1      30.055  23.306  27.324  1.00  0.00    -0.275 OA
ATOM     15  N   UNL A   1      31.600  24.610  26.341  1.00  0.00    -0.324 N 
ATOM     16  C   UNL A   1      34.786  25.661  25.103  1.00  0.00     0.107 A 
ATOM     17  H   UNL A   1      30.904  25.291  26.196  1.00  0.00     0.170 HD
BRANCH   8  18
ATOM     18  C   UNL A   1      33.139  21.437  25.338  1.00  0.00     0.012 A 
ATOM     19  C   UNL A   1      33.228  19.043  24.803  1.00  0.00     0.165 A 
ATOM     20  C   UNL A   1      33.394  20.090  25.704  1.00  0.00     0.059 A 
ATOM     21  C   UNL A   1      32.723  19.342  23.555  1.00  0.00     0.211 A 
ATOM     22  C   UNL A   1      32.420  20.639  23.190  1.00  0.00     0.211 A 
ATOM     23  O   UNL A   1      32.448  18.449  22.563  1.00  0.00    -0.449 OA
ATOM     24  C   UNL A   1      32.615  21.713  24.049  1.00  0.00     0.168 A 
ATOM     25  O   UNL A   1      31.937  20.693  21.914  1.00  0.00    -0.449 OA
ATOM     26  C   UNL A   1      31.868  19.305  21.568  1.00  0.00     0.468 C 
BRANCH  19  27
ATOM     27  O   UNL A   1      33.552  17.801  25.263  1.00  0.00    -0.493 OA
ATOM     28  C   UNL A   1      32.431  17.073  25.755  1.00  0.00     0.278 C 
ENDBRANCH  19  27
BRANCH  24  29
ATOM     29  O   UNL A   1      32.357  23.015  23.743  1.00  0.00    -0.492 OA
ATOM     30  C   UNL A   1      32.742  23.526  22.474  1.00  0.00     0.278 C 
ENDBRANCH  24  29
ENDBRANCH   8  18
BRANCH  13  31
ATOM     31  C   UNL A   1      36.200  23.652  25.415  1.00  0.00     0.046 A 
ATOM     32  C   UNL A   1      36.337  22.507  24.624  1.00  0.00     0.029 A 
ATOM     33  C   UNL A   1      37.241  24.073  26.248  1.00  0.00     0.029 A 
ATOM     34  C   UNL A   1      37.483  21.725  24.727  1.00  0.00     0.041 A 
ATOM     35  C   UNL A   1      38.387  23.282  26.352  1.00  0.00     0.041 A 
ATOM     36  C   UNL A   1      38.489  22.110  25.605  1.00  0.00     0.123 A 
ATOM     37  F   UNL A   1      39.577  21.339  25.733  1.00  0.00    -0.207 F 
ENDBRANCH  13  31
ENDBRANCH   4   7
ENDBRANCH   2   3
ENDBRANCH   1   2
BRANCH   1  38
ATOM     38  C   UNL A   1      35.493  29.941  27.587  1.00  0.00     0.118 C 
BRANCH  38  39
ATOM     39  N   UNL A   1      35.608  30.118  29.040  1.00  0.00    -0.352 N 
ATOM     40  C   UNL A   1      36.521  29.558  29.915  1.00  0.00     0.251 C 
ATOM     41  H   UNL A   1      34.941  30.716  29.449  1.00  0.00     0.163 HD
ATOM     42  O   UNL A   1      36.296  29.492  31.108  1.00  0.00    -0.269 OA
BRANCH  40  43
ATOM     43  C   UNL A   1      37.774  29.036  29.349  1.00  0.00     0.039 A 
ATOM     44  C   UNL A   1      38.405  29.631  28.257  1.00  0.00     0.014 A 
ATOM     45  C   UNL A   1      38.361  27.974  30.021  1.00  0.00     0.014 A 
ATOM     46  C   UNL A   1      39.673  29.177  27.908  1.00  0.00     0.010 A 
ATOM     47  C   UNL A   1      39.697  27.771  29.884  1.00  0.00     0.010 A 
ATOM     48  C   UNL A   1      40.317  28.257  28.750  1.00  0.00    -0.014 A 
BRANCH  48  49
ATOM     49  C   UNL A   1      41.689  27.829  28.544  1.00  0.00     0.031 A 
ATOM     50  C   UNL A   1      41.807  26.572  27.777  1.00  0.00     0.074 A 
ATOM     51  C   UNL A   1      42.750  28.619  28.822  1.00  0.00     0.049 A 
ATOM     52  N   UNL A   1      42.107  25.412  28.252  1.00  0.00    -0.248 NA
ATOM     53  C   UNL A   1      41.366  26.554  26.373  1.00  0.00     0.031 C 
ATOM     54  C   UNL A   1      42.764  30.012  29.292  1.00  0.00     0.029 A 
ATOM     55  N   UNL A   1      44.069  28.370  28.620  1.00  0.00    -0.354 N 
ATOM     56  C   UNL A   1      42.140  24.561  27.158  1.00  0.00     0.074 A 
ATOM     57  C   UNL A   1      41.458  25.253  26.092  1.00  0.00     0.031 C 
ATOM     58  C   UNL A   1      43.991  30.547  29.100  1.00  0.00     0.029 A 
ATOM     59  C   UNL A   1      44.889  29.493  28.669  1.00  0.00     0.049 A 
ATOM     60  H   UNL A   1      44.420  27.465  28.452  1.00  0.00     0.167 HD
ATOM     61  C   UNL A   1      42.998  23.505  27.133  1.00  0.00     0.031 A 
ATOM     62  C   UNL A   1      46.206  29.550  28.354  1.00  0.00     0.031 A 
ATOM     63  C   UNL A   1      43.565  23.256  28.440  1.00  0.00     0.049 A 
ATOM     64  C   UNL A   1      46.728  28.166  28.423  1.00  0.00     0.074 A 
ATOM     65  C   UNL A   1      43.044  22.993  29.692  1.00  0.00     0.029 A 
ATOM     66  N   UNL A   1      44.849  23.704  28.652  1.00  0.00    -0.354 N 
ATOM     67  N   UNL A   1      46.837  27.504  29.538  1.00  0.00    -0.248 NA
ATOM     68  C   UNL A   1      46.681  27.354  27.217  1.00  0.00     0.031 C 
ATOM     69  C   UNL A   1      43.858  23.742  30.594  1.00  0.00     0.029 A 
ATOM     70  C   UNL A   1      44.880  24.347  29.861  1.00  0.00     0.049 A 
ATOM     71  H   UNL A   1      45.611  23.584  28.041  1.00  0.00     0.167 HD
ATOM     72  C   UNL A   1      46.392  26.227  29.227  1.00  0.00     0.074 A 
ATOM     73  C   UNL A   1      46.421  26.162  27.764  1.00  0.00     0.031 C 
ATOM     74  C   UNL A   1      45.756  25.459  30.162  1.00  0.00     0.031 A 
BRANCH  61  75
ATOM     75  C   UNL A   1      43.677  23.018  25.877  1.00  0.00    -0.014 A 
ATOM     76  C   UNL A   1      43.687  21.636  25.621  1.00  0.00     0.009 A 
ATOM     77  C   UNL A   1      44.547  23.811  25.105  1.00  0.00     0.009 A 
ATOM     78  C   UNL A   1      44.587  21.073  24.710  1.00  0.00     0.001 A 
ATOM     79  C   UNL A   1      45.416  23.257  24.164  1.00  0.00     0.001 A 
ATOM     80  C   UNL A   1      45.459  21.882  23.990  1.00  0.00     0.000 A 
ENDBRANCH  61  75
BRANCH  62  81
ATOM     81  C   UNL A   1      47.001  30.662  27.790  1.00  0.00    -0.014 A 
ATOM     82  C   UNL A   1      46.449  31.519  26.823  1.00  0.00     0.009 A 
ATOM     83  C   UNL A   1      48.202  31.060  28.405  1.00  0.00     0.009 A 
ATOM     84  C   UNL A   1      47.046  32.751  26.525  1.00  0.00     0.001 A 
ATOM     85  C   UNL A   1      48.799  32.289  28.105  1.00  0.00     0.001 A 
ATOM     86  C   UNL A   1      48.211  33.144  27.179  1.00  0.00     0.000 A 
ENDBRANCH  62  81
BRANCH  74  87
ATOM     87  C   UNL A   1      45.770  25.939  31.596  1.00  0.00    -0.014 A 
ATOM     88  C   UNL A   1      46.767  25.585  32.524  1.00  0.00     0.009 A 
ATOM     89  C   UNL A   1      44.816  26.892  31.982  1.00  0.00     0.009 A 
ATOM     90  C   UNL A   1      46.783  26.140  33.809  1.00  0.00     0.001 A 
ATOM     91  C   UNL A   1      44.846  27.463  33.256  1.00  0.00     0.001 A 
ATOM     92  C   UNL A   1      45.823  27.081  34.172  1.00  0.00     0.000 A 
ENDBRANCH  74  87
ENDBRANCH  48  49
ENDBRANCH  40  43
ENDBRANCH  38  39
ENDBRANCH   1  38
TORSDOF 14
ENDMDL
MODEL 2
REMARK VINA RESULT:     -12.6      1.789      5.409
REMARK SMILES COc1cc([C@@H]2CC(=O)Nc3c(C(=O)NCCCNC(=O)c4ccc(-c5c6nc(c(-c7ccccc7)c7ccc([nH]7)c(-c7ccccc7)c7nc(c(-c8ccccc8)c8ccc5[nH]8)C=C7)C=C6)cc4)cn(-c4ccc(F)cc4)c32)c(OC)c2c1OCO2
REMARK SMILES IDX 17 1 16 2 15 3 13 4 14 5 12 7 6 8 7 9 79 10 8 11 11 12 71 13
REMARK SMILES IDX 9 14 10 15 70 16 5 18 3 19 4 20 84 21 83 22 85 23 80 24
REMARK SMILES IDX 87 25 86 26 2 27 1 28 81 29 82 30 72 31 73 32 78 33 74 34
REMARK SMILES IDX 77 35 75 36 76 37 18 38 19 39 20 40 21 42 22 43 23 44 69 45
REMARK SMILES IDX 24 46 68 47 25 48 26 49 27 50 62 51 28 52 67 53 61 54 63 55
REMARK SMILES IDX 29 56 66 57 60 58 59 59 30 61 52 62 37 63 51 64 38 65 41 66
REMARK SMILES IDX 50 67 64 68 39 69 40 70 49 72 65 73 42 74 31 75 32 76 36 77
REMARK SMILES IDX 33 78 35 79 34 80 53 81 54 82 58 83 55 84 57 85 56 86 43 87
REMARK SMILES IDX 44 88 48 89 45 90 47 91 46 92
REMARK H PARENT 15 6 10 17 19 41 63 60 41 71
REMARK Flexibility Score: inf
ROOT
ATOM      1  C   UNL A   1      32.644  28.493  27.586  1.00  0.00     0.042 C 
ENDROOT
BRANCH   1   2
ATOM      2  C   UNL A   1      31.762  27.899  26.473  1.00  0.00     0.118 C 
BRANCH   2   3
ATOM      3  N   UNL A   1      32.418  27.934  25.184  1.00  0.00    -0.352 N 
ATOM      4  C   UNL A   1      33.182  27.027  24.496  1.00  0.00     0.254 C 
ATOM      5  O   UNL A   1      33.504  27.382  23.356  1.00  0.00    -0.269 OA
ATOM      6  H   UNL A   1      32.290  28.784  24.703  1.00  0.00     0.163 HD
BRANCH   4   7
ATOM      7  C   UNL A   1      33.578  25.705  25.002  1.00  0.00     0.081 A 
ATOM      8  C   UNL A   1      33.517  22.236  26.372  1.00  0.00     0.082 C 
ATOM      9  C   UNL A   1      32.367  22.385  27.376  1.00  0.00     0.115 C 
ATOM     10  C   UNL A   1      33.855  23.573  25.779  1.00  0.00     0.055 A 
ATOM     11  C   UNL A   1      31.287  23.291  26.855  1.00  0.00     0.225 C 
ATOM     12  C   UNL A   1      32.955  24.608  25.665  1.00  0.00     0.076 A 
ATOM     13  N   UNL A   1      35.078  24.017  25.341  1.00  0.00    -0.317 N 
ATOM     14  O   UNL A   1      30.099  23.151  27.144  1.00  0.00    -0.275 OA
ATOM     15  N   UNL A   1      31.689  24.378  26.133  1.00  0.00    -0.324 N 
ATOM     16  C   UNL A   1      34.921  25.318  24.927  1.00  0.00     0.107 A 
ATOM     17  H   UNL A   1      31.006  25.059  25.931  1.00  0.00     0.170 HD
BRANCH   8  18
ATOM     18  C   UNL A   1      33.209  21.135  25.351  1.00  0.00     0.012 A 
ATOM     19  C   UNL A   1      33.320  18.719  24.936  1.00  0.00     0.165 A 
ATOM     20  C   UNL A   1      33.472  19.810  25.784  1.00  0.00     0.059 A 
ATOM     21  C   UNL A   1      32.820  18.951  23.671  1.00  0.00     0.211 A 
ATOM     22  C   UNL A   1      32.508  20.226  23.241  1.00  0.00     0.211 A 
ATOM     23  O   UNL A   1      32.557  18.009  22.723  1.00  0.00    -0.449 OA
ATOM     24  C   UNL A   1      32.691  21.343  24.048  1.00  0.00     0.168 A 
ATOM     25  O   UNL A   1      32.032  20.214  21.962  1.00  0.00    -0.449 OA
ATOM     26  C   UNL A   1      31.976  18.809  21.684  1.00  0.00     0.468 C 
BRANCH  19  27
ATOM     27  O   UNL A   1      33.651  17.503  25.457  1.00  0.00    -0.493 OA
ATOM     28  C   UNL A   1      32.522  16.673  25.710  1.00  0.00     0.278 C 
ENDBRANCH  19  27
BRANCH  24  29
ATOM     29  O   UNL A   1      32.424  22.627  23.676  1.00  0.00    -0.492 OA
ATOM     30  C   UNL A   1      32.903  23.108  22.428  1.00  0.00     0.278 C 
ENDBRANCH  24  29
ENDBRANCH   8  18
BRANCH  13  31
ATOM     31  C   UNL A   1      36.298  23.312  25.389  1.00  0.00     0.046 A 
ATOM     32  C   UNL A   1      36.400  22.062  24.771  1.00  0.00     0.029 A 
ATOM     33  C   UNL A   1      37.365  23.834  26.127  1.00  0.00     0.029 A 
ATOM     34  C   UNL A   1      37.539  21.286  24.961  1.00  0.00     0.041 A 
ATOM     35  C   UNL A   1      38.504  23.048  26.319  1.00  0.00     0.041 A 
ATOM     36  C   UNL A   1      38.572  21.779  25.749  1.00  0.00     0.123 A 
ATOM     37  F   UNL A   1      39.653  21.017  25.963  1.00  0.00    -0.207 F 
ENDBRANCH  13  31
ENDBRANCH   4   7
ENDBRANCH   2   3
ENDBRANCH   1   2
BRANCH   1  38
ATOM     38  C   UNL A   1      33.838  29.248  27.075  1.00  0.00     0.118 C 
BRANCH  38  39
ATOM     39  N   UNL A   1      33.705  30.682  27.356  1.00  0.00    -0.352 N 
ATOM     40  C   UNL A   1      34.574  31.521  28.032  1.00  0.00     0.251 C 
ATOM     41  H   UNL A   1      32.884  31.107  27.018  1.00  0.00     0.163 HD
ATOM     42  O   UNL A   1      34.195  32.575  28.505  1.00  0.00    -0.269 OA
BRANCH  40  43
ATOM     43  C   UNL A   1      35.972  31.087  28.167  1.00  0.00     0.039 A 
ATOM     44  C   UNL A   1      36.921  31.830  28.868  1.00  0.00     0.014 A 
ATOM     45  C   UNL A   1      36.285  29.840  27.645  1.00  0.00     0.014 A 
ATOM     46  C   UNL A   1      38.166  31.252  29.093  1.00  0.00     0.010 A 
ATOM     47  C   UNL A   1      37.358  29.173  28.143  1.00  0.00     0.010 A 
ATOM     48  C   UNL A   1      38.362  29.907  28.741  1.00  0.00    -0.014 A 
BRANCH  48  49
ATOM     49  C   UNL A   1      39.577  29.180  29.058  1.00  0.00     0.031 A 
ATOM     50  C   UNL A   1      39.786  28.982  30.507  1.00  0.00     0.074 A 
ATOM     51  C   UNL A   1      40.318  28.549  28.119  1.00  0.00     0.049 A 
ATOM     52  N   UNL A   1      40.634  29.607  31.251  1.00  0.00    -0.248 NA
ATOM     53  C   UNL A   1      38.836  28.141  31.252  1.00  0.00     0.031 C 
ATOM     54  C   UNL A   1      40.049  28.401  26.681  1.00  0.00     0.029 A 
ATOM     55  N   UNL A   1      41.430  27.788  28.285  1.00  0.00    -0.354 N 
ATOM     56  C   UNL A   1      40.495  29.055  32.515  1.00  0.00     0.074 A 
ATOM     57  C   UNL A   1      39.240  28.345  32.507  1.00  0.00     0.031 C 
ATOM     58  C   UNL A   1      40.820  27.414  26.172  1.00  0.00     0.029 A 
ATOM     59  C   UNL A   1      41.756  26.988  27.195  1.00  0.00     0.049 A 
ATOM     60  H   UNL A   1      41.964  27.801  29.112  1.00  0.00     0.167 HD
ATOM     61  C   UNL A   1      41.569  28.964  33.347  1.00  0.00     0.031 A 
ATOM     62  C   UNL A   1      42.715  26.031  27.149  1.00  0.00     0.031 A 
ATOM     63  C   UNL A   1      42.676  29.761  32.867  1.00  0.00     0.049 A 
ATOM     64  C   UNL A   1      43.656  26.308  28.259  1.00  0.00     0.074 A 
ATOM     65  C   UNL A   1      42.850  31.094  32.548  1.00  0.00     0.029 A 
ATOM     66  N   UNL A   1      43.693  29.085  32.231  1.00  0.00    -0.354 N 
ATOM     67  N   UNL A   1      44.439  27.348  28.282  1.00  0.00    -0.248 NA
ATOM     68  C   UNL A   1      43.391  25.699  29.552  1.00  0.00     0.031 C 
ATOM     69  C   UNL A   1      43.655  31.088  31.370  1.00  0.00     0.029 A 
ATOM     70  C   UNL A   1      44.004  29.767  31.084  1.00  0.00     0.049 A 
ATOM     71  H   UNL A   1      44.121  28.256  32.546  1.00  0.00     0.167 HD
ATOM     72  C   UNL A   1      44.370  27.804  29.591  1.00  0.00     0.074 A 
ATOM     73  C   UNL A   1      43.808  26.687  30.351  1.00  0.00     0.031 C 
ATOM     74  C   UNL A   1      44.488  29.135  29.876  1.00  0.00     0.031 A 
BRANCH  61  75
ATOM     75  C   UNL A   1      41.783  27.815  34.301  1.00  0.00    -0.014 A 
ATOM     76  C   UNL A   1      41.611  28.055  35.675  1.00  0.00     0.009 A 
ATOM     77  C   UNL A   1      42.423  26.614  33.942  1.00  0.00     0.009 A 
ATOM     78  C   UNL A   1      42.137  27.183  36.635  1.00  0.00     0.001 A 
ATOM     79  C   UNL A   1      42.910  25.720  34.897  1.00  0.00     0.001 A 
ATOM     80  C   UNL A   1      42.796  26.021  36.246  1.00  0.00     0.000 A 
ENDBRANCH  61  75
BRANCH  62  81
ATOM     81  C   UNL A   1      42.770  24.777  26.369  1.00  0.00    -0.014 A 
ATOM     82  C   UNL A   1      43.541  24.695  25.197  1.00  0.00     0.009 A 
ATOM     83  C   UNL A   1      42.296  23.574  26.924  1.00  0.00     0.009 A 
ATOM     84  C   UNL A   1      43.871  23.454  24.635  1.00  0.00     0.001 A 
ATOM     85  C   UNL A   1      42.625  22.336  26.361  1.00  0.00     0.001 A 
ATOM     86  C   UNL A   1      43.428  22.275  25.227  1.00  0.00     0.000 A 
ENDBRANCH  62  81
BRANCH  74  87
ATOM     87  C   UNL A   1      44.933  30.058  28.763  1.00  0.00    -0.014 A 
ATOM     88  C   UNL A   1      44.047  30.650  27.844  1.00  0.00     0.009 A 
ATOM     89  C   UNL A   1      46.279  30.449  28.728  1.00  0.00     0.009 A 
ATOM     90  C   UNL A   1      44.503  31.574  26.897  1.00  0.00     0.001 A 
ATOM     91  C   UNL A   1      46.730  31.389  27.799  1.00  0.00     0.001 A 
ATOM     92  C   UNL A   1      45.846  31.944  26.878  1.00  0.00     0.000 A 
ENDBRANCH  74  87
ENDBRANCH  48  49
ENDBRANCH  40  43
ENDBRANCH  38  39
ENDBRANCH   1  38
TORSDOF 14
ENDMDL
MODEL 3
REMARK VINA RESULT:     -12.5      3.426      8.040
REMARK SMILES COc1cc([C@@H]2CC(=O)Nc3c(C(=O)NCCCNC(=O)c4ccc(-c5c6nc(c(-c7ccccc7)c7ccc([nH]7)c(-c7ccccc7)c7nc(c(-c8ccccc8)c8ccc5[nH]8)C=C7)C=C6)cc4)cn(-c4ccc(F)cc4)c32)c(OC)c2c1OCO2
REMARK SMILES IDX 17 1 16 2 15 3 13 4 14 5 12 7 6 8 7 9 79 10 8 11 11 12 71 13
REMARK SMILES IDX 9 14 10 15 70 16 5 18 3 19 4 20 84 21 83 22 85 23 80 24
REMARK SMILES IDX 87 25 86 26 2 27 1 28 81 29 82 30 72 31 73 32 78 33 74 34
REMARK SMILES IDX 77 35 75 36 76 37 18 38 19 39 20 40 21 42 22 43 23 44 69 45
REMARK SMILES IDX 24 46 68 47 25 48 26 49 27 50 62 51 28 52 67 53 61 54 63 55
REMARK SMILES IDX 29 56 66 57 60 58 59 59 30 61 52 62 37 63 51 64 38 65 41 66
REMARK SMILES IDX 50 67 64 68 39 69 40 70 49 72 65 73 42 74 31 75 32 76 36 77
REMARK SMILES IDX 33 78 35 79 34 80 53 81 54 82 58 83 55 84 57 85 56 86 43 87
REMARK SMILES IDX 44 88 48 89 45 90 47 91 46 92
REMARK H PARENT 15 6 10 17 19 41 63 60 41 71
REMARK Flexibility Score: inf
ROOT
ATOM      1  C   UNL A   1      36.905  22.944  26.156  1.00  0.00     0.042 C 
ENDROOT
BRANCH   1   2
ATOM      2  C   UNL A   1      35.900  22.685  25.020  1.00  0.00     0.118 C 
BRANCH   2   3
ATOM      3  N   UNL A   1      34.576  22.390  25.523  1.00  0.00    -0.352 N 
ATOM      4  C   UNL A   1      33.416  23.119  25.598  1.00  0.00     0.254 C 
ATOM      5  O   UNL A   1      32.438  22.491  26.018  1.00  0.00    -0.269 OA
ATOM      6  H   UNL A   1      34.490  21.479  25.887  1.00  0.00     0.163 HD
BRANCH   4   7
ATOM      7  C   UNL A   1      33.277  24.522  25.183  1.00  0.00     0.081 A 
ATOM      8  C   UNL A   1      32.623  27.619  23.209  1.00  0.00     0.082 C 
ATOM      9  C   UNL A   1      33.176  27.170  21.851  1.00  0.00     0.115 C 
ATOM     10  C   UNL A   1      32.914  26.578  24.251  1.00  0.00     0.055 A 
ATOM     11  C   UNL A   1      32.893  25.718  21.587  1.00  0.00     0.225 C 
ATOM     12  C   UNL A   1      33.080  25.241  23.968  1.00  0.00     0.076 A 
ATOM     13  N   UNL A   1      33.141  26.765  25.591  1.00  0.00    -0.317 N 
ATOM     14  O   UNL A   1      32.709  25.268  20.457  1.00  0.00    -0.275 OA
ATOM     15  N   UNL A   1      32.973  24.870  22.654  1.00  0.00    -0.324 N 
ATOM     16  C   UNL A   1      33.415  25.535  26.140  1.00  0.00     0.107 A 
ATOM     17  H   UNL A   1      32.952  23.905  22.462  1.00  0.00     0.170 HD
BRANCH   8  18
ATOM     18  C   UNL A   1      31.148  28.019  23.091  1.00  0.00     0.012 A 
ATOM     19  C   UNL A   1      29.617  29.757  22.279  1.00  0.00     0.165 A 
ATOM     20  C   UNL A   1      30.898  29.228  22.391  1.00  0.00     0.059 A 
ATOM     21  C   UNL A   1      28.570  29.025  22.799  1.00  0.00     0.211 A 
ATOM     22  C   UNL A   1      28.780  27.821  23.442  1.00  0.00     0.211 A 
ATOM     23  O   UNL A   1      27.249  29.355  22.742  1.00  0.00    -0.449 OA
ATOM     24  C   UNL A   1      30.052  27.286  23.611  1.00  0.00     0.168 A 
ATOM     25  O   UNL A   1      27.604  27.278  23.873  1.00  0.00    -0.449 OA
ATOM     26  C   UNL A   1      26.645  28.201  23.343  1.00  0.00     0.468 C 
BRANCH  19  27
ATOM     27  O   UNL A   1      29.516  30.948  21.623  1.00  0.00    -0.493 OA
ATOM     28  C   UNL A   1      29.027  32.004  22.444  1.00  0.00     0.278 C 
ENDBRANCH  19  27
BRANCH  24  29
ATOM     29  O   UNL A   1      30.327  26.116  24.253  1.00  0.00    -0.492 OA
ATOM     30  C   UNL A   1      29.776  25.877  25.541  1.00  0.00     0.278 C 
ENDBRANCH  24  29
ENDBRANCH   8  18
BRANCH  13  31
ATOM     31  C   UNL A   1      33.183  27.997  26.275  1.00  0.00     0.046 A 
ATOM     32  C   UNL A   1      31.999  28.710  26.490  1.00  0.00     0.029 A 
ATOM     33  C   UNL A   1      34.417  28.531  26.656  1.00  0.00     0.029 A 
ATOM     34  C   UNL A   1      32.051  30.001  27.007  1.00  0.00     0.041 A 
ATOM     35  C   UNL A   1      34.464  29.829  27.170  1.00  0.00     0.041 A 
ATOM     36  C   UNL A   1      33.285  30.555  27.324  1.00  0.00     0.123 A 
ATOM     37  F   UNL A   1      33.340  31.811  27.786  1.00  0.00    -0.207 F 
ENDBRANCH  13  31
ENDBRANCH   4   7
ENDBRANCH   2   3
ENDBRANCH   1   2
BRANCH   1  38
ATOM     38  C   UNL A   1      38.232  23.468  25.684  1.00  0.00     0.118 C 
BRANCH  38  39
ATOM     39  N   UNL A   1      39.317  22.561  26.077  1.00  0.00    -0.352 N 
ATOM     40  C   UNL A   1      40.623  22.864  26.421  1.00  0.00     0.251 C 
ATOM     41  H   UNL A   1      39.085  21.605  26.098  1.00  0.00     0.163 HD
ATOM     42  O   UNL A   1      41.501  22.024  26.373  1.00  0.00    -0.269 OA
BRANCH  40  43
ATOM     43  C   UNL A   1      40.913  24.244  26.839  1.00  0.00     0.039 A 
ATOM     44  C   UNL A   1      40.648  25.343  26.023  1.00  0.00     0.014 A 
ATOM     45  C   UNL A   1      41.374  24.412  28.136  1.00  0.00     0.014 A 
ATOM     46  C   UNL A   1      40.788  26.613  26.573  1.00  0.00     0.010 A 
ATOM     47  C   UNL A   1      41.190  25.613  28.745  1.00  0.00     0.010 A 
ATOM     48  C   UNL A   1      41.039  26.731  27.949  1.00  0.00    -0.014 A 
BRANCH  48  49
ATOM     49  C   UNL A   1      41.066  28.008  28.637  1.00  0.00     0.031 A 
ATOM     50  C   UNL A   1      42.149  28.903  28.180  1.00  0.00     0.074 A 
ATOM     51  C   UNL A   1      40.065  28.425  29.444  1.00  0.00     0.049 A 
ATOM     52  N   UNL A   1      43.238  29.172  28.815  1.00  0.00    -0.248 NA
ATOM     53  C   UNL A   1      42.116  29.407  26.798  1.00  0.00     0.031 C 
ATOM     54  C   UNL A   1      38.782  27.768  29.735  1.00  0.00     0.029 A 
ATOM     55  N   UNL A   1      39.935  29.610  30.093  1.00  0.00    -0.354 N 
ATOM     56  C   UNL A   1      43.915  30.083  28.020  1.00  0.00     0.074 A 
ATOM     57  C   UNL A   1      43.306  30.007  26.715  1.00  0.00     0.031 C 
ATOM     58  C   UNL A   1      37.926  28.658  30.285  1.00  0.00     0.029 A 
ATOM     59  C   UNL A   1      38.650  29.886  30.550  1.00  0.00     0.049 A 
ATOM     60  H   UNL A   1      40.690  30.227  30.229  1.00  0.00     0.167 HD
ATOM     61  C   UNL A   1      44.700  31.041  28.585  1.00  0.00     0.031 A 
ATOM     62  C   UNL A   1      38.214  31.053  31.087  1.00  0.00     0.031 A 
ATOM     63  C   UNL A   1      44.944  30.763  29.983  1.00  0.00     0.049 A 
ATOM     64  C   UNL A   1      39.412  31.792  31.547  1.00  0.00     0.074 A 
ATOM     65  C   UNL A   1      45.481  29.701  30.685  1.00  0.00     0.029 A 
ATOM     66  N   UNL A   1      44.204  31.483  30.894  1.00  0.00    -0.354 N 
ATOM     67  N   UNL A   1      40.149  31.398  32.544  1.00  0.00    -0.248 NA
ATOM     68  C   UNL A   1      40.060  32.698  30.611  1.00  0.00     0.031 C 
ATOM     69  C   UNL A   1      44.656  29.572  31.843  1.00  0.00     0.029 A 
ATOM     70  C   UNL A   1      43.723  30.609  31.834  1.00  0.00     0.049 A 
ATOM     71  H   UNL A   1      44.048  32.454  30.873  1.00  0.00     0.167 HD
ATOM     72  C   UNL A   1      41.452  31.603  32.113  1.00  0.00     0.074 A 
ATOM     73  C   UNL A   1      41.334  32.510  30.970  1.00  0.00     0.031 C 
ATOM     74  C   UNL A   1      42.465  30.783  32.527  1.00  0.00     0.031 A 
BRANCH  61  75
ATOM     75  C   UNL A   1      44.840  32.434  28.025  1.00  0.00    -0.014 A 
ATOM     76  C   UNL A   1      43.783  33.339  28.226  1.00  0.00     0.009 A 
ATOM     77  C   UNL A   1      45.811  32.797  27.072  1.00  0.00     0.009 A 
ATOM     78  C   UNL A   1      43.658  34.495  27.447  1.00  0.00     0.001 A 
ATOM     79  C   UNL A   1      45.713  33.971  26.323  1.00  0.00     0.001 A 
ATOM     80  C   UNL A   1      44.617  34.804  26.488  1.00  0.00     0.000 A 
ENDBRANCH  61  75
BRANCH  62  81
ATOM     81  C   UNL A   1      36.875  31.677  31.042  1.00  0.00    -0.014 A 
ATOM     82  C   UNL A   1      36.124  31.850  32.218  1.00  0.00     0.009 A 
ATOM     83  C   UNL A   1      36.450  32.364  29.891  1.00  0.00     0.009 A 
ATOM     84  C   UNL A   1      35.026  32.720  32.252  1.00  0.00     0.001 A 
ATOM     85  C   UNL A   1      35.352  33.230  29.925  1.00  0.00     0.001 A 
ATOM     86  C   UNL A   1      34.651  33.423  31.111  1.00  0.00     0.000 A 
ENDBRANCH  62  81
BRANCH  74  87
ATOM     87  C   UNL A   1      42.170  29.808  33.646  1.00  0.00    -0.014 A 
ATOM     88  C   UNL A   1      41.669  28.511  33.433  1.00  0.00     0.009 A 
ATOM     89  C   UNL A   1      42.539  30.168  34.949  1.00  0.00     0.009 A 
ATOM     90  C   UNL A   1      41.509  27.617  34.498  1.00  0.00     0.001 A 
ATOM     91  C   UNL A   1      42.402  29.269  36.009  1.00  0.00     0.001 A 
ATOM     92  C   UNL A   1      41.880  27.998  35.786  1.00  0.00     0.000 A 
ENDBRANCH  74  87
ENDBRANCH  48  49
ENDBRANCH  40  43
ENDBRANCH  38  39
ENDBRANCH   1  38
TORSDOF 14
ENDMDL
