MODEL 1
REMARK VINA RESULT:     -10.4      0.000      0.000
REMARK SMILES CCC(CC)(C(=O)NCCCNC(=O)c1ccc(-c2c3nc(c(-c4ccccc4)c4ccc([nH]4)c(-c4ccccc4)c4nc(c(-c5ccccc5)c5ccc2[nH]5)C=C4)C=C3)cc1)n1nnnc1CC[C@@H]1CCCO1
REMARK SMILES IDX 9 1 8 2 6 3 7 4 3 6 2 7 1 8 4 9 5 10 63 11 64 12 67 13 65 14
REMARK SMILES IDX 66 15 68 16 69 17 70 18 71 19 74 20 72 21 73 22 10 23 11 24
REMARK SMILES IDX 12 25 13 26 14 28 15 29 16 30 62 31 17 32 61 33 18 34 19 35
REMARK SMILES IDX 20 36 55 37 21 38 60 39 54 40 56 41 22 42 59 43 53 44 52 45
REMARK SMILES IDX 23 47 45 48 30 49 44 50 31 51 34 52 43 53 57 54 32 55 33 56
REMARK SMILES IDX 42 58 58 59 35 60 24 61 25 62 29 63 26 64 28 65 27 66 46 67
REMARK SMILES IDX 47 68 51 69 48 70 50 71 49 72 36 73 37 74 41 75 38 76 40 77
REMARK SMILES IDX 39 78
REMARK H PARENT 8 5 12 27 56 46 34 57
REMARK Flexibility Score: inf
ROOT
ATOM      1  C   UNL A   1      33.955  27.344  25.723  1.00  0.00     0.117 C 
ENDROOT
BRANCH   1   2
ATOM      2  N   UNL A   1      33.017  26.392  26.293  1.00  0.00    -0.354 N 
ATOM      3  C   UNL A   1      32.579  25.154  25.945  1.00  0.00     0.248 C 
ATOM      4  O   UNL A   1      31.656  24.748  26.663  1.00  0.00    -0.272 OA
ATOM      5  H   UNL A   1      32.602  26.721  27.124  1.00  0.00     0.163 HD
BRANCH   3   6
ATOM      6  C   UNL A   1      33.123  24.301  24.760  1.00  0.00     0.144 C 
BRANCH   6   7
ATOM      7  C   UNL A   1      34.656  24.077  25.022  1.00  0.00     0.037 C 
ATOM      8  C   UNL A   1      35.041  23.080  26.114  1.00  0.00     0.007 C 
ENDBRANCH   6   7
BRANCH   6   9
ATOM      9  C   UNL A   1      32.324  22.987  24.479  1.00  0.00     0.037 C 
ATOM     10  C   UNL A   1      32.680  22.083  23.316  1.00  0.00     0.007 C 
ENDBRANCH   6   9
BRANCH   6  11
ATOM     11  N   UNL A   1      32.942  25.116  23.509  1.00  0.00    -0.214 N 
ATOM     12  N   UNL A   1      33.953  25.221  22.616  1.00  0.00    -0.044 NA
ATOM     13  C   UNL A   1      31.796  25.631  22.918  1.00  0.00     0.152 A 
ATOM     14  N   UNL A   1      33.418  25.678  21.500  1.00  0.00    -0.024 NA
ATOM     15  N   UNL A   1      32.084  25.899  21.658  1.00  0.00    -0.114 NA
BRANCH  13  16
ATOM     16  C   UNL A   1      30.443  25.793  23.519  1.00  0.00     0.082 C 
BRANCH  16  17
ATOM     17  C   UNL A   1      30.137  27.209  24.021  1.00  0.00     0.040 C 
BRANCH  17  18
ATOM     18  C   UNL A   1      29.429  28.119  23.016  1.00  0.00     0.118 C 
ATOM     19  C   UNL A   1      29.690  29.608  23.208  1.00  0.00     0.034 C 
ATOM     20  O   UNL A   1      28.000  27.968  23.186  1.00  0.00    -0.378 OA
ATOM     21  C   UNL A   1      28.460  30.214  22.585  1.00  0.00     0.031 C 
ATOM     22  C   UNL A   1      27.381  29.253  23.031  1.00  0.00     0.160 C 
ENDBRANCH  17  18
ENDBRANCH  16  17
ENDBRANCH  13  16
ENDBRANCH   6  11
ENDBRANCH   3   6
ENDBRANCH   1   2
BRANCH   1  23
ATOM     23  C   UNL A   1      33.565  28.791  25.997  1.00  0.00     0.042 C 
BRANCH  23  24
ATOM     24  C   UNL A   1      33.312  29.092  27.470  1.00  0.00     0.118 C 
BRANCH  24  25
ATOM     25  N   UNL A   1      33.565  30.488  27.812  1.00  0.00    -0.352 N 
ATOM     26  C   UNL A   1      34.662  31.090  28.378  1.00  0.00     0.251 C 
ATOM     27  H   UNL A   1      32.823  31.100  27.604  1.00  0.00     0.163 HD
ATOM     28  O   UNL A   1      34.579  32.249  28.776  1.00  0.00    -0.269 OA
BRANCH  26  29
ATOM     29  C   UNL A   1      35.928  30.346  28.546  1.00  0.00     0.039 A 
ATOM     30  C   UNL A   1      36.827  30.289  27.476  1.00  0.00     0.014 A 
ATOM     31  C   UNL A   1      36.235  29.707  29.748  1.00  0.00     0.014 A 
ATOM     32  C   UNL A   1      38.078  29.689  27.653  1.00  0.00     0.010 A 
ATOM     33  C   UNL A   1      37.512  29.193  29.952  1.00  0.00     0.010 A 
ATOM     34  C   UNL A   1      38.454  29.196  28.913  1.00  0.00    -0.014 A 
BRANCH  34  35
ATOM     35  C   UNL A   1      39.840  28.735  29.187  1.00  0.00     0.031 A 
ATOM     36  C   UNL A   1      40.860  29.679  29.759  1.00  0.00     0.074 A 
ATOM     37  C   UNL A   1      40.203  27.490  28.816  1.00  0.00     0.049 A 
ATOM     38  N   UNL A   1      42.140  29.486  29.955  1.00  0.00    -0.248 NA
ATOM     39  C   UNL A   1      40.391  31.023  30.136  1.00  0.00     0.031 C 
ATOM     40  C   UNL A   1      39.322  26.493  28.200  1.00  0.00     0.029 A 
ATOM     41  N   UNL A   1      41.418  26.854  28.884  1.00  0.00    -0.354 N 
ATOM     42  C   UNL A   1      42.631  30.688  30.452  1.00  0.00     0.074 A 
ATOM     43  C   UNL A   1      41.522  31.615  30.495  1.00  0.00     0.031 C 
ATOM     44  C   UNL A   1      40.018  25.371  27.965  1.00  0.00     0.029 A 
ATOM     45  C   UNL A   1      41.405  25.581  28.364  1.00  0.00     0.049 A 
ATOM     46  H   UNL A   1      42.224  27.271  29.268  1.00  0.00     0.167 HD
ATOM     47  C   UNL A   1      43.891  30.986  30.848  1.00  0.00     0.031 A 
ATOM     48  C   UNL A   1      42.401  24.688  28.206  1.00  0.00     0.031 A 
ATOM     49  C   UNL A   1      44.988  30.056  30.830  1.00  0.00     0.049 A 
ATOM     50  C   UNL A   1      43.791  25.056  28.643  1.00  0.00     0.074 A 
ATOM     51  C   UNL A   1      46.277  30.239  31.300  1.00  0.00     0.029 A 
ATOM     52  N   UNL A   1      44.927  28.773  30.312  1.00  0.00    -0.354 N 
ATOM     53  N   UNL A   1      44.215  26.163  29.201  1.00  0.00    -0.248 NA
ATOM     54  C   UNL A   1      44.840  24.050  28.428  1.00  0.00     0.031 C 
ATOM     55  C   UNL A   1      47.014  29.087  31.012  1.00  0.00     0.029 A 
ATOM     56  C   UNL A   1      46.170  28.168  30.411  1.00  0.00     0.049 A 
ATOM     57  H   UNL A   1      44.124  28.354  29.929  1.00  0.00     0.167 HD
ATOM     58  C   UNL A   1      45.573  25.980  29.419  1.00  0.00     0.074 A 
ATOM     59  C   UNL A   1      45.898  24.646  28.959  1.00  0.00     0.031 C 
ATOM     60  C   UNL A   1      46.475  26.842  29.946  1.00  0.00     0.031 A 
BRANCH  47  61
ATOM     61  C   UNL A   1      44.165  32.379  31.338  1.00  0.00    -0.014 A 
ATOM     62  C   UNL A   1      44.057  32.707  32.698  1.00  0.00     0.009 A 
ATOM     63  C   UNL A   1      44.620  33.356  30.437  1.00  0.00     0.009 A 
ATOM     64  C   UNL A   1      44.382  33.990  33.143  1.00  0.00     0.001 A 
ATOM     65  C   UNL A   1      44.968  34.629  30.889  1.00  0.00     0.001 A 
ATOM     66  C   UNL A   1      44.845  34.947  32.241  1.00  0.00     0.000 A 
ENDBRANCH  47  61
BRANCH  48  67
ATOM     67  C   UNL A   1      42.135  23.364  27.584  1.00  0.00    -0.014 A 
ATOM     68  C   UNL A   1      42.393  23.150  26.222  1.00  0.00     0.009 A 
ATOM     69  C   UNL A   1      41.583  22.318  28.342  1.00  0.00     0.009 A 
ATOM     70  C   UNL A   1      42.070  21.930  25.622  1.00  0.00     0.001 A 
ATOM     71  C   UNL A   1      41.290  21.088  27.747  1.00  0.00     0.001 A 
ATOM     72  C   UNL A   1      41.521  20.900  26.385  1.00  0.00     0.000 A 
ENDBRANCH  48  67
BRANCH  60  73
ATOM     73  C   UNL A   1      47.893  26.362  30.067  1.00  0.00    -0.014 A 
ATOM     74  C   UNL A   1      48.803  26.525  29.012  1.00  0.00     0.009 A 
ATOM     75  C   UNL A   1      48.334  25.782  31.267  1.00  0.00     0.009 A 
ATOM     76  C   UNL A   1      50.122  26.089  29.146  1.00  0.00     0.001 A 
ATOM     77  C   UNL A   1      49.660  25.374  31.407  1.00  0.00     0.001 A 
ATOM     78  C   UNL A   1      50.552  25.519  30.344  1.00  0.00     0.000 A 
ENDBRANCH  60  73
ENDBRANCH  34  35
ENDBRANCH  26  29
ENDBRANCH  24  25
ENDBRANCH  23  24
ENDBRANCH   1  23
TORSDOF 16
ENDMDL
MODEL 2
REMARK VINA RESULT:     -10.4      2.947      7.800
REMARK SMILES CCC(CC)(C(=O)NCCCNC(=O)c1ccc(-c2c3nc(c(-c4ccccc4)c4ccc([nH]4)c(-c4ccccc4)c4nc(c(-c5ccccc5)c5ccc2[nH]5)C=C4)C=C3)cc1)n1nnnc1CC[C@@H]1CCCO1
REMARK SMILES IDX 9 1 8 2 6 3 7 4 3 6 2 7 1 8 4 9 5 10 63 11 64 12 67 13 65 14
REMARK SMILES IDX 66 15 68 16 69 17 70 18 71 19 74 20 72 21 73 22 10 23 11 24
REMARK SMILES IDX 12 25 13 26 14 28 15 29 16 30 62 31 17 32 61 33 18 34 19 35
REMARK SMILES IDX 20 36 55 37 21 38 60 39 54 40 56 41 22 42 59 43 53 44 52 45
REMARK SMILES IDX 23 47 45 48 30 49 44 50 31 51 34 52 43 53 57 54 32 55 33 56
REMARK SMILES IDX 42 58 58 59 35 60 24 61 25 62 29 63 26 64 28 65 27 66 46 67
REMARK SMILES IDX 47 68 51 69 48 70 50 71 49 72 36 73 37 74 41 75 38 76 40 77
REMARK SMILES IDX 39 78
REMARK H PARENT 8 5 12 27 56 46 34 57
REMARK Flexibility Score: inf
ROOT
ATOM      1  C   UNL A   1      36.794  21.031  24.657  1.00  0.00     0.117 C 
ENDROOT
BRANCH   1   2
ATOM      2  N   UNL A   1      35.799  21.022  25.715  1.00  0.00    -0.354 N 
ATOM      3  C   UNL A   1      34.937  21.940  26.225  1.00  0.00     0.248 C 
ATOM      4  O   UNL A   1      34.344  21.537  27.234  1.00  0.00    -0.272 OA
ATOM      5  H   UNL A   1      35.734  20.150  26.167  1.00  0.00     0.163 HD
BRANCH   3   6
ATOM      6  C   UNL A   1      34.701  23.373  25.660  1.00  0.00     0.144 C 
BRANCH   6   7
ATOM      7  C   UNL A   1      33.670  24.078  26.614  1.00  0.00     0.037 C 
ATOM      8  C   UNL A   1      33.095  25.418  26.157  1.00  0.00     0.007 C 
ENDBRANCH   6   7
BRANCH   6   9
ATOM      9  C   UNL A   1      36.004  24.198  25.405  1.00  0.00     0.037 C 
ATOM     10  C   UNL A   1      37.202  24.080  26.326  1.00  0.00     0.007 C 
ENDBRANCH   6   9
BRANCH   6  11
ATOM     11  N   UNL A   1      34.093  23.214  24.294  1.00  0.00    -0.214 N 
ATOM     12  N   UNL A   1      34.761  23.649  23.200  1.00  0.00    -0.044 NA
ATOM     13  C   UNL A   1      33.016  22.451  23.861  1.00  0.00     0.152 A 
ATOM     14  N   UNL A   1      34.178  23.084  22.160  1.00  0.00    -0.024 NA
ATOM     15  N   UNL A   1      33.127  22.314  22.553  1.00  0.00    -0.114 NA
BRANCH  13  16
ATOM     16  C   UNL A   1      31.953  21.810  24.683  1.00  0.00     0.082 C 
BRANCH  16  17
ATOM     17  C   UNL A   1      32.217  20.339  25.026  1.00  0.00     0.040 C 
BRANCH  17  18
ATOM     18  C   UNL A   1      33.050  19.569  24.000  1.00  0.00     0.118 C 
ATOM     19  C   UNL A   1      32.308  18.440  23.294  1.00  0.00     0.034 C 
ATOM     20  O   UNL A   1      34.145  18.920  24.688  1.00  0.00    -0.378 OA
ATOM     21  C   UNL A   1      33.443  17.532  22.900  1.00  0.00     0.031 C 
ATOM     22  C   UNL A   1      34.348  17.624  24.108  1.00  0.00     0.160 C 
ENDBRANCH  17  18
ENDBRANCH  16  17
ENDBRANCH  13  16
ENDBRANCH   6  11
ENDBRANCH   3   6
ENDBRANCH   1   2
BRANCH   1  23
ATOM     23  C   UNL A   1      37.864  19.963  24.847  1.00  0.00     0.042 C 
BRANCH  23  24
ATOM     24  C   UNL A   1      39.027  20.405  25.728  1.00  0.00     0.118 C 
BRANCH  24  25
ATOM     25  N   UNL A   1      40.051  19.377  25.871  1.00  0.00    -0.352 N 
ATOM     26  C   UNL A   1      41.391  19.476  26.157  1.00  0.00     0.251 C 
ATOM     27  H   UNL A   1      39.727  18.456  25.739  1.00  0.00     0.163 HD
ATOM     28  O   UNL A   1      42.113  18.492  26.020  1.00  0.00    -0.269 OA
BRANCH  26  29
ATOM     29  C   UNL A   1      41.976  20.761  26.593  1.00  0.00     0.039 A 
ATOM     30  C   UNL A   1      42.510  21.624  25.632  1.00  0.00     0.014 A 
ATOM     31  C   UNL A   1      42.001  21.120  27.942  1.00  0.00     0.014 A 
ATOM     32  C   UNL A   1      42.961  22.891  26.011  1.00  0.00     0.010 A 
ATOM     33  C   UNL A   1      42.364  22.413  28.307  1.00  0.00     0.010 A 
ATOM     34  C   UNL A   1      42.830  23.319  27.342  1.00  0.00    -0.014 A 
BRANCH  34  35
ATOM     35  C   UNL A   1      43.114  24.723  27.741  1.00  0.00     0.031 A 
ATOM     36  C   UNL A   1      44.517  25.157  28.061  1.00  0.00     0.074 A 
ATOM     37  C   UNL A   1      42.085  25.576  27.917  1.00  0.00     0.049 A 
ATOM     38  N   UNL A   1      44.935  26.304  28.534  1.00  0.00    -0.248 NA
ATOM     39  C   UNL A   1      45.589  24.169  27.849  1.00  0.00     0.031 C 
ATOM     40  C   UNL A   1      40.670  25.263  27.693  1.00  0.00     0.029 A 
ATOM     41  N   UNL A   1      42.067  26.880  28.346  1.00  0.00    -0.354 N 
ATOM     42  C   UNL A   1      46.308  26.167  28.699  1.00  0.00     0.074 A 
ATOM     43  C   UNL A   1      46.650  24.816  28.310  1.00  0.00     0.031 C 
ATOM     44  C   UNL A   1      39.927  26.346  27.967  1.00  0.00     0.029 A 
ATOM     45  C   UNL A   1      40.802  27.415  28.435  1.00  0.00     0.049 A 
ATOM     46  H   UNL A   1      42.882  27.386  28.570  1.00  0.00     0.167 HD
ATOM     47  C   UNL A   1      47.204  27.088  29.125  1.00  0.00     0.031 A 
ATOM     48  C   UNL A   1      40.389  28.622  28.866  1.00  0.00     0.031 A 
ATOM     49  C   UNL A   1      46.868  28.439  29.485  1.00  0.00     0.049 A 
ATOM     50  C   UNL A   1      41.408  29.617  29.345  1.00  0.00     0.074 A 
ATOM     51  C   UNL A   1      47.720  29.472  29.838  1.00  0.00     0.029 A 
ATOM     52  N   UNL A   1      45.579  28.944  29.546  1.00  0.00    -0.354 N 
ATOM     53  N   UNL A   1      42.712  29.501  29.401  1.00  0.00    -0.248 NA
ATOM     54  C   UNL A   1      40.898  30.911  29.821  1.00  0.00     0.031 C 
ATOM     55  C   UNL A   1      46.943  30.585  30.170  1.00  0.00     0.029 A 
ATOM     56  C   UNL A   1      45.611  30.261  29.972  1.00  0.00     0.049 A 
ATOM     57  H   UNL A   1      44.764  28.441  29.322  1.00  0.00     0.167 HD
ATOM     58  C   UNL A   1      43.178  30.710  29.900  1.00  0.00     0.074 A 
ATOM     59  C   UNL A   1      42.020  31.555  30.105  1.00  0.00     0.031 C 
ATOM     60  C   UNL A   1      44.450  31.086  30.173  1.00  0.00     0.031 A 
BRANCH  47  61
ATOM     61  C   UNL A   1      48.644  26.676  29.229  1.00  0.00    -0.014 A 
ATOM     62  C   UNL A   1      49.536  26.868  28.162  1.00  0.00     0.009 A 
ATOM     63  C   UNL A   1      49.136  26.167  30.442  1.00  0.00     0.009 A 
ATOM     64  C   UNL A   1      50.886  26.541  28.303  1.00  0.00     0.001 A 
ATOM     65  C   UNL A   1      50.490  25.864  30.587  1.00  0.00     0.001 A 
ATOM     66  C   UNL A   1      51.364  26.047  29.516  1.00  0.00     0.000 A 
ENDBRANCH  47  61
BRANCH  48  67
ATOM     67  C   UNL A   1      38.941  28.959  28.890  1.00  0.00    -0.014 A 
ATOM     68  C   UNL A   1      38.315  29.497  27.755  1.00  0.00     0.009 A 
ATOM     69  C   UNL A   1      38.186  28.783  30.060  1.00  0.00     0.009 A 
ATOM     70  C   UNL A   1      36.974  29.886  27.803  1.00  0.00     0.001 A 
ATOM     71  C   UNL A   1      36.837  29.142  30.096  1.00  0.00     0.001 A 
ATOM     72  C   UNL A   1      36.236  29.706  28.972  1.00  0.00     0.000 A 
ENDBRANCH  48  67
BRANCH  60  73
ATOM     73  C   UNL A   1      44.656  32.474  30.707  1.00  0.00    -0.014 A 
ATOM     74  C   UNL A   1      44.820  33.565  29.839  1.00  0.00     0.009 A 
ATOM     75  C   UNL A   1      44.640  32.699  32.092  1.00  0.00     0.009 A 
ATOM     76  C   UNL A   1      44.994  34.852  30.351  1.00  0.00     0.001 A 
ATOM     77  C   UNL A   1      44.786  33.991  32.599  1.00  0.00     0.001 A 
ATOM     78  C   UNL A   1      44.971  35.065  31.729  1.00  0.00     0.000 A 
ENDBRANCH  60  73
ENDBRANCH  34  35
ENDBRANCH  26  29
ENDBRANCH  24  25
ENDBRANCH  23  24
ENDBRANCH   1  23
TORSDOF 16
ENDMDL
MODEL 3
REMARK VINA RESULT:     -10.4      3.709      5.328
REMARK SMILES CCC(CC)(C(=O)NCCCNC(=O)c1ccc(-c2c3nc(c(-c4ccccc4)c4ccc([nH]4)c(-c4ccccc4)c4nc(c(-c5ccccc5)c5ccc2[nH]5)C=C4)C=C3)cc1)n1nnnc1CC[C@@H]1CCCO1
REMARK SMILES IDX 9 1 8 2 6 3 7 4 3 6 2 7 1 8 4 9 5 10 63 11 64 12 67 13 65 14
REMARK SMILES IDX 66 15 68 16 69 17 70 18 71 19 74 20 72 21 73 22 10 23 11 24
REMARK SMILES IDX 12 25 13 26 14 28 15 29 16 30 62 31 17 32 61 33 18 34 19 35
REMARK SMILES IDX 20 36 55 37 21 38 60 39 54 40 56 41 22 42 59 43 53 44 52 45
REMARK SMILES IDX 23 47 45 48 30 49 44 50 31 51 34 52 43 53 57 54 32 55 33 56
REMARK SMILES IDX 42 58 58 59 35 60 24 61 25 62 29 63 26 64 28 65 27 66 46 67
REMARK SMILES IDX 47 68 51 69 48 70 50 71 49 72 36 73 37 74 41 75 38 76 40 77
REMARK SMILES IDX 39 78
REMARK H PARENT 8 5 12 27 56 46 34 57
REMARK Flexibility Score: inf
ROOT
ATOM      1  C   UNL A   1      31.719  30.822  25.849  1.00  0.00     0.117 C 
ENDROOT
BRANCH   1   2
ATOM      2  N   UNL A   1      31.420  29.680  26.696  1.00  0.00    -0.354 N 
ATOM      3  C   UNL A   1      31.872  28.401  26.772  1.00  0.00     0.248 C 
ATOM      4  O   UNL A   1      31.235  27.712  27.579  1.00  0.00    -0.272 OA
ATOM      5  H   UNL A   1      30.730  29.880  27.369  1.00  0.00     0.163 HD
BRANCH   3   6
ATOM      6  C   UNL A   1      33.043  27.803  25.937  1.00  0.00     0.144 C 
BRANCH   6   7
ATOM      7  C   UNL A   1      34.359  28.518  26.413  1.00  0.00     0.037 C 
ATOM      8  C   UNL A   1      34.378  29.073  27.837  1.00  0.00     0.007 C 
ENDBRANCH   6   7
BRANCH   6   9
ATOM      9  C   UNL A   1      33.123  26.241  25.949  1.00  0.00     0.037 C 
ATOM     10  C   UNL A   1      34.318  25.511  25.368  1.00  0.00     0.007 C 
ENDBRANCH   6   9
BRANCH   6  11
ATOM     11  N   UNL A   1      32.779  28.146  24.496  1.00  0.00    -0.214 N 
ATOM     12  N   UNL A   1      33.782  28.609  23.715  1.00  0.00    -0.044 NA
ATOM     13  C   UNL A   1      31.701  27.847  23.673  1.00  0.00     0.152 A 
ATOM     14  N   UNL A   1      33.366  28.492  22.468  1.00  0.00    -0.024 NA
ATOM     15  N   UNL A   1      32.103  27.988  22.424  1.00  0.00    -0.114 NA
BRANCH  13  16
ATOM     16  C   UNL A   1      30.348  27.367  24.068  1.00  0.00     0.082 C 
BRANCH  16  17
ATOM     17  C   UNL A   1      29.217  27.818  23.136  1.00  0.00     0.040 C 
BRANCH  17  18
ATOM     18  C   UNL A   1      29.058  29.332  22.989  1.00  0.00     0.118 C 
ATOM     19  C   UNL A   1      27.654  29.856  23.265  1.00  0.00     0.034 C 
ATOM     20  O   UNL A   1      29.325  29.693  21.614  1.00  0.00    -0.378 OA
ATOM     21  C   UNL A   1      27.643  31.131  22.462  1.00  0.00     0.031 C 
ATOM     22  C   UNL A   1      28.406  30.722  21.222  1.00  0.00     0.160 C 
ENDBRANCH  17  18
ENDBRANCH  16  17
ENDBRANCH  13  16
ENDBRANCH   6  11
ENDBRANCH   3   6
ENDBRANCH   1   2
BRANCH   1  23
ATOM     23  C   UNL A   1      31.402  32.152  26.521  1.00  0.00     0.042 C 
BRANCH  23  24
ATOM     24  C   UNL A   1      32.578  32.755  27.280  1.00  0.00     0.118 C 
BRANCH  24  25
ATOM     25  N   UNL A   1      32.387  34.168  27.589  1.00  0.00    -0.352 N 
ATOM     26  C   UNL A   1      32.962  34.965  28.549  1.00  0.00     0.251 C 
ATOM     27  H   UNL A   1      31.734  34.628  27.012  1.00  0.00     0.163 HD
ATOM     28  O   UNL A   1      32.497  36.080  28.768  1.00  0.00    -0.269 OA
BRANCH  26  29
ATOM     29  C   UNL A   1      34.111  34.479  29.342  1.00  0.00     0.039 A 
ATOM     30  C   UNL A   1      33.884  33.983  30.630  1.00  0.00     0.014 A 
ATOM     31  C   UNL A   1      35.407  34.509  28.825  1.00  0.00     0.014 A 
ATOM     32  C   UNL A   1      34.939  33.414  31.349  1.00  0.00     0.010 A 
ATOM     33  C   UNL A   1      36.436  33.861  29.502  1.00  0.00     0.010 A 
ATOM     34  C   UNL A   1      36.209  33.289  30.763  1.00  0.00    -0.014 A 
BRANCH  34  35
ATOM     35  C   UNL A   1      37.296  32.516  31.417  1.00  0.00     0.031 A 
ATOM     36  C   UNL A   1      37.864  32.962  32.735  1.00  0.00     0.074 A 
ATOM     37  C   UNL A   1      37.843  31.470  30.764  1.00  0.00     0.049 A 
ATOM     38  N   UNL A   1      38.887  32.480  33.395  1.00  0.00    -0.248 NA
ATOM     39  C   UNL A   1      37.219  34.114  33.387  1.00  0.00     0.031 C 
ATOM     40  C   UNL A   1      37.420  30.969  29.452  1.00  0.00     0.029 A 
ATOM     41  N   UNL A   1      38.890  30.650  31.105  1.00  0.00    -0.354 N 
ATOM     42  C   UNL A   1      39.023  33.283  34.521  1.00  0.00     0.074 A 
ATOM     43  C   UNL A   1      38.002  34.304  34.440  1.00  0.00     0.031 C 
ATOM     44  C   UNL A   1      38.184  29.921  29.111  1.00  0.00     0.029 A 
ATOM     45  C   UNL A   1      39.184  29.704  30.150  1.00  0.00     0.049 A 
ATOM     46  H   UNL A   1      39.385  30.731  31.953  1.00  0.00     0.167 HD
ATOM     47  C   UNL A   1      39.911  33.171  35.536  1.00  0.00     0.031 A 
ATOM     48  C   UNL A   1      40.162  28.780  30.104  1.00  0.00     0.031 A 
ATOM     49  C   UNL A   1      40.909  32.139  35.631  1.00  0.00     0.049 A 
ATOM     50  C   UNL A   1      41.141  28.691  31.241  1.00  0.00     0.074 A 
ATOM     51  C   UNL A   1      41.790  31.889  36.668  1.00  0.00     0.029 A 
ATOM     52  N   UNL A   1      41.162  31.193  34.651  1.00  0.00    -0.354 N 
ATOM     53  N   UNL A   1      41.191  29.397  32.344  1.00  0.00    -0.248 NA
ATOM     54  C   UNL A   1      42.197  27.676  31.127  1.00  0.00     0.031 C 
ATOM     55  C   UNL A   1      42.618  30.827  36.291  1.00  0.00     0.029 A 
ATOM     56  C   UNL A   1      42.216  30.384  35.043  1.00  0.00     0.049 A 
ATOM     57  H   UNL A   1      40.668  31.110  33.805  1.00  0.00     0.167 HD
ATOM     58  C   UNL A   1      42.271  28.901  33.061  1.00  0.00     0.074 A 
ATOM     59  C   UNL A   1      42.831  27.817  32.282  1.00  0.00     0.031 C 
ATOM     60  C   UNL A   1      42.762  29.312  34.254  1.00  0.00     0.031 A 
BRANCH  47  61
ATOM     61  C   UNL A   1      39.854  34.189  36.639  1.00  0.00    -0.014 A 
ATOM     62  C   UNL A   1      40.547  35.406  36.543  1.00  0.00     0.009 A 
ATOM     63  C   UNL A   1      39.028  33.963  37.752  1.00  0.00     0.009 A 
ATOM     64  C   UNL A   1      40.427  36.368  37.549  1.00  0.00     0.001 A 
ATOM     65  C   UNL A   1      38.891  34.937  38.743  1.00  0.00     0.001 A 
ATOM     66  C   UNL A   1      39.594  36.137  38.643  1.00  0.00     0.000 A 
ENDBRANCH  47  61
BRANCH  48  67
ATOM     67  C   UNL A   1      40.289  27.874  28.932  1.00  0.00    -0.014 A 
ATOM     68  C   UNL A   1      41.007  28.273  27.795  1.00  0.00     0.009 A 
ATOM     69  C   UNL A   1      39.657  26.619  28.928  1.00  0.00     0.009 A 
ATOM     70  C   UNL A   1      41.060  27.452  26.665  1.00  0.00     0.001 A 
ATOM     71  C   UNL A   1      39.737  25.787  27.809  1.00  0.00     0.001 A 
ATOM     72  C   UNL A   1      40.427  26.210  26.674  1.00  0.00     0.000 A 
ENDBRANCH  48  67
BRANCH  60  73
ATOM     73  C   UNL A   1      43.952  28.575  34.797  1.00  0.00    -0.014 A 
ATOM     74  C   UNL A   1      45.257  29.023  34.540  1.00  0.00     0.009 A 
ATOM     75  C   UNL A   1      43.765  27.447  35.611  1.00  0.00     0.009 A 
ATOM     76  C   UNL A   1      46.354  28.337  35.064  1.00  0.00     0.001 A 
ATOM     77  C   UNL A   1      44.862  26.781  36.157  1.00  0.00     0.001 A 
ATOM     78  C   UNL A   1      46.156  27.221  35.877  1.00  0.00     0.000 A 
ENDBRANCH  60  73
ENDBRANCH  34  35
ENDBRANCH  26  29
ENDBRANCH  24  25
ENDBRANCH  23  24
ENDBRANCH   1  23
TORSDOF 16
ENDMDL
