MODEL 1
REMARK VINA RESULT:     -11.9      0.000      0.000
REMARK SMILES O=C(NCCCNC(=O)c1ccc(-c2cccc(O)c2)cc1Cl)c1ccc(-c2c3nc(c(-c4ccccc4)c4ccc([nH]4)c(-c4ccccc4)c4nc(c(-c5ccccc5)c5ccc2[nH]5)C=C4)C=C3)cc1
REMARK SMILES IDX 5 1 4 2 3 3 1 4 2 5 24 7 25 8 71 9 26 10 70 11 27 12 28 13
REMARK SMILES IDX 29 14 64 15 30 16 69 17 63 18 65 19 31 20 68 21 62 22 61 23
REMARK SMILES IDX 32 25 54 26 39 27 53 28 40 29 43 30 52 31 66 32 41 33 42 34
REMARK SMILES IDX 51 36 67 37 44 38 33 39 34 40 38 41 35 42 37 43 36 44 55 45
REMARK SMILES IDX 56 46 60 47 57 48 59 49 58 50 45 51 46 52 50 53 47 54 49 55
REMARK SMILES IDX 48 56 6 57 7 58 8 59 9 61 10 62 11 63 22 64 12 65 21 66
REMARK SMILES IDX 23 67 13 68 14 69 15 70 20 71 16 72 18 73 17 74 19 75
REMARK H PARENT 3 6 65 24 43 35 7 60 19 76
REMARK Flexibility Score: inf
ROOT
ATOM      1  C   UNL A   1      33.863  28.025  25.908  1.00  0.00     0.042 C 
ENDROOT
BRANCH   1   2
ATOM      2  C   UNL A   1      33.597  28.434  27.346  1.00  0.00     0.118 C 
BRANCH   2   3
ATOM      3  N   UNL A   1      33.583  29.880  27.527  1.00  0.00    -0.352 N 
ATOM      4  O   UNL A   1      34.276  31.884  28.292  1.00  0.00    -0.269 OA
ATOM      5  C   UNL A   1      34.544  30.710  28.048  1.00  0.00     0.251 C 
ATOM      6  H   UNL A   1      32.759  30.330  27.229  1.00  0.00     0.163 HD
BRANCH   5   7
ATOM      7  C   UNL A   1      35.898  30.191  28.327  1.00  0.00     0.039 A 
ATOM      8  C   UNL A   1      36.891  30.238  27.346  1.00  0.00     0.014 A 
ATOM      9  C   UNL A   1      36.191  29.685  29.597  1.00  0.00     0.014 A 
ATOM     10  C   UNL A   1      38.126  29.654  27.582  1.00  0.00     0.010 A 
ATOM     11  C   UNL A   1      37.471  29.195  29.869  1.00  0.00     0.010 A 
ATOM     12  C   UNL A   1      38.444  29.166  28.858  1.00  0.00    -0.014 A 
BRANCH  12  13
ATOM     13  C   UNL A   1      39.842  28.769  29.147  1.00  0.00     0.031 A 
ATOM     14  C   UNL A   1      40.809  29.712  29.798  1.00  0.00     0.074 A 
ATOM     15  C   UNL A   1      40.226  27.525  28.797  1.00  0.00     0.049 A 
ATOM     16  N   UNL A   1      42.070  29.517  30.089  1.00  0.00    -0.248 NA
ATOM     17  C   UNL A   1      40.308  31.046  30.168  1.00  0.00     0.031 C 
ATOM     18  C   UNL A   1      39.367  26.527  28.147  1.00  0.00     0.029 A 
ATOM     19  N   UNL A   1      41.427  26.881  28.941  1.00  0.00    -0.354 N 
ATOM     20  C   UNL A   1      42.521  30.705  30.649  1.00  0.00     0.074 A 
ATOM     21  C   UNL A   1      41.402  31.622  30.652  1.00  0.00     0.031 C 
ATOM     22  C   UNL A   1      40.059  25.392  27.978  1.00  0.00     0.029 A 
ATOM     23  C   UNL A   1      41.426  25.605  28.429  1.00  0.00     0.049 A 
ATOM     24  H   UNL A   1      42.214  27.292  29.366  1.00  0.00     0.167 HD
ATOM     25  C   UNL A   1      43.760  30.996  31.111  1.00  0.00     0.031 A 
ATOM     26  C   UNL A   1      42.425  24.715  28.296  1.00  0.00     0.031 A 
ATOM     27  C   UNL A   1      44.864  30.070  31.108  1.00  0.00     0.049 A 
ATOM     28  C   UNL A   1      43.795  25.093  28.773  1.00  0.00     0.074 A 
ATOM     29  C   UNL A   1      46.138  30.251  31.619  1.00  0.00     0.029 A 
ATOM     30  N   UNL A   1      44.832  28.801  30.553  1.00  0.00    -0.354 N 
ATOM     31  N   UNL A   1      44.185  26.192  29.370  1.00  0.00    -0.248 NA
ATOM     32  C   UNL A   1      44.866  24.113  28.551  1.00  0.00     0.031 C 
ATOM     33  C   UNL A   1      46.897  29.120  31.310  1.00  0.00     0.029 A 
ATOM     34  C   UNL A   1      46.079  28.209  30.662  1.00  0.00     0.049 A 
ATOM     35  H   UNL A   1      44.040  28.382  30.144  1.00  0.00     0.167 HD
ATOM     36  C   UNL A   1      45.543  26.033  29.602  1.00  0.00     0.074 A 
ATOM     37  C   UNL A   1      45.902  24.718  29.112  1.00  0.00     0.031 C 
ATOM     38  C   UNL A   1      46.418  26.903  30.162  1.00  0.00     0.031 A 
BRANCH  25  39
ATOM     39  C   UNL A   1      44.019  32.383  31.630  1.00  0.00    -0.014 A 
ATOM     40  C   UNL A   1      44.370  33.435  30.771  1.00  0.00     0.009 A 
ATOM     41  C   UNL A   1      43.805  32.660  32.990  1.00  0.00     0.009 A 
ATOM     42  C   UNL A   1      44.514  34.733  31.268  1.00  0.00     0.001 A 
ATOM     43  C   UNL A   1      43.927  33.962  33.479  1.00  0.00     0.001 A 
ATOM     44  C   UNL A   1      44.284  34.997  32.618  1.00  0.00     0.000 A 
ENDBRANCH  25  39
BRANCH  26  45
ATOM     45  C   UNL A   1      42.179  23.414  27.623  1.00  0.00    -0.014 A 
ATOM     46  C   UNL A   1      41.706  22.307  28.343  1.00  0.00     0.009 A 
ATOM     47  C   UNL A   1      42.432  23.271  26.248  1.00  0.00     0.009 A 
ATOM     48  C   UNL A   1      41.525  21.077  27.706  1.00  0.00     0.001 A 
ATOM     49  C   UNL A   1      42.215  22.051  25.608  1.00  0.00     0.001 A 
ATOM     50  C   UNL A   1      41.775  20.951  26.339  1.00  0.00     0.000 A 
ENDBRANCH  26  45
BRANCH  38  51
ATOM     51  C   UNL A   1      47.845  26.451  30.279  1.00  0.00    -0.014 A 
ATOM     52  C   UNL A   1      48.308  25.817  31.441  1.00  0.00     0.009 A 
ATOM     53  C   UNL A   1      48.723  26.625  29.197  1.00  0.00     0.009 A 
ATOM     54  C   UNL A   1      49.634  25.388  31.528  1.00  0.00     0.001 A 
ATOM     55  C   UNL A   1      50.038  26.167  29.277  1.00  0.00     0.001 A 
ATOM     56  C   UNL A   1      50.495  25.557  30.444  1.00  0.00     0.000 A 
ENDBRANCH  38  51
ENDBRANCH  12  13
ENDBRANCH   5   7
ENDBRANCH   2   3
ENDBRANCH   1   2
BRANCH   1  57
ATOM     57  C   UNL A   1      33.257  26.683  25.537  1.00  0.00     0.118 C 
BRANCH  57  58
ATOM     58  N   UNL A   1      31.932  26.491  26.109  1.00  0.00    -0.352 N 
ATOM     59  C   UNL A   1      31.174  25.348  26.159  1.00  0.00     0.252 C 
ATOM     60  H   UNL A   1      31.524  27.289  26.515  1.00  0.00     0.163 HD
ATOM     61  O   UNL A   1      30.032  25.372  26.607  1.00  0.00    -0.269 OA
BRANCH  59  62
ATOM     62  C   UNL A   1      31.714  24.104  25.591  1.00  0.00     0.058 A 
ATOM     63  C   UNL A   1      32.457  23.287  26.447  1.00  0.00     0.016 A 
ATOM     64  C   UNL A   1      31.466  23.706  24.277  1.00  0.00     0.054 A 
ATOM     65  C   UNL A   1      32.878  22.030  26.009  1.00  0.00     0.009 A 
ATOM     66  C   UNL A   1      31.858  22.431  23.861  1.00  0.00     0.030 A 
ATOM     67  Cl  UNL A   1      30.672  24.719  23.123  1.00  0.00    -0.083 Cl
ATOM     68  C   UNL A   1      32.556  21.565  24.721  1.00  0.00    -0.017 A 
BRANCH  68  69
ATOM     69  C   UNL A   1      32.932  20.208  24.283  1.00  0.00    -0.015 A 
ATOM     70  C   UNL A   1      34.046  19.548  24.831  1.00  0.00     0.009 A 
ATOM     71  C   UNL A   1      32.195  19.536  23.292  1.00  0.00     0.054 A 
ATOM     72  C   UNL A   1      34.410  18.267  24.406  1.00  0.00     0.004 A 
ATOM     73  C   UNL A   1      32.558  18.257  22.880  1.00  0.00     0.116 A 
ATOM     74  C   UNL A   1      33.662  17.616  23.428  1.00  0.00     0.046 A 
BRANCH  73  75
ATOM     75  O   UNL A   1      31.793  17.660  21.922  1.00  0.00    -0.508 OA
ATOM     76  H   UNL A   1      31.155  18.160  21.453  1.00  0.00     0.293 HD
ENDBRANCH  73  75
ENDBRANCH  68  69
ENDBRANCH  59  62
ENDBRANCH  57  58
ENDBRANCH   1  57
TORSDOF 12
ENDMDL
MODEL 2
REMARK VINA RESULT:     -11.7      2.895      7.649
REMARK SMILES O=C(NCCCNC(=O)c1ccc(-c2cccc(O)c2)cc1Cl)c1ccc(-c2c3nc(c(-c4ccccc4)c4ccc([nH]4)c(-c4ccccc4)c4nc(c(-c5ccccc5)c5ccc2[nH]5)C=C4)C=C3)cc1
REMARK SMILES IDX 5 1 4 2 3 3 1 4 2 5 24 7 25 8 71 9 26 10 70 11 27 12 28 13
REMARK SMILES IDX 29 14 64 15 30 16 69 17 63 18 65 19 31 20 68 21 62 22 61 23
REMARK SMILES IDX 32 25 54 26 39 27 53 28 40 29 43 30 52 31 66 32 41 33 42 34
REMARK SMILES IDX 51 36 67 37 44 38 33 39 34 40 38 41 35 42 37 43 36 44 55 45
REMARK SMILES IDX 56 46 60 47 57 48 59 49 58 50 45 51 46 52 50 53 47 54 49 55
REMARK SMILES IDX 48 56 6 57 7 58 8 59 9 61 10 62 11 63 22 64 12 65 21 66
REMARK SMILES IDX 23 67 13 68 14 69 15 70 20 71 16 72 18 73 17 74 19 75
REMARK H PARENT 3 6 65 24 43 35 7 60 19 76
REMARK Flexibility Score: inf
ROOT
ATOM      1  C   UNL A   1      37.753  19.674  25.010  1.00  0.00     0.042 C 
ENDROOT
BRANCH   1   2
ATOM      2  C   UNL A   1      38.976  20.182  25.754  1.00  0.00     0.118 C 
BRANCH   2   3
ATOM      3  N   UNL A   1      40.031  19.182  25.850  1.00  0.00    -0.352 N 
ATOM      4  O   UNL A   1      42.141  18.391  25.937  1.00  0.00    -0.269 OA
ATOM      5  C   UNL A   1      41.376  19.342  26.077  1.00  0.00     0.251 C 
ATOM      6  H   UNL A   1      39.735  18.250  25.734  1.00  0.00     0.163 HD
BRANCH   5   7
ATOM      7  C   UNL A   1      41.906  20.660  26.481  1.00  0.00     0.039 A 
ATOM      8  C   UNL A   1      42.262  21.605  25.517  1.00  0.00     0.014 A 
ATOM      9  C   UNL A   1      42.013  20.969  27.840  1.00  0.00     0.014 A 
ATOM     10  C   UNL A   1      42.857  22.798  25.902  1.00  0.00     0.010 A 
ATOM     11  C   UNL A   1      42.511  22.215  28.229  1.00  0.00     0.010 A 
ATOM     12  C   UNL A   1      42.947  23.134  27.261  1.00  0.00    -0.014 A 
BRANCH  12  13
ATOM     13  C   UNL A   1      43.364  24.506  27.635  1.00  0.00     0.031 A 
ATOM     14  C   UNL A   1      42.363  25.553  28.025  1.00  0.00     0.074 A 
ATOM     15  C   UNL A   1      44.680  24.791  27.607  1.00  0.00     0.049 A 
ATOM     16  N   UNL A   1      42.573  26.803  28.350  1.00  0.00    -0.248 NA
ATOM     17  C   UNL A   1      40.945  25.157  28.050  1.00  0.00     0.031 C 
ATOM     18  C   UNL A   1      45.742  23.849  27.232  1.00  0.00     0.029 A 
ATOM     19  N   UNL A   1      45.357  25.947  27.903  1.00  0.00    -0.354 N 
ATOM     20  C   UNL A   1      41.320  27.350  28.593  1.00  0.00     0.074 A 
ATOM     21  C   UNL A   1      40.350  26.300  28.370  1.00  0.00     0.031 C 
ATOM     22  C   UNL A   1      46.932  24.453  27.350  1.00  0.00     0.029 A 
ATOM     23  C   UNL A   1      46.716  25.842  27.728  1.00  0.00     0.049 A 
ATOM     24  H   UNL A   1      44.912  26.770  28.208  1.00  0.00     0.167 HD
ATOM     25  C   UNL A   1      41.016  28.617  28.962  1.00  0.00     0.031 A 
ATOM     26  C   UNL A   1      47.684  26.772  27.819  1.00  0.00     0.031 A 
ATOM     27  C   UNL A   1      41.994  29.651  29.187  1.00  0.00     0.049 A 
ATOM     28  C   UNL A   1      47.302  28.176  28.180  1.00  0.00     0.074 A 
ATOM     29  C   UNL A   1      41.787  30.946  29.631  1.00  0.00     0.029 A 
ATOM     30  N   UNL A   1      43.355  29.516  28.969  1.00  0.00    -0.354 N 
ATOM     31  N   UNL A   1      46.121  28.657  28.481  1.00  0.00    -0.248 NA
ATOM     32  C   UNL A   1      48.385  29.168  28.206  1.00  0.00     0.031 C 
ATOM     33  C   UNL A   1      43.013  31.615  29.613  1.00  0.00     0.029 A 
ATOM     34  C   UNL A   1      43.994  30.719  29.217  1.00  0.00     0.049 A 
ATOM     35  H   UNL A   1      43.803  28.687  28.681  1.00  0.00     0.167 HD
ATOM     36  C   UNL A   1      46.319  30.005  28.739  1.00  0.00     0.074 A 
ATOM     37  C   UNL A   1      47.738  30.258  28.594  1.00  0.00     0.031 C 
ATOM     38  C   UNL A   1      45.405  30.952  29.059  1.00  0.00     0.031 A 
BRANCH  25  39
ATOM     39  C   UNL A   1      39.568  28.986  29.115  1.00  0.00    -0.014 A 
ATOM     40  C   UNL A   1      38.809  29.451  28.030  1.00  0.00     0.009 A 
ATOM     41  C   UNL A   1      38.928  28.765  30.345  1.00  0.00     0.009 A 
ATOM     42  C   UNL A   1      37.442  29.698  28.180  1.00  0.00     0.001 A 
ATOM     43  C   UNL A   1      37.557  28.991  30.486  1.00  0.00     0.001 A 
ATOM     44  C   UNL A   1      36.816  29.460  29.404  1.00  0.00     0.000 A 
ENDBRANCH  25  39
BRANCH  26  45
ATOM     45  C   UNL A   1      49.089  26.418  27.495  1.00  0.00    -0.014 A 
ATOM     46  C   UNL A   1      49.563  26.478  26.176  1.00  0.00     0.009 A 
ATOM     47  C   UNL A   1      49.966  26.001  28.512  1.00  0.00     0.009 A 
ATOM     48  C   UNL A   1      50.873  26.095  25.879  1.00  0.00     0.001 A 
ATOM     49  C   UNL A   1      51.284  25.655  28.217  1.00  0.00     0.001 A 
ATOM     50  C   UNL A   1      51.734  25.689  26.899  1.00  0.00     0.000 A 
ENDBRANCH  26  45
BRANCH  38  51
ATOM     51  C   UNL A   1      45.919  32.346  29.281  1.00  0.00    -0.014 A 
ATOM     52  C   UNL A   1      45.961  33.275  28.231  1.00  0.00     0.009 A 
ATOM     53  C   UNL A   1      46.325  32.744  30.564  1.00  0.00     0.009 A 
ATOM     54  C   UNL A   1      46.426  34.571  28.457  1.00  0.00     0.001 A 
ATOM     55  C   UNL A   1      46.761  34.049  30.792  1.00  0.00     0.001 A 
ATOM     56  C   UNL A   1      46.819  34.959  29.737  1.00  0.00     0.000 A 
ENDBRANCH  38  51
ENDBRANCH  12  13
ENDBRANCH   5   7
ENDBRANCH   2   3
ENDBRANCH   1   2
BRANCH   1  57
ATOM     57  C   UNL A   1      36.606  20.669  24.978  1.00  0.00     0.118 C 
BRANCH  57  58
ATOM     58  N   UNL A   1      35.306  20.028  25.123  1.00  0.00    -0.352 N 
ATOM     59  C   UNL A   1      34.057  20.592  25.059  1.00  0.00     0.252 C 
ATOM     60  H   UNL A   1      35.326  19.059  25.291  1.00  0.00     0.163 HD
ATOM     61  O   UNL A   1      33.054  19.924  25.287  1.00  0.00    -0.269 OA
BRANCH  59  62
ATOM     62  C   UNL A   1      33.934  22.033  24.794  1.00  0.00     0.058 A 
ATOM     63  C   UNL A   1      33.840  22.427  23.457  1.00  0.00     0.016 A 
ATOM     64  C   UNL A   1      33.856  22.983  25.814  1.00  0.00     0.054 A 
ATOM     65  C   UNL A   1      33.583  23.763  23.146  1.00  0.00     0.009 A 
ATOM     66  C   UNL A   1      33.561  24.310  25.495  1.00  0.00     0.030 A 
ATOM     67  Cl  UNL A   1      34.096  22.592  27.481  1.00  0.00    -0.083 Cl
ATOM     68  C   UNL A   1      33.403  24.722  24.159  1.00  0.00    -0.017 A 
BRANCH  68  69
ATOM     69  C   UNL A   1      33.053  26.118  23.836  1.00  0.00    -0.015 A 
ATOM     70  C   UNL A   1      33.729  27.195  24.435  1.00  0.00     0.009 A 
ATOM     71  C   UNL A   1      32.022  26.415  22.928  1.00  0.00     0.054 A 
ATOM     72  C   UNL A   1      33.390  28.518  24.139  1.00  0.00     0.004 A 
ATOM     73  C   UNL A   1      31.695  27.735  22.631  1.00  0.00     0.116 A 
ATOM     74  C   UNL A   1      32.369  28.792  23.231  1.00  0.00     0.046 A 
BRANCH  73  75
ATOM     75  O   UNL A   1      30.691  27.952  21.734  1.00  0.00    -0.508 OA
ATOM     76  H   UNL A   1      30.081  28.649  21.872  1.00  0.00     0.293 HD
ENDBRANCH  73  75
ENDBRANCH  68  69
ENDBRANCH  59  62
ENDBRANCH  57  58
ENDBRANCH   1  57
TORSDOF 12
ENDMDL
MODEL 3
REMARK VINA RESULT:     -11.7      4.037      8.040
REMARK SMILES O=C(NCCCNC(=O)c1ccc(-c2cccc(O)c2)cc1Cl)c1ccc(-c2c3nc(c(-c4ccccc4)c4ccc([nH]4)c(-c4ccccc4)c4nc(c(-c5ccccc5)c5ccc2[nH]5)C=C4)C=C3)cc1
REMARK SMILES IDX 5 1 4 2 3 3 1 4 2 5 24 7 25 8 71 9 26 10 70 11 27 12 28 13
REMARK SMILES IDX 29 14 64 15 30 16 69 17 63 18 65 19 31 20 68 21 62 22 61 23
REMARK SMILES IDX 32 25 54 26 39 27 53 28 40 29 43 30 52 31 66 32 41 33 42 34
REMARK SMILES IDX 51 36 67 37 44 38 33 39 34 40 38 41 35 42 37 43 36 44 55 45
REMARK SMILES IDX 56 46 60 47 57 48 59 49 58 50 45 51 46 52 50 53 47 54 49 55
REMARK SMILES IDX 48 56 6 57 7 58 8 59 9 61 10 62 11 63 22 64 12 65 21 66
REMARK SMILES IDX 23 67 13 68 14 69 15 70 20 71 16 72 18 73 17 74 19 75
REMARK H PARENT 3 6 65 24 43 35 7 60 19 76
REMARK Flexibility Score: inf
ROOT
ATOM      1  C   UNL A   1      31.414  32.161  26.505  1.00  0.00     0.042 C 
ENDROOT
BRANCH   1   2
ATOM      2  C   UNL A   1      32.625  32.761  27.200  1.00  0.00     0.118 C 
BRANCH   2   3
ATOM      3  N   UNL A   1      32.405  34.138  27.624  1.00  0.00    -0.352 N 
ATOM      4  O   UNL A   1      32.554  35.949  28.959  1.00  0.00    -0.269 OA
ATOM      5  C   UNL A   1      33.006  34.855  28.629  1.00  0.00     0.251 C 
ATOM      6  H   UNL A   1      31.721  34.628  27.112  1.00  0.00     0.163 HD
BRANCH   5   7
ATOM      7  C   UNL A   1      34.190  34.308  29.322  1.00  0.00     0.039 A 
ATOM      8  C   UNL A   1      34.040  33.511  30.459  1.00  0.00     0.014 A 
ATOM      9  C   UNL A   1      35.464  34.563  28.807  1.00  0.00     0.014 A 
ATOM     10  C   UNL A   1      35.158  33.090  31.162  1.00  0.00     0.010 A 
ATOM     11  C   UNL A   1      36.589  34.046  29.456  1.00  0.00     0.010 A 
ATOM     12  C   UNL A   1      36.443  33.315  30.645  1.00  0.00    -0.014 A 
BRANCH  12  13
ATOM     13  C   UNL A   1      37.601  32.652  31.287  1.00  0.00     0.031 A 
ATOM     14  C   UNL A   1      38.277  31.468  30.661  1.00  0.00     0.074 A 
ATOM     15  C   UNL A   1      38.031  33.143  32.467  1.00  0.00     0.049 A 
ATOM     16  N   UNL A   1      39.283  30.766  31.117  1.00  0.00    -0.248 NA
ATOM     17  C   UNL A   1      37.761  31.004  29.363  1.00  0.00     0.031 C 
ATOM     18  C   UNL A   1      37.440  34.286  33.172  1.00  0.00     0.029 A 
ATOM     19  N   UNL A   1      39.064  32.754  33.280  1.00  0.00    -0.354 N 
ATOM     20  C   UNL A   1      39.505  29.765  30.181  1.00  0.00     0.074 A 
ATOM     21  C   UNL A   1      38.524  29.942  29.132  1.00  0.00     0.031 C 
ATOM     22  C   UNL A   1      38.136  34.523  34.292  1.00  0.00     0.029 A 
ATOM     23  C   UNL A   1      39.168  33.505  34.427  1.00  0.00     0.049 A 
ATOM     24  H   UNL A   1      39.670  32.009  33.066  1.00  0.00     0.167 HD
ATOM     25  C   UNL A   1      40.441  28.787  30.205  1.00  0.00     0.031 A 
ATOM     26  C   UNL A   1      39.975  33.367  35.493  1.00  0.00     0.031 A 
ATOM     27  C   UNL A   1      41.417  28.627  31.253  1.00  0.00     0.049 A 
ATOM     28  C   UNL A   1      40.965  32.241  35.507  1.00  0.00     0.074 A 
ATOM     29  C   UNL A   1      42.450  27.708  31.331  1.00  0.00     0.029 A 
ATOM     30  N   UNL A   1      41.468  29.386  32.410  1.00  0.00    -0.354 N 
ATOM     31  N   UNL A   1      41.212  31.351  34.578  1.00  0.00    -0.248 NA
ATOM     32  C   UNL A   1      41.781  32.095  36.719  1.00  0.00     0.031 C 
ATOM     33  C   UNL A   1      43.082  27.866  32.567  1.00  0.00     0.029 A 
ATOM     34  C   UNL A   1      42.482  28.923  33.232  1.00  0.00     0.049 A 
ATOM     35  H   UNL A   1      40.874  30.143  32.618  1.00  0.00     0.167 HD
ATOM     36  C   UNL A   1      42.217  30.543  35.089  1.00  0.00     0.074 A 
ATOM     37  C   UNL A   1      42.556  31.070  36.395  1.00  0.00     0.031 C 
ATOM     38  C   UNL A   1      42.799  29.455  34.531  1.00  0.00     0.031 A 
BRANCH  25  39
ATOM     39  C   UNL A   1      40.449  27.780  29.089  1.00  0.00    -0.014 A 
ATOM     40  C   UNL A   1      39.682  26.606  29.154  1.00  0.00     0.009 A 
ATOM     41  C   UNL A   1      41.157  28.064  27.910  1.00  0.00     0.009 A 
ATOM     42  C   UNL A   1      39.637  25.733  28.063  1.00  0.00     0.001 A 
ATOM     43  C   UNL A   1      41.090  27.202  26.815  1.00  0.00     0.001 A 
ATOM     44  C   UNL A   1      40.333  26.036  26.893  1.00  0.00     0.000 A 
ENDBRANCH  25  39
BRANCH  26  45
ATOM     45  C   UNL A   1      39.829  34.275  36.659  1.00  0.00    -0.014 A 
ATOM     46  C   UNL A   1      40.512  35.499  36.711  1.00  0.00     0.009 A 
ATOM     47  C   UNL A   1      39.010  33.910  37.742  1.00  0.00     0.009 A 
ATOM     48  C   UNL A   1      40.404  36.321  37.835  1.00  0.00     0.001 A 
ATOM     49  C   UNL A   1      38.875  34.750  38.847  1.00  0.00     0.001 A 
ATOM     50  C   UNL A   1      39.582  35.949  38.900  1.00  0.00     0.000 A 
ENDBRANCH  26  45
BRANCH  38  51
ATOM     51  C   UNL A   1      43.870  28.772  35.331  1.00  0.00    -0.014 A 
ATOM     52  C   UNL A   1      43.558  27.718  36.202  1.00  0.00     0.009 A 
ATOM     53  C   UNL A   1      45.210  29.160  35.179  1.00  0.00     0.009 A 
ATOM     54  C   UNL A   1      44.567  27.081  36.927  1.00  0.00     0.001 A 
ATOM     55  C   UNL A   1      46.219  28.502  35.883  1.00  0.00     0.001 A 
ATOM     56  C   UNL A   1      45.896  27.469  36.762  1.00  0.00     0.000 A 
ENDBRANCH  38  51
ENDBRANCH  12  13
ENDBRANCH   5   7
ENDBRANCH   2   3
ENDBRANCH   1   2
BRANCH   1  57
ATOM     57  C   UNL A   1      31.595  30.702  26.124  1.00  0.00     0.118 C 
BRANCH  57  58
ATOM     58  N   UNL A   1      31.036  30.393  24.815  1.00  0.00    -0.352 N 
ATOM     59  C   UNL A   1      31.080  29.212  24.118  1.00  0.00     0.252 C 
ATOM     60  H   UNL A   1      30.563  31.132  24.369  1.00  0.00     0.163 HD
ATOM     61  O   UNL A   1      30.627  29.138  22.980  1.00  0.00    -0.269 OA
BRANCH  59  62
ATOM     62  C   UNL A   1      31.753  28.050  24.718  1.00  0.00     0.058 A 
ATOM     63  C   UNL A   1      31.028  27.313  25.658  1.00  0.00     0.016 A 
ATOM     64  C   UNL A   1      33.035  27.646  24.344  1.00  0.00     0.054 A 
ATOM     65  C   UNL A   1      31.556  26.123  26.160  1.00  0.00     0.009 A 
ATOM     66  C   UNL A   1      33.539  26.434  24.822  1.00  0.00     0.030 A 
ATOM     67  Cl  UNL A   1      34.042  28.576  23.291  1.00  0.00    -0.083 Cl
ATOM     68  C   UNL A   1      32.805  25.643  25.724  1.00  0.00    -0.017 A 
BRANCH  68  69
ATOM     69  C   UNL A   1      33.330  24.347  26.193  1.00  0.00    -0.015 A 
ATOM     70  C   UNL A   1      32.523  23.451  26.915  1.00  0.00     0.009 A 
ATOM     71  C   UNL A   1      34.663  23.974  25.944  1.00  0.00     0.054 A 
ATOM     72  C   UNL A   1      33.025  22.229  27.370  1.00  0.00     0.004 A 
ATOM     73  C   UNL A   1      35.154  22.751  26.393  1.00  0.00     0.116 A 
ATOM     74  C   UNL A   1      34.346  21.874  27.107  1.00  0.00     0.046 A 
BRANCH  73  75
ATOM     75  O   UNL A   1      36.452  22.448  26.108  1.00  0.00    -0.508 OA
ATOM     76  H   UNL A   1      36.656  21.894  25.380  1.00  0.00     0.293 HD
ENDBRANCH  73  75
ENDBRANCH  68  69
ENDBRANCH  59  62
ENDBRANCH  57  58
ENDBRANCH   1  57
TORSDOF 12
ENDMDL
