MODEL 1
REMARK VINA RESULT:     -10.1      0.000      0.000
REMARK SMILES C[C@@](O)(CNC(=O)CC1([NH3+])CCC1)C(=O)NCCCNC(=O)c1ccc(-c2c3nc(c(-c4ccccc4)c4ccc([nH]4)c(-c4ccccc4)c4nc(c(-c5ccccc5)c5ccc2[nH]5)C=C4)C=C3)cc1
REMARK SMILES IDX 14 1 15 2 16 3 2 5 1 6 3 7 4 9 5 10 6 11 7 13 8 14 9 15
REMARK SMILES IDX 11 16 13 17 12 18 10 19 17 23 18 24 19 25 20 26 21 27 22 29
REMARK SMILES IDX 23 30 24 31 70 32 25 33 69 34 26 35 27 36 28 37 63 38 29 39
REMARK SMILES IDX 68 40 62 41 64 42 30 43 67 44 61 45 60 46 31 48 53 49 38 50
REMARK SMILES IDX 52 51 39 52 42 53 51 54 65 55 40 56 41 57 50 59 66 60 43 61
REMARK SMILES IDX 32 62 33 63 37 64 34 65 36 66 35 67 54 68 55 69 59 70 56 71
REMARK SMILES IDX 58 72 57 73 44 74 45 75 49 76 46 77 48 78 47 79
REMARK H PARENT 16 4 3 8 5 12 10 20 10 21 10 22 20 28 64 47 42 58
REMARK Flexibility Score: inf
ROOT
ATOM      1  C   UNL A   1      32.843  28.925  25.514  1.00  0.00     0.253 C 
ATOM      2  O   UNL A   1      34.001  28.750  25.118  1.00  0.00    -0.272 OA
ATOM      3  N   UNL A   1      32.351  30.186  25.339  1.00  0.00    -0.353 N 
ATOM      4  H   UNL A   1      33.019  30.810  24.970  1.00  0.00     0.163 HD
ENDROOT
BRANCH   1   5
ATOM      5  C   UNL A   1      32.039  27.760  26.165  1.00  0.00     0.157 C 
ATOM      6  C   UNL A   1      31.633  28.179  27.593  1.00  0.00     0.055 C 
BRANCH   5   7
ATOM      7  O   UNL A   1      32.862  26.594  26.320  1.00  0.00    -0.378 OA
ATOM      8  H   UNL A   1      33.661  26.827  26.817  1.00  0.00     0.212 HD
ENDBRANCH   5   7
BRANCH   5   9
ATOM      9  C   UNL A   1      30.785  27.355  25.327  1.00  0.00     0.160 C 
BRANCH   9  10
ATOM     10  N   UNL A   1      31.004  27.170  23.887  1.00  0.00    -0.352 N 
ATOM     11  C   UNL A   1      30.344  27.669  22.803  1.00  0.00     0.226 C 
ATOM     12  H   UNL A   1      31.760  26.582  23.665  1.00  0.00     0.163 HD
ATOM     13  O   UNL A   1      30.762  27.379  21.679  1.00  0.00    -0.275 OA
BRANCH  11  14
ATOM     14  C   UNL A   1      29.166  28.595  22.981  1.00  0.00     0.168 C 
BRANCH  14  15
ATOM     15  C   UNL A   1      29.258  29.956  22.306  1.00  0.00     0.103 C 
ATOM     16  C   UNL A   1      28.234  30.372  21.207  1.00  0.00     0.069 C 
ATOM     17  C   UNL A   1      28.846  31.237  23.072  1.00  0.00     0.069 C 
ATOM     18  C   UNL A   1      28.140  31.775  21.831  1.00  0.00     0.013 C 
BRANCH  15  19
ATOM     19  N   UNL A   1      30.595  30.172  21.714  1.00  0.00    -0.352 N 
ATOM     20  H   UNL A   1      30.838  29.377  21.123  1.00  0.00     0.344 HD
ATOM     21  H   UNL A   1      31.286  30.267  22.459  1.00  0.00     0.344 HD
ATOM     22  H   UNL A   1      30.584  31.023  21.151  1.00  0.00     0.344 HD
ENDBRANCH  15  19
ENDBRANCH  14  15
ENDBRANCH  11  14
ENDBRANCH   9  10
ENDBRANCH   5   9
ENDBRANCH   1   5
BRANCH   3  23
ATOM     23  C   UNL A   1      31.058  30.817  25.574  1.00  0.00     0.117 C 
BRANCH  23  24
ATOM     24  C   UNL A   1      31.087  32.048  26.496  1.00  0.00     0.042 C 
BRANCH  24  25
ATOM     25  C   UNL A   1      32.452  32.490  27.049  1.00  0.00     0.118 C 
BRANCH  25  26
ATOM     26  N   UNL A   1      32.428  33.835  27.608  1.00  0.00    -0.352 N 
ATOM     27  C   UNL A   1      33.195  34.476  28.548  1.00  0.00     0.251 C 
ATOM     28  H   UNL A   1      31.713  34.401  27.235  1.00  0.00     0.163 HD
ATOM     29  O   UNL A   1      32.809  35.589  28.923  1.00  0.00    -0.269 OA
BRANCH  27  30
ATOM     30  C   UNL A   1      34.447  33.934  29.156  1.00  0.00     0.039 A 
ATOM     31  C   UNL A   1      35.642  34.154  28.452  1.00  0.00     0.014 A 
ATOM     32  C   UNL A   1      34.488  33.100  30.277  1.00  0.00     0.014 A 
ATOM     33  C   UNL A   1      36.849  33.568  28.861  1.00  0.00     0.010 A 
ATOM     34  C   UNL A   1      35.710  32.544  30.714  1.00  0.00     0.010 A 
ATOM     35  C   UNL A   1      36.905  32.759  30.005  1.00  0.00    -0.014 A 
BRANCH  35  36
ATOM     36  C   UNL A   1      38.208  32.158  30.433  1.00  0.00     0.031 A 
ATOM     37  C   UNL A   1      38.716  30.863  29.846  1.00  0.00     0.074 A 
ATOM     38  C   UNL A   1      38.976  32.788  31.347  1.00  0.00     0.049 A 
ATOM     39  N   UNL A   1      39.853  30.242  30.069  1.00  0.00    -0.248 NA
ATOM     40  C   UNL A   1      37.836  30.172  28.893  1.00  0.00     0.031 C 
ATOM     41  C   UNL A   1      38.631  34.040  32.021  1.00  0.00     0.029 A 
ATOM     42  N   UNL A   1      40.210  32.463  31.862  1.00  0.00    -0.354 N 
ATOM     43  C   UNL A   1      39.819  29.086  29.297  1.00  0.00     0.074 A 
ATOM     44  C   UNL A   1      38.536  29.077  28.624  1.00  0.00     0.031 C 
ATOM     45  C   UNL A   1      39.637  34.388  32.840  1.00  0.00     0.029 A 
ATOM     46  C   UNL A   1      40.686  33.374  32.775  1.00  0.00     0.049 A 
ATOM     47  H   UNL A   1      40.707  31.654  31.602  1.00  0.00     0.167 HD
ATOM     48  C   UNL A   1      40.765  28.125  29.147  1.00  0.00     0.031 A 
ATOM     49  C   UNL A   1      41.831  33.402  33.484  1.00  0.00     0.031 A 
ATOM     50  C   UNL A   1      42.052  28.117  29.796  1.00  0.00     0.049 A 
ATOM     51  C   UNL A   1      42.858  32.316  33.316  1.00  0.00     0.074 A 
ATOM     52  C   UNL A   1      43.088  27.207  29.643  1.00  0.00     0.029 A 
ATOM     53  N   UNL A   1      42.479  29.048  30.727  1.00  0.00    -0.354 N 
ATOM     54  N   UNL A   1      42.834  31.272  32.525  1.00  0.00    -0.248 NA
ATOM     55  C   UNL A   1      44.078  32.422  34.135  1.00  0.00     0.031 C 
ATOM     56  C   UNL A   1      44.120  27.559  30.519  1.00  0.00     0.029 A 
ATOM     57  C   UNL A   1      43.748  28.717  31.179  1.00  0.00     0.049 A 
ATOM     58  H   UNL A   1      41.959  29.829  31.024  1.00  0.00     0.167 HD
ATOM     59  C   UNL A   1      44.039  30.612  32.734  1.00  0.00     0.074 A 
ATOM     60  C   UNL A   1      44.779  31.379  33.713  1.00  0.00     0.031 C 
ATOM     61  C   UNL A   1      44.487  29.470  32.158  1.00  0.00     0.031 A 
BRANCH  48  62
ATOM     62  C   UNL A   1      40.441  26.969  28.239  1.00  0.00    -0.014 A 
ATOM     63  C   UNL A   1      40.888  26.941  26.909  1.00  0.00     0.009 A 
ATOM     64  C   UNL A   1      39.734  25.866  28.742  1.00  0.00     0.009 A 
ATOM     65  C   UNL A   1      40.601  25.846  26.091  1.00  0.00     0.001 A 
ATOM     66  C   UNL A   1      39.471  24.761  27.929  1.00  0.00     0.001 A 
ATOM     67  C   UNL A   1      39.897  24.757  26.602  1.00  0.00     0.000 A 
ENDBRANCH  48  62
BRANCH  49  68
ATOM     68  C   UNL A   1      42.081  34.517  34.436  1.00  0.00    -0.014 A 
ATOM     69  C   UNL A   1      41.669  34.421  35.774  1.00  0.00     0.009 A 
ATOM     70  C   UNL A   1      42.723  35.686  34.003  1.00  0.00     0.009 A 
ATOM     71  C   UNL A   1      41.876  35.485  36.654  1.00  0.00     0.001 A 
ATOM     72  C   UNL A   1      42.953  36.738  34.893  1.00  0.00     0.001 A 
ATOM     73  C   UNL A   1      42.523  36.639  36.214  1.00  0.00     0.000 A 
ENDBRANCH  49  68
BRANCH  61  74
ATOM     74  C   UNL A   1      45.855  28.984  32.554  1.00  0.00    -0.014 A 
ATOM     75  C   UNL A   1      46.029  28.085  33.618  1.00  0.00     0.009 A 
ATOM     76  C   UNL A   1      46.983  29.406  31.831  1.00  0.00     0.009 A 
ATOM     77  C   UNL A   1      47.307  27.642  33.968  1.00  0.00     0.001 A 
ATOM     78  C   UNL A   1      48.256  28.942  32.167  1.00  0.00     0.001 A 
ATOM     79  C   UNL A   1      48.418  28.067  33.241  1.00  0.00     0.000 A 
ENDBRANCH  61  74
ENDBRANCH  35  36
ENDBRANCH  27  30
ENDBRANCH  25  26
ENDBRANCH  24  25
ENDBRANCH  23  24
ENDBRANCH   3  23
TORSDOF 16
ENDMDL
MODEL 2
REMARK VINA RESULT:     -10.0      3.109      7.948
REMARK SMILES C[C@@](O)(CNC(=O)CC1([NH3+])CCC1)C(=O)NCCCNC(=O)c1ccc(-c2c3nc(c(-c4ccccc4)c4ccc([nH]4)c(-c4ccccc4)c4nc(c(-c5ccccc5)c5ccc2[nH]5)C=C4)C=C3)cc1
REMARK SMILES IDX 14 1 15 2 16 3 2 5 1 6 3 7 4 9 5 10 6 11 7 13 8 14 9 15
REMARK SMILES IDX 11 16 13 17 12 18 10 19 17 23 18 24 19 25 20 26 21 27 22 29
REMARK SMILES IDX 23 30 24 31 70 32 25 33 69 34 26 35 27 36 28 37 63 38 29 39
REMARK SMILES IDX 68 40 62 41 64 42 30 43 67 44 61 45 60 46 31 48 53 49 38 50
REMARK SMILES IDX 52 51 39 52 42 53 51 54 65 55 40 56 41 57 50 59 66 60 43 61
REMARK SMILES IDX 32 62 33 63 37 64 34 65 36 66 35 67 54 68 55 69 59 70 56 71
REMARK SMILES IDX 58 72 57 73 44 74 45 75 49 76 46 77 48 78 47 79
REMARK H PARENT 16 4 3 8 5 12 10 20 10 21 10 22 20 28 64 47 42 58
REMARK Flexibility Score: inf
ROOT
ATOM      1  C   UNL A   1      30.961  24.325  26.677  1.00  0.00     0.253 C 
ATOM      2  O   UNL A   1      30.012  23.709  27.176  1.00  0.00    -0.272 OA
ATOM      3  N   UNL A   1      30.731  25.647  26.426  1.00  0.00    -0.353 N 
ATOM      4  H   UNL A   1      29.805  25.919  26.624  1.00  0.00     0.163 HD
ENDROOT
BRANCH   1   5
ATOM      5  C   UNL A   1      32.307  23.602  26.370  1.00  0.00     0.157 C 
ATOM      6  C   UNL A   1      32.549  22.532  27.455  1.00  0.00     0.055 C 
BRANCH   5   7
ATOM      7  O   UNL A   1      33.412  24.513  26.468  1.00  0.00    -0.378 OA
ATOM      8  H   UNL A   1      34.056  24.172  27.108  1.00  0.00     0.212 HD
ENDBRANCH   5   7
BRANCH   5   9
ATOM      9  C   UNL A   1      32.334  22.964  24.946  1.00  0.00     0.160 C 
BRANCH   9  10
ATOM     10  N   UNL A   1      32.884  21.605  24.858  1.00  0.00    -0.352 N 
ATOM     11  C   UNL A   1      34.144  21.158  24.588  1.00  0.00     0.226 C 
ATOM     12  H   UNL A   1      32.228  20.891  25.021  1.00  0.00     0.163 HD
ATOM     13  O   UNL A   1      34.350  19.943  24.610  1.00  0.00    -0.275 OA
BRANCH  11  14
ATOM     14  C   UNL A   1      35.264  22.134  24.324  1.00  0.00     0.168 C 
BRANCH  14  15
ATOM     15  C   UNL A   1      36.266  22.347  25.449  1.00  0.00     0.103 C 
ATOM     16  C   UNL A   1      37.745  21.883  25.298  1.00  0.00     0.069 C 
ATOM     17  C   UNL A   1      36.817  23.763  25.749  1.00  0.00     0.069 C 
ATOM     18  C   UNL A   1      38.219  23.197  25.944  1.00  0.00     0.013 C 
BRANCH  15  19
ATOM     19  N   UNL A   1      35.785  21.753  26.715  1.00  0.00    -0.352 N 
ATOM     20  H   UNL A   1      36.512  21.835  27.426  1.00  0.00     0.344 HD
ATOM     21  H   UNL A   1      35.564  20.768  26.566  1.00  0.00     0.344 HD
ATOM     22  H   UNL A   1      34.948  22.246  27.026  1.00  0.00     0.344 HD
ENDBRANCH  15  19
ENDBRANCH  14  15
ENDBRANCH  11  14
ENDBRANCH   9  10
ENDBRANCH   5   9
ENDBRANCH   1   5
BRANCH   3  23
ATOM     23  C   UNL A   1      31.550  26.747  25.932  1.00  0.00     0.117 C 
BRANCH  23  24
ATOM     24  C   UNL A   1      32.120  27.679  27.016  1.00  0.00     0.042 C 
BRANCH  24  25
ATOM     25  C   UNL A   1      33.439  28.406  26.705  1.00  0.00     0.118 C 
BRANCH  25  26
ATOM     26  N   UNL A   1      33.392  29.825  27.030  1.00  0.00    -0.352 N 
ATOM     27  C   UNL A   1      34.226  30.657  27.734  1.00  0.00     0.251 C 
ATOM     28  H   UNL A   1      32.596  30.283  26.672  1.00  0.00     0.163 HD
ATOM     29  O   UNL A   1      33.813  31.799  27.968  1.00  0.00    -0.269 OA
BRANCH  27  30
ATOM     30  C   UNL A   1      35.581  30.290  28.243  1.00  0.00     0.039 A 
ATOM     31  C   UNL A   1      36.643  30.351  27.326  1.00  0.00     0.014 A 
ATOM     32  C   UNL A   1      35.834  29.747  29.506  1.00  0.00     0.014 A 
ATOM     33  C   UNL A   1      37.925  29.893  27.662  1.00  0.00     0.010 A 
ATOM     34  C   UNL A   1      37.134  29.326  29.860  1.00  0.00     0.010 A 
ATOM     35  C   UNL A   1      38.195  29.380  28.939  1.00  0.00    -0.014 A 
BRANCH  35  36
ATOM     36  C   UNL A   1      39.576  28.914  29.281  1.00  0.00     0.031 A 
ATOM     37  C   UNL A   1      40.513  29.751  30.119  1.00  0.00     0.074 A 
ATOM     38  C   UNL A   1      40.006  27.706  28.858  1.00  0.00     0.049 A 
ATOM     39  N   UNL A   1      41.720  29.462  30.551  1.00  0.00    -0.248 NA
ATOM     40  C   UNL A   1      40.039  31.083  30.520  1.00  0.00     0.031 C 
ATOM     41  C   UNL A   1      39.236  26.777  28.032  1.00  0.00     0.029 A 
ATOM     42  N   UNL A   1      41.197  27.050  29.074  1.00  0.00    -0.354 N 
ATOM     43  C   UNL A   1      42.153  30.576  31.261  1.00  0.00     0.074 A 
ATOM     44  C   UNL A   1      41.090  31.558  31.175  1.00  0.00     0.031 C 
ATOM     45  C   UNL A   1      39.961  25.665  27.830  1.00  0.00     0.029 A 
ATOM     46  C   UNL A   1      41.258  25.809  28.486  1.00  0.00     0.049 A 
ATOM     47  H   UNL A   1      41.936  27.433  29.599  1.00  0.00     0.167 HD
ATOM     48  C   UNL A   1      43.316  30.768  31.933  1.00  0.00     0.031 A 
ATOM     49  C   UNL A   1      42.239  24.884  28.468  1.00  0.00     0.031 A 
ATOM     50  C   UNL A   1      44.382  29.805  32.042  1.00  0.00     0.049 A 
ATOM     51  C   UNL A   1      43.527  25.126  29.204  1.00  0.00     0.074 A 
ATOM     52  C   UNL A   1      45.565  29.907  32.760  1.00  0.00     0.029 A 
ATOM     53  N   UNL A   1      44.408  28.573  31.413  1.00  0.00    -0.354 N 
ATOM     54  N   UNL A   1      43.883  26.158  29.929  1.00  0.00    -0.248 NA
ATOM     55  C   UNL A   1      44.547  24.066  29.128  1.00  0.00     0.031 C 
ATOM     56  C   UNL A   1      46.327  28.759  32.523  1.00  0.00     0.029 A 
ATOM     57  C   UNL A   1      45.597  27.920  31.700  1.00  0.00     0.049 A 
ATOM     58  H   UNL A   1      43.688  28.213  30.846  1.00  0.00     0.167 HD
ATOM     59  C   UNL A   1      45.153  25.862  30.411  1.00  0.00     0.074 A 
ATOM     60  C   UNL A   1      45.501  24.549  29.911  1.00  0.00     0.031 C 
ATOM     61  C   UNL A   1      45.954  26.617  31.200  1.00  0.00     0.031 A 
BRANCH  48  62
ATOM     62  C   UNL A   1      43.514  32.098  32.609  1.00  0.00    -0.014 A 
ATOM     63  C   UNL A   1      44.090  33.182  31.930  1.00  0.00     0.009 A 
ATOM     64  C   UNL A   1      43.058  32.286  33.924  1.00  0.00     0.009 A 
ATOM     65  C   UNL A   1      44.239  34.416  32.566  1.00  0.00     0.001 A 
ATOM     66  C   UNL A   1      43.185  33.529  34.548  1.00  0.00     0.001 A 
ATOM     67  C   UNL A   1      43.784  34.590  33.872  1.00  0.00     0.000 A 
ENDBRANCH  48  62
BRANCH  49  68
ATOM     68  C   UNL A   1      42.041  23.615  27.718  1.00  0.00    -0.014 A 
ATOM     69  C   UNL A   1      41.447  22.505  28.336  1.00  0.00     0.009 A 
ATOM     70  C   UNL A   1      42.460  23.510  26.383  1.00  0.00     0.009 A 
ATOM     71  C   UNL A   1      41.294  21.305  27.636  1.00  0.00     0.001 A 
ATOM     72  C   UNL A   1      42.281  22.318  25.678  1.00  0.00     0.001 A 
ATOM     73  C   UNL A   1      41.706  21.216  26.307  1.00  0.00     0.000 A 
ENDBRANCH  49  68
BRANCH  61  74
ATOM     74  C   UNL A   1      47.285  26.038  31.596  1.00  0.00    -0.014 A 
ATOM     75  C   UNL A   1      48.402  26.135  30.751  1.00  0.00     0.009 A 
ATOM     76  C   UNL A   1      47.432  25.414  32.846  1.00  0.00     0.009 A 
ATOM     77  C   UNL A   1      49.630  25.594  31.138  1.00  0.00     0.001 A 
ATOM     78  C   UNL A   1      48.667  24.896  33.239  1.00  0.00     0.001 A 
ATOM     79  C   UNL A   1      49.763  24.978  32.382  1.00  0.00     0.000 A 
ENDBRANCH  61  74
ENDBRANCH  35  36
ENDBRANCH  27  30
ENDBRANCH  25  26
ENDBRANCH  24  25
ENDBRANCH  23  24
ENDBRANCH   3  23
TORSDOF 16
ENDMDL
MODEL 3
REMARK VINA RESULT:      -9.9      4.908      9.711
REMARK SMILES C[C@@](O)(CNC(=O)CC1([NH3+])CCC1)C(=O)NCCCNC(=O)c1ccc(-c2c3nc(c(-c4ccccc4)c4ccc([nH]4)c(-c4ccccc4)c4nc(c(-c5ccccc5)c5ccc2[nH]5)C=C4)C=C3)cc1
REMARK SMILES IDX 14 1 15 2 16 3 2 5 1 6 3 7 4 9 5 10 6 11 7 13 8 14 9 15
REMARK SMILES IDX 11 16 13 17 12 18 10 19 17 23 18 24 19 25 20 26 21 27 22 29
REMARK SMILES IDX 23 30 24 31 70 32 25 33 69 34 26 35 27 36 28 37 63 38 29 39
REMARK SMILES IDX 68 40 62 41 64 42 30 43 67 44 61 45 60 46 31 48 53 49 38 50
REMARK SMILES IDX 52 51 39 52 42 53 51 54 65 55 40 56 41 57 50 59 66 60 43 61
REMARK SMILES IDX 32 62 33 63 37 64 34 65 36 66 35 67 54 68 55 69 59 70 56 71
REMARK SMILES IDX 58 72 57 73 44 74 45 75 49 76 46 77 48 78 47 79
REMARK H PARENT 16 4 3 8 5 12 10 20 10 21 10 22 20 28 64 47 42 58
REMARK Flexibility Score: inf
ROOT
ATOM      1  C   UNL A   1      35.714  22.644  24.228  1.00  0.00     0.253 C 
ATOM      2  O   UNL A   1      35.774  23.400  23.251  1.00  0.00    -0.272 OA
ATOM      3  N   UNL A   1      36.410  21.476  24.106  1.00  0.00    -0.353 N 
ATOM      4  H   UNL A   1      36.821  21.367  23.217  1.00  0.00     0.163 HD
ENDROOT
BRANCH   1   5
ATOM      5  C   UNL A   1      34.887  23.037  25.489  1.00  0.00     0.157 C 
ATOM      6  C   UNL A   1      34.670  24.565  25.478  1.00  0.00     0.055 C 
BRANCH   5   7
ATOM      7  O   UNL A   1      35.619  22.756  26.691  1.00  0.00    -0.378 OA
ATOM      8  H   UNL A   1      35.713  23.570  27.209  1.00  0.00     0.212 HD
ENDBRANCH   5   7
BRANCH   5   9
ATOM      9  C   UNL A   1      33.522  22.283  25.570  1.00  0.00     0.160 C 
BRANCH   9  10
ATOM     10  N   UNL A   1      33.027  21.710  24.311  1.00  0.00    -0.352 N 
ATOM     11  C   UNL A   1      32.634  20.445  23.989  1.00  0.00     0.226 C 
ATOM     12  H   UNL A   1      32.969  22.354  23.569  1.00  0.00     0.163 HD
ATOM     13  O   UNL A   1      32.219  20.235  22.847  1.00  0.00    -0.275 OA
BRANCH  11  14
ATOM     14  C   UNL A   1      32.656  19.348  25.024  1.00  0.00     0.168 C 
BRANCH  14  15
ATOM     15  C   UNL A   1      33.047  17.959  24.541  1.00  0.00     0.103 C 
ATOM     16  C   UNL A   1      34.500  17.659  24.067  1.00  0.00     0.069 C 
ATOM     17  C   UNL A   1      33.215  16.798  25.552  1.00  0.00     0.069 C 
ATOM     18  C   UNL A   1      34.467  16.320  24.825  1.00  0.00     0.013 C 
BRANCH  15  19
ATOM     19  N   UNL A   1      32.164  17.504  23.446  1.00  0.00    -0.352 N 
ATOM     20  H   UNL A   1      31.258  17.234  23.830  1.00  0.00     0.344 HD
ATOM     21  H   UNL A   1      32.588  16.701  22.979  1.00  0.00     0.344 HD
ATOM     22  H   UNL A   1      32.038  18.260  22.774  1.00  0.00     0.344 HD
ENDBRANCH  15  19
ENDBRANCH  14  15
ENDBRANCH  11  14
ENDBRANCH   9  10
ENDBRANCH   5   9
ENDBRANCH   1   5
BRANCH   3  23
ATOM     23  C   UNL A   1      36.681  20.355  24.996  1.00  0.00     0.117 C 
BRANCH  23  24
ATOM     24  C   UNL A   1      38.091  19.749  24.877  1.00  0.00     0.042 C 
BRANCH  24  25
ATOM     25  C   UNL A   1      39.046  19.935  26.067  1.00  0.00     0.118 C 
BRANCH  25  26
ATOM     26  N   UNL A   1      40.329  19.273  25.872  1.00  0.00    -0.352 N 
ATOM     27  C   UNL A   1      41.630  19.704  25.942  1.00  0.00     0.251 C 
ATOM     28  H   UNL A   1      40.246  18.319  25.640  1.00  0.00     0.163 HD
ATOM     29  O   UNL A   1      42.503  18.918  25.557  1.00  0.00    -0.269 OA
BRANCH  27  30
ATOM     30  C   UNL A   1      42.070  21.043  26.437  1.00  0.00     0.039 A 
ATOM     31  C   UNL A   1      41.955  21.281  27.816  1.00  0.00     0.014 A 
ATOM     32  C   UNL A   1      42.432  22.113  25.613  1.00  0.00     0.014 A 
ATOM     33  C   UNL A   1      42.206  22.548  28.361  1.00  0.00     0.010 A 
ATOM     34  C   UNL A   1      42.726  23.378  26.166  1.00  0.00     0.010 A 
ATOM     35  C   UNL A   1      42.604  23.617  27.546  1.00  0.00    -0.014 A 
BRANCH  35  36
ATOM     36  C   UNL A   1      42.884  24.957  28.154  1.00  0.00     0.031 A 
ATOM     37  C   UNL A   1      44.280  25.374  28.549  1.00  0.00     0.074 A 
ATOM     38  C   UNL A   1      41.878  25.838  28.340  1.00  0.00     0.049 A 
ATOM     39  N   UNL A   1      44.695  26.523  29.034  1.00  0.00    -0.248 NA
ATOM     40  C   UNL A   1      45.346  24.376  28.387  1.00  0.00     0.031 C 
ATOM     41  C   UNL A   1      40.471  25.593  28.024  1.00  0.00     0.029 A 
ATOM     42  N   UNL A   1      41.889  27.124  28.832  1.00  0.00    -0.354 N 
ATOM     43  C   UNL A   1      46.062  26.382  29.245  1.00  0.00     0.074 A 
ATOM     44  C   UNL A   1      46.400  25.025  28.864  1.00  0.00     0.031 C 
ATOM     45  C   UNL A   1      39.759  26.696  28.308  1.00  0.00     0.029 A 
ATOM     46  C   UNL A   1      40.650  27.719  28.852  1.00  0.00     0.049 A 
ATOM     47  H   UNL A   1      42.707  27.575  29.142  1.00  0.00     0.167 HD
ATOM     48  C   UNL A   1      46.960  27.292  29.700  1.00  0.00     0.031 A 
ATOM     49  C   UNL A   1      40.261  28.943  29.259  1.00  0.00     0.031 A 
ATOM     50  C   UNL A   1      46.652  28.649  30.074  1.00  0.00     0.049 A 
ATOM     51  C   UNL A   1      41.271  29.929  29.778  1.00  0.00     0.074 A 
ATOM     52  C   UNL A   1      47.522  29.648  30.485  1.00  0.00     0.029 A 
ATOM     53  N   UNL A   1      45.382  29.198  30.098  1.00  0.00    -0.354 N 
ATOM     54  N   UNL A   1      42.569  29.796  29.898  1.00  0.00    -0.248 NA
ATOM     55  C   UNL A   1      40.760  31.242  30.206  1.00  0.00     0.031 C 
ATOM     56  C   UNL A   1      46.772  30.784  30.807  1.00  0.00     0.029 A 
ATOM     57  C   UNL A   1      45.441  30.509  30.546  1.00  0.00     0.049 A 
ATOM     58  H   UNL A   1      44.558  28.727  29.836  1.00  0.00     0.167 HD
ATOM     59  C   UNL A   1      43.029  31.011  30.393  1.00  0.00     0.074 A 
ATOM     60  C   UNL A   1      41.877  31.875  30.536  1.00  0.00     0.031 C 
ATOM     61  C   UNL A   1      44.299  31.372  30.698  1.00  0.00     0.031 A 
BRANCH  48  62
ATOM     62  C   UNL A   1      48.391  26.846  29.835  1.00  0.00    -0.014 A 
ATOM     63  C   UNL A   1      48.845  26.196  30.993  1.00  0.00     0.009 A 
ATOM     64  C   UNL A   1      49.280  27.022  28.762  1.00  0.00     0.009 A 
ATOM     65  C   UNL A   1      50.170  25.764  31.087  1.00  0.00     0.001 A 
ATOM     66  C   UNL A   1      50.597  26.566  28.850  1.00  0.00     0.001 A 
ATOM     67  C   UNL A   1      51.043  25.946  30.016  1.00  0.00     0.000 A 
ENDBRANCH  48  62
BRANCH  49  68
ATOM     68  C   UNL A   1      38.825  29.321  29.190  1.00  0.00    -0.014 A 
ATOM     69  C   UNL A   1      37.990  29.165  30.307  1.00  0.00     0.009 A 
ATOM     70  C   UNL A   1      38.283  29.827  28.000  1.00  0.00     0.009 A 
ATOM     71  C   UNL A   1      36.634  29.490  30.226  1.00  0.00     0.001 A 
ATOM     72  C   UNL A   1      36.932  30.177  27.930  1.00  0.00     0.001 A 
ATOM     73  C   UNL A   1      36.109  30.000  29.040  1.00  0.00     0.000 A 
ENDBRANCH  49  68
BRANCH  61  74
ATOM     74  C   UNL A   1      44.520  32.773  31.200  1.00  0.00    -0.014 A 
ATOM     75  C   UNL A   1      44.499  33.067  32.573  1.00  0.00     0.009 A 
ATOM     76  C   UNL A   1      44.786  33.808  30.289  1.00  0.00     0.009 A 
ATOM     77  C   UNL A   1      44.711  34.374  33.020  1.00  0.00     0.001 A 
ATOM     78  C   UNL A   1      45.022  35.108  30.741  1.00  0.00     0.001 A 
ATOM     79  C   UNL A   1      44.976  35.392  32.105  1.00  0.00     0.000 A 
ENDBRANCH  61  74
ENDBRANCH  35  36
ENDBRANCH  27  30
ENDBRANCH  25  26
ENDBRANCH  24  25
ENDBRANCH  23  24
ENDBRANCH   3  23
TORSDOF 16
ENDMDL
