MODEL 1
REMARK VINA RESULT:     -12.2      0.000      0.000
REMARK SMILES C[C@H](C(=O)NCCCNC(=O)c1ccc(-c2c3nc(c(-c4ccccc4)c4ccc([nH]4)c(-c4ccccc4)c4nc(c(-c5ccccc5)c5ccc2[nH]5)C=C4)C=C3)cc1)n1ccc2c(cnc3nc(C4CCCCC4)nn32)c1=O
REMARK SMILES IDX 7 1 6 2 5 3 3 4 4 5 2 7 1 8 60 9 61 10 78 11 62 12 64 13
REMARK SMILES IDX 79 14 63 15 65 16 77 17 66 18 67 19 76 20 68 21 69 22 70 23
REMARK SMILES IDX 71 24 75 25 72 26 74 27 73 28 8 29 9 30 10 31 11 33 12 34
REMARK SMILES IDX 13 35 59 36 14 37 58 38 15 39 16 40 17 41 52 42 18 43 57 44
REMARK SMILES IDX 51 45 53 46 19 47 56 48 50 49 49 50 20 52 42 53 27 54 41 55
REMARK SMILES IDX 28 56 31 57 40 58 54 59 29 60 30 61 39 63 55 64 32 65 21 66
REMARK SMILES IDX 22 67 26 68 23 69 25 70 24 71 43 72 44 73 48 74 45 75 47 76
REMARK SMILES IDX 46 77 33 78 34 79 38 80 35 81 37 82 36 83
REMARK H PARENT 5 6 9 32 53 51 31 62
REMARK Flexibility Score: inf
ROOT
ATOM      1  C   UNL A   1      38.185  19.193  25.057  1.00  0.00     0.042 C 
ENDROOT
BRANCH   1   2
ATOM      2  C   UNL A   1      36.813  19.897  24.945  1.00  0.00     0.117 C 
BRANCH   2   3
ATOM      3  N   UNL A   1      36.797  21.093  24.108  1.00  0.00    -0.354 N 
ATOM      4  C   UNL A   1      36.693  22.434  24.356  1.00  0.00     0.242 C 
ATOM      5  O   UNL A   1      36.990  23.139  23.381  1.00  0.00    -0.273 OA
ATOM      6  H   UNL A   1      36.880  20.888  23.149  1.00  0.00     0.163 HD
BRANCH   4   7
ATOM      7  C   UNL A   1      36.340  23.096  25.750  1.00  0.00     0.176 C 
ATOM      8  C   UNL A   1      37.568  23.929  26.174  1.00  0.00     0.042 C 
BRANCH   7   9
ATOM      9  N   UNL A   1      35.086  23.898  25.885  1.00  0.00    -0.303 N 
ATOM     10  C   UNL A   1      35.065  25.177  25.378  1.00  0.00     0.092 A 
ATOM     11  C   UNL A   1      33.911  23.316  26.414  1.00  0.00     0.262 A 
ATOM     12  C   UNL A   1      33.921  25.794  25.095  1.00  0.00     0.047 A 
ATOM     13  C   UNL A   1      32.657  24.117  26.268  1.00  0.00     0.084 A 
ATOM     14  O   UNL A   1      33.846  22.197  26.918  1.00  0.00    -0.269 OA
ATOM     15  C   UNL A   1      32.672  25.216  25.502  1.00  0.00     0.084 A 
ATOM     16  C   UNL A   1      31.317  23.782  26.834  1.00  0.00     0.131 A 
ATOM     17  N   UNL A   1      31.476  25.807  25.131  1.00  0.00    -0.196 N 
ATOM     18  N   UNL A   1      30.184  24.372  26.551  1.00  0.00    -0.219 NA
ATOM     19  C   UNL A   1      30.244  25.372  25.614  1.00  0.00     0.252 A 
ATOM     20  N   UNL A   1      31.307  26.794  24.240  1.00  0.00    -0.149 NA
ATOM     21  N   UNL A   1      29.294  26.070  25.015  1.00  0.00    -0.194 NA
ATOM     22  C   UNL A   1      29.981  26.888  24.149  1.00  0.00     0.156 A 
BRANCH  22  23
ATOM     23  C   UNL A   1      29.376  27.890  23.202  1.00  0.00     0.060 C 
ATOM     24  C   UNL A   1      27.888  28.145  23.557  1.00  0.00     0.012 C 
ATOM     25  C   UNL A   1      30.117  29.231  23.150  1.00  0.00     0.012 C 
ATOM     26  C   UNL A   1      27.207  29.116  22.605  1.00  0.00     0.001 C 
ATOM     27  C   UNL A   1      29.428  30.209  22.190  1.00  0.00     0.001 C 
ATOM     28  C   UNL A   1      27.960  30.433  22.544  1.00  0.00     0.000 C 
ENDBRANCH  22  23
ENDBRANCH   7   9
ENDBRANCH   4   7
ENDBRANCH   2   3
ENDBRANCH   1   2
BRANCH   1  29
ATOM     29  C   UNL A   1      39.271  19.898  25.877  1.00  0.00     0.118 C 
BRANCH  29  30
ATOM     30  N   UNL A   1      40.535  19.178  25.837  1.00  0.00    -0.352 N 
ATOM     31  C   UNL A   1      41.840  19.594  25.947  1.00  0.00     0.251 C 
ATOM     32  H   UNL A   1      40.436  18.208  25.706  1.00  0.00     0.163 HD
ATOM     33  O   UNL A   1      42.723  18.807  25.603  1.00  0.00    -0.269 OA
BRANCH  31  34
ATOM     34  C   UNL A   1      42.244  20.934  26.453  1.00  0.00     0.039 A 
ATOM     35  C   UNL A   1      42.213  21.146  27.841  1.00  0.00     0.014 A 
ATOM     36  C   UNL A   1      42.486  22.025  25.614  1.00  0.00     0.014 A 
ATOM     37  C   UNL A   1      42.444  22.420  28.379  1.00  0.00     0.010 A 
ATOM     38  C   UNL A   1      42.757  23.294  26.155  1.00  0.00     0.010 A 
ATOM     39  C   UNL A   1      42.728  23.510  27.543  1.00  0.00    -0.014 A 
BRANCH  39  40
ATOM     40  C   UNL A   1      42.996  24.862  28.119  1.00  0.00     0.031 A 
ATOM     41  C   UNL A   1      44.394  25.315  28.438  1.00  0.00     0.074 A 
ATOM     42  C   UNL A   1      41.970  25.692  28.389  1.00  0.00     0.049 A 
ATOM     43  N   UNL A   1      44.789  26.447  28.967  1.00  0.00    -0.248 NA
ATOM     44  C   UNL A   1      45.481  24.364  28.170  1.00  0.00     0.031 C 
ATOM     45  C   UNL A   1      40.565  25.354  28.201  1.00  0.00     0.029 A 
ATOM     46  N   UNL A   1      41.939  26.983  28.860  1.00  0.00    -0.354 N 
ATOM     47  C   UNL A   1      46.157  26.319  29.161  1.00  0.00     0.074 A 
ATOM     48  C   UNL A   1      46.527  25.005  28.675  1.00  0.00     0.031 C 
ATOM     49  C   UNL A   1      39.812  26.432  28.468  1.00  0.00     0.029 A 
ATOM     50  C   UNL A   1      40.675  27.526  28.890  1.00  0.00     0.049 A 
ATOM     51  H   UNL A   1      42.743  27.471  29.148  1.00  0.00     0.167 HD
ATOM     52  C   UNL A   1      47.021  27.204  29.714  1.00  0.00     0.031 A 
ATOM     53  C   UNL A   1      40.253  28.765  29.215  1.00  0.00     0.031 A 
ATOM     54  C   UNL A   1      46.667  28.525  30.165  1.00  0.00     0.049 A 
ATOM     55  C   UNL A   1      41.250  29.767  29.722  1.00  0.00     0.074 A 
ATOM     56  C   UNL A   1      47.494  29.506  30.689  1.00  0.00     0.029 A 
ATOM     57  N   UNL A   1      45.387  29.053  30.145  1.00  0.00    -0.354 N 
ATOM     58  N   UNL A   1      42.548  29.641  29.856  1.00  0.00    -0.248 NA
ATOM     59  C   UNL A   1      40.722  31.069  30.157  1.00  0.00     0.031 C 
ATOM     60  C   UNL A   1      46.706  30.612  31.024  1.00  0.00     0.029 A 
ATOM     61  C   UNL A   1      45.396  30.336  30.670  1.00  0.00     0.049 A 
ATOM     62  H   UNL A   1      44.588  28.587  29.807  1.00  0.00     0.167 HD
ATOM     63  C   UNL A   1      42.987  30.836  30.409  1.00  0.00     0.074 A 
ATOM     64  C   UNL A   1      41.828  31.695  30.536  1.00  0.00     0.031 C 
ATOM     65  C   UNL A   1      44.236  31.176  30.803  1.00  0.00     0.031 A 
BRANCH  52  66
ATOM     66  C   UNL A   1      48.440  26.751  29.916  1.00  0.00    -0.014 A 
ATOM     67  C   UNL A   1      49.440  27.015  28.970  1.00  0.00     0.009 A 
ATOM     68  C   UNL A   1      48.783  26.081  31.102  1.00  0.00     0.009 A 
ATOM     69  C   UNL A   1      50.751  26.587  29.193  1.00  0.00     0.001 A 
ATOM     70  C   UNL A   1      50.098  25.677  31.334  1.00  0.00     0.001 A 
ATOM     71  C   UNL A   1      51.079  25.921  30.374  1.00  0.00     0.000 A 
ENDBRANCH  52  66
BRANCH  53  72
ATOM     72  C   UNL A   1      38.820  29.139  29.062  1.00  0.00    -0.014 A 
ATOM     73  C   UNL A   1      38.351  29.631  27.832  1.00  0.00     0.009 A 
ATOM     74  C   UNL A   1      37.916  29.019  30.128  1.00  0.00     0.009 A 
ATOM     75  C   UNL A   1      37.015  30.011  27.681  1.00  0.00     0.001 A 
ATOM     76  C   UNL A   1      36.573  29.366  29.964  1.00  0.00     0.001 A 
ATOM     77  C   UNL A   1      36.125  29.870  28.744  1.00  0.00     0.000 A 
ENDBRANCH  53  72
BRANCH  65  78
ATOM     78  C   UNL A   1      44.410  32.529  31.432  1.00  0.00    -0.014 A 
ATOM     79  C   UNL A   1      44.379  32.677  32.828  1.00  0.00     0.009 A 
ATOM     80  C   UNL A   1      44.650  33.655  30.631  1.00  0.00     0.009 A 
ATOM     81  C   UNL A   1      44.562  33.934  33.409  1.00  0.00     0.001 A 
ATOM     82  C   UNL A   1      44.853  34.905  31.216  1.00  0.00     0.001 A 
ATOM     83  C   UNL A   1      44.804  35.045  32.602  1.00  0.00     0.000 A 
ENDBRANCH  65  78
ENDBRANCH  39  40
ENDBRANCH  31  34
ENDBRANCH  29  30
ENDBRANCH   1  29
TORSDOF 12
ENDMDL
MODEL 2
REMARK VINA RESULT:     -12.1      3.731      9.115
REMARK SMILES C[C@H](C(=O)NCCCNC(=O)c1ccc(-c2c3nc(c(-c4ccccc4)c4ccc([nH]4)c(-c4ccccc4)c4nc(c(-c5ccccc5)c5ccc2[nH]5)C=C4)C=C3)cc1)n1ccc2c(cnc3nc(C4CCCCC4)nn32)c1=O
REMARK SMILES IDX 7 1 6 2 5 3 3 4 4 5 2 7 1 8 60 9 61 10 78 11 62 12 64 13
REMARK SMILES IDX 79 14 63 15 65 16 77 17 66 18 67 19 76 20 68 21 69 22 70 23
REMARK SMILES IDX 71 24 75 25 72 26 74 27 73 28 8 29 9 30 10 31 11 33 12 34
REMARK SMILES IDX 13 35 59 36 14 37 58 38 15 39 16 40 17 41 52 42 18 43 57 44
REMARK SMILES IDX 51 45 53 46 19 47 56 48 50 49 49 50 20 52 42 53 27 54 41 55
REMARK SMILES IDX 28 56 31 57 40 58 54 59 29 60 30 61 39 63 55 64 32 65 21 66
REMARK SMILES IDX 22 67 26 68 23 69 25 70 24 71 43 72 44 73 48 74 45 75 47 76
REMARK SMILES IDX 46 77 33 78 34 79 38 80 35 81 37 82 36 83
REMARK H PARENT 5 6 9 32 53 51 31 62
REMARK Flexibility Score: inf
ROOT
ATOM      1  C   UNL A   1      31.292  32.465  26.518  1.00  0.00     0.042 C 
ENDROOT
BRANCH   1   2
ATOM      2  C   UNL A   1      31.221  31.092  25.809  1.00  0.00     0.117 C 
BRANCH   2   3
ATOM      3  N   UNL A   1      31.293  29.933  26.694  1.00  0.00    -0.354 N 
ATOM      4  C   UNL A   1      32.249  28.995  26.969  1.00  0.00     0.242 C 
ATOM      5  O   UNL A   1      32.007  28.329  27.985  1.00  0.00    -0.273 OA
ATOM      6  H   UNL A   1      30.465  29.796  27.209  1.00  0.00     0.163 HD
BRANCH   4   7
ATOM      7  C   UNL A   1      33.606  28.794  26.178  1.00  0.00     0.176 C 
ATOM      8  C   UNL A   1      34.750  28.979  27.198  1.00  0.00     0.042 C 
BRANCH   7   9
ATOM      9  N   UNL A   1      33.810  27.550  25.376  1.00  0.00    -0.303 N 
ATOM     10  C   UNL A   1      34.227  26.410  26.024  1.00  0.00     0.092 A 
ATOM     11  C   UNL A   1      33.468  27.512  24.004  1.00  0.00     0.262 A 
ATOM     12  C   UNL A   1      34.048  25.203  25.492  1.00  0.00     0.047 A 
ATOM     13  C   UNL A   1      33.468  26.161  23.364  1.00  0.00     0.084 A 
ATOM     14  O   UNL A   1      33.121  28.486  23.338  1.00  0.00    -0.269 OA
ATOM     15  C   UNL A   1      33.598  25.074  24.135  1.00  0.00     0.084 A 
ATOM     16  C   UNL A   1      33.255  25.863  21.915  1.00  0.00     0.131 A 
ATOM     17  N   UNL A   1      33.325  23.824  23.607  1.00  0.00    -0.196 N 
ATOM     18  N   UNL A   1      33.063  24.684  21.385  1.00  0.00    -0.219 NA
ATOM     19  C   UNL A   1      33.023  23.629  22.262  1.00  0.00     0.252 A 
ATOM     20  N   UNL A   1      33.237  22.666  24.278  1.00  0.00    -0.149 NA
ATOM     21  N   UNL A   1      32.726  22.352  22.084  1.00  0.00    -0.194 NA
ATOM     22  C   UNL A   1      32.818  21.813  23.345  1.00  0.00     0.156 A 
BRANCH  22  23
ATOM     23  C   UNL A   1      32.565  20.377  23.720  1.00  0.00     0.060 C 
ATOM     24  C   UNL A   1      32.438  19.497  22.450  1.00  0.00     0.012 C 
ATOM     25  C   UNL A   1      33.628  19.773  24.646  1.00  0.00     0.012 C 
ATOM     26  C   UNL A   1      32.134  18.040  22.762  1.00  0.00     0.001 C 
ATOM     27  C   UNL A   1      33.320  18.304  24.959  1.00  0.00     0.001 C 
ATOM     28  C   UNL A   1      33.180  17.457  23.696  1.00  0.00     0.000 C 
ENDBRANCH  22  23
ENDBRANCH   7   9
ENDBRANCH   4   7
ENDBRANCH   2   3
ENDBRANCH   1   2
BRANCH   1  29
ATOM     29  C   UNL A   1      32.638  32.870  27.130  1.00  0.00     0.118 C 
BRANCH  29  30
ATOM     30  N   UNL A   1      32.553  34.140  27.836  1.00  0.00    -0.352 N 
ATOM     31  C   UNL A   1      33.243  34.649  28.910  1.00  0.00     0.251 C 
ATOM     32  H   UNL A   1      31.871  34.750  27.476  1.00  0.00     0.163 HD
ATOM     33  O   UNL A   1      32.778  35.641  29.471  1.00  0.00    -0.269 OA
BRANCH  31  34
ATOM     34  C   UNL A   1      34.511  34.070  29.431  1.00  0.00     0.039 A 
ATOM     35  C   UNL A   1      35.695  34.348  28.727  1.00  0.00     0.014 A 
ATOM     36  C   UNL A   1      34.555  33.140  30.472  1.00  0.00     0.014 A 
ATOM     37  C   UNL A   1      36.902  33.726  29.075  1.00  0.00     0.010 A 
ATOM     38  C   UNL A   1      35.773  32.545  30.848  1.00  0.00     0.010 A 
ATOM     39  C   UNL A   1      36.959  32.822  30.147  1.00  0.00    -0.014 A 
BRANCH  39  40
ATOM     40  C   UNL A   1      38.250  32.177  30.531  1.00  0.00     0.031 A 
ATOM     41  C   UNL A   1      39.118  32.747  31.618  1.00  0.00     0.074 A 
ATOM     42  C   UNL A   1      38.670  31.076  29.879  1.00  0.00     0.049 A 
ATOM     43  N   UNL A   1      40.280  32.320  32.050  1.00  0.00    -0.248 NA
ATOM     44  C   UNL A   1      38.645  33.973  32.276  1.00  0.00     0.031 C 
ATOM     45  C   UNL A   1      37.969  30.463  28.757  1.00  0.00     0.029 A 
ATOM     46  N   UNL A   1      39.768  30.269  30.062  1.00  0.00    -0.354 N 
ATOM     47  C   UNL A   1      40.710  33.261  32.976  1.00  0.00     0.074 A 
ATOM     48  C   UNL A   1      39.675  34.271  33.057  1.00  0.00     0.031 C 
ATOM     49  C   UNL A   1      38.599  29.333  28.407  1.00  0.00     0.029 A 
ATOM     50  C   UNL A   1      39.777  29.161  29.246  1.00  0.00     0.049 A 
ATOM     51  H   UNL A   1      40.479  30.465  30.713  1.00  0.00     0.167 HD
ATOM     52  C   UNL A   1      41.870  33.291  33.675  1.00  0.00     0.031 A 
ATOM     53  C   UNL A   1      40.629  28.118  29.180  1.00  0.00     0.031 A 
ATOM     54  C   UNL A   1      42.886  32.271  33.626  1.00  0.00     0.049 A 
ATOM     55  C   UNL A   1      41.855  28.121  30.049  1.00  0.00     0.074 A 
ATOM     56  C   UNL A   1      44.068  32.199  34.346  1.00  0.00     0.029 A 
ATOM     57  N   UNL A   1      42.842  31.147  32.819  1.00  0.00    -0.354 N 
ATOM     58  N   UNL A   1      42.221  28.998  30.951  1.00  0.00    -0.248 NA
ATOM     59  C   UNL A   1      42.803  27.011  29.865  1.00  0.00     0.031 C 
ATOM     60  C   UNL A   1      44.759  31.052  33.942  1.00  0.00     0.029 A 
ATOM     61  C   UNL A   1      43.987  30.388  33.003  1.00  0.00     0.049 A 
ATOM     62  H   UNL A   1      42.106  30.919  32.206  1.00  0.00     0.167 HD
ATOM     63  C   UNL A   1      43.449  28.558  31.427  1.00  0.00     0.074 A 
ATOM     64  C   UNL A   1      43.741  27.309  30.754  1.00  0.00     0.031 C 
ATOM     65  C   UNL A   1      44.273  29.154  32.320  1.00  0.00     0.031 A 
BRANCH  52  66
ATOM     66  C   UNL A   1      42.134  34.503  34.523  1.00  0.00    -0.014 A 
ATOM     67  C   UNL A   1      42.731  35.657  33.995  1.00  0.00     0.009 A 
ATOM     68  C   UNL A   1      41.736  34.498  35.870  1.00  0.00     0.009 A 
ATOM     69  C   UNL A   1      42.954  36.770  34.810  1.00  0.00     0.001 A 
ATOM     70  C   UNL A   1      41.937  35.619  36.675  1.00  0.00     0.001 A 
ATOM     71  C   UNL A   1      42.556  36.751  36.146  1.00  0.00     0.000 A 
ENDBRANCH  52  66
BRANCH  53  72
ATOM     72  C   UNL A   1      40.355  26.973  28.268  1.00  0.00    -0.014 A 
ATOM     73  C   UNL A   1      39.577  25.892  28.715  1.00  0.00     0.009 A 
ATOM     74  C   UNL A   1      40.866  26.943  26.962  1.00  0.00     0.009 A 
ATOM     75  C   UNL A   1      39.332  24.799  27.879  1.00  0.00     0.001 A 
ATOM     76  C   UNL A   1      40.591  25.865  26.117  1.00  0.00     0.001 A 
ATOM     77  C   UNL A   1      39.832  24.790  26.578  1.00  0.00     0.000 A 
ENDBRANCH  53  72
BRANCH  65  78
ATOM     78  C   UNL A   1      45.582  28.474  32.603  1.00  0.00    -0.014 A 
ATOM     79  C   UNL A   1      45.682  27.509  33.617  1.00  0.00     0.009 A 
ATOM     80  C   UNL A   1      46.712  28.767  31.825  1.00  0.00     0.009 A 
ATOM     81  C   UNL A   1      46.895  26.865  33.862  1.00  0.00     0.001 A 
ATOM     82  C   UNL A   1      47.918  28.106  32.059  1.00  0.00     0.001 A 
ATOM     83  C   UNL A   1      48.011  27.160  33.080  1.00  0.00     0.000 A 
ENDBRANCH  65  78
ENDBRANCH  39  40
ENDBRANCH  31  34
ENDBRANCH  29  30
ENDBRANCH   1  29
TORSDOF 12
ENDMDL
MODEL 3
REMARK VINA RESULT:     -12.1      2.927      8.579
REMARK SMILES C[C@H](C(=O)NCCCNC(=O)c1ccc(-c2c3nc(c(-c4ccccc4)c4ccc([nH]4)c(-c4ccccc4)c4nc(c(-c5ccccc5)c5ccc2[nH]5)C=C4)C=C3)cc1)n1ccc2c(cnc3nc(C4CCCCC4)nn32)c1=O
REMARK SMILES IDX 7 1 6 2 5 3 3 4 4 5 2 7 1 8 60 9 61 10 78 11 62 12 64 13
REMARK SMILES IDX 79 14 63 15 65 16 77 17 66 18 67 19 76 20 68 21 69 22 70 23
REMARK SMILES IDX 71 24 75 25 72 26 74 27 73 28 8 29 9 30 10 31 11 33 12 34
REMARK SMILES IDX 13 35 59 36 14 37 58 38 15 39 16 40 17 41 52 42 18 43 57 44
REMARK SMILES IDX 51 45 53 46 19 47 56 48 50 49 49 50 20 52 42 53 27 54 41 55
REMARK SMILES IDX 28 56 31 57 40 58 54 59 29 60 30 61 39 63 55 64 32 65 21 66
REMARK SMILES IDX 22 67 26 68 23 69 25 70 24 71 43 72 44 73 48 74 45 75 47 76
REMARK SMILES IDX 46 77 33 78 34 79 38 80 35 81 37 82 36 83
REMARK H PARENT 5 6 9 32 53 51 31 62
REMARK Flexibility Score: inf
ROOT
ATOM      1  C   UNL A   1      33.094  29.427  27.106  1.00  0.00     0.042 C 
ENDROOT
BRANCH   1   2
ATOM      2  C   UNL A   1      32.469  30.192  25.916  1.00  0.00     0.117 C 
BRANCH   2   3
ATOM      3  N   UNL A   1      32.558  29.514  24.627  1.00  0.00    -0.354 N 
ATOM      4  C   UNL A   1      32.013  28.374  24.105  1.00  0.00     0.242 C 
ATOM      5  O   UNL A   1      32.132  28.291  22.874  1.00  0.00    -0.273 OA
ATOM      6  H   UNL A   1      33.143  29.984  23.989  1.00  0.00     0.163 HD
BRANCH   4   7
ATOM      7  C   UNL A   1      31.203  27.278  24.911  1.00  0.00     0.176 C 
ATOM      8  C   UNL A   1      29.927  26.976  24.098  1.00  0.00     0.042 C 
BRANCH   7   9
ATOM      9  N   UNL A   1      31.885  26.011  25.314  1.00  0.00    -0.303 N 
ATOM     10  C   UNL A   1      31.110  24.919  25.632  1.00  0.00     0.092 A 
ATOM     11  C   UNL A   1      33.294  25.899  25.255  1.00  0.00     0.262 A 
ATOM     12  C   UNL A   1      31.605  23.684  25.604  1.00  0.00     0.047 A 
ATOM     13  C   UNL A   1      33.852  24.524  25.430  1.00  0.00     0.084 A 
ATOM     14  O   UNL A   1      34.063  26.827  25.015  1.00  0.00    -0.269 OA
ATOM     15  C   UNL A   1      33.016  23.477  25.440  1.00  0.00     0.084 A 
ATOM     16  C   UNL A   1      35.297  24.155  25.521  1.00  0.00     0.131 A 
ATOM     17  N   UNL A   1      33.524  22.195  25.321  1.00  0.00    -0.196 N 
ATOM     18  N   UNL A   1      35.794  22.947  25.481  1.00  0.00    -0.219 NA
ATOM     19  C   UNL A   1      34.891  21.929  25.302  1.00  0.00     0.252 A 
ATOM     20  N   UNL A   1      32.826  21.065  25.141  1.00  0.00    -0.149 NA
ATOM     21  N   UNL A   1      35.059  20.635  25.090  1.00  0.00    -0.194 NA
ATOM     22  C   UNL A   1      33.779  20.155  24.946  1.00  0.00     0.156 A 
BRANCH  22  23
ATOM     23  C   UNL A   1      33.389  18.727  24.673  1.00  0.00     0.060 C 
ATOM     24  C   UNL A   1      34.618  17.908  24.198  1.00  0.00     0.012 C 
ATOM     25  C   UNL A   1      32.742  18.012  25.866  1.00  0.00     0.012 C 
ATOM     26  C   UNL A   1      34.279  16.465  23.859  1.00  0.00     0.001 C 
ATOM     27  C   UNL A   1      32.400  16.557  25.522  1.00  0.00     0.001 C 
ATOM     28  C   UNL A   1      33.619  15.773  25.039  1.00  0.00     0.000 C 
ENDBRANCH  22  23
ENDBRANCH   7   9
ENDBRANCH   4   7
ENDBRANCH   2   3
ENDBRANCH   1   2
BRANCH   1  29
ATOM     29  C   UNL A   1      34.599  29.606  27.342  1.00  0.00     0.118 C 
BRANCH  29  30
ATOM     30  N   UNL A   1      34.876  30.222  28.631  1.00  0.00    -0.352 N 
ATOM     31  C   UNL A   1      35.967  30.172  29.465  1.00  0.00     0.251 C 
ATOM     32  H   UNL A   1      34.141  30.781  28.971  1.00  0.00     0.163 HD
ATOM     33  O   UNL A   1      35.824  30.569  30.621  1.00  0.00    -0.269 OA
BRANCH  31  34
ATOM     34  C   UNL A   1      37.304  29.664  29.051  1.00  0.00     0.039 A 
ATOM     35  C   UNL A   1      38.135  29.123  30.047  1.00  0.00     0.014 A 
ATOM     36  C   UNL A   1      37.830  29.854  27.771  1.00  0.00     0.014 A 
ATOM     37  C   UNL A   1      39.456  28.754  29.759  1.00  0.00     0.010 A 
ATOM     38  C   UNL A   1      39.143  29.449  27.472  1.00  0.00     0.010 A 
ATOM     39  C   UNL A   1      39.976  28.905  28.464  1.00  0.00    -0.014 A 
BRANCH  39  40
ATOM     40  C   UNL A   1      41.377  28.491  28.153  1.00  0.00     0.031 A 
ATOM     41  C   UNL A   1      41.704  27.088  27.724  1.00  0.00     0.074 A 
ATOM     42  C   UNL A   1      42.383  29.379  28.283  1.00  0.00     0.049 A 
ATOM     43  N   UNL A   1      42.873  26.567  27.446  1.00  0.00    -0.248 NA
ATOM     44  C   UNL A   1      40.585  26.140  27.637  1.00  0.00     0.031 C 
ATOM     45  C   UNL A   1      42.220  30.746  28.762  1.00  0.00     0.029 A 
ATOM     46  N   UNL A   1      43.728  29.280  28.016  1.00  0.00    -0.354 N 
ATOM     47  C   UNL A   1      42.643  25.216  27.220  1.00  0.00     0.074 A 
ATOM     48  C   UNL A   1      41.219  25.004  27.376  1.00  0.00     0.031 C 
ATOM     49  C   UNL A   1      43.395  31.387  28.675  1.00  0.00     0.029 A 
ATOM     50  C   UNL A   1      44.408  30.465  28.177  1.00  0.00     0.049 A 
ATOM     51  H   UNL A   1      44.162  28.442  27.738  1.00  0.00     0.167 HD
ATOM     52  C   UNL A   1      43.538  24.240  26.933  1.00  0.00     0.031 A 
ATOM     53  C   UNL A   1      45.698  30.783  27.948  1.00  0.00     0.031 A 
ATOM     54  C   UNL A   1      44.950  24.451  26.741  1.00  0.00     0.049 A 
ATOM     55  C   UNL A   1      46.651  29.703  27.522  1.00  0.00     0.074 A 
ATOM     56  C   UNL A   1      45.919  23.524  26.394  1.00  0.00     0.029 A 
ATOM     57  N   UNL A   1      45.594  25.670  26.874  1.00  0.00    -0.354 N 
ATOM     58  N   UNL A   1      46.404  28.441  27.270  1.00  0.00    -0.248 NA
ATOM     59  C   UNL A   1      48.066  30.082  27.382  1.00  0.00     0.031 C 
ATOM     60  C   UNL A   1      47.157  24.174  26.359  1.00  0.00     0.029 A 
ATOM     61  C   UNL A   1      46.952  25.514  26.642  1.00  0.00     0.049 A 
ATOM     62  H   UNL A   1      45.154  26.521  27.100  1.00  0.00     0.167 HD
ATOM     63  C   UNL A   1      47.633  27.871  26.964  1.00  0.00     0.074 A 
ATOM     64  C   UNL A   1      48.615  28.934  27.009  1.00  0.00     0.031 C 
ATOM     65  C   UNL A   1      47.922  26.575  26.700  1.00  0.00     0.031 A 
BRANCH  52  66
ATOM     66  C   UNL A   1      43.024  22.830  26.862  1.00  0.00    -0.014 A 
ATOM     67  C   UNL A   1      43.131  22.064  25.692  1.00  0.00     0.009 A 
ATOM     68  C   UNL A   1      42.457  22.248  28.008  1.00  0.00     0.009 A 
ATOM     69  C   UNL A   1      42.650  20.753  25.663  1.00  0.00     0.001 A 
ATOM     70  C   UNL A   1      42.000  20.931  27.983  1.00  0.00     0.001 A 
ATOM     71  C   UNL A   1      42.088  20.187  26.808  1.00  0.00     0.000 A 
ENDBRANCH  52  66
BRANCH  53  72
ATOM     72  C   UNL A   1      46.170  32.187  28.103  1.00  0.00    -0.014 A 
ATOM     73  C   UNL A   1      46.640  32.635  29.349  1.00  0.00     0.009 A 
ATOM     74  C   UNL A   1      46.153  33.086  27.026  1.00  0.00     0.009 A 
ATOM     75  C   UNL A   1      47.064  33.956  29.516  1.00  0.00     0.001 A 
ATOM     76  C   UNL A   1      46.609  34.396  27.187  1.00  0.00     0.001 A 
ATOM     77  C   UNL A   1      47.055  34.833  28.434  1.00  0.00     0.000 A 
ENDBRANCH  53  72
BRANCH  65  78
ATOM     78  C   UNL A   1      49.364  26.231  26.463  1.00  0.00    -0.014 A 
ATOM     79  C   UNL A   1      50.160  25.726  27.503  1.00  0.00     0.009 A 
ATOM     80  C   UNL A   1      49.921  26.370  25.183  1.00  0.00     0.009 A 
ATOM     81  C   UNL A   1      51.494  25.388  27.272  1.00  0.00     0.001 A 
ATOM     82  C   UNL A   1      51.249  26.010  24.950  1.00  0.00     0.001 A 
ATOM     83  C   UNL A   1      52.035  25.526  25.994  1.00  0.00     0.000 A 
ENDBRANCH  65  78
ENDBRANCH  39  40
ENDBRANCH  31  34
ENDBRANCH  29  30
ENDBRANCH   1  29
TORSDOF 12
ENDMDL
