MODEL 1
REMARK VINA RESULT:     -11.9      0.000      0.000
REMARK SMILES O=C(COc1nc(NCc2ccc(F)cc2)nc2c1CCC2)NCCCNC(=O)c1ccc(-c2c3nc(c(-c4ccccc4)c4ccc([nH]4)c(-c4ccccc4)c4nc(c(-c5ccccc5)c5ccc2[nH]5)C=C4)C=C3)cc1
REMARK SMILES IDX 1 1 2 2 23 3 3 5 4 6 5 7 6 8 19 9 7 10 18 11 20 12 17 13
REMARK SMILES IDX 22 14 21 15 8 16 9 18 10 19 11 20 16 21 12 22 15 23 13 24
REMARK SMILES IDX 14 25 24 26 25 27 26 28 27 29 28 30 29 32 30 33 31 34 77 35
REMARK SMILES IDX 32 36 76 37 33 38 34 39 35 40 70 41 36 42 75 43 69 44 71 45
REMARK SMILES IDX 37 46 74 47 68 48 67 49 38 51 60 52 45 53 59 54 46 55 49 56
REMARK SMILES IDX 58 57 72 58 47 59 48 60 57 62 73 63 50 64 39 65 40 66 44 67
REMARK SMILES IDX 41 68 43 69 42 70 61 71 62 72 66 73 63 74 65 75 64 76 51 77
REMARK SMILES IDX 52 78 56 79 53 80 55 81 54 82
REMARK H PARENT 23 4 8 17 27 31 71 50 49 61
REMARK Flexibility Score: inf
ROOT
ATOM      1  O   UNL A   1      33.329  28.492  25.997  1.00  0.00    -0.271 OA
ATOM      2  C   UNL A   1      32.766  29.051  25.058  1.00  0.00     0.258 C 
ATOM      3  N   UNL A   1      31.951  30.151  25.216  1.00  0.00    -0.353 N 
ATOM      4  H   UNL A   1      31.658  30.648  24.418  1.00  0.00     0.163 HD
ENDROOT
BRANCH   2   5
ATOM      5  C   UNL A   1      32.988  28.614  23.601  1.00  0.00     0.331 C 
BRANCH   5   6
ATOM      6  O   UNL A   1      31.938  28.807  22.660  1.00  0.00    -0.467 OA
BRANCH   6   7
ATOM      7  C   UNL A   1      30.820  28.082  22.995  1.00  0.00     0.222 A 
ATOM      8  N   UNL A   1      30.991  26.837  23.468  1.00  0.00    -0.177 NA
ATOM      9  C   UNL A   1      29.600  28.681  22.940  1.00  0.00     0.036 A 
ATOM     10  C   UNL A   1      29.895  26.167  23.869  1.00  0.00     0.226 A 
ATOM     11  C   UNL A   1      28.542  27.910  23.354  1.00  0.00     0.053 A 
ATOM     12  C   UNL A   1      29.162  30.005  22.434  1.00  0.00     0.043 C 
ATOM     13  N   UNL A   1      28.649  26.662  23.823  1.00  0.00    -0.218 NA
ATOM     14  C   UNL A   1      27.241  28.629  23.148  1.00  0.00     0.057 C 
ATOM     15  C   UNL A   1      27.732  30.077  22.997  1.00  0.00     0.011 C 
BRANCH  10  16
ATOM     16  N   UNL A   1      30.123  24.909  24.341  1.00  0.00    -0.350 N 
ATOM     17  H   UNL A   1      29.396  24.249  24.276  1.00  0.00     0.164 HD
BRANCH  16  18
ATOM     18  C   UNL A   1      31.364  24.497  24.930  1.00  0.00     0.152 C 
BRANCH  18  19
ATOM     19  C   UNL A   1      31.686  23.087  24.489  1.00  0.00    -0.029 A 
ATOM     20  C   UNL A   1      31.863  22.062  25.433  1.00  0.00     0.008 A 
ATOM     21  C   UNL A   1      31.847  22.798  23.124  1.00  0.00     0.008 A 
ATOM     22  C   UNL A   1      32.174  20.767  25.014  1.00  0.00     0.039 A 
ATOM     23  C   UNL A   1      32.155  21.502  22.709  1.00  0.00     0.039 A 
ATOM     24  C   UNL A   1      32.313  20.499  23.657  1.00  0.00     0.123 A 
ATOM     25  F   UNL A   1      32.608  19.254  23.258  1.00  0.00    -0.207 F 
ENDBRANCH  18  19
ENDBRANCH  16  18
ENDBRANCH  10  16
ENDBRANCH   6   7
ENDBRANCH   5   6
ENDBRANCH   2   5
BRANCH   3  26
ATOM     26  C   UNL A   1      31.512  30.598  26.520  1.00  0.00     0.117 C 
BRANCH  26  27
ATOM     27  C   UNL A   1      31.403  32.114  26.641  1.00  0.00     0.042 C 
BRANCH  27  28
ATOM     28  C   UNL A   1      32.660  32.802  27.165  1.00  0.00     0.118 C 
BRANCH  28  29
ATOM     29  N   UNL A   1      32.423  34.166  27.620  1.00  0.00    -0.352 N 
ATOM     30  C   UNL A   1      33.028  34.905  28.604  1.00  0.00     0.251 C 
ATOM     31  H   UNL A   1      31.706  34.638  27.138  1.00  0.00     0.163 HD
ATOM     32  O   UNL A   1      32.564  36.005  28.903  1.00  0.00    -0.269 OA
BRANCH  30  33
ATOM     33  C   UNL A   1      34.215  34.399  29.328  1.00  0.00     0.039 A 
ATOM     34  C   UNL A   1      34.026  33.771  30.565  1.00  0.00     0.014 A 
ATOM     35  C   UNL A   1      35.510  34.580  28.835  1.00  0.00     0.014 A 
ATOM     36  C   UNL A   1      35.121  33.262  31.269  1.00  0.00     0.010 A 
ATOM     37  C   UNL A   1      36.597  34.025  29.511  1.00  0.00     0.010 A 
ATOM     38  C   UNL A   1      36.412  33.354  30.729  1.00  0.00    -0.014 A 
BRANCH  38  39
ATOM     39  C   UNL A   1      37.582  32.744  31.409  1.00  0.00     0.031 A 
ATOM     40  C   UNL A   1      38.268  31.547  30.815  1.00  0.00     0.074 A 
ATOM     41  C   UNL A   1      37.986  33.226  32.600  1.00  0.00     0.049 A 
ATOM     42  N   UNL A   1      39.218  30.803  31.324  1.00  0.00    -0.248 NA
ATOM     43  C   UNL A   1      37.820  31.123  29.480  1.00  0.00     0.031 C 
ATOM     44  C   UNL A   1      37.408  34.383  33.287  1.00  0.00     0.029 A 
ATOM     45  N   UNL A   1      38.973  32.794  33.449  1.00  0.00    -0.354 N 
ATOM     46  C   UNL A   1      39.472  29.816  30.380  1.00  0.00     0.074 A 
ATOM     47  C   UNL A   1      38.554  30.037  29.281  1.00  0.00     0.031 C 
ATOM     48  C   UNL A   1      38.063  34.578  34.442  1.00  0.00     0.029 A 
ATOM     49  C   UNL A   1      39.071  33.535  34.602  1.00  0.00     0.049 A 
ATOM     50  H   UNL A   1      39.556  32.025  33.251  1.00  0.00     0.167 HD
ATOM     51  C   UNL A   1      40.392  28.824  30.419  1.00  0.00     0.031 A 
ATOM     52  C   UNL A   1      39.869  33.384  35.675  1.00  0.00     0.031 A 
ATOM     53  C   UNL A   1      41.305  28.600  31.508  1.00  0.00     0.049 A 
ATOM     54  C   UNL A   1      40.850  32.246  35.713  1.00  0.00     0.074 A 
ATOM     55  C   UNL A   1      42.279  27.624  31.630  1.00  0.00     0.029 A 
ATOM     56  N   UNL A   1      41.360  29.366  32.662  1.00  0.00    -0.354 N 
ATOM     57  N   UNL A   1      41.076  31.321  34.814  1.00  0.00    -0.248 NA
ATOM     58  C   UNL A   1      41.685  32.136  36.918  1.00  0.00     0.031 C 
ATOM     59  C   UNL A   1      42.898  27.776  32.875  1.00  0.00     0.029 A 
ATOM     60  C   UNL A   1      42.344  28.877  33.506  1.00  0.00     0.049 A 
ATOM     61  H   UNL A   1      40.785  30.141  32.854  1.00  0.00     0.167 HD
ATOM     62  C   UNL A   1      42.096  30.533  35.330  1.00  0.00     0.074 A 
ATOM     63  C   UNL A   1      42.453  31.096  36.617  1.00  0.00     0.031 C 
ATOM     64  C   UNL A   1      42.686  29.443  34.785  1.00  0.00     0.031 A 
BRANCH  51  65
ATOM     65  C   UNL A   1      40.453  27.891  29.242  1.00  0.00    -0.014 A 
ATOM     66  C   UNL A   1      39.645  26.745  29.187  1.00  0.00     0.009 A 
ATOM     67  C   UNL A   1      41.290  28.188  28.156  1.00  0.00     0.009 A 
ATOM     68  C   UNL A   1      39.694  25.900  28.076  1.00  0.00     0.001 A 
ATOM     69  C   UNL A   1      41.318  27.355  27.036  1.00  0.00     0.001 A 
ATOM     70  C   UNL A   1      40.525  26.209  26.999  1.00  0.00     0.000 A 
ENDBRANCH  51  65
BRANCH  52  71
ATOM     71  C   UNL A   1      39.783  34.348  36.800  1.00  0.00    -0.014 A 
ATOM     72  C   UNL A   1      40.491  35.558  36.750  1.00  0.00     0.009 A 
ATOM     73  C   UNL A   1      38.986  34.071  37.923  1.00  0.00     0.009 A 
ATOM     74  C   UNL A   1      40.415  36.466  37.808  1.00  0.00     0.001 A 
ATOM     75  C   UNL A   1      38.892  34.993  38.967  1.00  0.00     0.001 A 
ATOM     76  C   UNL A   1      39.611  36.186  38.912  1.00  0.00     0.000 A 
ENDBRANCH  52  71
BRANCH  64  77
ATOM     77  C   UNL A   1      43.803  28.805  35.561  1.00  0.00    -0.014 A 
ATOM     78  C   UNL A   1      43.571  27.706  36.402  1.00  0.00     0.009 A 
ATOM     79  C   UNL A   1      45.114  29.286  35.412  1.00  0.00     0.009 A 
ATOM     80  C   UNL A   1      44.627  27.122  37.106  1.00  0.00     0.001 A 
ATOM     81  C   UNL A   1      46.170  28.684  36.097  1.00  0.00     0.001 A 
ATOM     82  C   UNL A   1      45.925  27.608  36.948  1.00  0.00     0.000 A 
ENDBRANCH  64  77
ENDBRANCH  38  39
ENDBRANCH  30  33
ENDBRANCH  28  29
ENDBRANCH  27  28
ENDBRANCH  26  27
ENDBRANCH   3  26
TORSDOF 15
ENDMDL
MODEL 2
REMARK VINA RESULT:     -11.8      3.535      7.967
REMARK SMILES O=C(COc1nc(NCc2ccc(F)cc2)nc2c1CCC2)NCCCNC(=O)c1ccc(-c2c3nc(c(-c4ccccc4)c4ccc([nH]4)c(-c4ccccc4)c4nc(c(-c5ccccc5)c5ccc2[nH]5)C=C4)C=C3)cc1
REMARK SMILES IDX 1 1 2 2 23 3 3 5 4 6 5 7 6 8 19 9 7 10 18 11 20 12 17 13
REMARK SMILES IDX 22 14 21 15 8 16 9 18 10 19 11 20 16 21 12 22 15 23 13 24
REMARK SMILES IDX 14 25 24 26 25 27 26 28 27 29 28 30 29 32 30 33 31 34 77 35
REMARK SMILES IDX 32 36 76 37 33 38 34 39 35 40 70 41 36 42 75 43 69 44 71 45
REMARK SMILES IDX 37 46 74 47 68 48 67 49 38 51 60 52 45 53 59 54 46 55 49 56
REMARK SMILES IDX 58 57 72 58 47 59 48 60 57 62 73 63 50 64 39 65 40 66 44 67
REMARK SMILES IDX 41 68 43 69 42 70 61 71 62 72 66 73 63 74 65 75 64 76 51 77
REMARK SMILES IDX 52 78 56 79 53 80 55 81 54 82
REMARK H PARENT 23 4 8 17 27 31 71 50 49 61
REMARK Flexibility Score: inf
ROOT
ATOM      1  O   UNL A   1      32.421  22.947  27.784  1.00  0.00    -0.271 OA
ATOM      2  C   UNL A   1      32.509  23.497  26.688  1.00  0.00     0.258 C 
ATOM      3  N   UNL A   1      33.640  23.432  25.902  1.00  0.00    -0.353 N 
ATOM      4  H   UNL A   1      33.595  23.756  24.973  1.00  0.00     0.163 HD
ENDROOT
BRANCH   2   5
ATOM      5  C   UNL A   1      31.325  24.247  26.058  1.00  0.00     0.331 C 
BRANCH   5   6
ATOM      6  O   UNL A   1      30.975  25.529  26.569  1.00  0.00    -0.467 OA
BRANCH   6   7
ATOM      7  C   UNL A   1      31.110  26.507  25.613  1.00  0.00     0.222 A 
ATOM      8  N   UNL A   1      30.119  26.659  24.719  1.00  0.00    -0.177 NA
ATOM      9  C   UNL A   1      32.177  27.348  25.670  1.00  0.00     0.036 A 
ATOM     10  C   UNL A   1      30.224  27.670  23.839  1.00  0.00     0.226 A 
ATOM     11  C   UNL A   1      32.203  28.338  24.719  1.00  0.00     0.053 A 
ATOM     12  C   UNL A   1      33.389  27.363  26.524  1.00  0.00     0.043 C 
ATOM     13  N   UNL A   1      31.253  28.531  23.798  1.00  0.00    -0.218 NA
ATOM     14  C   UNL A   1      33.472  29.134  24.808  1.00  0.00     0.057 C 
ATOM     15  C   UNL A   1      33.947  28.764  26.221  1.00  0.00     0.011 C 
BRANCH  10  16
ATOM     16  N   UNL A   1      29.193  27.781  22.954  1.00  0.00    -0.350 N 
ATOM     17  H   UNL A   1      29.308  27.397  22.056  1.00  0.00     0.164 HD
BRANCH  16  18
ATOM     18  C   UNL A   1      27.951  28.428  23.263  1.00  0.00     0.152 C 
BRANCH  18  19
ATOM     19  C   UNL A   1      27.960  29.829  22.696  1.00  0.00    -0.029 A 
ATOM     20  C   UNL A   1      27.889  30.947  23.542  1.00  0.00     0.008 A 
ATOM     21  C   UNL A   1      28.001  30.023  21.305  1.00  0.00     0.008 A 
ATOM     22  C   UNL A   1      27.884  32.236  23.005  1.00  0.00     0.039 A 
ATOM     23  C   UNL A   1      27.998  31.312  20.772  1.00  0.00     0.039 A 
ATOM     24  C   UNL A   1      27.942  32.406  21.627  1.00  0.00     0.123 A 
ATOM     25  F   UNL A   1      27.939  33.644  21.114  1.00  0.00    -0.207 F 
ENDBRANCH  18  19
ENDBRANCH  16  18
ENDBRANCH  10  16
ENDBRANCH   6   7
ENDBRANCH   5   6
ENDBRANCH   2   5
BRANCH   3  26
ATOM     26  C   UNL A   1      34.890  22.903  26.402  1.00  0.00     0.117 C 
BRANCH  26  27
ATOM     27  C   UNL A   1      36.054  23.882  26.292  1.00  0.00     0.042 C 
BRANCH  27  28
ATOM     28  C   UNL A   1      37.009  23.607  25.134  1.00  0.00     0.118 C 
BRANCH  28  29
ATOM     29  N   UNL A   1      38.112  22.724  25.494  1.00  0.00    -0.352 N 
ATOM     30  C   UNL A   1      39.285  22.975  26.159  1.00  0.00     0.251 C 
ATOM     31  H   UNL A   1      37.995  21.789  25.211  1.00  0.00     0.163 HD
ATOM     32  O   UNL A   1      40.137  22.090  26.231  1.00  0.00    -0.269 OA
BRANCH  30  33
ATOM     33  C   UNL A   1      39.556  24.293  26.775  1.00  0.00     0.039 A 
ATOM     34  C   UNL A   1      39.064  24.541  28.062  1.00  0.00     0.014 A 
ATOM     35  C   UNL A   1      40.237  25.300  26.088  1.00  0.00     0.014 A 
ATOM     36  C   UNL A   1      39.317  25.766  28.686  1.00  0.00     0.010 A 
ATOM     37  C   UNL A   1      40.536  26.502  26.730  1.00  0.00     0.010 A 
ATOM     38  C   UNL A   1      40.087  26.743  28.037  1.00  0.00    -0.014 A 
BRANCH  38  39
ATOM     39  C   UNL A   1      40.448  28.017  28.708  1.00  0.00     0.031 A 
ATOM     40  C   UNL A   1      41.799  28.185  29.342  1.00  0.00     0.074 A 
ATOM     41  C   UNL A   1      39.533  29.001  28.808  1.00  0.00     0.049 A 
ATOM     42  N   UNL A   1      42.248  29.171  30.079  1.00  0.00    -0.248 NA
ATOM     43  C   UNL A   1      42.770  27.100  29.130  1.00  0.00     0.031 C 
ATOM     44  C   UNL A   1      38.186  28.966  28.236  1.00  0.00     0.029 A 
ATOM     45  N   UNL A   1      39.597  30.219  29.436  1.00  0.00    -0.354 N 
ATOM     46  C   UNL A   1      43.545  28.818  30.431  1.00  0.00     0.074 A 
ATOM     47  C   UNL A   1      43.801  27.516  29.853  1.00  0.00     0.031 C 
ATOM     48  C   UNL A   1      37.558  30.117  28.525  1.00  0.00     0.029 A 
ATOM     49  C   UNL A   1      38.438  30.948  29.342  1.00  0.00     0.049 A 
ATOM     50  H   UNL A   1      40.399  30.539  29.910  1.00  0.00     0.167 HD
ATOM     51  C   UNL A   1      44.445  29.521  31.159  1.00  0.00     0.031 A 
ATOM     52  C   UNL A   1      38.109  32.143  29.867  1.00  0.00     0.031 A 
ATOM     53  C   UNL A   1      44.195  30.815  31.736  1.00  0.00     0.049 A 
ATOM     54  C   UNL A   1      39.110  32.880  30.710  1.00  0.00     0.074 A 
ATOM     55  C   UNL A   1      45.053  31.606  32.482  1.00  0.00     0.029 A 
ATOM     56  N   UNL A   1      43.002  31.511  31.629  1.00  0.00    -0.354 N 
ATOM     57  N   UNL A   1      40.331  32.534  31.034  1.00  0.00    -0.248 NA
ATOM     58  C   UNL A   1      38.684  34.176  31.258  1.00  0.00     0.031 C 
ATOM     59  C   UNL A   1      44.365  32.764  32.859  1.00  0.00     0.029 A 
ATOM     60  C   UNL A   1      43.097  32.716  32.304  1.00  0.00     0.049 A 
ATOM     61  H   UNL A   1      42.205  31.194  31.145  1.00  0.00     0.167 HD
ATOM     62  C   UNL A   1      40.829  33.577  31.803  1.00  0.00     0.074 A 
ATOM     63  C   UNL A   1      39.782  34.576  31.887  1.00  0.00     0.031 C 
ATOM     64  C   UNL A   1      42.047  33.698  32.383  1.00  0.00     0.031 A 
BRANCH  51  65
ATOM     65  C   UNL A   1      45.794  28.896  31.381  1.00  0.00    -0.014 A 
ATOM     66  C   UNL A   1      46.845  29.106  30.474  1.00  0.00     0.009 A 
ATOM     67  C   UNL A   1      46.030  28.130  32.532  1.00  0.00     0.009 A 
ATOM     68  C   UNL A   1      48.100  28.540  30.706  1.00  0.00     0.001 A 
ATOM     69  C   UNL A   1      47.293  27.586  32.773  1.00  0.00     0.001 A 
ATOM     70  C   UNL A   1      48.325  27.786  31.858  1.00  0.00     0.000 A 
ENDBRANCH  51  65
BRANCH  52  71
ATOM     71  C   UNL A   1      36.771  32.726  29.597  1.00  0.00    -0.014 A 
ATOM     72  C   UNL A   1      36.541  33.454  28.420  1.00  0.00     0.009 A 
ATOM     73  C   UNL A   1      35.714  32.548  30.505  1.00  0.00     0.009 A 
ATOM     74  C   UNL A   1      35.284  34.006  28.163  1.00  0.00     0.001 A 
ATOM     75  C   UNL A   1      34.453  33.079  30.233  1.00  0.00     0.001 A 
ATOM     76  C   UNL A   1      34.240  33.813  29.067  1.00  0.00     0.000 A 
ENDBRANCH  52  71
BRANCH  64  77
ATOM     77  C   UNL A   1      42.328  34.970  33.133  1.00  0.00    -0.014 A 
ATOM     78  C   UNL A   1      41.884  35.152  34.452  1.00  0.00     0.009 A 
ATOM     79  C   UNL A   1      43.085  35.982  32.522  1.00  0.00     0.009 A 
ATOM     80  C   UNL A   1      42.166  36.337  35.133  1.00  0.00     0.001 A 
ATOM     81  C   UNL A   1      43.387  37.155  33.215  1.00  0.00     0.001 A 
ATOM     82  C   UNL A   1      42.921  37.335  34.516  1.00  0.00     0.000 A 
ENDBRANCH  64  77
ENDBRANCH  38  39
ENDBRANCH  30  33
ENDBRANCH  28  29
ENDBRANCH  27  28
ENDBRANCH  26  27
ENDBRANCH   3  26
TORSDOF 15
ENDMDL
MODEL 3
REMARK VINA RESULT:     -11.7      2.052      6.149
REMARK SMILES O=C(COc1nc(NCc2ccc(F)cc2)nc2c1CCC2)NCCCNC(=O)c1ccc(-c2c3nc(c(-c4ccccc4)c4ccc([nH]4)c(-c4ccccc4)c4nc(c(-c5ccccc5)c5ccc2[nH]5)C=C4)C=C3)cc1
REMARK SMILES IDX 1 1 2 2 23 3 3 5 4 6 5 7 6 8 19 9 7 10 18 11 20 12 17 13
REMARK SMILES IDX 22 14 21 15 8 16 9 18 10 19 11 20 16 21 12 22 15 23 13 24
REMARK SMILES IDX 14 25 24 26 25 27 26 28 27 29 28 30 29 32 30 33 31 34 77 35
REMARK SMILES IDX 32 36 76 37 33 38 34 39 35 40 70 41 36 42 75 43 69 44 71 45
REMARK SMILES IDX 37 46 74 47 68 48 67 49 38 51 60 52 45 53 59 54 46 55 49 56
REMARK SMILES IDX 58 57 72 58 47 59 48 60 57 62 73 63 50 64 39 65 40 66 44 67
REMARK SMILES IDX 41 68 43 69 42 70 61 71 62 72 66 73 63 74 65 75 64 76 51 77
REMARK SMILES IDX 52 78 56 79 53 80 55 81 54 82
REMARK H PARENT 23 4 8 17 27 31 71 50 49 61
REMARK Flexibility Score: inf
ROOT
ATOM      1  O   UNL A   1      33.544  28.572  25.837  1.00  0.00    -0.271 OA
ATOM      2  C   UNL A   1      32.854  29.105  24.970  1.00  0.00     0.258 C 
ATOM      3  N   UNL A   1      31.995  30.151  25.230  1.00  0.00    -0.353 N 
ATOM      4  H   UNL A   1      31.591  30.636  24.474  1.00  0.00     0.163 HD
ENDROOT
BRANCH   2   5
ATOM      5  C   UNL A   1      32.950  28.697  23.491  1.00  0.00     0.331 C 
BRANCH   5   6
ATOM      6  O   UNL A   1      31.859  28.994  22.626  1.00  0.00    -0.467 OA
BRANCH   6   7
ATOM      7  C   UNL A   1      30.751  28.242  22.933  1.00  0.00     0.222 A 
ATOM      8  N   UNL A   1      30.940  26.984  23.364  1.00  0.00    -0.177 NA
ATOM      9  C   UNL A   1      29.523  28.824  22.894  1.00  0.00     0.036 A 
ATOM     10  C   UNL A   1      29.854  26.284  23.738  1.00  0.00     0.226 A 
ATOM     11  C   UNL A   1      28.476  28.023  23.278  1.00  0.00     0.053 A 
ATOM     12  C   UNL A   1      29.066  30.157  22.431  1.00  0.00     0.043 C 
ATOM     13  N   UNL A   1      28.600  26.762  23.704  1.00  0.00    -0.218 NA
ATOM     14  C   UNL A   1      27.164  28.729  23.092  1.00  0.00     0.057 C 
ATOM     15  C   UNL A   1      27.633  30.188  22.991  1.00  0.00     0.011 C 
BRANCH  10  16
ATOM     16  N   UNL A   1      30.100  25.014  24.168  1.00  0.00    -0.350 N 
ATOM     17  H   UNL A   1      29.670  24.714  25.001  1.00  0.00     0.164 HD
BRANCH  16  18
ATOM     18  C   UNL A   1      30.953  24.094  23.474  1.00  0.00     0.152 C 
BRANCH  18  19
ATOM     19  C   UNL A   1      32.338  24.140  24.078  1.00  0.00    -0.029 A 
ATOM     20  C   UNL A   1      32.514  24.181  25.470  1.00  0.00     0.008 A 
ATOM     21  C   UNL A   1      33.467  24.180  23.242  1.00  0.00     0.008 A 
ATOM     22  C   UNL A   1      33.798  24.237  26.015  1.00  0.00     0.039 A 
ATOM     23  C   UNL A   1      34.748  24.233  23.790  1.00  0.00     0.039 A 
ATOM     24  C   UNL A   1      34.902  24.259  25.171  1.00  0.00     0.123 A 
ATOM     25  F   UNL A   1      36.133  24.311  25.696  1.00  0.00    -0.207 F 
ENDBRANCH  18  19
ENDBRANCH  16  18
ENDBRANCH  10  16
ENDBRANCH   6   7
ENDBRANCH   5   6
ENDBRANCH   2   5
BRANCH   3  26
ATOM     26  C   UNL A   1      31.668  30.556  26.579  1.00  0.00     0.117 C 
BRANCH  26  27
ATOM     27  C   UNL A   1      31.452  32.058  26.730  1.00  0.00     0.042 C 
BRANCH  27  28
ATOM     28  C   UNL A   1      32.724  32.861  26.985  1.00  0.00     0.118 C 
BRANCH  28  29
ATOM     29  N   UNL A   1      32.495  34.072  27.761  1.00  0.00    -0.352 N 
ATOM     30  C   UNL A   1      33.191  34.613  28.812  1.00  0.00     0.251 C 
ATOM     31  H   UNL A   1      31.705  34.591  27.485  1.00  0.00     0.163 HD
ATOM     32  O   UNL A   1      32.726  35.587  29.404  1.00  0.00    -0.269 OA
BRANCH  30  33
ATOM     33  C   UNL A   1      34.478  34.040  29.261  1.00  0.00     0.039 A 
ATOM     34  C   UNL A   1      34.486  33.228  30.402  1.00  0.00     0.014 A 
ATOM     35  C   UNL A   1      35.680  34.329  28.610  1.00  0.00     0.014 A 
ATOM     36  C   UNL A   1      35.679  32.651  30.845  1.00  0.00     0.010 A 
ATOM     37  C   UNL A   1      36.861  33.711  29.020  1.00  0.00     0.010 A 
ATOM     38  C   UNL A   1      36.871  32.860  30.135  1.00  0.00    -0.014 A 
BRANCH  38  39
ATOM     39  C   UNL A   1      38.135  32.189  30.529  1.00  0.00     0.031 A 
ATOM     40  C   UNL A   1      39.079  32.849  31.492  1.00  0.00     0.074 A 
ATOM     41  C   UNL A   1      38.468  31.012  29.964  1.00  0.00     0.049 A 
ATOM     42  N   UNL A   1      40.281  32.479  31.855  1.00  0.00    -0.248 NA
ATOM     43  C   UNL A   1      38.616  34.095  32.123  1.00  0.00     0.031 C 
ATOM     44  C   UNL A   1      37.642  30.263  29.015  1.00  0.00     0.029 A 
ATOM     45  N   UNL A   1      39.597  30.244  30.101  1.00  0.00    -0.354 N 
ATOM     46  C   UNL A   1      40.724  33.451  32.743  1.00  0.00     0.074 A 
ATOM     47  C   UNL A   1      39.675  34.444  32.841  1.00  0.00     0.031 C 
ATOM     48  C   UNL A   1      38.285  29.136  28.670  1.00  0.00     0.029 A 
ATOM     49  C   UNL A   1      39.585  29.107  29.332  1.00  0.00     0.049 A 
ATOM     50  H   UNL A   1      40.345  30.487  30.694  1.00  0.00     0.167 HD
ATOM     51  C   UNL A   1      41.893  33.506  33.424  1.00  0.00     0.031 A 
ATOM     52  C   UNL A   1      40.521  28.153  29.164  1.00  0.00     0.031 A 
ATOM     53  C   UNL A   1      42.940  32.523  33.329  1.00  0.00     0.049 A 
ATOM     54  C   UNL A   1      41.828  28.263  29.895  1.00  0.00     0.074 A 
ATOM     55  C   UNL A   1      44.156  32.493  33.991  1.00  0.00     0.029 A 
ATOM     56  N   UNL A   1      42.893  31.394  32.527  1.00  0.00    -0.354 N 
ATOM     57  N   UNL A   1      42.232  29.189  30.729  1.00  0.00    -0.248 NA
ATOM     58  C   UNL A   1      42.808  27.192  29.659  1.00  0.00     0.031 C 
ATOM     59  C   UNL A   1      44.861  31.364  33.558  1.00  0.00     0.029 A 
ATOM     60  C   UNL A   1      44.062  30.666  32.668  1.00  0.00     0.049 A 
ATOM     61  H   UNL A   1      42.140  31.147  31.943  1.00  0.00     0.167 HD
ATOM     62  C   UNL A   1      43.501  28.802  31.138  1.00  0.00     0.074 A 
ATOM     63  C   UNL A   1      43.796  27.550  30.469  1.00  0.00     0.031 C 
ATOM     64  C   UNL A   1      44.345  29.426  31.994  1.00  0.00     0.031 A 
BRANCH  51  65
ATOM     65  C   UNL A   1      42.109  34.683  34.334  1.00  0.00    -0.014 A 
ATOM     66  C   UNL A   1      41.796  34.606  35.700  1.00  0.00     0.009 A 
ATOM     67  C   UNL A   1      42.676  35.863  33.830  1.00  0.00     0.009 A 
ATOM     68  C   UNL A   1      42.025  35.699  36.539  1.00  0.00     0.001 A 
ATOM     69  C   UNL A   1      42.926  36.945  34.677  1.00  0.00     0.001 A 
ATOM     70  C   UNL A   1      42.595  36.864  36.029  1.00  0.00     0.000 A 
ENDBRANCH  51  65
BRANCH  52  71
ATOM     71  C   UNL A   1      40.247  27.000  28.270  1.00  0.00    -0.014 A 
ATOM     72  C   UNL A   1      40.798  26.957  26.981  1.00  0.00     0.009 A 
ATOM     73  C   UNL A   1      39.445  25.931  28.704  1.00  0.00     0.009 A 
ATOM     74  C   UNL A   1      40.541  25.876  26.137  1.00  0.00     0.001 A 
ATOM     75  C   UNL A   1      39.211  24.839  27.866  1.00  0.00     0.001 A 
ATOM     76  C   UNL A   1      39.753  24.815  26.582  1.00  0.00     0.000 A 
ENDBRANCH  52  71
BRANCH  64  77
ATOM     77  C   UNL A   1      45.655  28.749  32.285  1.00  0.00    -0.014 A 
ATOM     78  C   UNL A   1      45.778  27.816  33.326  1.00  0.00     0.009 A 
ATOM     79  C   UNL A   1      46.770  29.021  31.477  1.00  0.00     0.009 A 
ATOM     80  C   UNL A   1      47.002  27.192  33.571  1.00  0.00     0.001 A 
ATOM     81  C   UNL A   1      47.985  28.376  31.708  1.00  0.00     0.001 A 
ATOM     82  C   UNL A   1      48.102  27.468  32.760  1.00  0.00     0.000 A 
ENDBRANCH  64  77
ENDBRANCH  38  39
ENDBRANCH  30  33
ENDBRANCH  28  29
ENDBRANCH  27  28
ENDBRANCH  26  27
ENDBRANCH   3  26
TORSDOF 15
ENDMDL
