MODEL 1
REMARK VINA RESULT:     -10.3      0.000      0.000
REMARK SMILES C=CC[N@H+](CC(=O)NCCCNC(=O)c1ccc(-c2c3nc(c(-c4ccccc4)c4ccc([nH]4)c(-c4ccccc4)c4nc(c(-c5ccccc5)c5ccc2[nH]5)C=C4)C=C3)cc1)[C@H](C)c1ccc(F)cc1O
REMARK SMILES IDX 9 1 8 2 6 3 7 4 5 6 4 7 3 9 2 10 1 11 63 12 64 13 65 14
REMARK SMILES IDX 66 15 71 16 67 17 70 18 68 19 69 20 72 21 10 23 11 24 12 25
REMARK SMILES IDX 13 26 14 28 15 29 16 30 62 31 17 32 61 33 18 34 19 35 20 36
REMARK SMILES IDX 55 37 21 38 60 39 54 40 56 41 22 42 59 43 53 44 52 45 23 47
REMARK SMILES IDX 45 48 30 49 44 50 31 51 34 52 43 53 57 54 32 55 33 56 42 58
REMARK SMILES IDX 58 59 35 60 24 61 25 62 29 63 26 64 28 65 27 66 46 67 47 68
REMARK SMILES IDX 51 69 48 70 50 71 49 72 36 73 37 74 41 75 38 76 40 77 39 78
REMARK H PARENT 8 5 4 8 72 22 12 27 56 46 34 57
REMARK Flexibility Score: inf
ROOT
ATOM      1  C   UNL A   1      31.390  27.430  26.334  1.00  0.00     0.118 C 
ENDROOT
BRANCH   1   2
ATOM      2  N   UNL A   1      31.027  26.084  26.765  1.00  0.00    -0.351 N 
ATOM      3  C   UNL A   1      31.656  24.873  26.613  1.00  0.00     0.275 C 
ATOM      4  O   UNL A   1      31.102  23.881  27.092  1.00  0.00    -0.269 OA
ATOM      5  H   UNL A   1      30.175  26.034  27.255  1.00  0.00     0.163 HD
BRANCH   3   6
ATOM      6  C   UNL A   1      32.998  24.755  25.867  1.00  0.00     0.364 C 
BRANCH   6   7
ATOM      7  N   UNL A   1      33.200  23.415  25.220  1.00  0.00    -0.318 N 
ATOM      8  H   UNL A   1      32.343  22.861  25.204  1.00  0.00     0.349 HD
BRANCH   7   9
ATOM      9  C   UNL A   1      33.565  23.636  23.816  1.00  0.00     0.291 C 
BRANCH   9  10
ATOM     10  C   UNL A   1      32.676  23.209  22.688  1.00  0.00     0.025 C 
ATOM     11  C   UNL A   1      32.372  21.937  22.396  1.00  0.00     0.010 C 
ENDBRANCH   9  10
ENDBRANCH   7   9
BRANCH   7  12
ATOM     12  C   UNL A   1      34.139  22.572  26.026  1.00  0.00     0.216 C 
ATOM     13  C   UNL A   1      35.557  23.157  26.174  1.00  0.00     0.081 C 
BRANCH  12  14
ATOM     14  C   UNL A   1      34.096  21.101  25.591  1.00  0.00     0.051 A 
ATOM     15  C   UNL A   1      35.246  20.414  25.150  1.00  0.00     0.017 A 
ATOM     16  C   UNL A   1      32.864  20.415  25.525  1.00  0.00     0.127 A 
ATOM     17  C   UNL A   1      35.148  19.133  24.600  1.00  0.00     0.040 A 
ATOM     18  C   UNL A   1      32.765  19.131  24.997  1.00  0.00     0.085 A 
ATOM     19  C   UNL A   1      33.909  18.512  24.516  1.00  0.00     0.126 A 
ATOM     20  F   UNL A   1      33.817  17.309  23.933  1.00  0.00    -0.207 F 
BRANCH  16  21
ATOM     21  O   UNL A   1      31.690  21.020  25.885  1.00  0.00    -0.507 OA
ATOM     22  H   UNL A   1      31.689  21.916  26.157  1.00  0.00     0.293 HD
ENDBRANCH  16  21
ENDBRANCH  12  14
ENDBRANCH   7  12
ENDBRANCH   6   7
ENDBRANCH   3   6
ENDBRANCH   1   2
BRANCH   1  23
ATOM     23  C   UNL A   1      31.893  28.331  27.470  1.00  0.00     0.042 C 
BRANCH  23  24
ATOM     24  C   UNL A   1      33.342  28.786  27.328  1.00  0.00     0.118 C 
BRANCH  24  25
ATOM     25  N   UNL A   1      33.490  30.181  27.703  1.00  0.00    -0.352 N 
ATOM     26  C   UNL A   1      34.522  30.832  28.334  1.00  0.00     0.251 C 
ATOM     27  H   UNL A   1      32.725  30.753  27.466  1.00  0.00     0.163 HD
ATOM     28  O   UNL A   1      34.306  31.943  28.813  1.00  0.00    -0.269 OA
BRANCH  26  29
ATOM     29  C   UNL A   1      35.881  30.243  28.451  1.00  0.00     0.039 A 
ATOM     30  C   UNL A   1      36.260  29.688  29.682  1.00  0.00     0.014 A 
ATOM     31  C   UNL A   1      36.827  30.324  27.426  1.00  0.00     0.014 A 
ATOM     32  C   UNL A   1      37.561  29.210  29.876  1.00  0.00     0.010 A 
ATOM     33  C   UNL A   1      38.101  29.775  27.592  1.00  0.00     0.010 A 
ATOM     34  C   UNL A   1      38.493  29.241  28.829  1.00  0.00    -0.014 A 
BRANCH  34  35
ATOM     35  C   UNL A   1      39.895  28.782  29.032  1.00  0.00     0.031 A 
ATOM     36  C   UNL A   1      40.907  29.696  29.678  1.00  0.00     0.074 A 
ATOM     37  C   UNL A   1      40.279  27.559  28.620  1.00  0.00     0.049 A 
ATOM     38  N   UNL A   1      42.179  29.490  29.913  1.00  0.00    -0.248 NA
ATOM     39  C   UNL A   1      40.428  31.023  30.098  1.00  0.00     0.031 C 
ATOM     40  C   UNL A   1      39.416  26.575  27.965  1.00  0.00     0.029 A 
ATOM     41  N   UNL A   1      41.499  26.934  28.697  1.00  0.00    -0.354 N 
ATOM     42  C   UNL A   1      42.655  30.666  30.482  1.00  0.00     0.074 A 
ATOM     43  C   UNL A   1      41.547  31.595  30.515  1.00  0.00     0.031 C 
ATOM     44  C   UNL A   1      40.123  25.456  27.736  1.00  0.00     0.029 A 
ATOM     45  C   UNL A   1      41.496  25.657  28.191  1.00  0.00     0.049 A 
ATOM     46  H   UNL A   1      42.300  27.361  29.078  1.00  0.00     0.167 HD
ATOM     47  C   UNL A   1      43.893  30.947  30.954  1.00  0.00     0.031 A 
ATOM     48  C   UNL A   1      42.484  24.747  28.106  1.00  0.00     0.031 A 
ATOM     49  C   UNL A   1      44.997  30.026  30.946  1.00  0.00     0.049 A 
ATOM     50  C   UNL A   1      43.855  25.085  28.620  1.00  0.00     0.074 A 
ATOM     51  C   UNL A   1      46.275  30.203  31.448  1.00  0.00     0.029 A 
ATOM     52  N   UNL A   1      44.952  28.748  30.410  1.00  0.00    -0.354 N 
ATOM     53  N   UNL A   1      44.275  26.185  29.193  1.00  0.00    -0.248 NA
ATOM     54  C   UNL A   1      44.885  24.045  28.480  1.00  0.00     0.031 C 
ATOM     55  C   UNL A   1      47.017  29.046  31.181  1.00  0.00     0.029 A 
ATOM     56  C   UNL A   1      46.185  28.132  30.553  1.00  0.00     0.049 A 
ATOM     57  H   UNL A   1      44.162  28.339  29.990  1.00  0.00     0.167 HD
ATOM     58  C   UNL A   1      45.608  25.963  29.508  1.00  0.00     0.074 A 
ATOM     59  C   UNL A   1      45.926  24.620  29.069  1.00  0.00     0.031 C 
ATOM     60  C   UNL A   1      46.490  26.797  30.110  1.00  0.00     0.031 A 
BRANCH  47  61
ATOM     61  C   UNL A   1      44.115  32.325  31.514  1.00  0.00    -0.014 A 
ATOM     62  C   UNL A   1      43.896  32.600  32.873  1.00  0.00     0.009 A 
ATOM     63  C   UNL A   1      44.551  33.360  30.673  1.00  0.00     0.009 A 
ATOM     64  C   UNL A   1      44.064  33.896  33.369  1.00  0.00     0.001 A 
ATOM     65  C   UNL A   1      44.744  34.648  31.176  1.00  0.00     0.001 A 
ATOM     66  C   UNL A   1      44.488  34.917  32.520  1.00  0.00     0.000 A 
ENDBRANCH  47  61
BRANCH  48  67
ATOM     67  C   UNL A   1      42.202  23.403  27.540  1.00  0.00    -0.014 A 
ATOM     68  C   UNL A   1      41.613  22.412  28.341  1.00  0.00     0.009 A 
ATOM     69  C   UNL A   1      42.511  23.105  26.205  1.00  0.00     0.009 A 
ATOM     70  C   UNL A   1      41.352  21.144  27.818  1.00  0.00     0.001 A 
ATOM     71  C   UNL A   1      42.228  21.843  25.678  1.00  0.00     0.001 A 
ATOM     72  C   UNL A   1      41.655  20.862  26.486  1.00  0.00     0.000 A 
ENDBRANCH  48  67
BRANCH  60  73
ATOM     73  C   UNL A   1      47.873  26.268  30.364  1.00  0.00    -0.014 A 
ATOM     74  C   UNL A   1      48.230  25.740  31.614  1.00  0.00     0.009 A 
ATOM     75  C   UNL A   1      48.818  26.267  29.327  1.00  0.00     0.009 A 
ATOM     76  C   UNL A   1      49.520  25.248  31.826  1.00  0.00     0.001 A 
ATOM     77  C   UNL A   1      50.098  25.754  29.535  1.00  0.00     0.001 A 
ATOM     78  C   UNL A   1      50.451  25.252  30.787  1.00  0.00     0.000 A 
ENDBRANCH  60  73
ENDBRANCH  34  35
ENDBRANCH  26  29
ENDBRANCH  24  25
ENDBRANCH  23  24
ENDBRANCH   1  23
TORSDOF 16
ENDMDL
MODEL 2
REMARK VINA RESULT:     -10.3      4.401      9.968
REMARK SMILES C=CC[N@H+](CC(=O)NCCCNC(=O)c1ccc(-c2c3nc(c(-c4ccccc4)c4ccc([nH]4)c(-c4ccccc4)c4nc(c(-c5ccccc5)c5ccc2[nH]5)C=C4)C=C3)cc1)[C@H](C)c1ccc(F)cc1O
REMARK SMILES IDX 9 1 8 2 6 3 7 4 5 6 4 7 3 9 2 10 1 11 63 12 64 13 65 14
REMARK SMILES IDX 66 15 71 16 67 17 70 18 68 19 69 20 72 21 10 23 11 24 12 25
REMARK SMILES IDX 13 26 14 28 15 29 16 30 62 31 17 32 61 33 18 34 19 35 20 36
REMARK SMILES IDX 55 37 21 38 60 39 54 40 56 41 22 42 59 43 53 44 52 45 23 47
REMARK SMILES IDX 45 48 30 49 44 50 31 51 34 52 43 53 57 54 32 55 33 56 42 58
REMARK SMILES IDX 58 59 35 60 24 61 25 62 29 63 26 64 28 65 27 66 46 67 47 68
REMARK SMILES IDX 51 69 48 70 50 71 49 72 36 73 37 74 41 75 38 76 40 77 39 78
REMARK H PARENT 8 5 4 8 72 22 12 27 56 46 34 57
REMARK Flexibility Score: inf
ROOT
ATOM      1  C   UNL A   1      42.875  20.766  26.283  1.00  0.00     0.118 C 
ENDROOT
BRANCH   1   2
ATOM      2  N   UNL A   1      43.374  21.221  24.989  1.00  0.00    -0.351 N 
ATOM      3  C   UNL A   1      44.358  22.116  24.650  1.00  0.00     0.275 C 
ATOM      4  O   UNL A   1      44.565  22.305  23.449  1.00  0.00    -0.269 OA
ATOM      5  H   UNL A   1      42.922  20.811  24.216  1.00  0.00     0.163 HD
BRANCH   3   6
ATOM      6  C   UNL A   1      45.169  22.862  25.727  1.00  0.00     0.364 C 
BRANCH   6   7
ATOM      7  N   UNL A   1      44.621  24.222  26.045  1.00  0.00    -0.318 N 
ATOM      8  H   UNL A   1      43.735  24.402  25.572  1.00  0.00     0.349 HD
BRANCH   7   9
ATOM      9  C   UNL A   1      44.329  24.273  27.482  1.00  0.00     0.291 C 
BRANCH   9  10
ATOM     10  C   UNL A   1      42.989  23.897  28.034  1.00  0.00     0.025 C 
ATOM     11  C   UNL A   1      42.797  23.177  29.149  1.00  0.00     0.010 C 
ENDBRANCH   9  10
ENDBRANCH   7   9
BRANCH   7  12
ATOM     12  C   UNL A   1      45.519  25.295  25.510  1.00  0.00     0.216 C 
ATOM     13  C   UNL A   1      47.022  25.039  25.732  1.00  0.00     0.081 C 
BRANCH  12  14
ATOM     14  C   UNL A   1      45.041  26.693  25.923  1.00  0.00     0.051 A 
ATOM     15  C   UNL A   1      45.767  27.500  26.823  1.00  0.00     0.017 A 
ATOM     16  C   UNL A   1      43.789  27.175  25.484  1.00  0.00     0.127 A 
ATOM     17  C   UNL A   1      45.227  28.692  27.312  1.00  0.00     0.040 A 
ATOM     18  C   UNL A   1      43.256  28.372  25.954  1.00  0.00     0.085 A 
ATOM     19  C   UNL A   1      43.973  29.108  26.885  1.00  0.00     0.126 A 
ATOM     20  F   UNL A   1      43.439  30.220  27.405  1.00  0.00    -0.207 F 
BRANCH  16  21
ATOM     21  O   UNL A   1      42.993  26.437  24.650  1.00  0.00    -0.507 OA
ATOM     22  H   UNL A   1      43.354  25.716  24.174  1.00  0.00     0.293 HD
ENDBRANCH  16  21
ENDBRANCH  12  14
ENDBRANCH   7  12
ENDBRANCH   6   7
ENDBRANCH   3   6
ENDBRANCH   1   2
BRANCH   1  23
ATOM     23  C   UNL A   1      41.382  20.410  26.281  1.00  0.00     0.042 C 
BRANCH  23  24
ATOM     24  C   UNL A   1      40.486  21.419  26.992  1.00  0.00     0.118 C 
BRANCH  24  25
ATOM     25  N   UNL A   1      39.454  21.918  26.101  1.00  0.00    -0.352 N 
ATOM     26  C   UNL A   1      38.792  23.122  26.084  1.00  0.00     0.251 C 
ATOM     27  H   UNL A   1      39.184  21.290  25.393  1.00  0.00     0.163 HD
ATOM     28  O   UNL A   1      37.756  23.211  25.430  1.00  0.00    -0.269 OA
BRANCH  26  29
ATOM     29  C   UNL A   1      39.288  24.312  26.825  1.00  0.00     0.039 A 
ATOM     30  C   UNL A   1      38.926  24.453  28.172  1.00  0.00     0.014 A 
ATOM     31  C   UNL A   1      39.997  25.342  26.202  1.00  0.00     0.014 A 
ATOM     32  C   UNL A   1      39.281  25.603  28.886  1.00  0.00     0.010 A 
ATOM     33  C   UNL A   1      40.422  26.453  26.936  1.00  0.00     0.010 A 
ATOM     34  C   UNL A   1      40.042  26.612  28.277  1.00  0.00    -0.014 A 
BRANCH  34  35
ATOM     35  C   UNL A   1      40.387  27.863  29.007  1.00  0.00     0.031 A 
ATOM     36  C   UNL A   1      41.749  28.025  29.634  1.00  0.00     0.074 A 
ATOM     37  C   UNL A   1      39.480  28.851  29.133  1.00  0.00     0.049 A 
ATOM     38  N   UNL A   1      42.226  29.025  30.334  1.00  0.00    -0.248 NA
ATOM     39  C   UNL A   1      42.692  26.907  29.469  1.00  0.00     0.031 C 
ATOM     40  C   UNL A   1      38.120  28.828  28.593  1.00  0.00     0.029 A 
ATOM     41  N   UNL A   1      39.572  30.072  29.755  1.00  0.00    -0.354 N 
ATOM     42  C   UNL A   1      43.509  28.645  30.711  1.00  0.00     0.074 A 
ATOM     43  C   UNL A   1      43.719  27.308  30.202  1.00  0.00     0.031 C 
ATOM     44  C   UNL A   1      37.518  29.995  28.874  1.00  0.00     0.029 A 
ATOM     45  C   UNL A   1      38.434  30.832  29.645  1.00  0.00     0.049 A 
ATOM     46  H   UNL A   1      40.378  30.373  30.235  1.00  0.00     0.167 HD
ATOM     47  C   UNL A   1      44.440  29.347  31.402  1.00  0.00     0.031 A 
ATOM     48  C   UNL A   1      38.158  32.066  30.106  1.00  0.00     0.031 A 
ATOM     49  C   UNL A   1      44.252  30.685  31.895  1.00  0.00     0.049 A 
ATOM     50  C   UNL A   1      39.199  32.822  30.884  1.00  0.00     0.074 A 
ATOM     51  C   UNL A   1      45.155  31.495  32.562  1.00  0.00     0.029 A 
ATOM     52  N   UNL A   1      43.078  31.411  31.773  1.00  0.00    -0.354 N 
ATOM     53  N   UNL A   1      40.420  32.464  31.194  1.00  0.00    -0.248 NA
ATOM     54  C   UNL A   1      38.819  34.157  31.367  1.00  0.00     0.031 C 
ATOM     55  C   UNL A   1      44.514  32.700  32.877  1.00  0.00     0.029 A 
ATOM     56  C   UNL A   1      43.227  32.654  32.367  1.00  0.00     0.049 A 
ATOM     57  H   UNL A   1      42.259  31.091  31.330  1.00  0.00     0.167 HD
ATOM     58  C   UNL A   1      40.965  33.538  31.884  1.00  0.00     0.074 A 
ATOM     59  C   UNL A   1      39.944  34.564  31.940  1.00  0.00     0.031 C 
ATOM     60  C   UNL A   1      42.204  33.664  32.419  1.00  0.00     0.031 A 
BRANCH  47  61
ATOM     61  C   UNL A   1      45.752  28.664  31.669  1.00  0.00    -0.014 A 
ATOM     62  C   UNL A   1      46.796  28.703  30.730  1.00  0.00     0.009 A 
ATOM     63  C   UNL A   1      45.949  27.974  32.875  1.00  0.00     0.009 A 
ATOM     64  C   UNL A   1      47.993  28.026  30.974  1.00  0.00     0.001 A 
ATOM     65  C   UNL A   1      47.157  27.321  33.128  1.00  0.00     0.001 A 
ATOM     66  C   UNL A   1      48.172  27.337  32.173  1.00  0.00     0.000 A 
ENDBRANCH  47  61
BRANCH  48  67
ATOM     67  C   UNL A   1      36.841  32.687  29.811  1.00  0.00    -0.014 A 
ATOM     68  C   UNL A   1      36.665  33.439  28.639  1.00  0.00     0.009 A 
ATOM     69  C   UNL A   1      35.758  32.527  30.687  1.00  0.00     0.009 A 
ATOM     70  C   UNL A   1      35.432  34.031  28.358  1.00  0.00     0.001 A 
ATOM     71  C   UNL A   1      34.519  33.102  30.392  1.00  0.00     0.001 A 
ATOM     72  C   UNL A   1      34.360  33.859  29.232  1.00  0.00     0.000 A 
ENDBRANCH  48  67
BRANCH  60  73
ATOM     73  C   UNL A   1      42.536  34.971  33.081  1.00  0.00    -0.014 A 
ATOM     74  C   UNL A   1      43.232  35.977  32.393  1.00  0.00     0.009 A 
ATOM     75  C   UNL A   1      42.115  35.211  34.398  1.00  0.00     0.009 A 
ATOM     76  C   UNL A   1      43.526  37.187  33.026  1.00  0.00     0.001 A 
ATOM     77  C   UNL A   1      42.389  36.429  35.018  1.00  0.00     0.001 A 
ATOM     78  C   UNL A   1      43.102  37.414  34.335  1.00  0.00     0.000 A 
ENDBRANCH  60  73
ENDBRANCH  34  35
ENDBRANCH  26  29
ENDBRANCH  24  25
ENDBRANCH  23  24
ENDBRANCH   1  23
TORSDOF 16
ENDMDL
MODEL 3
REMARK VINA RESULT:     -10.2      4.382      7.254
REMARK SMILES C=CC[N@H+](CC(=O)NCCCNC(=O)c1ccc(-c2c3nc(c(-c4ccccc4)c4ccc([nH]4)c(-c4ccccc4)c4nc(c(-c5ccccc5)c5ccc2[nH]5)C=C4)C=C3)cc1)[C@H](C)c1ccc(F)cc1O
REMARK SMILES IDX 9 1 8 2 6 3 7 4 5 6 4 7 3 9 2 10 1 11 63 12 64 13 65 14
REMARK SMILES IDX 66 15 71 16 67 17 70 18 68 19 69 20 72 21 10 23 11 24 12 25
REMARK SMILES IDX 13 26 14 28 15 29 16 30 62 31 17 32 61 33 18 34 19 35 20 36
REMARK SMILES IDX 55 37 21 38 60 39 54 40 56 41 22 42 59 43 53 44 52 45 23 47
REMARK SMILES IDX 45 48 30 49 44 50 31 51 34 52 43 53 57 54 32 55 33 56 42 58
REMARK SMILES IDX 58 59 35 60 24 61 25 62 29 63 26 64 28 65 27 66 46 67 47 68
REMARK SMILES IDX 51 69 48 70 50 71 49 72 36 73 37 74 41 75 38 76 40 77 39 78
REMARK H PARENT 8 5 4 8 72 22 12 27 56 46 34 57
REMARK Flexibility Score: inf
ROOT
ATOM      1  C   UNL A   1      34.365  33.994  30.398  1.00  0.00     0.118 C 
ENDROOT
BRANCH   1   2
ATOM      2  N   UNL A   1      34.728  34.921  31.466  1.00  0.00    -0.351 N 
ATOM      3  C   UNL A   1      35.221  34.714  32.730  1.00  0.00     0.275 C 
ATOM      4  O   UNL A   1      35.439  35.709  33.425  1.00  0.00    -0.269 OA
ATOM      5  H   UNL A   1      34.595  35.869  31.238  1.00  0.00     0.163 HD
BRANCH   3   6
ATOM      6  C   UNL A   1      35.488  33.294  33.264  1.00  0.00     0.364 C 
BRANCH   6   7
ATOM      7  N   UNL A   1      36.940  32.915  33.241  1.00  0.00    -0.318 N 
ATOM      8  H   UNL A   1      37.153  32.248  32.499  1.00  0.00     0.349 HD
BRANCH   7   9
ATOM      9  C   UNL A   1      37.722  34.120  32.939  1.00  0.00     0.291 C 
BRANCH   9  10
ATOM     10  C   UNL A   1      39.007  34.061  32.173  1.00  0.00     0.025 C 
ATOM     11  C   UNL A   1      40.185  34.518  32.621  1.00  0.00     0.010 C 
ENDBRANCH   9  10
ENDBRANCH   7   9
BRANCH   7  12
ATOM     12  C   UNL A   1      37.315  32.174  34.486  1.00  0.00     0.216 C 
ATOM     13  C   UNL A   1      37.688  33.075  35.679  1.00  0.00     0.081 C 
BRANCH  12  14
ATOM     14  C   UNL A   1      38.319  31.049  34.197  1.00  0.00     0.051 A 
ATOM     15  C   UNL A   1      39.670  31.128  34.593  1.00  0.00     0.017 A 
ATOM     16  C   UNL A   1      37.932  29.932  33.425  1.00  0.00     0.127 A 
ATOM     17  C   UNL A   1      40.597  30.172  34.169  1.00  0.00     0.040 A 
ATOM     18  C   UNL A   1      38.848  28.968  33.018  1.00  0.00     0.085 A 
ATOM     19  C   UNL A   1      40.180  29.111  33.375  1.00  0.00     0.126 A 
ATOM     20  F   UNL A   1      41.087  28.234  32.925  1.00  0.00    -0.207 F 
BRANCH  16  21
ATOM     21  O   UNL A   1      36.653  29.798  32.956  1.00  0.00    -0.507 OA
ATOM     22  H   UNL A   1      36.111  30.555  32.847  1.00  0.00     0.293 HD
ENDBRANCH  16  21
ENDBRANCH  12  14
ENDBRANCH   7  12
ENDBRANCH   6   7
ENDBRANCH   3   6
ENDBRANCH   1   2
BRANCH   1  23
ATOM     23  C   UNL A   1      35.538  33.606  29.488  1.00  0.00     0.042 C 
BRANCH  23  24
ATOM     24  C   UNL A   1      35.148  33.290  28.048  1.00  0.00     0.118 C 
BRANCH  24  25
ATOM     25  N   UNL A   1      34.231  32.166  27.991  1.00  0.00    -0.352 N 
ATOM     26  C   UNL A   1      34.474  30.820  27.860  1.00  0.00     0.251 C 
ATOM     27  H   UNL A   1      33.280  32.408  28.057  1.00  0.00     0.163 HD
ATOM     28  O   UNL A   1      33.542  30.086  27.537  1.00  0.00    -0.269 OA
BRANCH  26  29
ATOM     29  C   UNL A   1      35.816  30.227  28.098  1.00  0.00     0.039 A 
ATOM     30  C   UNL A   1      36.088  29.685  29.361  1.00  0.00     0.014 A 
ATOM     31  C   UNL A   1      36.844  30.294  27.153  1.00  0.00     0.014 A 
ATOM     32  C   UNL A   1      37.366  29.205  29.669  1.00  0.00     0.010 A 
ATOM     33  C   UNL A   1      38.097  29.742  27.432  1.00  0.00     0.010 A 
ATOM     34  C   UNL A   1      38.383  29.220  28.703  1.00  0.00    -0.014 A 
BRANCH  34  35
ATOM     35  C   UNL A   1      39.761  28.759  29.027  1.00  0.00     0.031 A 
ATOM     36  C   UNL A   1      40.700  29.655  29.797  1.00  0.00     0.074 A 
ATOM     37  C   UNL A   1      40.189  27.550  28.618  1.00  0.00     0.049 A 
ATOM     38  N   UNL A   1      41.944  29.445  30.148  1.00  0.00    -0.248 NA
ATOM     39  C   UNL A   1      40.175  30.968  30.208  1.00  0.00     0.031 C 
ATOM     40  C   UNL A   1      39.399  26.584  27.853  1.00  0.00     0.029 A 
ATOM     41  N   UNL A   1      41.400  26.926  28.795  1.00  0.00    -0.354 N 
ATOM     42  C   UNL A   1      42.356  30.604  30.796  1.00  0.00     0.074 A 
ATOM     43  C   UNL A   1      41.245  31.530  30.749  1.00  0.00     0.031 C 
ATOM     44  C   UNL A   1      40.131  25.475  27.660  1.00  0.00     0.029 A 
ATOM     45  C   UNL A   1      41.453  25.666  28.252  1.00  0.00     0.049 A 
ATOM     46  H   UNL A   1      42.158  27.343  29.265  1.00  0.00     0.167 HD
ATOM     47  C   UNL A   1      43.542  30.874  31.394  1.00  0.00     0.031 A 
ATOM     48  C   UNL A   1      42.450  24.761  28.236  1.00  0.00     0.031 A 
ATOM     49  C   UNL A   1      44.646  29.956  31.466  1.00  0.00     0.049 A 
ATOM     50  C   UNL A   1      43.762  25.086  28.892  1.00  0.00     0.074 A 
ATOM     51  C   UNL A   1      45.868  30.122  32.095  1.00  0.00     0.029 A 
ATOM     52  N   UNL A   1      44.660  28.696  30.890  1.00  0.00    -0.354 N 
ATOM     53  N   UNL A   1      44.118  26.170  29.536  1.00  0.00    -0.248 NA
ATOM     54  C   UNL A   1      44.807  24.054  28.821  1.00  0.00     0.031 C 
ATOM     55  C   UNL A   1      46.638  28.975  31.866  1.00  0.00     0.029 A 
ATOM     56  C   UNL A   1      45.877  28.079  31.133  1.00  0.00     0.049 A 
ATOM     57  H   UNL A   1      43.917  28.298  30.383  1.00  0.00     0.167 HD
ATOM     58  C   UNL A   1      45.416  25.941  29.972  1.00  0.00     0.074 A 
ATOM     59  C   UNL A   1      45.783  24.613  29.526  1.00  0.00     0.031 C 
ATOM     60  C   UNL A   1      46.230  26.759  30.682  1.00  0.00     0.031 A 
BRANCH  47  61
ATOM     61  C   UNL A   1      43.700  32.235  32.014  1.00  0.00    -0.014 A 
ATOM     62  C   UNL A   1      44.140  33.332  31.256  1.00  0.00     0.009 A 
ATOM     63  C   UNL A   1      43.402  32.424  33.373  1.00  0.00     0.009 A 
ATOM     64  C   UNL A   1      44.324  34.579  31.858  1.00  0.00     0.001 A 
ATOM     65  C   UNL A   1      43.560  33.678  33.965  1.00  0.00     0.001 A 
ATOM     66  C   UNL A   1      44.033  34.751  33.210  1.00  0.00     0.000 A 
ENDBRANCH  47  61
BRANCH  48  67
ATOM     67  C   UNL A   1      42.231  23.434  27.605  1.00  0.00    -0.014 A 
ATOM     68  C   UNL A   1      42.660  23.201  26.290  1.00  0.00     0.009 A 
ATOM     69  C   UNL A   1      41.603  22.397  28.310  1.00  0.00     0.009 A 
ATOM     70  C   UNL A   1      42.452  21.959  25.687  1.00  0.00     0.001 A 
ATOM     71  C   UNL A   1      41.416  21.148  27.713  1.00  0.00     0.001 A 
ATOM     72  C   UNL A   1      41.834  20.932  26.401  1.00  0.00     0.000 A 
ENDBRANCH  48  67
BRANCH  60  73
ATOM     73  C   UNL A   1      47.585  26.225  31.053  1.00  0.00    -0.014 A 
ATOM     74  C   UNL A   1      47.827  25.676  32.322  1.00  0.00     0.009 A 
ATOM     75  C   UNL A   1      48.621  26.242  30.107  1.00  0.00     0.009 A 
ATOM     76  C   UNL A   1      49.093  25.181  32.644  1.00  0.00     0.001 A 
ATOM     77  C   UNL A   1      49.877  25.725  30.424  1.00  0.00     0.001 A 
ATOM     78  C   UNL A   1      50.115  25.202  31.695  1.00  0.00     0.000 A 
ENDBRANCH  60  73
ENDBRANCH  34  35
ENDBRANCH  26  29
ENDBRANCH  24  25
ENDBRANCH  23  24
ENDBRANCH   1  23
TORSDOF 16
ENDMDL
