MODEL 1
REMARK VINA RESULT:     -12.0      0.000      0.000
REMARK SMILES O=C(NCCCNC(=O)[C@@H]1C=C[C@H](NC(=O)[C@@H]2Cc3ccccc3O2)C1)c1ccc(-c2c3nc(c(-c4ccccc4)c4ccc([nH]4)c(-c4ccccc4)c4nc(c(-c5ccccc5)c5ccc2[nH]5)C=C4)C=C3)cc1
REMARK SMILES IDX 5 1 4 2 3 3 1 4 2 5 27 7 28 8 74 9 29 10 73 11 30 12 31 13
REMARK SMILES IDX 32 14 67 15 33 16 72 17 66 18 68 19 34 20 71 21 65 22 64 23
REMARK SMILES IDX 35 25 57 26 42 27 56 28 43 29 46 30 55 31 69 32 44 33 45 34
REMARK SMILES IDX 54 36 70 37 47 38 36 39 37 40 41 41 38 42 40 43 39 44 58 45
REMARK SMILES IDX 59 46 63 47 60 48 62 49 61 50 48 51 49 52 53 53 50 54 52 55
REMARK SMILES IDX 51 56 6 57 7 58 8 59 9 61 10 62 11 63 26 64 12 65 13 66
REMARK SMILES IDX 14 67 15 68 16 70 17 71 18 72 25 73 19 74 24 75 20 76 23 77
REMARK SMILES IDX 21 78 22 79
REMARK H PARENT 3 6 68 24 46 35 7 60 14 69
REMARK Flexibility Score: inf
ROOT
ATOM      1  C   UNL A   1      38.487  20.362  25.071  1.00  0.00     0.042 C 
ENDROOT
BRANCH   1   2
ATOM      2  C   UNL A   1      39.270  19.759  26.236  1.00  0.00     0.118 C 
BRANCH   2   3
ATOM      3  N   UNL A   1      40.538  19.171  25.829  1.00  0.00    -0.352 N 
ATOM      4  O   UNL A   1      42.723  19.117  25.288  1.00  0.00    -0.269 OA
ATOM      5  C   UNL A   1      41.797  19.725  25.810  1.00  0.00     0.251 C 
ATOM      6  H   UNL A   1      40.486  18.238  25.522  1.00  0.00     0.163 HD
BRANCH   5   7
ATOM      7  C   UNL A   1      42.033  21.066  26.393  1.00  0.00     0.039 A 
ATOM      8  C   UNL A   1      42.274  22.175  25.579  1.00  0.00     0.014 A 
ATOM      9  C   UNL A   1      41.984  21.217  27.781  1.00  0.00     0.014 A 
ATOM     10  C   UNL A   1      42.611  23.396  26.155  1.00  0.00     0.010 A 
ATOM     11  C   UNL A   1      42.238  22.466  28.357  1.00  0.00     0.010 A 
ATOM     12  C   UNL A   1      42.586  23.560  27.549  1.00  0.00    -0.014 A 
BRANCH  12  13
ATOM     13  C   UNL A   1      42.874  24.894  28.137  1.00  0.00     0.031 A 
ATOM     14  C   UNL A   1      44.272  25.293  28.520  1.00  0.00     0.074 A 
ATOM     15  C   UNL A   1      41.859  25.762  28.309  1.00  0.00     0.049 A 
ATOM     16  N   UNL A   1      44.697  26.430  29.016  1.00  0.00    -0.248 NA
ATOM     17  C   UNL A   1      45.328  24.288  28.333  1.00  0.00     0.031 C 
ATOM     18  C   UNL A   1      40.456  25.494  27.978  1.00  0.00     0.029 A 
ATOM     19  N   UNL A   1      41.849  27.048  28.783  1.00  0.00    -0.354 N 
ATOM     20  C   UNL A   1      46.063  26.271  29.215  1.00  0.00     0.074 A 
ATOM     21  C   UNL A   1      46.390  24.918  28.817  1.00  0.00     0.031 C 
ATOM     22  C   UNL A   1      39.733  26.598  28.211  1.00  0.00     0.029 A 
ATOM     23  C   UNL A   1      40.604  27.627  28.767  1.00  0.00     0.049 A 
ATOM     24  H   UNL A   1      42.656  27.511  29.104  1.00  0.00     0.167 HD
ATOM     25  C   UNL A   1      46.964  27.172  29.682  1.00  0.00     0.031 A 
ATOM     26  C   UNL A   1      40.199  28.847  29.165  1.00  0.00     0.031 A 
ATOM     27  C   UNL A   1      46.634  28.514  30.089  1.00  0.00     0.049 A 
ATOM     28  C   UNL A   1      41.206  29.806  29.727  1.00  0.00     0.074 A 
ATOM     29  C   UNL A   1      47.483  29.511  30.541  1.00  0.00     0.029 A 
ATOM     30  N   UNL A   1      45.353  29.044  30.105  1.00  0.00    -0.354 N 
ATOM     31  N   UNL A   1      42.500  29.656  29.866  1.00  0.00    -0.248 NA
ATOM     32  C   UNL A   1      40.695  31.105  30.183  1.00  0.00     0.031 C 
ATOM     33  C   UNL A   1      46.706  30.621  30.893  1.00  0.00     0.029 A 
ATOM     34  C   UNL A   1      45.383  30.341  30.593  1.00  0.00     0.049 A 
ATOM     35  H   UNL A   1      44.542  28.569  29.814  1.00  0.00     0.167 HD
ATOM     36  C   UNL A   1      42.963  30.849  30.404  1.00  0.00     0.074 A 
ATOM     37  C   UNL A   1      41.813  31.718  30.548  1.00  0.00     0.031 C 
ATOM     38  C   UNL A   1      44.230  31.194  30.744  1.00  0.00     0.031 A 
BRANCH  25  39
ATOM     39  C   UNL A   1      48.393  26.715  29.814  1.00  0.00    -0.014 A 
ATOM     40  C   UNL A   1      49.333  26.933  28.793  1.00  0.00     0.009 A 
ATOM     41  C   UNL A   1      48.812  26.078  30.993  1.00  0.00     0.009 A 
ATOM     42  C   UNL A   1      50.649  26.482  28.932  1.00  0.00     0.001 A 
ATOM     43  C   UNL A   1      50.135  25.656  31.142  1.00  0.00     0.001 A 
ATOM     44  C   UNL A   1      51.049  25.847  30.107  1.00  0.00     0.000 A 
ENDBRANCH  25  39
BRANCH  26  45
ATOM     45  C   UNL A   1      38.766  29.221  29.045  1.00  0.00    -0.014 A 
ATOM     46  C   UNL A   1      38.252  29.691  27.828  1.00  0.00     0.009 A 
ATOM     47  C   UNL A   1      37.899  29.085  30.141  1.00  0.00     0.009 A 
ATOM     48  C   UNL A   1      36.903  30.033  27.715  1.00  0.00     0.001 A 
ATOM     49  C   UNL A   1      36.545  29.398  30.017  1.00  0.00     0.001 A 
ATOM     50  C   UNL A   1      36.049  29.879  28.807  1.00  0.00     0.000 A 
ENDBRANCH  26  45
BRANCH  38  51
ATOM     51  C   UNL A   1      44.441  32.584  31.276  1.00  0.00    -0.014 A 
ATOM     52  C   UNL A   1      44.406  32.855  32.653  1.00  0.00     0.009 A 
ATOM     53  C   UNL A   1      44.704  33.635  30.383  1.00  0.00     0.009 A 
ATOM     54  C   UNL A   1      44.594  34.158  33.121  1.00  0.00     0.001 A 
ATOM     55  C   UNL A   1      44.923  34.929  30.856  1.00  0.00     0.001 A 
ATOM     56  C   UNL A   1      44.858  35.192  32.224  1.00  0.00     0.000 A 
ENDBRANCH  38  51
ENDBRANCH  12  13
ENDBRANCH   5   7
ENDBRANCH   2   3
ENDBRANCH   1   2
BRANCH   1  57
ATOM     57  C   UNL A   1      38.012  21.796  25.300  1.00  0.00     0.117 C 
BRANCH  57  58
ATOM     58  N   UNL A   1      37.392  22.331  24.106  1.00  0.00    -0.356 N 
ATOM     59  C   UNL A   1      36.334  23.152  23.902  1.00  0.00     0.227 C 
ATOM     60  H   UNL A   1      37.829  22.040  23.273  1.00  0.00     0.163 HD
ATOM     61  O   UNL A   1      35.957  23.226  22.726  1.00  0.00    -0.274 OA
BRANCH  59  62
ATOM     62  C   UNL A   1      35.755  24.078  24.987  1.00  0.00     0.103 C 
ATOM     63  C   UNL A   1      35.177  23.519  26.252  1.00  0.00    -0.016 C 
ATOM     64  C   UNL A   1      34.518  24.820  24.430  1.00  0.00     0.047 C 
ATOM     65  C   UNL A   1      33.837  23.538  26.256  1.00  0.00    -0.006 C 
ATOM     66  C   UNL A   1      33.296  24.082  24.998  1.00  0.00     0.106 C 
BRANCH  66  67
ATOM     67  N   UNL A   1      32.701  23.111  24.088  1.00  0.00    -0.347 N 
ATOM     68  C   UNL A   1      32.445  21.787  23.988  1.00  0.00     0.261 C 
ATOM     69  H   UNL A   1      32.378  23.571  23.279  1.00  0.00     0.164 HD
ATOM     70  O   UNL A   1      31.838  21.462  22.953  1.00  0.00    -0.271 OA
BRANCH  68  71
ATOM     71  C   UNL A   1      32.847  20.663  24.974  1.00  0.00     0.266 C 
ATOM     72  C   UNL A   1      34.290  20.184  24.663  1.00  0.00     0.095 C 
ATOM     73  O   UNL A   1      32.015  19.527  25.182  1.00  0.00    -0.480 OA
ATOM     74  C   UNL A   1      34.096  18.717  24.643  1.00  0.00    -0.002 A 
ATOM     75  C   UNL A   1      32.777  18.429  24.920  1.00  0.00     0.123 A 
ATOM     76  C   UNL A   1      34.999  17.699  24.386  1.00  0.00     0.008 A 
ATOM     77  C   UNL A   1      32.287  17.138  24.918  1.00  0.00     0.047 A 
ATOM     78  C   UNL A   1      34.529  16.380  24.386  1.00  0.00     0.001 A 
ATOM     79  C   UNL A   1      33.177  16.102  24.639  1.00  0.00     0.004 A 
ENDBRANCH  68  71
ENDBRANCH  66  67
ENDBRANCH  59  62
ENDBRANCH  57  58
ENDBRANCH   1  57
TORSDOF 12
ENDMDL
MODEL 2
REMARK VINA RESULT:     -12.0      1.612      3.655
REMARK SMILES O=C(NCCCNC(=O)[C@@H]1C=C[C@H](NC(=O)[C@@H]2Cc3ccccc3O2)C1)c1ccc(-c2c3nc(c(-c4ccccc4)c4ccc([nH]4)c(-c4ccccc4)c4nc(c(-c5ccccc5)c5ccc2[nH]5)C=C4)C=C3)cc1
REMARK SMILES IDX 5 1 4 2 3 3 1 4 2 5 27 7 28 8 74 9 29 10 73 11 30 12 31 13
REMARK SMILES IDX 32 14 67 15 33 16 72 17 66 18 68 19 34 20 71 21 65 22 64 23
REMARK SMILES IDX 35 25 57 26 42 27 56 28 43 29 46 30 55 31 69 32 44 33 45 34
REMARK SMILES IDX 54 36 70 37 47 38 36 39 37 40 41 41 38 42 40 43 39 44 58 45
REMARK SMILES IDX 59 46 63 47 60 48 62 49 61 50 48 51 49 52 53 53 50 54 52 55
REMARK SMILES IDX 51 56 6 57 7 58 8 59 9 61 10 62 11 63 26 64 12 65 13 66
REMARK SMILES IDX 14 67 15 68 16 70 17 71 18 72 25 73 19 74 24 75 20 76 23 77
REMARK SMILES IDX 21 78 22 79
REMARK H PARENT 3 6 68 24 46 35 7 60 14 69
REMARK Flexibility Score: inf
ROOT
ATOM      1  C   UNL A   1      37.693  19.791  24.735  1.00  0.00     0.042 C 
ENDROOT
BRANCH   1   2
ATOM      2  C   UNL A   1      38.762  20.203  25.746  1.00  0.00     0.118 C 
BRANCH   2   3
ATOM      3  N   UNL A   1      39.913  19.314  25.756  1.00  0.00    -0.352 N 
ATOM      4  O   UNL A   1      42.083  18.727  25.877  1.00  0.00    -0.269 OA
ATOM      5  C   UNL A   1      41.224  19.578  26.075  1.00  0.00     0.251 C 
ATOM      6  H   UNL A   1      39.724  18.383  25.497  1.00  0.00     0.163 HD
BRANCH   5   7
ATOM      7  C   UNL A   1      41.608  20.896  26.631  1.00  0.00     0.039 A 
ATOM      8  C   UNL A   1      41.501  21.163  27.998  1.00  0.00     0.014 A 
ATOM      9  C   UNL A   1      42.109  21.873  25.767  1.00  0.00     0.014 A 
ATOM     10  C   UNL A   1      41.754  22.445  28.474  1.00  0.00     0.010 A 
ATOM     11  C   UNL A   1      42.445  23.137  26.262  1.00  0.00     0.010 A 
ATOM     12  C   UNL A   1      42.239  23.444  27.616  1.00  0.00    -0.014 A 
BRANCH  12  13
ATOM     13  C   UNL A   1      42.575  24.784  28.164  1.00  0.00     0.031 A 
ATOM     14  C   UNL A   1      43.989  25.149  28.523  1.00  0.00     0.074 A 
ATOM     15  C   UNL A   1      41.589  25.689  28.320  1.00  0.00     0.049 A 
ATOM     16  N   UNL A   1      44.455  26.284  28.982  1.00  0.00    -0.248 NA
ATOM     17  C   UNL A   1      45.010  24.105  28.355  1.00  0.00     0.031 C 
ATOM     18  C   UNL A   1      40.176  25.457  28.009  1.00  0.00     0.029 A 
ATOM     19  N   UNL A   1      41.625  26.988  28.757  1.00  0.00    -0.354 N 
ATOM     20  C   UNL A   1      45.817  26.087  29.174  1.00  0.00     0.074 A 
ATOM     21  C   UNL A   1      46.096  24.714  28.811  1.00  0.00     0.031 C 
ATOM     22  C   UNL A   1      39.490  26.590  28.217  1.00  0.00     0.029 A 
ATOM     23  C   UNL A   1      40.399  27.606  28.736  1.00  0.00     0.049 A 
ATOM     24  H   UNL A   1      42.450  27.433  29.058  1.00  0.00     0.167 HD
ATOM     25  C   UNL A   1      46.750  26.971  29.607  1.00  0.00     0.031 A 
ATOM     26  C   UNL A   1      40.038  28.849  29.104  1.00  0.00     0.031 A 
ATOM     27  C   UNL A   1      46.467  28.335  29.979  1.00  0.00     0.049 A 
ATOM     28  C   UNL A   1      41.080  29.790  29.629  1.00  0.00     0.074 A 
ATOM     29  C   UNL A   1      47.352  29.315  30.396  1.00  0.00     0.029 A 
ATOM     30  N   UNL A   1      45.204  28.906  29.992  1.00  0.00    -0.354 N 
ATOM     31  N   UNL A   1      42.370  29.602  29.761  1.00  0.00    -0.248 NA
ATOM     32  C   UNL A   1      40.615  31.117  30.053  1.00  0.00     0.031 C 
ATOM     33  C   UNL A   1      46.614  30.459  30.723  1.00  0.00     0.029 A 
ATOM     34  C   UNL A   1      45.280  30.214  30.443  1.00  0.00     0.049 A 
ATOM     35  H   UNL A   1      44.375  28.449  29.721  1.00  0.00     0.167 HD
ATOM     36  C   UNL A   1      42.876  30.794  30.261  1.00  0.00     0.074 A 
ATOM     37  C   UNL A   1      41.756  31.703  30.390  1.00  0.00     0.031 C 
ATOM     38  C   UNL A   1      44.157  31.107  30.580  1.00  0.00     0.031 A 
BRANCH  25  39
ATOM     39  C   UNL A   1      48.165  26.473  29.739  1.00  0.00    -0.014 A 
ATOM     40  C   UNL A   1      48.625  25.865  30.919  1.00  0.00     0.009 A 
ATOM     41  C   UNL A   1      49.047  26.590  28.652  1.00  0.00     0.009 A 
ATOM     42  C   UNL A   1      49.948  25.428  31.024  1.00  0.00     0.001 A 
ATOM     43  C   UNL A   1      50.360  26.124  28.749  1.00  0.00     0.001 A 
ATOM     44  C   UNL A   1      50.813  25.555  29.937  1.00  0.00     0.000 A 
ENDBRANCH  25  39
BRANCH  26  45
ATOM     45  C   UNL A   1      38.617  29.265  28.985  1.00  0.00    -0.014 A 
ATOM     46  C   UNL A   1      38.104  29.713  27.759  1.00  0.00     0.009 A 
ATOM     47  C   UNL A   1      37.757  29.192  30.093  1.00  0.00     0.009 A 
ATOM     48  C   UNL A   1      36.766  30.095  27.649  1.00  0.00     0.001 A 
ATOM     49  C   UNL A   1      36.412  29.545  29.973  1.00  0.00     0.001 A 
ATOM     50  C   UNL A   1      35.920  30.003  28.753  1.00  0.00     0.000 A 
ENDBRANCH  26  45
BRANCH  38  51
ATOM     51  C   UNL A   1      44.417  32.504  31.071  1.00  0.00    -0.014 A 
ATOM     52  C   UNL A   1      44.408  32.814  32.440  1.00  0.00     0.009 A 
ATOM     53  C   UNL A   1      44.701  33.522  30.146  1.00  0.00     0.009 A 
ATOM     54  C   UNL A   1      44.642  34.122  32.870  1.00  0.00     0.001 A 
ATOM     55  C   UNL A   1      44.966  34.821  30.580  1.00  0.00     0.001 A 
ATOM     56  C   UNL A   1      44.926  35.123  31.940  1.00  0.00     0.000 A 
ENDBRANCH  38  51
ENDBRANCH  12  13
ENDBRANCH   5   7
ENDBRANCH   2   3
ENDBRANCH   1   2
BRANCH   1  57
ATOM     57  C   UNL A   1      36.306  20.372  25.004  1.00  0.00     0.117 C 
BRANCH  57  58
ATOM     58  N   UNL A   1      36.145  21.652  24.346  1.00  0.00    -0.356 N 
ATOM     59  C   UNL A   1      35.062  22.339  23.914  1.00  0.00     0.227 C 
ATOM     60  H   UNL A   1      36.997  22.117  24.182  1.00  0.00     0.163 HD
ATOM     61  O   UNL A   1      35.322  23.316  23.199  1.00  0.00    -0.274 OA
BRANCH  59  62
ATOM     62  C   UNL A   1      33.630  22.072  24.413  1.00  0.00     0.103 C 
ATOM     63  C   UNL A   1      32.659  21.286  23.585  1.00  0.00    -0.016 C 
ATOM     64  C   UNL A   1      32.864  23.410  24.531  1.00  0.00     0.047 C 
ATOM     65  C   UNL A   1      31.747  22.065  22.987  1.00  0.00    -0.006 C 
ATOM     66  C   UNL A   1      31.968  23.491  23.286  1.00  0.00     0.106 C 
BRANCH  66  67
ATOM     67  N   UNL A   1      32.517  24.292  22.199  1.00  0.00    -0.347 N 
ATOM     68  C   UNL A   1      32.770  25.579  21.868  1.00  0.00     0.261 C 
ATOM     69  H   UNL A   1      32.796  23.702  21.462  1.00  0.00     0.164 HD
ATOM     70  O   UNL A   1      33.323  25.723  20.764  1.00  0.00    -0.271 OA
BRANCH  68  71
ATOM     71  C   UNL A   1      32.422  26.854  22.675  1.00  0.00     0.266 C 
ATOM     72  C   UNL A   1      33.703  27.410  23.352  1.00  0.00     0.095 C 
ATOM     73  O   UNL A   1      31.356  26.868  23.616  1.00  0.00    -0.480 OA
ATOM     74  C   UNL A   1      33.217  27.619  24.734  1.00  0.00    -0.002 A 
ATOM     75  C   UNL A   1      31.887  27.264  24.806  1.00  0.00     0.123 A 
ATOM     76  C   UNL A   1      33.885  28.073  25.859  1.00  0.00     0.008 A 
ATOM     77  C   UNL A   1      31.176  27.304  25.989  1.00  0.00     0.047 A 
ATOM     78  C   UNL A   1      33.184  28.130  27.069  1.00  0.00     0.001 A 
ATOM     79  C   UNL A   1      31.838  27.736  27.136  1.00  0.00     0.004 A 
ENDBRANCH  68  71
ENDBRANCH  66  67
ENDBRANCH  59  62
ENDBRANCH  57  58
ENDBRANCH   1  57
TORSDOF 12
ENDMDL
MODEL 3
REMARK VINA RESULT:     -11.9      1.612      6.946
REMARK SMILES O=C(NCCCNC(=O)[C@@H]1C=C[C@H](NC(=O)[C@@H]2Cc3ccccc3O2)C1)c1ccc(-c2c3nc(c(-c4ccccc4)c4ccc([nH]4)c(-c4ccccc4)c4nc(c(-c5ccccc5)c5ccc2[nH]5)C=C4)C=C3)cc1
REMARK SMILES IDX 5 1 4 2 3 3 1 4 2 5 27 7 28 8 74 9 29 10 73 11 30 12 31 13
REMARK SMILES IDX 32 14 67 15 33 16 72 17 66 18 68 19 34 20 71 21 65 22 64 23
REMARK SMILES IDX 35 25 57 26 42 27 56 28 43 29 46 30 55 31 69 32 44 33 45 34
REMARK SMILES IDX 54 36 70 37 47 38 36 39 37 40 41 41 38 42 40 43 39 44 58 45
REMARK SMILES IDX 59 46 63 47 60 48 62 49 61 50 48 51 49 52 53 53 50 54 52 55
REMARK SMILES IDX 51 56 6 57 7 58 8 59 9 61 10 62 11 63 26 64 12 65 13 66
REMARK SMILES IDX 14 67 15 68 16 70 17 71 18 72 25 73 19 74 24 75 20 76 23 77
REMARK SMILES IDX 21 78 22 79
REMARK H PARENT 3 6 68 24 46 35 7 60 14 69
REMARK Flexibility Score: inf
ROOT
ATOM      1  C   UNL A   1      37.747  19.884  24.726  1.00  0.00     0.042 C 
ENDROOT
BRANCH   1   2
ATOM      2  C   UNL A   1      38.813  20.293  25.740  1.00  0.00     0.118 C 
BRANCH   2   3
ATOM      3  N   UNL A   1      39.950  19.385  25.772  1.00  0.00    -0.352 N 
ATOM      4  O   UNL A   1      42.110  18.766  25.913  1.00  0.00    -0.269 OA
ATOM      5  C   UNL A   1      41.264  19.634  26.091  1.00  0.00     0.251 C 
ATOM      6  H   UNL A   1      39.747  18.454  25.529  1.00  0.00     0.163 HD
BRANCH   5   7
ATOM      7  C   UNL A   1      41.667  20.956  26.624  1.00  0.00     0.039 A 
ATOM      8  C   UNL A   1      41.602  21.234  27.991  1.00  0.00     0.014 A 
ATOM      9  C   UNL A   1      42.144  21.924  25.737  1.00  0.00     0.014 A 
ATOM     10  C   UNL A   1      41.871  22.520  28.449  1.00  0.00     0.010 A 
ATOM     11  C   UNL A   1      42.498  23.192  26.211  1.00  0.00     0.010 A 
ATOM     12  C   UNL A   1      42.333  23.511  27.568  1.00  0.00    -0.014 A 
BRANCH  12  13
ATOM     13  C   UNL A   1      42.688  24.854  28.094  1.00  0.00     0.031 A 
ATOM     14  C   UNL A   1      41.640  25.911  28.310  1.00  0.00     0.074 A 
ATOM     15  C   UNL A   1      43.974  25.114  28.398  1.00  0.00     0.049 A 
ATOM     16  N   UNL A   1      41.778  27.122  28.790  1.00  0.00    -0.248 NA
ATOM     17  C   UNL A   1      40.261  25.570  27.930  1.00  0.00     0.031 C 
ATOM     18  C   UNL A   1      45.086  24.175  28.233  1.00  0.00     0.029 A 
ATOM     19  N   UNL A   1      44.561  26.235  28.927  1.00  0.00    -0.354 N 
ATOM     20  C   UNL A   1      40.512  27.693  28.755  1.00  0.00     0.074 A 
ATOM     21  C   UNL A   1      39.624  26.707  28.176  1.00  0.00     0.031 C 
ATOM     22  C   UNL A   1      46.209  24.738  28.699  1.00  0.00     0.029 A 
ATOM     23  C   UNL A   1      45.912  26.097  29.135  1.00  0.00     0.049 A 
ATOM     24  H   UNL A   1      44.063  27.057  29.138  1.00  0.00     0.167 HD
ATOM     25  C   UNL A   1      40.123  28.924  29.172  1.00  0.00     0.031 A 
ATOM     26  C   UNL A   1      46.819  26.970  29.610  1.00  0.00     0.031 A 
ATOM     27  C   UNL A   1      41.012  29.909  29.737  1.00  0.00     0.049 A 
ATOM     28  C   UNL A   1      46.372  28.343  30.015  1.00  0.00     0.074 A 
ATOM     29  C   UNL A   1      40.705  31.169  30.220  1.00  0.00     0.029 A 
ATOM     30  N   UNL A   1      42.382  29.748  29.882  1.00  0.00    -0.354 N 
ATOM     31  N   UNL A   1      45.164  28.851  30.017  1.00  0.00    -0.248 NA
ATOM     32  C   UNL A   1      47.416  29.263  30.486  1.00  0.00     0.031 C 
ATOM     33  C   UNL A   1      41.899  31.796  30.597  1.00  0.00     0.029 A 
ATOM     34  C   UNL A   1      42.939  30.900  30.414  1.00  0.00     0.049 A 
ATOM     35  H   UNL A   1      42.883  28.937  29.641  1.00  0.00     0.167 HD
ATOM     36  C   UNL A   1      45.298  30.141  30.512  1.00  0.00     0.074 A 
ATOM     37  C   UNL A   1      46.701  30.330  30.815  1.00  0.00     0.031 C 
ATOM     38  C   UNL A   1      44.340  31.083  30.701  1.00  0.00     0.031 A 
BRANCH  25  39
ATOM     39  C   UNL A   1      38.673  29.288  28.993  1.00  0.00    -0.014 A 
ATOM     40  C   UNL A   1      38.170  29.724  27.757  1.00  0.00     0.009 A 
ATOM     41  C   UNL A   1      37.788  29.166  30.077  1.00  0.00     0.009 A 
ATOM     42  C   UNL A   1      36.824  30.075  27.621  1.00  0.00     0.001 A 
ATOM     43  C   UNL A   1      36.437  29.487  29.931  1.00  0.00     0.001 A 
ATOM     44  C   UNL A   1      35.958  29.953  28.708  1.00  0.00     0.000 A 
ENDBRANCH  25  39
BRANCH  26  45
ATOM     45  C   UNL A   1      48.242  26.561  29.724  1.00  0.00    -0.014 A 
ATOM     46  C   UNL A   1      48.699  25.878  30.861  1.00  0.00     0.009 A 
ATOM     47  C   UNL A   1      49.147  26.829  28.684  1.00  0.00     0.009 A 
ATOM     48  C   UNL A   1      50.036  25.487  30.960  1.00  0.00     0.001 A 
ATOM     49  C   UNL A   1      50.475  26.409  28.772  1.00  0.00     0.001 A 
ATOM     50  C   UNL A   1      50.920  25.745  29.914  1.00  0.00     0.000 A 
ENDBRANCH  26  45
BRANCH  38  51
ATOM     51  C   UNL A   1      44.778  32.393  31.293  1.00  0.00    -0.014 A 
ATOM     52  C   UNL A   1      44.850  32.582  32.683  1.00  0.00     0.009 A 
ATOM     53  C   UNL A   1      45.148  33.449  30.445  1.00  0.00     0.009 A 
ATOM     54  C   UNL A   1      45.249  33.813  33.209  1.00  0.00     0.001 A 
ATOM     55  C   UNL A   1      45.577  34.667  30.973  1.00  0.00     0.001 A 
ATOM     56  C   UNL A   1      45.617  34.852  32.354  1.00  0.00     0.000 A 
ENDBRANCH  38  51
ENDBRANCH  12  13
ENDBRANCH   5   7
ENDBRANCH   2   3
ENDBRANCH   1   2
BRANCH   1  57
ATOM     57  C   UNL A   1      36.354  20.448  25.006  1.00  0.00     0.117 C 
BRANCH  57  58
ATOM     58  N   UNL A   1      36.173  21.726  24.350  1.00  0.00    -0.356 N 
ATOM     59  C   UNL A   1      35.079  22.394  23.913  1.00  0.00     0.227 C 
ATOM     60  H   UNL A   1      37.016  22.207  24.190  1.00  0.00     0.163 HD
ATOM     61  O   UNL A   1      35.323  23.376  23.202  1.00  0.00    -0.274 OA
BRANCH  59  62
ATOM     62  C   UNL A   1      33.649  22.098  24.405  1.00  0.00     0.103 C 
ATOM     63  C   UNL A   1      32.702  21.283  23.578  1.00  0.00    -0.016 C 
ATOM     64  C   UNL A   1      32.852  23.419  24.504  1.00  0.00     0.047 C 
ATOM     65  C   UNL A   1      31.778  22.034  22.966  1.00  0.00    -0.006 C 
ATOM     66  C   UNL A   1      31.964  23.467  23.253  1.00  0.00     0.106 C 
BRANCH  66  67
ATOM     67  N   UNL A   1      32.502  24.271  22.161  1.00  0.00    -0.347 N 
ATOM     68  C   UNL A   1      32.748  25.559  21.829  1.00  0.00     0.261 C 
ATOM     69  H   UNL A   1      32.777  23.681  21.422  1.00  0.00     0.164 HD
ATOM     70  O   UNL A   1      33.293  25.704  20.721  1.00  0.00    -0.271 OA
BRANCH  68  71
ATOM     71  C   UNL A   1      32.404  26.832  22.639  1.00  0.00     0.266 C 
ATOM     72  C   UNL A   1      33.688  27.389  23.310  1.00  0.00     0.095 C 
ATOM     73  O   UNL A   1      31.342  26.844  23.586  1.00  0.00    -0.480 OA
ATOM     74  C   UNL A   1      33.208  27.596  24.695  1.00  0.00    -0.002 A 
ATOM     75  C   UNL A   1      31.879  27.240  24.773  1.00  0.00     0.123 A 
ATOM     76  C   UNL A   1      33.882  28.049  25.816  1.00  0.00     0.008 A 
ATOM     77  C   UNL A   1      31.174  27.277  25.960  1.00  0.00     0.047 A 
ATOM     78  C   UNL A   1      33.187  28.105  27.030  1.00  0.00     0.001 A 
ATOM     79  C   UNL A   1      31.842  27.709  27.104  1.00  0.00     0.004 A 
ENDBRANCH  68  71
ENDBRANCH  66  67
ENDBRANCH  59  62
ENDBRANCH  57  58
ENDBRANCH   1  57
TORSDOF 12
ENDMDL
