MODEL 1
REMARK VINA RESULT:     -10.6      0.000      0.000
REMARK SMILES Nc1ccccc1C(=O)NCc1ccc(C(=O)NCCCNC(=O)c2ccc(-c3c4nc(c(-c5ccccc5)c5ccc([nH]5)c(-c5ccccc5)c5nc(c(-c6ccccc6)c6ccc3[nH]6)C=C5)C=C4)cc2)o1
REMARK SMILES IDX 19 1 18 2 16 3 17 4 15 6 12 7 13 8 73 9 14 10 11 11 10 12
REMARK SMILES IDX 8 13 9 14 7 16 2 17 3 18 4 19 6 20 5 21 1 22 20 25 21 26
REMARK SMILES IDX 22 27 23 28 24 30 25 31 26 32 72 33 27 34 71 35 28 36 29 37
REMARK SMILES IDX 30 38 65 39 31 40 70 41 64 42 66 43 32 44 69 45 63 46 62 47
REMARK SMILES IDX 33 49 55 50 40 51 54 52 41 53 44 54 53 55 67 56 42 57 43 58
REMARK SMILES IDX 52 60 68 61 45 62 34 63 35 64 39 65 36 66 38 67 37 68 56 69
REMARK SMILES IDX 57 70 61 71 58 72 60 73 59 74 46 75 47 76 51 77 48 78 50 79
REMARK SMILES IDX 49 80
REMARK H PARENT 18 5 10 15 1 23 1 24 22 29 66 48 44 59
REMARK Flexibility Score: inf
ROOT
ATOM      1  C   UNL A   1      34.458  23.123  25.590  1.00  0.00     0.118 C 
ENDROOT
BRANCH   1   2
ATOM      2  N   UNL A   1      33.463  23.227  26.630  1.00  0.00    -0.349 N 
ATOM      3  C   UNL A   1      32.186  23.717  26.568  1.00  0.00     0.286 C 
ATOM      4  O   UNL A   1      31.547  23.689  27.626  1.00  0.00    -0.266 OA
ATOM      5  H   UNL A   1      33.743  22.896  27.514  1.00  0.00     0.163 HD
BRANCH   3   6
ATOM      6  C   UNL A   1      31.623  24.181  25.317  1.00  0.00     0.191 A 
ATOM      7  C   UNL A   1      30.896  25.841  24.046  1.00  0.00     0.124 A 
ATOM      8  C   UNL A   1      30.656  24.691  23.332  1.00  0.00     0.048 A 
ATOM      9  O   UNL A   1      31.506  25.531  25.218  1.00  0.00    -0.454 OA
ATOM     10  C   UNL A   1      31.142  23.624  24.142  1.00  0.00     0.056 A 
BRANCH   7  11
ATOM     11  C   UNL A   1      30.730  27.294  23.885  1.00  0.00     0.191 C 
BRANCH  11  12
ATOM     12  N   UNL A   1      31.739  27.936  23.087  1.00  0.00    -0.345 N 
ATOM     13  C   UNL A   1      32.825  28.662  23.520  1.00  0.00     0.253 C 
ATOM     14  O   UNL A   1      33.628  29.051  22.669  1.00  0.00    -0.269 OA
ATOM     15  H   UNL A   1      31.640  27.846  22.112  1.00  0.00     0.164 HD
BRANCH  13  16
ATOM     16  C   UNL A   1      33.014  29.087  24.946  1.00  0.00     0.062 A 
ATOM     17  C   UNL A   1      32.298  30.088  25.634  1.00  0.00     0.044 A 
ATOM     18  C   UNL A   1      32.742  30.475  26.912  1.00  0.00     0.026 A 
ATOM     19  C   UNL A   1      33.775  29.799  27.560  1.00  0.00     0.002 A 
ATOM     20  C   UNL A   1      34.030  28.386  25.631  1.00  0.00     0.016 A 
ATOM     21  C   UNL A   1      34.395  28.727  26.932  1.00  0.00     0.001 A 
BRANCH  17  22
ATOM     22  N   UNL A   1      31.165  30.725  25.140  1.00  0.00    -0.398 N 
ATOM     23  H   UNL A   1      30.336  30.736  25.670  1.00  0.00     0.156 HD
ATOM     24  H   UNL A   1      31.191  31.163  24.259  1.00  0.00     0.156 HD
ENDBRANCH  17  22
ENDBRANCH  13  16
ENDBRANCH  11  12
ENDBRANCH   7  11
ENDBRANCH   3   6
ENDBRANCH   1   2
BRANCH   1  25
ATOM     25  C   UNL A   1      35.697  23.924  25.968  1.00  0.00     0.042 C 
BRANCH  25  26
ATOM     26  C   UNL A   1      36.847  23.693  24.994  1.00  0.00     0.118 C 
BRANCH  26  27
ATOM     27  N   UNL A   1      37.754  22.662  25.483  1.00  0.00    -0.352 N 
ATOM     28  C   UNL A   1      38.962  22.787  26.117  1.00  0.00     0.251 C 
ATOM     29  H   UNL A   1      37.452  21.737  25.338  1.00  0.00     0.163 HD
ATOM     30  O   UNL A   1      39.725  21.828  26.170  1.00  0.00    -0.269 OA
BRANCH  28  31
ATOM     31  C   UNL A   1      39.340  24.071  26.736  1.00  0.00     0.039 A 
ATOM     32  C   UNL A   1      38.933  24.341  28.044  1.00  0.00     0.014 A 
ATOM     33  C   UNL A   1      40.057  25.028  26.010  1.00  0.00     0.014 A 
ATOM     34  C   UNL A   1      39.285  25.551  28.640  1.00  0.00     0.010 A 
ATOM     35  C   UNL A   1      40.482  26.194  26.632  1.00  0.00     0.010 A 
ATOM     36  C   UNL A   1      40.089  26.473  27.949  1.00  0.00    -0.014 A 
BRANCH  36  37
ATOM     37  C   UNL A   1      40.514  27.745  28.580  1.00  0.00     0.031 A 
ATOM     38  C   UNL A   1      39.535  28.877  28.726  1.00  0.00     0.074 A 
ATOM     39  C   UNL A   1      41.795  27.895  28.972  1.00  0.00     0.049 A 
ATOM     40  N   UNL A   1      39.735  30.086  29.185  1.00  0.00    -0.248 NA
ATOM     41  C   UNL A   1      38.154  28.627  28.277  1.00  0.00     0.031 C 
ATOM     42  C   UNL A   1      42.844  26.880  28.851  1.00  0.00     0.029 A 
ATOM     43  N   UNL A   1      42.432  28.963  29.547  1.00  0.00    -0.354 N 
ATOM     44  C   UNL A   1      38.511  30.736  29.080  1.00  0.00     0.074 A 
ATOM     45  C   UNL A   1      37.592  29.813  28.452  1.00  0.00     0.031 C 
ATOM     46  C   UNL A   1      43.986  27.365  29.363  1.00  0.00     0.029 A 
ATOM     47  C   UNL A   1      43.763  28.738  29.801  1.00  0.00     0.049 A 
ATOM     48  H   UNL A   1      41.979  29.811  29.759  1.00  0.00     0.167 HD
ATOM     49  C   UNL A   1      38.175  31.981  29.494  1.00  0.00     0.031 A 
ATOM     50  C   UNL A   1      44.702  29.553  30.319  1.00  0.00     0.031 A 
ATOM     51  C   UNL A   1      39.091  32.897  30.117  1.00  0.00     0.049 A 
ATOM     52  C   UNL A   1      44.309  30.947  30.726  1.00  0.00     0.074 A 
ATOM     53  C   UNL A   1      38.845  34.173  30.590  1.00  0.00     0.029 A 
ATOM     54  N   UNL A   1      40.430  32.630  30.356  1.00  0.00    -0.354 N 
ATOM     55  N   UNL A   1      43.134  31.527  30.667  1.00  0.00    -0.248 NA
ATOM     56  C   UNL A   1      45.371  31.796  31.284  1.00  0.00     0.031 C 
ATOM     57  C   UNL A   1      40.047  34.697  31.073  1.00  0.00     0.029 A 
ATOM     58  C   UNL A   1      41.026  33.724  30.958  1.00  0.00     0.049 A 
ATOM     59  H   UNL A   1      40.888  31.788  30.132  1.00  0.00     0.167 HD
ATOM     60  C   UNL A   1      43.309  32.793  31.213  1.00  0.00     0.074 A 
ATOM     61  C   UNL A   1      44.697  32.886  31.616  1.00  0.00     0.031 C 
ATOM     62  C   UNL A   1      42.406  33.790  31.365  1.00  0.00     0.031 A 
BRANCH  49  63
ATOM     63  C   UNL A   1      36.749  32.417  29.300  1.00  0.00    -0.014 A 
ATOM     64  C   UNL A   1      35.806  32.278  30.332  1.00  0.00     0.009 A 
ATOM     65  C   UNL A   1      36.354  33.022  28.097  1.00  0.00     0.009 A 
ATOM     66  C   UNL A   1      34.491  32.711  30.153  1.00  0.00     0.001 A 
ATOM     67  C   UNL A   1      35.046  33.482  27.932  1.00  0.00     0.001 A 
ATOM     68  C   UNL A   1      34.114  33.319  28.956  1.00  0.00     0.000 A 
ENDBRANCH  49  63
BRANCH  50  69
ATOM     69  C   UNL A   1      46.106  29.088  30.477  1.00  0.00    -0.014 A 
ATOM     70  C   UNL A   1      46.533  28.497  31.677  1.00  0.00     0.009 A 
ATOM     71  C   UNL A   1      47.039  29.276  29.447  1.00  0.00     0.009 A 
ATOM     72  C   UNL A   1      47.874  28.152  31.859  1.00  0.00     0.001 A 
ATOM     73  C   UNL A   1      48.373  28.895  29.617  1.00  0.00     0.001 A 
ATOM     74  C   UNL A   1      48.792  28.349  30.829  1.00  0.00     0.000 A 
ENDBRANCH  50  69
BRANCH  62  75
ATOM     75  C   UNL A   1      42.877  35.047  32.043  1.00  0.00    -0.014 A 
ATOM     76  C   UNL A   1      43.549  36.055  31.333  1.00  0.00     0.009 A 
ATOM     77  C   UNL A   1      42.612  35.235  33.408  1.00  0.00     0.009 A 
ATOM     78  C   UNL A   1      43.979  37.210  31.989  1.00  0.00     0.001 A 
ATOM     79  C   UNL A   1      43.012  36.407  34.053  1.00  0.00     0.001 A 
ATOM     80  C   UNL A   1      43.705  37.387  33.345  1.00  0.00     0.000 A 
ENDBRANCH  62  75
ENDBRANCH  36  37
ENDBRANCH  28  31
ENDBRANCH  26  27
ENDBRANCH  25  26
ENDBRANCH   1  25
TORSDOF 14
ENDMDL
MODEL 2
REMARK VINA RESULT:     -10.5      2.502      7.259
REMARK SMILES Nc1ccccc1C(=O)NCc1ccc(C(=O)NCCCNC(=O)c2ccc(-c3c4nc(c(-c5ccccc5)c5ccc([nH]5)c(-c5ccccc5)c5nc(c(-c6ccccc6)c6ccc3[nH]6)C=C5)C=C4)cc2)o1
REMARK SMILES IDX 19 1 18 2 16 3 17 4 15 6 12 7 13 8 73 9 14 10 11 11 10 12
REMARK SMILES IDX 8 13 9 14 7 16 2 17 3 18 4 19 6 20 5 21 1 22 20 25 21 26
REMARK SMILES IDX 22 27 23 28 24 30 25 31 26 32 72 33 27 34 71 35 28 36 29 37
REMARK SMILES IDX 30 38 65 39 31 40 70 41 64 42 66 43 32 44 69 45 63 46 62 47
REMARK SMILES IDX 33 49 55 50 40 51 54 52 41 53 44 54 53 55 67 56 42 57 43 58
REMARK SMILES IDX 52 60 68 61 45 62 34 63 35 64 39 65 36 66 38 67 37 68 56 69
REMARK SMILES IDX 57 70 61 71 58 72 60 73 59 74 46 75 47 76 51 77 48 78 50 79
REMARK SMILES IDX 49 80
REMARK H PARENT 18 5 10 15 1 23 1 24 22 29 66 48 44 59
REMARK Flexibility Score: inf
ROOT
ATOM      1  C   UNL A   1      36.161  20.483  25.038  1.00  0.00     0.118 C 
ENDROOT
BRANCH   1   2
ATOM      2  N   UNL A   1      34.956  19.715  24.842  1.00  0.00    -0.349 N 
ATOM      3  C   UNL A   1      33.722  19.869  25.415  1.00  0.00     0.286 C 
ATOM      4  O   UNL A   1      32.860  19.056  25.064  1.00  0.00    -0.266 OA
ATOM      5  H   UNL A   1      35.031  18.971  24.201  1.00  0.00     0.163 HD
BRANCH   3   6
ATOM      6  C   UNL A   1      33.453  20.960  26.329  1.00  0.00     0.191 A 
ATOM      7  C   UNL A   1      32.220  22.702  26.917  1.00  0.00     0.124 A 
ATOM      8  C   UNL A   1      33.260  22.659  27.816  1.00  0.00     0.048 A 
ATOM      9  O   UNL A   1      32.324  21.664  26.050  1.00  0.00    -0.454 OA
ATOM     10  C   UNL A   1      34.042  21.525  27.449  1.00  0.00     0.056 A 
BRANCH   7  11
ATOM     11  C   UNL A   1      31.018  23.511  26.659  1.00  0.00     0.191 C 
BRANCH  11  12
ATOM     12  N   UNL A   1      31.260  24.916  26.477  1.00  0.00    -0.345 N 
ATOM     13  C   UNL A   1      32.030  25.524  25.510  1.00  0.00     0.253 C 
ATOM     14  O   UNL A   1      32.030  26.757  25.472  1.00  0.00    -0.269 OA
ATOM     15  H   UNL A   1      30.823  25.517  27.122  1.00  0.00     0.164 HD
BRANCH  13  16
ATOM     16  C   UNL A   1      32.939  24.768  24.587  1.00  0.00     0.062 A 
ATOM     17  C   UNL A   1      32.569  24.078  23.414  1.00  0.00     0.044 A 
ATOM     18  C   UNL A   1      33.531  23.271  22.779  1.00  0.00     0.026 A 
ATOM     19  C   UNL A   1      34.860  23.252  23.200  1.00  0.00     0.002 A 
ATOM     20  C   UNL A   1      34.295  24.771  24.976  1.00  0.00     0.016 A 
ATOM     21  C   UNL A   1      35.251  24.034  24.278  1.00  0.00     0.001 A 
BRANCH  17  22
ATOM     22  N   UNL A   1      31.312  24.143  22.826  1.00  0.00    -0.398 N 
ATOM     23  H   UNL A   1      30.503  24.048  23.380  1.00  0.00     0.156 HD
ATOM     24  H   UNL A   1      31.229  24.281  21.855  1.00  0.00     0.156 HD
ENDBRANCH  17  22
ENDBRANCH  13  16
ENDBRANCH  11  12
ENDBRANCH   7  11
ENDBRANCH   3   6
ENDBRANCH   1   2
BRANCH   1  25
ATOM     25  C   UNL A   1      37.380  19.571  24.979  1.00  0.00     0.042 C 
BRANCH  25  26
ATOM     26  C   UNL A   1      38.661  20.302  25.365  1.00  0.00     0.118 C 
BRANCH  26  27
ATOM     27  N   UNL A   1      39.729  19.362  25.683  1.00  0.00    -0.352 N 
ATOM     28  C   UNL A   1      41.021  19.602  26.069  1.00  0.00     0.251 C 
ATOM     29  H   UNL A   1      39.483  18.412  25.611  1.00  0.00     0.163 HD
ATOM     30  O   UNL A   1      41.858  18.709  25.987  1.00  0.00    -0.269 OA
BRANCH  28  31
ATOM     31  C   UNL A   1      41.401  20.930  26.587  1.00  0.00     0.039 A 
ATOM     32  C   UNL A   1      41.984  21.855  25.718  1.00  0.00     0.014 A 
ATOM     33  C   UNL A   1      41.225  21.244  27.937  1.00  0.00     0.014 A 
ATOM     34  C   UNL A   1      42.348  23.113  26.196  1.00  0.00     0.010 A 
ATOM     35  C   UNL A   1      41.505  22.526  28.392  1.00  0.00     0.010 A 
ATOM     36  C   UNL A   1      42.082  23.469  27.529  1.00  0.00    -0.014 A 
BRANCH  36  37
ATOM     37  C   UNL A   1      42.416  24.817  28.045  1.00  0.00     0.031 A 
ATOM     38  C   UNL A   1      43.826  25.133  28.465  1.00  0.00     0.074 A 
ATOM     39  C   UNL A   1      41.440  25.736  28.183  1.00  0.00     0.049 A 
ATOM     40  N   UNL A   1      44.299  26.228  29.004  1.00  0.00    -0.248 NA
ATOM     41  C   UNL A   1      44.833  24.075  28.275  1.00  0.00     0.031 C 
ATOM     42  C   UNL A   1      40.030  25.534  27.842  1.00  0.00     0.029 A 
ATOM     43  N   UNL A   1      41.486  27.022  28.654  1.00  0.00    -0.354 N 
ATOM     44  C   UNL A   1      45.651  25.989  29.217  1.00  0.00     0.074 A 
ATOM     45  C   UNL A   1      45.911  24.625  28.813  1.00  0.00     0.031 C 
ATOM     46  C   UNL A   1      39.352  26.666  28.088  1.00  0.00     0.029 A 
ATOM     47  C   UNL A   1      40.266  27.654  28.649  1.00  0.00     0.049 A 
ATOM     48  H   UNL A   1      42.315  27.454  28.965  1.00  0.00     0.167 HD
ATOM     49  C   UNL A   1      46.599  26.837  29.682  1.00  0.00     0.031 A 
ATOM     50  C   UNL A   1      39.922  28.888  29.063  1.00  0.00     0.031 A 
ATOM     51  C   UNL A   1      46.339  28.192  30.084  1.00  0.00     0.049 A 
ATOM     52  C   UNL A   1      40.989  29.791  29.618  1.00  0.00     0.074 A 
ATOM     53  C   UNL A   1      47.232  29.140  30.551  1.00  0.00     0.029 A 
ATOM     54  N   UNL A   1      45.090  28.793  30.064  1.00  0.00    -0.354 N 
ATOM     55  N   UNL A   1      42.273  29.566  29.763  1.00  0.00    -0.248 NA
ATOM     56  C   UNL A   1      40.559  31.127  30.057  1.00  0.00     0.031 C 
ATOM     57  C   UNL A   1      46.516  30.300  30.857  1.00  0.00     0.029 A 
ATOM     58  C   UNL A   1      45.187  30.095  30.522  1.00  0.00     0.049 A 
ATOM     59  H   UNL A   1      44.258  28.359  29.767  1.00  0.00     0.167 HD
ATOM     60  C   UNL A   1      42.808  30.742  30.274  1.00  0.00     0.074 A 
ATOM     61  C   UNL A   1      41.713  31.683  30.392  1.00  0.00     0.031 C 
ATOM     62  C   UNL A   1      44.088  31.020  30.618  1.00  0.00     0.031 A 
BRANCH  49  63
ATOM     63  C   UNL A   1      48.011  26.326  29.763  1.00  0.00    -0.014 A 
ATOM     64  C   UNL A   1      48.491  25.719  30.936  1.00  0.00     0.009 A 
ATOM     65  C   UNL A   1      48.853  26.400  28.644  1.00  0.00     0.009 A 
ATOM     66  C   UNL A   1      49.794  25.221  30.994  1.00  0.00     0.001 A 
ATOM     67  C   UNL A   1      50.146  25.874  28.695  1.00  0.00     0.001 A 
ATOM     68  C   UNL A   1      50.618  25.293  29.871  1.00  0.00     0.000 A 
ENDBRANCH  49  63
BRANCH  50  69
ATOM     69  C   UNL A   1      38.510  29.348  28.981  1.00  0.00    -0.014 A 
ATOM     70  C   UNL A   1      37.641  29.189  30.073  1.00  0.00     0.009 A 
ATOM     71  C   UNL A   1      38.009  29.905  27.795  1.00  0.00     0.009 A 
ATOM     72  C   UNL A   1      36.291  29.529  29.960  1.00  0.00     0.001 A 
ATOM     73  C   UNL A   1      36.667  30.280  27.697  1.00  0.00     0.001 A 
ATOM     74  C   UNL A   1      35.805  30.076  28.773  1.00  0.00     0.000 A 
ENDBRANCH  50  69
BRANCH  62  75
ATOM     75  C   UNL A   1      44.383  32.412  31.102  1.00  0.00    -0.014 A 
ATOM     76  C   UNL A   1      44.345  32.737  32.467  1.00  0.00     0.009 A 
ATOM     77  C   UNL A   1      44.738  33.404  30.175  1.00  0.00     0.009 A 
ATOM     78  C   UNL A   1      44.619  34.039  32.889  1.00  0.00     0.001 A 
ATOM     79  C   UNL A   1      45.047  34.696  30.603  1.00  0.00     0.001 A 
ATOM     80  C   UNL A   1      44.976  35.015  31.958  1.00  0.00     0.000 A 
ENDBRANCH  62  75
ENDBRANCH  36  37
ENDBRANCH  28  31
ENDBRANCH  26  27
ENDBRANCH  25  26
ENDBRANCH   1  25
TORSDOF 14
ENDMDL
MODEL 3
REMARK VINA RESULT:     -10.5      2.575      4.217
REMARK SMILES Nc1ccccc1C(=O)NCc1ccc(C(=O)NCCCNC(=O)c2ccc(-c3c4nc(c(-c5ccccc5)c5ccc([nH]5)c(-c5ccccc5)c5nc(c(-c6ccccc6)c6ccc3[nH]6)C=C5)C=C4)cc2)o1
REMARK SMILES IDX 19 1 18 2 16 3 17 4 15 6 12 7 13 8 73 9 14 10 11 11 10 12
REMARK SMILES IDX 8 13 9 14 7 16 2 17 3 18 4 19 6 20 5 21 1 22 20 25 21 26
REMARK SMILES IDX 22 27 23 28 24 30 25 31 26 32 72 33 27 34 71 35 28 36 29 37
REMARK SMILES IDX 30 38 65 39 31 40 70 41 64 42 66 43 32 44 69 45 63 46 62 47
REMARK SMILES IDX 33 49 55 50 40 51 54 52 41 53 44 54 53 55 67 56 42 57 43 58
REMARK SMILES IDX 52 60 68 61 45 62 34 63 35 64 39 65 36 66 38 67 37 68 56 69
REMARK SMILES IDX 57 70 61 71 58 72 60 73 59 74 46 75 47 76 51 77 48 78 50 79
REMARK SMILES IDX 49 80
REMARK H PARENT 18 5 10 15 1 23 1 24 22 29 66 48 44 59
REMARK Flexibility Score: inf
ROOT
ATOM      1  C   UNL A   1      36.167  20.585  25.274  1.00  0.00     0.118 C 
ENDROOT
BRANCH   1   2
ATOM      2  N   UNL A   1      34.978  19.875  24.869  1.00  0.00    -0.349 N 
ATOM      3  C   UNL A   1      33.686  20.025  25.295  1.00  0.00     0.286 C 
ATOM      4  O   UNL A   1      32.857  19.271  24.774  1.00  0.00    -0.266 OA
ATOM      5  H   UNL A   1      35.116  19.181  24.183  1.00  0.00     0.163 HD
BRANCH   3   6
ATOM      6  C   UNL A   1      33.330  21.049  26.255  1.00  0.00     0.191 A 
ATOM      7  C   UNL A   1      32.019  22.726  26.864  1.00  0.00     0.124 A 
ATOM      8  C   UNL A   1      32.994  22.644  27.829  1.00  0.00     0.048 A 
ATOM      9  O   UNL A   1      32.206  21.748  25.942  1.00  0.00    -0.454 OA
ATOM     10  C   UNL A   1      33.827  21.551  27.447  1.00  0.00     0.056 A 
BRANCH   7  11
ATOM     11  C   UNL A   1      30.820  23.527  26.573  1.00  0.00     0.191 C 
BRANCH  11  12
ATOM     12  N   UNL A   1      31.052  24.939  26.433  1.00  0.00    -0.345 N 
ATOM     13  C   UNL A   1      31.865  25.576  25.522  1.00  0.00     0.253 C 
ATOM     14  O   UNL A   1      31.850  26.809  25.508  1.00  0.00    -0.269 OA
ATOM     15  H   UNL A   1      30.572  25.521  27.065  1.00  0.00     0.164 HD
BRANCH  13  16
ATOM     16  C   UNL A   1      32.832  24.850  24.634  1.00  0.00     0.062 A 
ATOM     17  C   UNL A   1      32.538  24.189  23.424  1.00  0.00     0.044 A 
ATOM     18  C   UNL A   1      33.541  23.405  22.826  1.00  0.00     0.026 A 
ATOM     19  C   UNL A   1      34.843  23.384  23.324  1.00  0.00     0.002 A 
ATOM     20  C   UNL A   1      34.163  24.852  25.102  1.00  0.00     0.016 A 
ATOM     21  C   UNL A   1      35.164  24.139  24.443  1.00  0.00     0.001 A 
BRANCH  17  22
ATOM     22  N   UNL A   1      31.316  24.261  22.765  1.00  0.00    -0.398 N 
ATOM     23  H   UNL A   1      30.840  23.435  22.518  1.00  0.00     0.156 HD
ATOM     24  H   UNL A   1      30.928  25.138  22.542  1.00  0.00     0.156 HD
ENDBRANCH  17  22
ENDBRANCH  13  16
ENDBRANCH  11  12
ENDBRANCH   7  11
ENDBRANCH   3   6
ENDBRANCH   1   2
BRANCH   1  25
ATOM     25  C   UNL A   1      37.408  19.781  24.908  1.00  0.00     0.042 C 
BRANCH  25  26
ATOM     26  C   UNL A   1      38.688  20.450  25.399  1.00  0.00     0.118 C 
BRANCH  26  27
ATOM     27  N   UNL A   1      39.726  19.464  25.671  1.00  0.00    -0.352 N 
ATOM     28  C   UNL A   1      41.032  19.647  26.042  1.00  0.00     0.251 C 
ATOM     29  H   UNL A   1      39.446  18.526  25.576  1.00  0.00     0.163 HD
ATOM     30  O   UNL A   1      41.835  18.728  25.919  1.00  0.00    -0.269 OA
BRANCH  28  31
ATOM     31  C   UNL A   1      41.468  20.944  26.591  1.00  0.00     0.039 A 
ATOM     32  C   UNL A   1      42.018  21.896  25.730  1.00  0.00     0.014 A 
ATOM     33  C   UNL A   1      41.376  21.204  27.962  1.00  0.00     0.014 A 
ATOM     34  C   UNL A   1      42.433  23.126  26.238  1.00  0.00     0.010 A 
ATOM     35  C   UNL A   1      41.707  22.460  28.453  1.00  0.00     0.010 A 
ATOM     36  C   UNL A   1      42.251  23.429  27.598  1.00  0.00    -0.014 A 
BRANCH  36  37
ATOM     37  C   UNL A   1      42.641  24.747  28.150  1.00  0.00     0.031 A 
ATOM     38  C   UNL A   1      41.607  25.825  28.326  1.00  0.00     0.074 A 
ATOM     39  C   UNL A   1      43.934  24.988  28.443  1.00  0.00     0.049 A 
ATOM     40  N   UNL A   1      41.764  27.061  28.727  1.00  0.00    -0.248 NA
ATOM     41  C   UNL A   1      40.216  25.477  27.989  1.00  0.00     0.031 C 
ATOM     42  C   UNL A   1      45.033  24.032  28.282  1.00  0.00     0.029 A 
ATOM     43  N   UNL A   1      44.544  26.114  28.931  1.00  0.00    -0.354 N 
ATOM     44  C   UNL A   1      40.499  27.634  28.687  1.00  0.00     0.074 A 
ATOM     45  C   UNL A   1      39.596  26.635  28.162  1.00  0.00     0.031 C 
ATOM     46  C   UNL A   1      46.177  24.604  28.691  1.00  0.00     0.029 A 
ATOM     47  C   UNL A   1      45.901  25.977  29.096  1.00  0.00     0.049 A 
ATOM     48  H   UNL A   1      44.056  26.942  29.145  1.00  0.00     0.167 HD
ATOM     49  C   UNL A   1      40.117  28.873  29.080  1.00  0.00     0.031 A 
ATOM     50  C   UNL A   1      46.822  26.867  29.514  1.00  0.00     0.031 A 
ATOM     51  C   UNL A   1      41.017  29.865  29.601  1.00  0.00     0.049 A 
ATOM     52  C   UNL A   1      46.374  28.250  29.898  1.00  0.00     0.074 A 
ATOM     53  C   UNL A   1      40.727  31.143  30.044  1.00  0.00     0.029 A 
ATOM     54  N   UNL A   1      42.383  29.687  29.751  1.00  0.00    -0.354 N 
ATOM     55  N   UNL A   1      45.165  28.758  29.904  1.00  0.00    -0.248 NA
ATOM     56  C   UNL A   1      47.419  29.181  30.347  1.00  0.00     0.031 C 
ATOM     57  C   UNL A   1      41.926  31.756  30.420  1.00  0.00     0.029 A 
ATOM     58  C   UNL A   1      42.952  30.837  30.269  1.00  0.00     0.049 A 
ATOM     59  H   UNL A   1      42.875  28.865  29.525  1.00  0.00     0.167 HD
ATOM     60  C   UNL A   1      45.300  30.052  30.390  1.00  0.00     0.074 A 
ATOM     61  C   UNL A   1      46.705  30.243  30.688  1.00  0.00     0.031 C 
ATOM     62  C   UNL A   1      44.351  31.001  30.571  1.00  0.00     0.031 A 
BRANCH  49  63
ATOM     63  C   UNL A   1      38.657  29.216  28.974  1.00  0.00    -0.014 A 
ATOM     64  C   UNL A   1      37.795  29.046  30.071  1.00  0.00     0.009 A 
ATOM     65  C   UNL A   1      38.146  29.766  27.789  1.00  0.00     0.009 A 
ATOM     66  C   UNL A   1      36.447  29.394  29.973  1.00  0.00     0.001 A 
ATOM     67  C   UNL A   1      36.803  30.142  27.704  1.00  0.00     0.001 A 
ATOM     68  C   UNL A   1      35.954  29.948  28.792  1.00  0.00     0.000 A 
ENDBRANCH  49  63
BRANCH  50  69
ATOM     69  C   UNL A   1      48.260  26.491  29.586  1.00  0.00    -0.014 A 
ATOM     70  C   UNL A   1      49.113  26.710  28.492  1.00  0.00     0.009 A 
ATOM     71  C   UNL A   1      48.776  25.867  30.731  1.00  0.00     0.009 A 
ATOM     72  C   UNL A   1      50.436  26.266  28.526  1.00  0.00     0.001 A 
ATOM     73  C   UNL A   1      50.112  25.457  30.777  1.00  0.00     0.001 A 
ATOM     74  C   UNL A   1      50.935  25.642  29.668  1.00  0.00     0.000 A 
ENDBRANCH  50  69
BRANCH  62  75
ATOM     75  C   UNL A   1      44.791  32.308  31.167  1.00  0.00    -0.014 A 
ATOM     76  C   UNL A   1      44.821  32.508  32.556  1.00  0.00     0.009 A 
ATOM     77  C   UNL A   1      45.216  33.345  30.321  1.00  0.00     0.009 A 
ATOM     78  C   UNL A   1      45.230  33.734  33.083  1.00  0.00     0.001 A 
ATOM     79  C   UNL A   1      45.659  34.557  30.852  1.00  0.00     0.001 A 
ATOM     80  C   UNL A   1      45.655  34.754  32.231  1.00  0.00     0.000 A 
ENDBRANCH  62  75
ENDBRANCH  36  37
ENDBRANCH  28  31
ENDBRANCH  26  27
ENDBRANCH  25  26
ENDBRANCH   1  25
TORSDOF 14
ENDMDL
