MODEL 1
REMARK VINA RESULT:     -11.3      0.000      0.000
REMARK SMILES COc1nc(-c2ccccc2)nc(C)c1CC(=O)NCCCNC(=O)c1ccc(-c2c3nc(c(-c4ccccc4)c4ccc([nH]4)c(-c4ccccc4)c4nc(c(-c5ccccc5)c5ccc2[nH]5)C=C4)C=C3)cc1
REMARK SMILES IDX 21 1 20 2 19 3 17 4 18 5 16 7 15 8 3 9 4 10 5 11 13 12 12 13
REMARK SMILES IDX 14 14 2 15 1 16 6 17 7 18 11 19 8 20 10 21 9 22 22 23 23 24
REMARK SMILES IDX 24 25 25 27 26 28 27 29 73 30 28 31 72 32 29 33 30 34 31 35
REMARK SMILES IDX 66 36 32 37 71 38 65 39 67 40 33 41 70 42 64 43 63 44 34 46
REMARK SMILES IDX 56 47 41 48 55 49 42 50 45 51 54 52 68 53 43 54 44 55 53 57
REMARK SMILES IDX 69 58 46 59 35 60 36 61 40 62 37 63 39 64 38 65 57 66 58 67
REMARK SMILES IDX 62 68 59 69 61 70 60 71 47 72 48 73 52 74 49 75 51 76 50 77
REMARK H PARENT 19 6 23 26 67 45 45 56
REMARK Flexibility Score: inf
ROOT
ATOM      1  C   UNL A   1      37.129  19.846  24.970  1.00  0.00     0.042 C 
ENDROOT
BRANCH   1   2
ATOM      2  C   UNL A   1      35.923  20.779  25.049  1.00  0.00     0.117 C 
BRANCH   2   3
ATOM      3  N   UNL A   1      34.730  20.122  25.542  1.00  0.00    -0.356 N 
ATOM      4  C   UNL A   1      33.427  20.238  25.166  1.00  0.00     0.224 C 
ATOM      5  O   UNL A   1      32.632  19.442  25.677  1.00  0.00    -0.275 OA
ATOM      6  H   UNL A   1      34.888  19.484  26.275  1.00  0.00     0.163 HD
BRANCH   4   7
ATOM      7  C   UNL A   1      32.958  21.243  24.121  1.00  0.00     0.143 C 
BRANCH   7   8
ATOM      8  C   UNL A   1      32.862  22.667  24.595  1.00  0.00     0.045 A 
ATOM      9  C   UNL A   1      31.918  23.056  25.543  1.00  0.00     0.220 A 
ATOM     10  N   UNL A   1      31.850  24.276  26.110  1.00  0.00    -0.193 NA
ATOM     11  C   UNL A   1      32.728  25.175  25.645  1.00  0.00     0.163 A 
ATOM     12  C   UNL A   1      33.673  23.697  24.140  1.00  0.00     0.049 A 
ATOM     13  N   UNL A   1      33.618  24.936  24.666  1.00  0.00    -0.233 NA
ATOM     14  C   UNL A   1      34.651  23.591  23.007  1.00  0.00     0.067 C 
BRANCH   9  15
ATOM     15  O   UNL A   1      30.787  22.288  25.700  1.00  0.00    -0.481 OA
ATOM     16  C   UNL A   1      29.936  22.735  26.745  1.00  0.00     0.280 C 
ENDBRANCH   9  15
BRANCH  11  17
ATOM     17  C   UNL A   1      32.739  26.537  26.192  1.00  0.00     0.019 A 
ATOM     18  C   UNL A   1      31.625  27.029  26.899  1.00  0.00     0.012 A 
ATOM     19  C   UNL A   1      33.811  27.416  25.968  1.00  0.00     0.012 A 
ATOM     20  C   UNL A   1      31.577  28.347  27.360  1.00  0.00     0.001 A 
ATOM     21  C   UNL A   1      33.760  28.742  26.414  1.00  0.00     0.001 A 
ATOM     22  C   UNL A   1      32.643  29.206  27.108  1.00  0.00     0.000 A 
ENDBRANCH  11  17
ENDBRANCH   7   8
ENDBRANCH   4   7
ENDBRANCH   2   3
ENDBRANCH   1   2
BRANCH   1  23
ATOM     23  C   UNL A   1      38.451  20.488  25.390  1.00  0.00     0.118 C 
BRANCH  23  24
ATOM     24  N   UNL A   1      39.520  19.511  25.570  1.00  0.00    -0.352 N 
ATOM     25  C   UNL A   1      40.811  19.668  25.997  1.00  0.00     0.251 C 
ATOM     26  H   UNL A   1      39.272  18.585  25.349  1.00  0.00     0.163 HD
ATOM     27  O   UNL A   1      41.597  18.722  25.885  1.00  0.00    -0.269 OA
BRANCH  25  28
ATOM     28  C   UNL A   1      41.286  20.940  26.578  1.00  0.00     0.039 A 
ATOM     29  C   UNL A   1      41.893  21.880  25.737  1.00  0.00     0.014 A 
ATOM     30  C   UNL A   1      41.190  21.195  27.950  1.00  0.00     0.014 A 
ATOM     31  C   UNL A   1      42.348  23.093  26.259  1.00  0.00     0.010 A 
ATOM     32  C   UNL A   1      41.580  22.434  28.455  1.00  0.00     0.010 A 
ATOM     33  C   UNL A   1      42.164  23.395  27.617  1.00  0.00    -0.014 A 
BRANCH  33  34
ATOM     34  C   UNL A   1      42.570  24.711  28.174  1.00  0.00     0.031 A 
ATOM     35  C   UNL A   1      41.551  25.797  28.384  1.00  0.00     0.074 A 
ATOM     36  C   UNL A   1      43.870  24.948  28.434  1.00  0.00     0.049 A 
ATOM     37  N   UNL A   1      41.729  27.025  28.803  1.00  0.00    -0.248 NA
ATOM     38  C   UNL A   1      40.153  25.469  28.063  1.00  0.00     0.031 C 
ATOM     39  C   UNL A   1      44.961  23.991  28.244  1.00  0.00     0.029 A 
ATOM     40  N   UNL A   1      44.494  26.073  28.912  1.00  0.00    -0.354 N 
ATOM     41  C   UNL A   1      40.473  27.619  28.779  1.00  0.00     0.074 A 
ATOM     42  C   UNL A   1      39.550  26.632  28.262  1.00  0.00     0.031 C 
ATOM     43  C   UNL A   1      46.115  24.558  28.628  1.00  0.00     0.029 A 
ATOM     44  C   UNL A   1      45.854  25.930  29.051  1.00  0.00     0.049 A 
ATOM     45  H   UNL A   1      44.014  26.903  29.134  1.00  0.00     0.167 HD
ATOM     46  C   UNL A   1      40.115  28.867  29.167  1.00  0.00     0.031 A 
ATOM     47  C   UNL A   1      46.787  26.807  29.466  1.00  0.00     0.031 A 
ATOM     48  C   UNL A   1      41.030  29.847  29.689  1.00  0.00     0.049 A 
ATOM     49  C   UNL A   1      46.367  28.191  29.873  1.00  0.00     0.074 A 
ATOM     50  C   UNL A   1      40.756  31.122  30.155  1.00  0.00     0.029 A 
ATOM     51  N   UNL A   1      42.399  29.662  29.812  1.00  0.00    -0.354 N 
ATOM     52  N   UNL A   1      45.167  28.717  29.897  1.00  0.00    -0.248 NA
ATOM     53  C   UNL A   1      47.433  29.099  30.318  1.00  0.00     0.031 C 
ATOM     54  C   UNL A   1      41.965  31.725  30.516  1.00  0.00     0.029 A 
ATOM     55  C   UNL A   1      42.985  30.807  30.326  1.00  0.00     0.049 A 
ATOM     56  H   UNL A   1      42.882  28.840  29.570  1.00  0.00     0.167 HD
ATOM     57  C   UNL A   1      45.328  30.007  30.386  1.00  0.00     0.074 A 
ATOM     58  C   UNL A   1      46.741  30.177  30.661  1.00  0.00     0.031 C 
ATOM     59  C   UNL A   1      44.391  30.963  30.592  1.00  0.00     0.031 A 
BRANCH  46  60
ATOM     60  C   UNL A   1      38.665  29.243  29.035  1.00  0.00    -0.014 A 
ATOM     61  C   UNL A   1      37.780  29.113  30.117  1.00  0.00     0.009 A 
ATOM     62  C   UNL A   1      38.186  29.768  27.825  1.00  0.00     0.009 A 
ATOM     63  C   UNL A   1      36.436  29.466  29.978  1.00  0.00     0.001 A 
ATOM     64  C   UNL A   1      36.848  30.146  27.697  1.00  0.00     0.001 A 
ATOM     65  C   UNL A   1      35.972  29.986  28.770  1.00  0.00     0.000 A 
ENDBRANCH  46  60
BRANCH  47  66
ATOM     66  C   UNL A   1      48.213  26.397  29.537  1.00  0.00    -0.014 A 
ATOM     67  C   UNL A   1      48.721  25.798  30.700  1.00  0.00     0.009 A 
ATOM     68  C   UNL A   1      49.075  26.605  28.449  1.00  0.00     0.009 A 
ATOM     69  C   UNL A   1      50.069  25.440  30.782  1.00  0.00     0.001 A 
ATOM     70  C   UNL A   1      50.415  26.219  28.522  1.00  0.00     0.001 A 
ATOM     71  C   UNL A   1      50.913  25.647  29.692  1.00  0.00     0.000 A 
ENDBRANCH  47  66
BRANCH  59  72
ATOM     72  C   UNL A   1      44.858  32.267  31.174  1.00  0.00    -0.014 A 
ATOM     73  C   UNL A   1      44.923  32.465  32.562  1.00  0.00     0.009 A 
ATOM     74  C   UNL A   1      45.274  33.299  30.318  1.00  0.00     0.009 A 
ATOM     75  C   UNL A   1      45.361  33.686  33.080  1.00  0.00     0.001 A 
ATOM     76  C   UNL A   1      45.737  34.507  30.839  1.00  0.00     0.001 A 
ATOM     77  C   UNL A   1      45.772  34.704  32.219  1.00  0.00     0.000 A 
ENDBRANCH  59  72
ENDBRANCH  33  34
ENDBRANCH  25  28
ENDBRANCH  23  24
ENDBRANCH   1  23
TORSDOF 13
ENDMDL
MODEL 2
REMARK VINA RESULT:     -11.2      4.369      9.821
REMARK SMILES COc1nc(-c2ccccc2)nc(C)c1CC(=O)NCCCNC(=O)c1ccc(-c2c3nc(c(-c4ccccc4)c4ccc([nH]4)c(-c4ccccc4)c4nc(c(-c5ccccc5)c5ccc2[nH]5)C=C4)C=C3)cc1
REMARK SMILES IDX 21 1 20 2 19 3 17 4 18 5 16 7 15 8 3 9 4 10 5 11 13 12 12 13
REMARK SMILES IDX 14 14 2 15 1 16 6 17 7 18 11 19 8 20 10 21 9 22 22 23 23 24
REMARK SMILES IDX 24 25 25 27 26 28 27 29 73 30 28 31 72 32 29 33 30 34 31 35
REMARK SMILES IDX 66 36 32 37 71 38 65 39 67 40 33 41 70 42 64 43 63 44 34 46
REMARK SMILES IDX 56 47 41 48 55 49 42 50 45 51 54 52 68 53 43 54 44 55 53 57
REMARK SMILES IDX 69 58 46 59 35 60 36 61 40 62 37 63 39 64 38 65 57 66 58 67
REMARK SMILES IDX 62 68 59 69 61 70 60 71 47 72 48 73 52 74 49 75 51 76 50 77
REMARK H PARENT 19 6 23 26 67 45 45 56
REMARK Flexibility Score: inf
ROOT
ATOM      1  C   UNL A   1      34.313  34.310  28.943  1.00  0.00     0.042 C 
ENDROOT
BRANCH   1   2
ATOM      2  C   UNL A   1      34.162  35.061  30.263  1.00  0.00     0.117 C 
BRANCH   2   3
ATOM      3  N   UNL A   1      33.701  34.217  31.346  1.00  0.00    -0.356 N 
ATOM      4  C   UNL A   1      34.229  33.976  32.577  1.00  0.00     0.224 C 
ATOM      5  O   UNL A   1      33.538  33.308  33.353  1.00  0.00    -0.275 OA
ATOM      6  H   UNL A   1      32.864  33.733  31.159  1.00  0.00     0.163 HD
BRANCH   4   7
ATOM      7  C   UNL A   1      35.569  34.546  33.024  1.00  0.00     0.143 C 
BRANCH   7   8
ATOM      8  C   UNL A   1      36.684  33.545  33.154  1.00  0.00     0.045 A 
ATOM      9  C   UNL A   1      36.815  32.745  34.288  1.00  0.00     0.220 A 
ATOM     10  N   UNL A   1      37.704  31.743  34.427  1.00  0.00    -0.193 NA
ATOM     11  C   UNL A   1      38.555  31.583  33.405  1.00  0.00     0.163 A 
ATOM     12  C   UNL A   1      37.660  33.335  32.190  1.00  0.00     0.049 A 
ATOM     13  N   UNL A   1      38.581  32.357  32.306  1.00  0.00    -0.233 NA
ATOM     14  C   UNL A   1      37.852  34.169  30.958  1.00  0.00     0.067 C 
BRANCH   9  15
ATOM     15  O   UNL A   1      36.246  33.174  35.465  1.00  0.00    -0.481 OA
ATOM     16  C   UNL A   1      37.192  33.474  36.479  1.00  0.00     0.280 C 
ENDBRANCH   9  15
BRANCH  11  17
ATOM     17  C   UNL A   1      39.567  30.521  33.455  1.00  0.00     0.019 A 
ATOM     18  C   UNL A   1      40.868  30.799  33.916  1.00  0.00     0.012 A 
ATOM     19  C   UNL A   1      39.305  29.226  32.979  1.00  0.00     0.012 A 
ATOM     20  C   UNL A   1      41.872  29.827  33.899  1.00  0.00     0.001 A 
ATOM     21  C   UNL A   1      40.313  28.254  32.944  1.00  0.00     0.001 A 
ATOM     22  C   UNL A   1      41.594  28.556  33.403  1.00  0.00     0.000 A 
ENDBRANCH  11  17
ENDBRANCH   7   8
ENDBRANCH   4   7
ENDBRANCH   2   3
ENDBRANCH   1   2
BRANCH   1  23
ATOM     23  C   UNL A   1      35.025  32.963  29.061  1.00  0.00     0.118 C 
BRANCH  23  24
ATOM     24  N   UNL A   1      34.228  31.856  28.543  1.00  0.00    -0.352 N 
ATOM     25  C   UNL A   1      34.598  30.605  28.131  1.00  0.00     0.251 C 
ATOM     26  H   UNL A   1      33.263  32.039  28.480  1.00  0.00     0.163 HD
ATOM     27  O   UNL A   1      33.771  29.898  27.546  1.00  0.00    -0.269 OA
BRANCH  25  28
ATOM     28  C   UNL A   1      35.961  30.084  28.362  1.00  0.00     0.039 A 
ATOM     29  C   UNL A   1      36.890  30.144  27.317  1.00  0.00     0.014 A 
ATOM     30  C   UNL A   1      36.318  29.488  29.576  1.00  0.00     0.014 A 
ATOM     31  C   UNL A   1      38.188  29.663  27.509  1.00  0.00     0.010 A 
ATOM     32  C   UNL A   1      37.631  29.074  29.788  1.00  0.00     0.010 A 
ATOM     33  C   UNL A   1      38.579  29.155  28.757  1.00  0.00    -0.014 A 
BRANCH  33  34
ATOM     34  C   UNL A   1      39.976  28.712  29.003  1.00  0.00     0.031 A 
ATOM     35  C   UNL A   1      40.978  29.651  29.616  1.00  0.00     0.074 A 
ATOM     36  C   UNL A   1      40.357  27.479  28.619  1.00  0.00     0.049 A 
ATOM     37  N   UNL A   1      42.252  29.461  29.850  1.00  0.00    -0.248 NA
ATOM     38  C   UNL A   1      40.491  30.987  29.997  1.00  0.00     0.031 C 
ATOM     39  C   UNL A   1      39.492  26.483  27.984  1.00  0.00     0.029 A 
ATOM     40  N   UNL A   1      41.577  26.855  28.701  1.00  0.00    -0.354 N 
ATOM     41  C   UNL A   1      42.721  30.653  30.387  1.00  0.00     0.074 A 
ATOM     42  C   UNL A   1      41.606  31.576  30.402  1.00  0.00     0.031 C 
ATOM     43  C   UNL A   1      40.199  25.364  27.762  1.00  0.00     0.029 A 
ATOM     44  C   UNL A   1      41.576  25.576  28.198  1.00  0.00     0.049 A 
ATOM     45  H   UNL A   1      42.376  27.283  29.085  1.00  0.00     0.167 HD
ATOM     46  C   UNL A   1      43.962  30.950  30.842  1.00  0.00     0.031 A 
ATOM     47  C   UNL A   1      42.572  24.677  28.093  1.00  0.00     0.031 A 
ATOM     48  C   UNL A   1      45.070  30.032  30.835  1.00  0.00     0.049 A 
ATOM     49  C   UNL A   1      43.944  25.038  28.587  1.00  0.00     0.074 A 
ATOM     50  C   UNL A   1      46.353  30.224  31.319  1.00  0.00     0.029 A 
ATOM     51  N   UNL A   1      45.026  28.748  30.316  1.00  0.00    -0.354 N 
ATOM     52  N   UNL A   1      44.355  26.151  29.144  1.00  0.00    -0.248 NA
ATOM     53  C   UNL A   1      44.987  24.012  28.445  1.00  0.00     0.031 C 
ATOM     54  C   UNL A   1      47.099  29.072  31.049  1.00  0.00     0.029 A 
ATOM     55  C   UNL A   1      46.265  28.143  30.447  1.00  0.00     0.049 A 
ATOM     56  H   UNL A   1      44.232  28.328  29.912  1.00  0.00     0.167 HD
ATOM     57  C   UNL A   1      45.697  25.950  29.445  1.00  0.00     0.074 A 
ATOM     58  C   UNL A   1      46.024  24.603  29.023  1.00  0.00     0.031 C 
ATOM     59  C   UNL A   1      46.577  26.803  30.021  1.00  0.00     0.031 A 
BRANCH  46  60
ATOM     60  C   UNL A   1      44.187  32.336  31.383  1.00  0.00    -0.014 A 
ATOM     61  C   UNL A   1      44.587  33.388  30.544  1.00  0.00     0.009 A 
ATOM     62  C   UNL A   1      43.960  32.600  32.743  1.00  0.00     0.009 A 
ATOM     63  C   UNL A   1      44.792  34.668  31.064  1.00  0.00     0.001 A 
ATOM     64  C   UNL A   1      44.138  33.888  33.254  1.00  0.00     0.001 A 
ATOM     65  C   UNL A   1      44.563  34.918  32.416  1.00  0.00     0.000 A 
ENDBRANCH  46  60
BRANCH  47  66
ATOM     66  C   UNL A   1      42.305  23.337  27.510  1.00  0.00    -0.014 A 
ATOM     67  C   UNL A   1      41.718  22.329  28.291  1.00  0.00     0.009 A 
ATOM     68  C   UNL A   1      42.639  23.055  26.176  1.00  0.00     0.009 A 
ATOM     69  C   UNL A   1      41.495  21.058  27.755  1.00  0.00     0.001 A 
ATOM     70  C   UNL A   1      42.388  21.793  25.634  1.00  0.00     0.001 A 
ATOM     71  C   UNL A   1      41.826  20.793  26.427  1.00  0.00     0.000 A 
ENDBRANCH  47  66
BRANCH  59  72
ATOM     72  C   UNL A   1      47.970  26.293  30.261  1.00  0.00    -0.014 A 
ATOM     73  C   UNL A   1      48.342  25.746  31.498  1.00  0.00     0.009 A 
ATOM     74  C   UNL A   1      48.911  26.330  29.220  1.00  0.00     0.009 A 
ATOM     75  C   UNL A   1      49.643  25.277  31.698  1.00  0.00     0.001 A 
ATOM     76  C   UNL A   1      50.201  25.835  29.415  1.00  0.00     0.001 A 
ATOM     77  C   UNL A   1      50.569  25.318  30.656  1.00  0.00     0.000 A 
ENDBRANCH  59  72
ENDBRANCH  33  34
ENDBRANCH  25  28
ENDBRANCH  23  24
ENDBRANCH   1  23
TORSDOF 13
ENDMDL
MODEL 3
REMARK VINA RESULT:     -11.2      1.981      7.761
REMARK SMILES COc1nc(-c2ccccc2)nc(C)c1CC(=O)NCCCNC(=O)c1ccc(-c2c3nc(c(-c4ccccc4)c4ccc([nH]4)c(-c4ccccc4)c4nc(c(-c5ccccc5)c5ccc2[nH]5)C=C4)C=C3)cc1
REMARK SMILES IDX 21 1 20 2 19 3 17 4 18 5 16 7 15 8 3 9 4 10 5 11 13 12 12 13
REMARK SMILES IDX 14 14 2 15 1 16 6 17 7 18 11 19 8 20 10 21 9 22 22 23 23 24
REMARK SMILES IDX 24 25 25 27 26 28 27 29 73 30 28 31 72 32 29 33 30 34 31 35
REMARK SMILES IDX 66 36 32 37 71 38 65 39 67 40 33 41 70 42 64 43 63 44 34 46
REMARK SMILES IDX 56 47 41 48 55 49 42 50 45 51 54 52 68 53 43 54 44 55 53 57
REMARK SMILES IDX 69 58 46 59 35 60 36 61 40 62 37 63 39 64 38 65 57 66 58 67
REMARK SMILES IDX 62 68 59 69 61 70 60 71 47 72 48 73 52 74 49 75 51 76 50 77
REMARK H PARENT 19 6 23 26 67 45 45 56
REMARK Flexibility Score: inf
ROOT
ATOM      1  C   UNL A   1      32.255  28.199  27.394  1.00  0.00     0.042 C 
ENDROOT
BRANCH   1   2
ATOM      2  C   UNL A   1      31.886  27.211  26.291  1.00  0.00     0.117 C 
BRANCH   2   3
ATOM      3  N   UNL A   1      31.358  25.962  26.801  1.00  0.00    -0.356 N 
ATOM      4  C   UNL A   1      31.707  24.673  26.540  1.00  0.00     0.224 C 
ATOM      5  O   UNL A   1      31.168  23.804  27.233  1.00  0.00    -0.275 OA
ATOM      6  H   UNL A   1      30.622  26.063  27.447  1.00  0.00     0.163 HD
BRANCH   4   7
ATOM      7  C   UNL A   1      32.752  24.298  25.497  1.00  0.00     0.143 C 
BRANCH   7   8
ATOM      8  C   UNL A   1      32.956  22.822  25.290  1.00  0.00     0.045 A 
ATOM      9  C   UNL A   1      33.796  22.081  26.118  1.00  0.00     0.220 A 
ATOM     10  N   UNL A   1      33.933  20.741  26.078  1.00  0.00    -0.193 NA
ATOM     11  C   UNL A   1      33.247  20.122  25.108  1.00  0.00     0.163 A 
ATOM     12  C   UNL A   1      32.351  22.086  24.281  1.00  0.00     0.049 A 
ATOM     13  N   UNL A   1      32.484  20.748  24.195  1.00  0.00    -0.233 NA
ATOM     14  C   UNL A   1      31.538  22.661  23.158  1.00  0.00     0.067 C 
BRANCH   9  15
ATOM     15  O   UNL A   1      34.789  22.738  26.807  1.00  0.00    -0.481 OA
ATOM     16  C   UNL A   1      35.988  22.898  26.063  1.00  0.00     0.280 C 
ENDBRANCH   9  15
BRANCH  11  17
ATOM     17  C   UNL A   1      33.328  18.662  24.972  1.00  0.00     0.019 A 
ATOM     18  C   UNL A   1      34.078  18.084  23.930  1.00  0.00     0.012 A 
ATOM     19  C   UNL A   1      32.608  17.800  25.815  1.00  0.00     0.012 A 
ATOM     20  C   UNL A   1      34.106  16.701  23.731  1.00  0.00     0.001 A 
ATOM     21  C   UNL A   1      32.620  16.415  25.608  1.00  0.00     0.001 A 
ATOM     22  C   UNL A   1      33.368  15.868  24.566  1.00  0.00     0.000 A 
ENDBRANCH  11  17
ENDBRANCH   7   8
ENDBRANCH   4   7
ENDBRANCH   2   3
ENDBRANCH   1   2
BRANCH   1  23
ATOM     23  C   UNL A   1      33.588  28.915  27.180  1.00  0.00     0.118 C 
BRANCH  23  24
ATOM     24  N   UNL A   1      33.604  30.260  27.745  1.00  0.00    -0.352 N 
ATOM     25  C   UNL A   1      34.556  30.909  28.483  1.00  0.00     0.251 C 
ATOM     26  H   UNL A   1      32.794  30.791  27.565  1.00  0.00     0.163 HD
ATOM     27  O   UNL A   1      34.269  31.983  29.020  1.00  0.00    -0.269 OA
BRANCH  25  28
ATOM     28  C   UNL A   1      35.913  30.352  28.657  1.00  0.00     0.039 A 
ATOM     29  C   UNL A   1      36.804  30.401  27.579  1.00  0.00     0.014 A 
ATOM     30  C   UNL A   1      36.300  29.733  29.850  1.00  0.00     0.014 A 
ATOM     31  C   UNL A   1      38.095  29.885  27.717  1.00  0.00     0.010 A 
ATOM     32  C   UNL A   1      37.609  29.284  30.008  1.00  0.00     0.010 A 
ATOM     33  C   UNL A   1      38.520  29.354  28.944  1.00  0.00    -0.014 A 
BRANCH  33  34
ATOM     34  C   UNL A   1      39.913  28.872  29.132  1.00  0.00     0.031 A 
ATOM     35  C   UNL A   1      40.967  29.788  29.691  1.00  0.00     0.074 A 
ATOM     36  C   UNL A   1      40.242  27.626  28.743  1.00  0.00     0.049 A 
ATOM     37  N   UNL A   1      42.245  29.563  29.871  1.00  0.00    -0.248 NA
ATOM     38  C   UNL A   1      40.536  31.141  30.080  1.00  0.00     0.031 C 
ATOM     39  C   UNL A   1      39.322  26.649  28.157  1.00  0.00     0.029 A 
ATOM     40  N   UNL A   1      41.447  26.968  28.778  1.00  0.00    -0.354 N 
ATOM     41  C   UNL A   1      42.771  30.747  30.375  1.00  0.00     0.074 A 
ATOM     42  C   UNL A   1      41.684  31.700  30.431  1.00  0.00     0.031 C 
ATOM     43  C   UNL A   1      39.987  25.509  27.915  1.00  0.00     0.029 A 
ATOM     44  C   UNL A   1      41.387  25.686  28.288  1.00  0.00     0.049 A 
ATOM     45  H   UNL A   1      42.273  27.376  29.122  1.00  0.00     0.167 HD
ATOM     46  C   UNL A   1      44.038  31.012  30.772  1.00  0.00     0.031 A 
ATOM     47  C   UNL A   1      42.352  24.758  28.148  1.00  0.00     0.031 A 
ATOM     48  C   UNL A   1      45.118  30.062  30.726  1.00  0.00     0.049 A 
ATOM     49  C   UNL A   1      43.755  25.084  28.578  1.00  0.00     0.074 A 
ATOM     50  C   UNL A   1      46.426  30.222  31.151  1.00  0.00     0.029 A 
ATOM     51  N   UNL A   1      45.015  28.775  30.221  1.00  0.00    -0.354 N 
ATOM     52  N   UNL A   1      44.221  26.189  29.105  1.00  0.00    -0.248 NA
ATOM     53  C   UNL A   1      44.761  24.027  28.400  1.00  0.00     0.031 C 
ATOM     54  C   UNL A   1      47.127  29.046  30.859  1.00  0.00     0.029 A 
ATOM     55  C   UNL A   1      46.242  28.137  30.304  1.00  0.00     0.049 A 
ATOM     56  H   UNL A   1      44.193  28.375  29.857  1.00  0.00     0.167 HD
ATOM     57  C   UNL A   1      45.568  25.953  29.349  1.00  0.00     0.074 A 
ATOM     58  C   UNL A   1      45.838  24.593  28.926  1.00  0.00     0.031 C 
ATOM     59  C   UNL A   1      46.496  26.785  29.878  1.00  0.00     0.031 A 
BRANCH  46  60
ATOM     60  C   UNL A   1      44.325  32.395  31.290  1.00  0.00    -0.014 A 
ATOM     61  C   UNL A   1      44.203  32.699  32.655  1.00  0.00     0.009 A 
ATOM     62  C   UNL A   1      44.759  33.396  30.408  1.00  0.00     0.009 A 
ATOM     63  C   UNL A   1      44.472  33.988  33.119  1.00  0.00     0.001 A 
ATOM     64  C   UNL A   1      45.055  34.676  30.879  1.00  0.00     0.001 A 
ATOM     65  C   UNL A   1      44.902  34.974  32.233  1.00  0.00     0.000 A 
ENDBRANCH  46  60
BRANCH  47  66
ATOM     66  C   UNL A   1      42.023  23.421  27.590  1.00  0.00    -0.014 A 
ATOM     67  C   UNL A   1      42.166  23.171  26.217  1.00  0.00     0.009 A 
ATOM     68  C   UNL A   1      41.560  22.390  28.423  1.00  0.00     0.009 A 
ATOM     69  C   UNL A   1      41.827  21.925  25.684  1.00  0.00     0.001 A 
ATOM     70  C   UNL A   1      41.250  21.136  27.893  1.00  0.00     0.001 A 
ATOM     71  C   UNL A   1      41.374  20.908  26.523  1.00  0.00     0.000 A 
ENDBRANCH  47  66
BRANCH  59  72
ATOM     72  C   UNL A   1      47.884  26.238  30.061  1.00  0.00    -0.014 A 
ATOM     73  C   UNL A   1      48.813  26.238  29.009  1.00  0.00     0.009 A 
ATOM     74  C   UNL A   1      48.276  25.748  31.316  1.00  0.00     0.009 A 
ATOM     75  C   UNL A   1      50.097  25.724  29.203  1.00  0.00     0.001 A 
ATOM     76  C   UNL A   1      49.569  25.262  31.514  1.00  0.00     0.001 A 
ATOM     77  C   UNL A   1      50.475  25.242  30.455  1.00  0.00     0.000 A 
ENDBRANCH  59  72
ENDBRANCH  33  34
ENDBRANCH  25  28
ENDBRANCH  23  24
ENDBRANCH   1  23
TORSDOF 13
ENDMDL
