MODEL 1
REMARK VINA RESULT:     -11.0      0.000      0.000
REMARK SMILES CC[C@@H]1[C@@H](C(=O)NCCCNC(=O)c2ccc(-c3c4nc(c(-c5ccccc5)c5ccc([nH]5)c(-c5ccccc5)c5nc(c(-c6ccccc6)c6ccc3[nH]6)C=C5)C=C4)cc2)CCCN1C(=O)OCc1ccccc1
REMARK SMILES IDX 8 1 7 2 5 3 6 4 4 6 3 7 65 8 62 9 64 10 63 11 2 12 1 13
REMARK SMILES IDX 66 14 67 15 68 16 69 17 70 18 71 19 75 20 72 21 74 22 73 23
REMARK SMILES IDX 9 24 10 25 11 26 12 27 13 29 14 30 15 31 61 32 16 33 60 34
REMARK SMILES IDX 17 35 18 36 19 37 54 38 20 39 59 40 53 41 55 42 21 43 58 44
REMARK SMILES IDX 52 45 51 46 22 48 44 49 29 50 43 51 30 52 33 53 42 54 56 55
REMARK SMILES IDX 31 56 32 57 41 59 57 60 34 61 23 62 24 63 28 64 25 65 27 66
REMARK SMILES IDX 26 67 45 68 46 69 50 70 47 71 49 72 48 73 35 74 36 75 40 76
REMARK SMILES IDX 37 77 39 78 38 79
REMARK H PARENT 7 5 11 28 55 47 33 58
REMARK Flexibility Score: inf
ROOT
ATOM      1  C   UNL A   1      37.266  20.895  24.373  1.00  0.00     0.117 C 
ENDROOT
BRANCH   1   2
ATOM      2  N   UNL A   1      37.427  22.119  25.140  1.00  0.00    -0.356 N 
ATOM      3  C   UNL A   1      36.521  22.943  25.730  1.00  0.00     0.225 C 
ATOM      4  O   UNL A   1      36.938  24.022  26.157  1.00  0.00    -0.275 OA
ATOM      5  H   UNL A   1      38.362  22.402  25.255  1.00  0.00     0.163 HD
BRANCH   3   6
ATOM      6  C   UNL A   1      35.054  22.561  25.873  1.00  0.00     0.101 C 
ATOM      7  C   UNL A   1      34.141  23.530  25.091  1.00  0.00     0.100 C 
ATOM      8  N   UNL A   1      32.729  23.325  25.452  1.00  0.00    -0.304 N 
ATOM      9  C   UNL A   1      34.682  22.385  27.360  1.00  0.00     0.017 C 
ATOM     10  C   UNL A   1      32.438  23.439  26.878  1.00  0.00     0.123 C 
ATOM     11  C   UNL A   1      33.176  22.321  27.611  1.00  0.00     0.023 C 
BRANCH   7  12
ATOM     12  C   UNL A   1      34.474  23.705  23.586  1.00  0.00     0.022 C 
ATOM     13  C   UNL A   1      34.035  25.006  22.927  1.00  0.00     0.006 C 
ENDBRANCH   7  12
BRANCH   8  14
ATOM     14  C   UNL A   1      31.769  22.875  24.571  1.00  0.00     0.410 C 
ATOM     15  O   UNL A   1      30.701  23.434  24.362  1.00  0.00    -0.224 OA
BRANCH  14  16
ATOM     16  O   UNL A   1      32.109  21.681  24.018  1.00  0.00    -0.445 OA
BRANCH  16  17
ATOM     17  C   UNL A   1      32.038  20.550  24.898  1.00  0.00     0.270 C 
BRANCH  17  18
ATOM     18  C   UNL A   1      32.745  19.341  24.321  1.00  0.00    -0.011 A 
ATOM     19  C   UNL A   1      33.969  18.911  24.853  1.00  0.00     0.007 A 
ATOM     20  C   UNL A   1      32.221  18.654  23.215  1.00  0.00     0.007 A 
ATOM     21  C   UNL A   1      34.648  17.827  24.290  1.00  0.00     0.000 A 
ATOM     22  C   UNL A   1      32.894  17.563  22.660  1.00  0.00     0.000 A 
ATOM     23  C   UNL A   1      34.110  17.153  23.196  1.00  0.00     0.000 A 
ENDBRANCH  17  18
ENDBRANCH  16  17
ENDBRANCH  14  16
ENDBRANCH   8  14
ENDBRANCH   3   6
ENDBRANCH   1   2
BRANCH   1  24
ATOM     24  C   UNL A   1      38.056  19.749  24.983  1.00  0.00     0.042 C 
BRANCH  24  25
ATOM     25  C   UNL A   1      39.177  20.215  25.894  1.00  0.00     0.118 C 
BRANCH  25  26
ATOM     26  N   UNL A   1      40.311  19.301  25.890  1.00  0.00    -0.352 N 
ATOM     27  C   UNL A   1      41.645  19.562  26.082  1.00  0.00     0.251 C 
ATOM     28  H   UNL A   1      40.088  18.357  25.722  1.00  0.00     0.163 HD
ATOM     29  O   UNL A   1      42.482  18.703  25.825  1.00  0.00    -0.269 OA
BRANCH  27  30
ATOM     30  C   UNL A   1      42.068  20.887  26.577  1.00  0.00     0.039 A 
ATOM     31  C   UNL A   1      42.473  21.858  25.659  1.00  0.00     0.014 A 
ATOM     32  C   UNL A   1      42.054  21.174  27.944  1.00  0.00     0.014 A 
ATOM     33  C   UNL A   1      42.796  23.138  26.110  1.00  0.00     0.010 A 
ATOM     34  C   UNL A   1      42.269  22.475  28.378  1.00  0.00     0.010 A 
ATOM     35  C   UNL A   1      42.654  23.469  27.467  1.00  0.00    -0.014 A 
BRANCH  35  36
ATOM     36  C   UNL A   1      42.912  24.843  27.962  1.00  0.00     0.031 A 
ATOM     37  C   UNL A   1      44.302  25.249  28.368  1.00  0.00     0.074 A 
ATOM     38  C   UNL A   1      41.884  25.700  28.117  1.00  0.00     0.049 A 
ATOM     39  N   UNL A   1      44.714  26.379  28.885  1.00  0.00    -0.248 NA
ATOM     40  C   UNL A   1      45.365  24.245  28.197  1.00  0.00     0.031 C 
ATOM     41  C   UNL A   1      40.482  25.410  27.804  1.00  0.00     0.029 A 
ATOM     42  N   UNL A   1      41.860  26.990  28.585  1.00  0.00    -0.354 N 
ATOM     43  C   UNL A   1      46.073  26.211  29.121  1.00  0.00     0.074 A 
ATOM     44  C   UNL A   1      46.405  24.855  28.744  1.00  0.00     0.031 C 
ATOM     45  C   UNL A   1      39.741  26.500  28.060  1.00  0.00     0.029 A 
ATOM     46  C   UNL A   1      40.604  27.545  28.602  1.00  0.00     0.049 A 
ATOM     47  H   UNL A   1      42.666  27.470  28.882  1.00  0.00     0.167 HD
ATOM     48  C   UNL A   1      46.969  27.111  29.590  1.00  0.00     0.031 A 
ATOM     49  C   UNL A   1      40.189  28.758  29.016  1.00  0.00     0.031 A 
ATOM     50  C   UNL A   1      46.637  28.460  29.958  1.00  0.00     0.049 A 
ATOM     51  C   UNL A   1      41.201  29.734  29.548  1.00  0.00     0.074 A 
ATOM     52  C   UNL A   1      47.482  29.470  30.383  1.00  0.00     0.029 A 
ATOM     53  N   UNL A   1      45.355  28.988  29.951  1.00  0.00    -0.354 N 
ATOM     54  N   UNL A   1      42.495  29.587  29.692  1.00  0.00    -0.248 NA
ATOM     55  C   UNL A   1      40.693  31.049  29.964  1.00  0.00     0.031 C 
ATOM     56  C   UNL A   1      46.703  30.587  30.699  1.00  0.00     0.029 A 
ATOM     57  C   UNL A   1      45.381  30.298  30.398  1.00  0.00     0.049 A 
ATOM     58  H   UNL A   1      44.545  28.503  29.670  1.00  0.00     0.167 HD
ATOM     59  C   UNL A   1      42.962  30.798  30.186  1.00  0.00     0.074 A 
ATOM     60  C   UNL A   1      41.814  31.673  30.301  1.00  0.00     0.031 C 
ATOM     61  C   UNL A   1      44.229  31.155  30.511  1.00  0.00     0.031 A 
BRANCH  48  62
ATOM     62  C   UNL A   1      48.393  26.652  29.750  1.00  0.00    -0.014 A 
ATOM     63  C   UNL A   1      48.842  26.051  30.938  1.00  0.00     0.009 A 
ATOM     64  C   UNL A   1      49.296  26.799  28.684  1.00  0.00     0.009 A 
ATOM     65  C   UNL A   1      50.173  25.649  31.070  1.00  0.00     0.001 A 
ATOM     66  C   UNL A   1      50.616  26.364  28.806  1.00  0.00     0.001 A 
ATOM     67  C   UNL A   1      51.057  25.801  30.003  1.00  0.00     0.000 A 
ENDBRANCH  48  62
BRANCH  49  68
ATOM     68  C   UNL A   1      38.749  29.117  28.935  1.00  0.00    -0.014 A 
ATOM     69  C   UNL A   1      38.203  29.624  27.745  1.00  0.00     0.009 A 
ATOM     70  C   UNL A   1      37.909  28.954  30.049  1.00  0.00     0.009 A 
ATOM     71  C   UNL A   1      36.855  29.985  27.682  1.00  0.00     0.001 A 
ATOM     72  C   UNL A   1      36.555  29.285  29.971  1.00  0.00     0.001 A 
ATOM     73  C   UNL A   1      36.031  29.809  28.792  1.00  0.00     0.000 A 
ENDBRANCH  49  68
BRANCH  61  74
ATOM     74  C   UNL A   1      44.448  32.566  30.986  1.00  0.00    -0.014 A 
ATOM     75  C   UNL A   1      44.698  33.614  30.087  1.00  0.00     0.009 A 
ATOM     76  C   UNL A   1      44.357  32.854  32.357  1.00  0.00     0.009 A 
ATOM     77  C   UNL A   1      44.887  34.915  30.556  1.00  0.00     0.001 A 
ATOM     78  C   UNL A   1      44.511  34.161  32.819  1.00  0.00     0.001 A 
ATOM     79  C   UNL A   1      44.787  35.189  31.920  1.00  0.00     0.000 A 
ENDBRANCH  61  74
ENDBRANCH  35  36
ENDBRANCH  27  30
ENDBRANCH  25  26
ENDBRANCH  24  25
ENDBRANCH   1  24
TORSDOF 15
ENDMDL
MODEL 2
REMARK VINA RESULT:     -11.0      1.582      3.643
REMARK SMILES CC[C@@H]1[C@@H](C(=O)NCCCNC(=O)c2ccc(-c3c4nc(c(-c5ccccc5)c5ccc([nH]5)c(-c5ccccc5)c5nc(c(-c6ccccc6)c6ccc3[nH]6)C=C5)C=C4)cc2)CCCN1C(=O)OCc1ccccc1
REMARK SMILES IDX 8 1 7 2 5 3 6 4 4 6 3 7 65 8 62 9 64 10 63 11 2 12 1 13
REMARK SMILES IDX 66 14 67 15 68 16 69 17 70 18 71 19 75 20 72 21 74 22 73 23
REMARK SMILES IDX 9 24 10 25 11 26 12 27 13 29 14 30 15 31 61 32 16 33 60 34
REMARK SMILES IDX 17 35 18 36 19 37 54 38 20 39 59 40 53 41 55 42 21 43 58 44
REMARK SMILES IDX 52 45 51 46 22 48 44 49 29 50 43 51 30 52 33 53 42 54 56 55
REMARK SMILES IDX 31 56 32 57 41 59 57 60 34 61 23 62 24 63 28 64 25 65 27 66
REMARK SMILES IDX 26 67 45 68 46 69 50 70 47 71 49 72 48 73 35 74 36 75 40 76
REMARK SMILES IDX 37 77 39 78 38 79
REMARK H PARENT 7 5 11 28 55 47 33 58
REMARK Flexibility Score: inf
ROOT
ATOM      1  C   UNL A   1      36.749  20.815  24.751  1.00  0.00     0.117 C 
ENDROOT
BRANCH   1   2
ATOM      2  N   UNL A   1      35.609  20.608  25.628  1.00  0.00    -0.356 N 
ATOM      3  C   UNL A   1      34.344  21.105  25.600  1.00  0.00     0.225 C 
ATOM      4  O   UNL A   1      33.638  20.902  26.591  1.00  0.00    -0.275 OA
ATOM      5  H   UNL A   1      35.783  19.996  26.378  1.00  0.00     0.163 HD
BRANCH   3   6
ATOM      6  C   UNL A   1      33.804  21.873  24.402  1.00  0.00     0.101 C 
ATOM      7  C   UNL A   1      33.338  23.290  24.803  1.00  0.00     0.100 C 
ATOM      8  N   UNL A   1      32.573  23.918  23.714  1.00  0.00    -0.304 N 
ATOM      9  C   UNL A   1      32.745  21.036  23.653  1.00  0.00     0.017 C 
ATOM     10  C   UNL A   1      31.422  23.149  23.251  1.00  0.00     0.123 C 
ATOM     11  C   UNL A   1      31.928  21.842  22.645  1.00  0.00     0.023 C 
BRANCH   7  12
ATOM     12  C   UNL A   1      34.391  24.165  25.532  1.00  0.00     0.022 C 
ATOM     13  C   UNL A   1      35.792  24.199  24.938  1.00  0.00     0.006 C 
ENDBRANCH   7  12
BRANCH   8  14
ATOM     14  C   UNL A   1      32.988  25.044  23.036  1.00  0.00     0.410 C 
ATOM     15  O   UNL A   1      33.808  25.046  22.129  1.00  0.00    -0.224 OA
BRANCH  14  16
ATOM     16  O   UNL A   1      32.441  26.177  23.552  1.00  0.00    -0.445 OA
BRANCH  16  17
ATOM     17  C   UNL A   1      33.355  27.261  23.769  1.00  0.00     0.270 C 
BRANCH  17  18
ATOM     18  C   UNL A   1      32.961  28.098  24.968  1.00  0.00    -0.011 A 
ATOM     19  C   UNL A   1      32.182  29.253  24.804  1.00  0.00     0.007 A 
ATOM     20  C   UNL A   1      33.402  27.770  26.259  1.00  0.00     0.007 A 
ATOM     21  C   UNL A   1      31.860  30.055  25.903  1.00  0.00     0.000 A 
ATOM     22  C   UNL A   1      33.069  28.565  27.358  1.00  0.00     0.000 A 
ATOM     23  C   UNL A   1      32.301  29.710  27.178  1.00  0.00     0.000 A 
ENDBRANCH  17  18
ENDBRANCH  16  17
ENDBRANCH  14  16
ENDBRANCH   8  14
ENDBRANCH   3   6
ENDBRANCH   1   2
BRANCH   1  24
ATOM     24  C   UNL A   1      37.827  19.770  24.987  1.00  0.00     0.042 C 
BRANCH  24  25
ATOM     25  C   UNL A   1      39.012  20.302  25.772  1.00  0.00     0.118 C 
BRANCH  25  26
ATOM     26  N   UNL A   1      40.110  19.347  25.833  1.00  0.00    -0.352 N 
ATOM     27  C   UNL A   1      41.441  19.560  26.092  1.00  0.00     0.251 C 
ATOM     28  H   UNL A   1      39.861  18.410  25.662  1.00  0.00     0.163 HD
ATOM     29  O   UNL A   1      42.258  18.668  25.886  1.00  0.00    -0.269 OA
BRANCH  27  30
ATOM     30  C   UNL A   1      41.888  20.874  26.597  1.00  0.00     0.039 A 
ATOM     31  C   UNL A   1      42.331  21.837  25.689  1.00  0.00     0.014 A 
ATOM     32  C   UNL A   1      41.859  21.157  27.965  1.00  0.00     0.014 A 
ATOM     33  C   UNL A   1      42.676  23.108  26.149  1.00  0.00     0.010 A 
ATOM     34  C   UNL A   1      42.097  22.451  28.406  1.00  0.00     0.010 A 
ATOM     35  C   UNL A   1      42.521  23.438  27.504  1.00  0.00    -0.014 A 
BRANCH  35  36
ATOM     36  C   UNL A   1      42.804  24.805  28.007  1.00  0.00     0.031 A 
ATOM     37  C   UNL A   1      44.199  25.181  28.422  1.00  0.00     0.074 A 
ATOM     38  C   UNL A   1      41.792  25.681  28.161  1.00  0.00     0.049 A 
ATOM     39  N   UNL A   1      44.630  26.300  28.948  1.00  0.00    -0.248 NA
ATOM     40  C   UNL A   1      45.243  24.156  28.252  1.00  0.00     0.031 C 
ATOM     41  C   UNL A   1      40.387  25.421  27.839  1.00  0.00     0.029 A 
ATOM     42  N   UNL A   1      41.791  26.969  28.635  1.00  0.00    -0.354 N 
ATOM     43  C   UNL A   1      45.985  26.103  29.190  1.00  0.00     0.074 A 
ATOM     44  C   UNL A   1      46.292  24.743  28.808  1.00  0.00     0.031 C 
ATOM     45  C   UNL A   1      39.666  26.524  28.097  1.00  0.00     0.029 A 
ATOM     46  C   UNL A   1      40.546  27.550  28.648  1.00  0.00     0.049 A 
ATOM     47  H   UNL A   1      42.605  27.432  28.939  1.00  0.00     0.167 HD
ATOM     48  C   UNL A   1      46.896  26.983  29.668  1.00  0.00     0.031 A 
ATOM     49  C   UNL A   1      40.154  28.768  29.066  1.00  0.00     0.031 A 
ATOM     50  C   UNL A   1      46.590  28.337  30.040  1.00  0.00     0.049 A 
ATOM     51  C   UNL A   1      41.182  29.721  29.608  1.00  0.00     0.074 A 
ATOM     52  C   UNL A   1      47.452  29.328  30.475  1.00  0.00     0.029 A 
ATOM     53  N   UNL A   1      45.318  28.890  30.029  1.00  0.00    -0.354 N 
ATOM     54  N   UNL A   1      42.472  29.548  29.758  1.00  0.00    -0.248 NA
ATOM     55  C   UNL A   1      40.698  31.044  30.028  1.00  0.00     0.031 C 
ATOM     56  C   UNL A   1      46.694  30.459  30.792  1.00  0.00     0.029 A 
ATOM     57  C   UNL A   1      45.368  30.198  30.482  1.00  0.00     0.049 A 
ATOM     58  H   UNL A   1      44.501  28.423  29.742  1.00  0.00     0.167 HD
ATOM     59  C   UNL A   1      42.961  30.747  30.260  1.00  0.00     0.074 A 
ATOM     60  C   UNL A   1      41.829  31.644  30.373  1.00  0.00     0.031 C 
ATOM     61  C   UNL A   1      44.232  31.077  30.593  1.00  0.00     0.031 A 
BRANCH  48  62
ATOM     62  C   UNL A   1      48.310  26.496  29.833  1.00  0.00    -0.014 A 
ATOM     63  C   UNL A   1      48.729  25.842  31.004  1.00  0.00     0.009 A 
ATOM     64  C   UNL A   1      49.233  26.668  28.788  1.00  0.00     0.009 A 
ATOM     65  C   UNL A   1      50.051  25.413  31.142  1.00  0.00     0.001 A 
ATOM     66  C   UNL A   1      50.543  26.206  28.915  1.00  0.00     0.001 A 
ATOM     67  C   UNL A   1      50.955  25.591  30.096  1.00  0.00     0.000 A 
ENDBRANCH  48  62
BRANCH  49  68
ATOM     68  C   UNL A   1      38.722  29.157  28.979  1.00  0.00    -0.014 A 
ATOM     69  C   UNL A   1      38.194  29.686  27.791  1.00  0.00     0.009 A 
ATOM     70  C   UNL A   1      37.871  28.999  30.085  1.00  0.00     0.009 A 
ATOM     71  C   UNL A   1      36.854  30.074  27.722  1.00  0.00     0.001 A 
ATOM     72  C   UNL A   1      36.524  29.356  30.002  1.00  0.00     0.001 A 
ATOM     73  C   UNL A   1      36.019  29.903  28.825  1.00  0.00     0.000 A 
ENDBRANCH  49  68
BRANCH  61  74
ATOM     74  C   UNL A   1      44.478  32.481  31.076  1.00  0.00    -0.014 A 
ATOM     75  C   UNL A   1      44.444  32.806  32.441  1.00  0.00     0.009 A 
ATOM     76  C   UNL A   1      44.794  33.485  30.146  1.00  0.00     0.009 A 
ATOM     77  C   UNL A   1      44.687  34.115  32.860  1.00  0.00     0.001 A 
ATOM     78  C   UNL A   1      45.071  34.784  30.572  1.00  0.00     0.001 A 
ATOM     79  C   UNL A   1      45.006  35.101  31.927  1.00  0.00     0.000 A 
ENDBRANCH  61  74
ENDBRANCH  35  36
ENDBRANCH  27  30
ENDBRANCH  25  26
ENDBRANCH  24  25
ENDBRANCH   1  24
TORSDOF 15
ENDMDL
MODEL 3
REMARK VINA RESULT:     -11.0      3.794      8.802
REMARK SMILES CC[C@@H]1[C@@H](C(=O)NCCCNC(=O)c2ccc(-c3c4nc(c(-c5ccccc5)c5ccc([nH]5)c(-c5ccccc5)c5nc(c(-c6ccccc6)c6ccc3[nH]6)C=C5)C=C4)cc2)CCCN1C(=O)OCc1ccccc1
REMARK SMILES IDX 8 1 7 2 5 3 6 4 4 6 3 7 65 8 62 9 64 10 63 11 2 12 1 13
REMARK SMILES IDX 66 14 67 15 68 16 69 17 70 18 71 19 75 20 72 21 74 22 73 23
REMARK SMILES IDX 9 24 10 25 11 26 12 27 13 29 14 30 15 31 61 32 16 33 60 34
REMARK SMILES IDX 17 35 18 36 19 37 54 38 20 39 59 40 53 41 55 42 21 43 58 44
REMARK SMILES IDX 52 45 51 46 22 48 44 49 29 50 43 51 30 52 33 53 42 54 56 55
REMARK SMILES IDX 31 56 32 57 41 59 57 60 34 61 23 62 24 63 28 64 25 65 27 66
REMARK SMILES IDX 26 67 45 68 46 69 50 70 47 71 49 72 48 73 35 74 36 75 40 76
REMARK SMILES IDX 37 77 39 78 38 79
REMARK H PARENT 7 5 11 28 55 47 33 58
REMARK Flexibility Score: inf
ROOT
ATOM      1  C   UNL A   1      31.535  30.345  26.155  1.00  0.00     0.117 C 
ENDROOT
BRANCH   1   2
ATOM      2  N   UNL A   1      31.903  30.083  24.774  1.00  0.00    -0.356 N 
ATOM      3  C   UNL A   1      31.803  28.964  24.008  1.00  0.00     0.225 C 
ATOM      4  O   UNL A   1      32.374  28.978  22.915  1.00  0.00    -0.275 OA
ATOM      5  H   UNL A   1      32.293  30.855  24.307  1.00  0.00     0.163 HD
BRANCH   3   6
ATOM      6  C   UNL A   1      31.016  27.742  24.462  1.00  0.00     0.101 C 
ATOM      7  C   UNL A   1      31.866  26.456  24.367  1.00  0.00     0.100 C 
ATOM      8  N   UNL A   1      31.028  25.259  24.539  1.00  0.00    -0.304 N 
ATOM      9  C   UNL A   1      29.658  27.670  23.731  1.00  0.00     0.017 C 
ATOM     10  C   UNL A   1      29.904  25.159  23.612  1.00  0.00     0.123 C 
ATOM     11  C   UNL A   1      28.953  26.323  23.881  1.00  0.00     0.023 C 
BRANCH   7  12
ATOM     12  C   UNL A   1      33.224  26.489  25.115  1.00  0.00     0.022 C 
ATOM     13  C   UNL A   1      33.237  27.127  26.498  1.00  0.00     0.006 C 
ENDBRANCH   7  12
BRANCH   8  14
ATOM     14  C   UNL A   1      31.149  24.383  25.597  1.00  0.00     0.410 C 
ATOM     15  O   UNL A   1      30.792  24.623  26.742  1.00  0.00    -0.224 OA
BRANCH  14  16
ATOM     16  O   UNL A   1      31.798  23.243  25.238  1.00  0.00    -0.445 OA
BRANCH  16  17
ATOM     17  C   UNL A   1      32.882  22.855  26.093  1.00  0.00     0.270 C 
BRANCH  17  18
ATOM     18  C   UNL A   1      34.222  22.990  25.401  1.00  0.00    -0.011 A 
ATOM     19  C   UNL A   1      35.370  23.333  26.132  1.00  0.00     0.007 A 
ATOM     20  C   UNL A   1      34.342  22.825  24.013  1.00  0.00     0.007 A 
ATOM     21  C   UNL A   1      36.597  23.508  25.488  1.00  0.00     0.000 A 
ATOM     22  C   UNL A   1      35.572  22.988  23.371  1.00  0.00     0.000 A 
ATOM     23  C   UNL A   1      36.699  23.334  24.109  1.00  0.00     0.000 A 
ENDBRANCH  17  18
ENDBRANCH  16  17
ENDBRANCH  14  16
ENDBRANCH   8  14
ENDBRANCH   3   6
ENDBRANCH   1   2
BRANCH   1  24
ATOM     24  C   UNL A   1      31.455  31.837  26.434  1.00  0.00     0.042 C 
BRANCH  24  25
ATOM     25  C   UNL A   1      32.642  32.361  27.222  1.00  0.00     0.118 C 
BRANCH  25  26
ATOM     26  N   UNL A   1      32.470  33.751  27.623  1.00  0.00    -0.352 N 
ATOM     27  C   UNL A   1      33.178  34.492  28.536  1.00  0.00     0.251 C 
ATOM     28  H   UNL A   1      31.737  34.230  27.173  1.00  0.00     0.163 HD
ATOM     29  O   UNL A   1      32.754  35.583  28.904  1.00  0.00    -0.269 OA
BRANCH  27  30
ATOM     30  C   UNL A   1      34.440  33.960  29.089  1.00  0.00     0.039 A 
ATOM     31  C   UNL A   1      34.403  33.202  30.261  1.00  0.00     0.014 A 
ATOM     32  C   UNL A   1      35.656  34.202  28.446  1.00  0.00     0.014 A 
ATOM     33  C   UNL A   1      35.578  32.627  30.745  1.00  0.00     0.010 A 
ATOM     34  C   UNL A   1      36.802  33.541  28.867  1.00  0.00     0.010 A 
ATOM     35  C   UNL A   1      36.778  32.756  30.029  1.00  0.00    -0.014 A 
BRANCH  35  36
ATOM     36  C   UNL A   1      38.025  32.089  30.477  1.00  0.00     0.031 A 
ATOM     37  C   UNL A   1      38.907  32.750  31.500  1.00  0.00     0.074 A 
ATOM     38  C   UNL A   1      38.400  30.926  29.909  1.00  0.00     0.049 A 
ATOM     39  N   UNL A   1      40.066  32.358  31.967  1.00  0.00    -0.248 NA
ATOM     40  C   UNL A   1      38.442  34.034  32.049  1.00  0.00     0.031 C 
ATOM     41  C   UNL A   1      37.655  30.208  28.872  1.00  0.00     0.029 A 
ATOM     42  N   UNL A   1      39.510  30.147  30.121  1.00  0.00    -0.354 N 
ATOM     43  C   UNL A   1      40.474  33.356  32.844  1.00  0.00     0.074 A 
ATOM     44  C   UNL A   1      39.470  34.396  32.801  1.00  0.00     0.031 C 
ATOM     45  C   UNL A   1      38.313  29.079  28.561  1.00  0.00     0.029 A 
ATOM     46  C   UNL A   1      39.548  29.020  29.336  1.00  0.00     0.049 A 
ATOM     47  H   UNL A   1      40.212  30.375  30.771  1.00  0.00     0.167 HD
ATOM     48  C   UNL A   1      41.576  33.395  33.629  1.00  0.00     0.031 A 
ATOM     49  C   UNL A   1      40.478  28.050  29.243  1.00  0.00     0.031 A 
ATOM     50  C   UNL A   1      42.569  32.356  33.675  1.00  0.00     0.049 A 
ATOM     51  C   UNL A   1      41.700  28.123  30.115  1.00  0.00     0.074 A 
ATOM     52  C   UNL A   1      43.689  32.269  34.483  1.00  0.00     0.029 A 
ATOM     53  N   UNL A   1      42.566  31.226  32.872  1.00  0.00    -0.354 N 
ATOM     54  N   UNL A   1      42.034  29.035  30.995  1.00  0.00    -0.248 NA
ATOM     55  C   UNL A   1      42.669  27.026  29.985  1.00  0.00     0.031 C 
ATOM     56  C   UNL A   1      44.400  31.121  34.122  1.00  0.00     0.029 A 
ATOM     57  C   UNL A   1      43.683  30.453  33.141  1.00  0.00     0.049 A 
ATOM     58  H   UNL A   1      41.873  31.005  32.208  1.00  0.00     0.167 HD
ATOM     59  C   UNL A   1      43.235  28.607  31.548  1.00  0.00     0.074 A 
ATOM     60  C   UNL A   1      43.561  27.347  30.913  1.00  0.00     0.031 C 
ATOM     61  C   UNL A   1      43.996  29.202  32.498  1.00  0.00     0.031 A 
BRANCH  48  62
ATOM     62  C   UNL A   1      41.772  34.614  34.490  1.00  0.00    -0.014 A 
ATOM     63  C   UNL A   1      41.284  34.668  35.807  1.00  0.00     0.009 A 
ATOM     64  C   UNL A   1      42.479  35.716  33.985  1.00  0.00     0.009 A 
ATOM     65  C   UNL A   1      41.463  35.816  36.582  1.00  0.00     0.001 A 
ATOM     66  C   UNL A   1      42.687  36.848  34.774  1.00  0.00     0.001 A 
ATOM     67  C   UNL A   1      42.168  36.903  36.067  1.00  0.00     0.000 A 
ENDBRANCH  48  62
BRANCH  49  68
ATOM     68  C   UNL A   1      40.282  26.923  28.294  1.00  0.00    -0.014 A 
ATOM     69  C   UNL A   1      40.847  26.961  27.010  1.00  0.00     0.009 A 
ATOM     70  C   UNL A   1      39.529  25.798  28.669  1.00  0.00     0.009 A 
ATOM     71  C   UNL A   1      40.639  25.911  26.113  1.00  0.00     0.001 A 
ATOM     72  C   UNL A   1      39.351  24.735  27.781  1.00  0.00     0.001 A 
ATOM     73  C   UNL A   1      39.896  24.797  26.501  1.00  0.00     0.000 A 
ENDBRANCH  49  68
BRANCH  61  74
ATOM     74  C   UNL A   1      45.239  28.479  32.940  1.00  0.00    -0.014 A 
ATOM     75  C   UNL A   1      45.211  27.533  33.975  1.00  0.00     0.009 A 
ATOM     76  C   UNL A   1      46.452  28.720  32.273  1.00  0.00     0.009 A 
ATOM     77  C   UNL A   1      46.378  26.869  34.356  1.00  0.00     0.001 A 
ATOM     78  C   UNL A   1      47.609  28.029  32.632  1.00  0.00     0.001 A 
ATOM     79  C   UNL A   1      47.574  27.113  33.681  1.00  0.00     0.000 A 
ENDBRANCH  61  74
ENDBRANCH  35  36
ENDBRANCH  27  30
ENDBRANCH  25  26
ENDBRANCH  24  25
ENDBRANCH   1  24
TORSDOF 15
ENDMDL
