MODEL 1
REMARK VINA RESULT:     -10.0      0.000      0.000
REMARK SMILES O=C(CSc1ccc2ccccc2c1)NCCCNC(=O)c1ccc(-c2c3nc(c(-c4ccccc4)c4ccc([nH]4)c(-c4ccccc4)c4nc(c(-c5ccccc5)c5ccc2[nH]5)C=C4)C=C3)cc1
REMARK SMILES IDX 17 1 16 2 15 3 1 4 2 5 3 7 4 8 5 9 6 10 14 11 7 12 13 13
REMARK SMILES IDX 8 14 12 15 9 16 11 17 10 18 18 19 19 20 20 21 21 23 22 24
REMARK SMILES IDX 23 25 69 26 24 27 68 28 25 29 26 30 27 31 62 32 28 33 67 34
REMARK SMILES IDX 61 35 63 36 29 37 66 38 60 39 59 40 30 42 52 43 37 44 51 45
REMARK SMILES IDX 38 46 41 47 50 48 64 49 39 50 40 51 49 53 65 54 42 55 31 56
REMARK SMILES IDX 32 57 36 58 33 59 35 60 34 61 53 62 54 63 58 64 55 65 57 66
REMARK SMILES IDX 56 67 43 68 44 69 48 70 45 71 47 72 46 73
REMARK H PARENT 15 6 19 22 63 41 41 52
REMARK Flexibility Score: inf
ROOT
ATOM      1  C   UNL A   1      44.685  18.901  24.558  1.00  0.00     0.042 C 
ENDROOT
BRANCH   1   2
ATOM      2  C   UNL A   1      46.052  19.568  24.683  1.00  0.00     0.117 C 
BRANCH   2   3
ATOM      3  N   UNL A   1      46.064  20.930  24.190  1.00  0.00    -0.355 N 
ATOM      4  O   UNL A   1      45.799  21.939  26.234  1.00  0.00    -0.274 OA
ATOM      5  C   UNL A   1      45.987  22.027  25.022  1.00  0.00     0.230 C 
ATOM      6  H   UNL A   1      46.130  21.079  23.219  1.00  0.00     0.163 HD
BRANCH   5   7
ATOM      7  C   UNL A   1      46.038  23.376  24.324  1.00  0.00     0.174 C 
BRANCH   7   8
ATOM      8  S   UNL A   1      47.152  24.566  25.149  1.00  0.00    -0.116 SA
BRANCH   8   9
ATOM      9  C   UNL A   1      46.052  25.897  25.618  1.00  0.00     0.008 A 
ATOM     10  C   UNL A   1      46.606  26.960  26.338  1.00  0.00     0.016 A 
ATOM     11  C   UNL A   1      44.701  25.958  25.258  1.00  0.00     0.023 A 
ATOM     12  C   UNL A   1      45.824  28.057  26.711  1.00  0.00     0.010 A 
ATOM     13  C   UNL A   1      43.899  27.056  25.624  1.00  0.00    -0.017 A 
ATOM     14  C   UNL A   1      44.469  28.120  26.359  1.00  0.00    -0.018 A 
ATOM     15  C   UNL A   1      42.542  27.123  25.268  1.00  0.00     0.009 A 
ATOM     16  C   UNL A   1      43.670  29.219  26.715  1.00  0.00     0.009 A 
ATOM     17  C   UNL A   1      41.760  28.223  25.628  1.00  0.00     0.001 A 
ATOM     18  C   UNL A   1      42.324  29.270  26.351  1.00  0.00     0.001 A 
ENDBRANCH   8   9
ENDBRANCH   7   8
ENDBRANCH   5   7
ENDBRANCH   2   3
ENDBRANCH   1   2
BRANCH   1  19
ATOM     19  C   UNL A   1      43.900  18.780  25.863  1.00  0.00     0.118 C 
BRANCH  19  20
ATOM     20  N   UNL A   1      42.462  18.674  25.669  1.00  0.00    -0.352 N 
ATOM     21  C   UNL A   1      41.444  19.543  25.964  1.00  0.00     0.251 C 
ATOM     22  H   UNL A   1      42.169  17.830  25.254  1.00  0.00     0.163 HD
ATOM     23  O   UNL A   1      40.283  19.173  25.791  1.00  0.00    -0.269 OA
BRANCH  21  24
ATOM     24  C   UNL A   1      41.696  20.899  26.509  1.00  0.00     0.039 A 
ATOM     25  C   UNL A   1      41.445  21.115  27.869  1.00  0.00     0.014 A 
ATOM     26  C   UNL A   1      42.114  21.968  25.711  1.00  0.00     0.014 A 
ATOM     27  C   UNL A   1      41.663  22.375  28.436  1.00  0.00     0.010 A 
ATOM     28  C   UNL A   1      42.391  23.210  26.289  1.00  0.00     0.010 A 
ATOM     29  C   UNL A   1      42.168  23.427  27.657  1.00  0.00    -0.014 A 
BRANCH  29  30
ATOM     30  C   UNL A   1      42.480  24.741  28.279  1.00  0.00     0.031 A 
ATOM     31  C   UNL A   1      43.868  25.062  28.763  1.00  0.00     0.074 A 
ATOM     32  C   UNL A   1      41.495  25.647  28.434  1.00  0.00     0.049 A 
ATOM     33  N   UNL A   1      44.317  26.170  29.299  1.00  0.00    -0.248 NA
ATOM     34  C   UNL A   1      44.876  23.998  28.649  1.00  0.00     0.031 C 
ATOM     35  C   UNL A   1      40.094  25.450  28.059  1.00  0.00     0.029 A 
ATOM     36  N   UNL A   1      41.526  26.921  28.946  1.00  0.00    -0.354 N 
ATOM     37  C   UNL A   1      45.653  25.934  29.597  1.00  0.00     0.074 A 
ATOM     38  C   UNL A   1      45.931  24.563  29.221  1.00  0.00     0.031 C 
ATOM     39  C   UNL A   1      39.408  26.575  28.317  1.00  0.00     0.029 A 
ATOM     40  C   UNL A   1      40.311  27.561  28.898  1.00  0.00     0.049 A 
ATOM     41  H   UNL A   1      42.341  27.337  29.312  1.00  0.00     0.167 HD
ATOM     42  C   UNL A   1      46.571  26.781  30.122  1.00  0.00     0.031 A 
ATOM     43  C   UNL A   1      39.963  28.808  29.268  1.00  0.00     0.031 A 
ATOM     44  C   UNL A   1      46.309  28.149  30.487  1.00  0.00     0.049 A 
ATOM     45  C   UNL A   1      41.007  29.738  29.816  1.00  0.00     0.074 A 
ATOM     46  C   UNL A   1      47.193  29.097  30.974  1.00  0.00     0.029 A 
ATOM     47  N   UNL A   1      45.071  28.763  30.404  1.00  0.00    -0.354 N 
ATOM     48  N   UNL A   1      42.281  29.518  30.026  1.00  0.00    -0.248 NA
ATOM     49  C   UNL A   1      40.562  31.095  30.163  1.00  0.00     0.031 C 
ATOM     50  C   UNL A   1      46.481  30.276  31.220  1.00  0.00     0.029 A 
ATOM     51  C   UNL A   1      45.163  30.074  30.844  1.00  0.00     0.049 A 
ATOM     52  H   UNL A   1      44.246  28.333  30.082  1.00  0.00     0.167 HD
ATOM     53  C   UNL A   1      42.797  30.716  30.503  1.00  0.00     0.074 A 
ATOM     54  C   UNL A   1      41.701  31.663  30.536  1.00  0.00     0.031 C 
ATOM     55  C   UNL A   1      44.066  31.005  30.879  1.00  0.00     0.031 A 
BRANCH  42  56
ATOM     56  C   UNL A   1      47.960  26.245  30.332  1.00  0.00    -0.014 A 
ATOM     57  C   UNL A   1      48.912  26.273  29.300  1.00  0.00     0.009 A 
ATOM     58  C   UNL A   1      48.333  25.740  31.588  1.00  0.00     0.009 A 
ATOM     59  C   UNL A   1      50.198  25.772  29.512  1.00  0.00     0.001 A 
ATOM     60  C   UNL A   1      49.627  25.263  31.803  1.00  0.00     0.001 A 
ATOM     61  C   UNL A   1      50.556  25.272  30.763  1.00  0.00     0.000 A 
ENDBRANCH  42  56
BRANCH  43  62
ATOM     62  C   UNL A   1      38.564  29.269  29.089  1.00  0.00    -0.014 A 
ATOM     63  C   UNL A   1      38.135  29.767  27.848  1.00  0.00     0.009 A 
ATOM     64  C   UNL A   1      37.653  29.217  30.155  1.00  0.00     0.009 A 
ATOM     65  C   UNL A   1      36.827  30.227  27.687  1.00  0.00     0.001 A 
ATOM     66  C   UNL A   1      36.339  29.656  29.982  1.00  0.00     0.001 A 
ATOM     67  C   UNL A   1      35.930  30.168  28.752  1.00  0.00     0.000 A 
ENDBRANCH  43  62
BRANCH  55  68
ATOM     68  C   UNL A   1      44.338  32.411  31.331  1.00  0.00    -0.014 A 
ATOM     69  C   UNL A   1      44.245  32.772  32.683  1.00  0.00     0.009 A 
ATOM     70  C   UNL A   1      44.701  33.386  30.389  1.00  0.00     0.009 A 
ATOM     71  C   UNL A   1      44.471  34.092  33.079  1.00  0.00     0.001 A 
ATOM     72  C   UNL A   1      44.950  34.700  30.791  1.00  0.00     0.001 A 
ATOM     73  C   UNL A   1      44.824  35.054  32.133  1.00  0.00     0.000 A 
ENDBRANCH  55  68
ENDBRANCH  29  30
ENDBRANCH  21  24
ENDBRANCH  19  20
ENDBRANCH   1  19
TORSDOF 12
ENDMDL
MODEL 2
REMARK VINA RESULT:      -9.4      5.141     11.095
REMARK SMILES O=C(CSc1ccc2ccccc2c1)NCCCNC(=O)c1ccc(-c2c3nc(c(-c4ccccc4)c4ccc([nH]4)c(-c4ccccc4)c4nc(c(-c5ccccc5)c5ccc2[nH]5)C=C4)C=C3)cc1
REMARK SMILES IDX 17 1 16 2 15 3 1 4 2 5 3 7 4 8 5 9 6 10 14 11 7 12 13 13
REMARK SMILES IDX 8 14 12 15 9 16 11 17 10 18 18 19 19 20 20 21 21 23 22 24
REMARK SMILES IDX 23 25 69 26 24 27 68 28 25 29 26 30 27 31 62 32 28 33 67 34
REMARK SMILES IDX 61 35 63 36 29 37 66 38 60 39 59 40 30 42 52 43 37 44 51 45
REMARK SMILES IDX 38 46 41 47 50 48 64 49 39 50 40 51 49 53 65 54 42 55 31 56
REMARK SMILES IDX 32 57 36 58 33 59 35 60 34 61 53 62 54 63 58 64 55 65 57 66
REMARK SMILES IDX 56 67 43 68 44 69 48 70 45 71 47 72 46 73
REMARK H PARENT 15 6 19 22 63 41 41 52
REMARK Flexibility Score: inf
ROOT
ATOM      1  C   UNL A   1      32.586  36.298  31.544  1.00  0.00     0.042 C 
ENDROOT
BRANCH   1   2
ATOM      2  C   UNL A   1      33.477  36.564  32.754  1.00  0.00     0.117 C 
BRANCH   2   3
ATOM      3  N   UNL A   1      34.772  35.925  32.654  1.00  0.00    -0.355 N 
ATOM      4  O   UNL A   1      34.754  34.990  34.750  1.00  0.00    -0.274 OA
ATOM      5  C   UNL A   1      35.295  35.133  33.655  1.00  0.00     0.230 C 
ATOM      6  H   UNL A   1      35.303  36.060  31.835  1.00  0.00     0.163 HD
BRANCH   5   7
ATOM      7  C   UNL A   1      36.657  34.527  33.359  1.00  0.00     0.174 C 
BRANCH   7   8
ATOM      8  S   UNL A   1      37.484  33.866  34.847  1.00  0.00    -0.116 SA
BRANCH   8   9
ATOM      9  C   UNL A   1      38.231  32.350  34.261  1.00  0.00     0.008 A 
ATOM     10  C   UNL A   1      39.561  32.111  34.622  1.00  0.00     0.016 A 
ATOM     11  C   UNL A   1      37.549  31.379  33.518  1.00  0.00     0.023 A 
ATOM     12  C   UNL A   1      40.206  30.933  34.236  1.00  0.00     0.010 A 
ATOM     13  C   UNL A   1      38.185  30.187  33.122  1.00  0.00    -0.017 A 
ATOM     14  C   UNL A   1      39.531  29.960  33.487  1.00  0.00    -0.018 A 
ATOM     15  C   UNL A   1      37.507  29.208  32.377  1.00  0.00     0.009 A 
ATOM     16  C   UNL A   1      40.160  28.766  33.100  1.00  0.00     0.009 A 
ATOM     17  C   UNL A   1      38.145  28.024  31.999  1.00  0.00     0.001 A 
ATOM     18  C   UNL A   1      39.471  27.804  32.361  1.00  0.00     0.001 A 
ENDBRANCH   8   9
ENDBRANCH   7   8
ENDBRANCH   5   7
ENDBRANCH   2   3
ENDBRANCH   1   2
BRANCH   1  19
ATOM     19  C   UNL A   1      33.298  36.337  30.193  1.00  0.00     0.118 C 
BRANCH  19  20
ATOM     20  N   UNL A   1      32.670  35.500  29.181  1.00  0.00    -0.352 N 
ATOM     21  C   UNL A   1      33.113  34.373  28.539  1.00  0.00     0.251 C 
ATOM     22  H   UNL A   1      31.771  35.797  28.910  1.00  0.00     0.163 HD
ATOM     23  O   UNL A   1      32.424  33.899  27.636  1.00  0.00    -0.269 OA
BRANCH  21  24
ATOM     24  C   UNL A   1      34.403  33.726  28.878  1.00  0.00     0.039 A 
ATOM     25  C   UNL A   1      35.474  33.897  27.992  1.00  0.00     0.014 A 
ATOM     26  C   UNL A   1      34.568  32.915  30.004  1.00  0.00     0.014 A 
ATOM     27  C   UNL A   1      36.713  33.307  28.261  1.00  0.00     0.010 A 
ATOM     28  C   UNL A   1      35.822  32.377  30.306  1.00  0.00     0.010 A 
ATOM     29  C   UNL A   1      36.908  32.566  29.437  1.00  0.00    -0.014 A 
BRANCH  29  30
ATOM     30  C   UNL A   1      38.248  32.013  29.763  1.00  0.00     0.031 A 
ATOM     31  C   UNL A   1      39.226  32.786  30.605  1.00  0.00     0.074 A 
ATOM     32  C   UNL A   1      38.601  30.807  29.274  1.00  0.00     0.049 A 
ATOM     33  N   UNL A   1      40.422  32.436  31.009  1.00  0.00    -0.248 NA
ATOM     34  C   UNL A   1      38.818  34.133  31.031  1.00  0.00     0.031 C 
ATOM     35  C   UNL A   1      37.773  29.971  28.403  1.00  0.00     0.029 A 
ATOM     36  N   UNL A   1      39.749  30.074  29.446  1.00  0.00    -0.354 N 
ATOM     37  C   UNL A   1      40.914  33.520  31.725  1.00  0.00     0.074 A 
ATOM     38  C   UNL A   1      39.904  34.556  31.664  1.00  0.00     0.031 C 
ATOM     39  C   UNL A   1      38.424  28.824  28.147  1.00  0.00     0.029 A 
ATOM     40  C   UNL A   1      39.721  28.854  28.814  1.00  0.00     0.049 A 
ATOM     41  H   UNL A   1      40.518  30.391  29.972  1.00  0.00     0.167 HD
ATOM     42  C   UNL A   1      42.091  33.641  32.386  1.00  0.00     0.031 A 
ATOM     43  C   UNL A   1      40.631  27.863  28.783  1.00  0.00     0.031 A 
ATOM     44  C   UNL A   1      43.096  32.614  32.463  1.00  0.00     0.049 A 
ATOM     45  C   UNL A   1      41.913  28.009  29.551  1.00  0.00     0.074 A 
ATOM     46  C   UNL A   1      44.294  32.629  33.156  1.00  0.00     0.029 A 
ATOM     47  N   UNL A   1      43.020  31.387  31.825  1.00  0.00    -0.354 N 
ATOM     48  N   UNL A   1      42.330  29.014  30.280  1.00  0.00    -0.248 NA
ATOM     49  C   UNL A   1      42.842  26.871  29.502  1.00  0.00     0.031 C 
ATOM     50  C   UNL A   1      44.960  31.423  32.909  1.00  0.00     0.029 A 
ATOM     51  C   UNL A   1      44.155  30.641  32.097  1.00  0.00     0.049 A 
ATOM     52  H   UNL A   1      42.270  31.088  31.261  1.00  0.00     0.167 HD
ATOM     53  C   UNL A   1      43.556  28.621  30.799  1.00  0.00     0.074 A 
ATOM     54  C   UNL A   1      43.808  27.279  30.314  1.00  0.00     0.031 C 
ATOM     55  C   UNL A   1      44.398  29.310  31.606  1.00  0.00     0.031 A 
BRANCH  42  56
ATOM     56  C   UNL A   1      42.355  34.945  33.086  1.00  0.00    -0.014 A 
ATOM     57  C   UNL A   1      43.160  35.934  32.497  1.00  0.00     0.009 A 
ATOM     58  C   UNL A   1      41.765  35.203  34.333  1.00  0.00     0.009 A 
ATOM     59  C   UNL A   1      43.396  37.140  33.159  1.00  0.00     0.001 A 
ATOM     60  C   UNL A   1      41.983  36.421  34.981  1.00  0.00     0.001 A 
ATOM     61  C   UNL A   1      42.804  37.385  34.398  1.00  0.00     0.000 A 
ENDBRANCH  42  56
BRANCH  43  62
ATOM     62  C   UNL A   1      40.342  26.617  28.030  1.00  0.00    -0.014 A 
ATOM     63  C   UNL A   1      39.558  25.606  28.608  1.00  0.00     0.009 A 
ATOM     64  C   UNL A   1      40.849  26.431  26.736  1.00  0.00     0.009 A 
ATOM     65  C   UNL A   1      39.309  24.422  27.912  1.00  0.00     0.001 A 
ATOM     66  C   UNL A   1      40.578  25.255  26.034  1.00  0.00     0.001 A 
ATOM     67  C   UNL A   1      39.816  24.249  26.625  1.00  0.00     0.000 A 
ENDBRANCH  43  62
BRANCH  55  68
ATOM     68  C   UNL A   1      45.655  28.610  32.035  1.00  0.00    -0.014 A 
ATOM     69  C   UNL A   1      46.839  28.715  31.289  1.00  0.00     0.009 A 
ATOM     70  C   UNL A   1      45.655  27.840  33.208  1.00  0.00     0.009 A 
ATOM     71  C   UNL A   1      47.988  28.029  31.688  1.00  0.00     0.001 A 
ATOM     72  C   UNL A   1      46.813  27.176  33.618  1.00  0.00     0.001 A 
ATOM     73  C   UNL A   1      47.975  27.262  32.853  1.00  0.00     0.000 A 
ENDBRANCH  55  68
ENDBRANCH  29  30
ENDBRANCH  21  24
ENDBRANCH  19  20
ENDBRANCH   1  19
TORSDOF 12
ENDMDL
MODEL 3
REMARK VINA RESULT:      -9.1      0.724      6.316
REMARK SMILES O=C(CSc1ccc2ccccc2c1)NCCCNC(=O)c1ccc(-c2c3nc(c(-c4ccccc4)c4ccc([nH]4)c(-c4ccccc4)c4nc(c(-c5ccccc5)c5ccc2[nH]5)C=C4)C=C3)cc1
REMARK SMILES IDX 17 1 16 2 15 3 1 4 2 5 3 7 4 8 5 9 6 10 14 11 7 12 13 13
REMARK SMILES IDX 8 14 12 15 9 16 11 17 10 18 18 19 19 20 20 21 21 23 22 24
REMARK SMILES IDX 23 25 69 26 24 27 68 28 25 29 26 30 27 31 62 32 28 33 67 34
REMARK SMILES IDX 61 35 63 36 29 37 66 38 60 39 59 40 30 42 52 43 37 44 51 45
REMARK SMILES IDX 38 46 41 47 50 48 64 49 39 50 40 51 49 53 65 54 42 55 31 56
REMARK SMILES IDX 32 57 36 58 33 59 35 60 34 61 53 62 54 63 58 64 55 65 57 66
REMARK SMILES IDX 56 67 43 68 44 69 48 70 45 71 47 72 46 73
REMARK H PARENT 15 6 19 22 63 41 41 52
REMARK Flexibility Score: inf
ROOT
ATOM      1  C   UNL A   1      44.969  19.308  24.270  1.00  0.00     0.042 C 
ENDROOT
BRANCH   1   2
ATOM      2  C   UNL A   1      46.266  20.110  24.336  1.00  0.00     0.117 C 
BRANCH   2   3
ATOM      3  N   UNL A   1      46.080  21.511  24.022  1.00  0.00    -0.355 N 
ATOM      4  O   UNL A   1      45.977  22.244  26.195  1.00  0.00    -0.274 OA
ATOM      5  C   UNL A   1      46.001  22.491  24.990  1.00  0.00     0.230 C 
ATOM      6  H   UNL A   1      46.008  21.777  23.076  1.00  0.00     0.163 HD
BRANCH   5   7
ATOM      7  C   UNL A   1      45.830  23.907  24.467  1.00  0.00     0.174 C 
BRANCH   7   8
ATOM      8  S   UNL A   1      47.127  25.049  25.060  1.00  0.00    -0.116 SA
BRANCH   8   9
ATOM      9  C   UNL A   1      46.195  26.471  25.620  1.00  0.00     0.008 A 
ATOM     10  C   UNL A   1      44.810  26.445  25.426  1.00  0.00     0.016 A 
ATOM     11  C   UNL A   1      46.763  27.565  26.282  1.00  0.00     0.023 A 
ATOM     12  C   UNL A   1      44.006  27.499  25.868  1.00  0.00     0.010 A 
ATOM     13  C   UNL A   1      45.967  28.635  26.735  1.00  0.00    -0.017 A 
ATOM     14  C   UNL A   1      44.570  28.600  26.526  1.00  0.00    -0.018 A 
ATOM     15  C   UNL A   1      46.530  29.737  27.400  1.00  0.00     0.009 A 
ATOM     16  C   UNL A   1      43.776  29.663  26.987  1.00  0.00     0.009 A 
ATOM     17  C   UNL A   1      45.728  30.786  27.853  1.00  0.00     0.001 A 
ATOM     18  C   UNL A   1      44.351  30.749  27.647  1.00  0.00     0.001 A 
ENDBRANCH   8   9
ENDBRANCH   7   8
ENDBRANCH   5   7
ENDBRANCH   2   3
ENDBRANCH   1   2
BRANCH   1  19
ATOM     19  C   UNL A   1      44.289  19.061  25.615  1.00  0.00     0.118 C 
BRANCH  19  20
ATOM     20  N   UNL A   1      42.847  18.891  25.516  1.00  0.00    -0.352 N 
ATOM     21  C   UNL A   1      41.813  19.704  25.900  1.00  0.00     0.251 C 
ATOM     22  H   UNL A   1      42.566  18.043  25.100  1.00  0.00     0.163 HD
ATOM     23  O   UNL A   1      40.660  19.283  25.796  1.00  0.00    -0.269 OA
BRANCH  21  24
ATOM     24  C   UNL A   1      42.039  21.058  26.461  1.00  0.00     0.039 A 
ATOM     25  C   UNL A   1      41.952  21.213  27.850  1.00  0.00     0.014 A 
ATOM     26  C   UNL A   1      42.273  22.178  25.659  1.00  0.00     0.014 A 
ATOM     27  C   UNL A   1      42.153  22.469  28.433  1.00  0.00     0.010 A 
ATOM     28  C   UNL A   1      42.536  23.420  26.245  1.00  0.00     0.010 A 
ATOM     29  C   UNL A   1      42.479  23.578  27.638  1.00  0.00    -0.014 A 
BRANCH  29  30
ATOM     30  C   UNL A   1      42.777  24.892  28.267  1.00  0.00     0.031 A 
ATOM     31  C   UNL A   1      41.701  25.925  28.459  1.00  0.00     0.074 A 
ATOM     32  C   UNL A   1      44.040  25.170  28.647  1.00  0.00     0.049 A 
ATOM     33  N   UNL A   1      41.784  27.107  29.018  1.00  0.00    -0.248 NA
ATOM     34  C   UNL A   1      40.364  25.599  27.941  1.00  0.00     0.031 C 
ATOM     35  C   UNL A   1      45.191  24.282  28.474  1.00  0.00     0.029 A 
ATOM     36  N   UNL A   1      44.564  26.279  29.263  1.00  0.00    -0.354 N 
ATOM     37  C   UNL A   1      40.519  27.670  28.908  1.00  0.00     0.074 A 
ATOM     38  C   UNL A   1      39.696  26.717  28.191  1.00  0.00     0.031 C 
ATOM     39  C   UNL A   1      46.279  24.865  29.006  1.00  0.00     0.029 A 
ATOM     40  C   UNL A   1      45.907  26.173  29.534  1.00  0.00     0.049 A 
ATOM     41  H   UNL A   1      44.029  27.074  29.491  1.00  0.00     0.167 HD
ATOM     42  C   UNL A   1      40.073  28.863  29.372  1.00  0.00     0.031 A 
ATOM     43  C   UNL A   1      46.746  27.027  30.148  1.00  0.00     0.031 A 
ATOM     44  C   UNL A   1      40.878  29.811  30.096  1.00  0.00     0.049 A 
ATOM     45  C   UNL A   1      46.221  28.329  30.682  1.00  0.00     0.074 A 
ATOM     46  C   UNL A   1      40.497  31.021  30.651  1.00  0.00     0.029 A 
ATOM     47  N   UNL A   1      42.228  29.657  30.365  1.00  0.00    -0.354 N 
ATOM     48  N   UNL A   1      45.005  28.812  30.630  1.00  0.00    -0.248 NA
ATOM     49  C   UNL A   1      47.187  29.193  31.376  1.00  0.00     0.031 C 
ATOM     50  C   UNL A   1      41.625  31.616  31.227  1.00  0.00     0.029 A 
ATOM     51  C   UNL A   1      42.699  30.755  31.067  1.00  0.00     0.049 A 
ATOM     52  H   UNL A   1      42.773  28.882  30.096  1.00  0.00     0.167 HD
ATOM     53  C   UNL A   1      45.051  30.024  31.306  1.00  0.00     0.074 A 
ATOM     54  C   UNL A   1      46.413  30.194  31.773  1.00  0.00     0.031 C 
ATOM     55  C   UNL A   1      44.055  30.916  31.521  1.00  0.00     0.031 A 
BRANCH  42  56
ATOM     56  C   UNL A   1      38.635  29.210  29.107  1.00  0.00    -0.014 A 
ATOM     57  C   UNL A   1      37.666  29.108  30.119  1.00  0.00     0.009 A 
ATOM     58  C   UNL A   1      38.249  29.679  27.842  1.00  0.00     0.009 A 
ATOM     59  C   UNL A   1      36.334  29.436  29.858  1.00  0.00     0.001 A 
ATOM     60  C   UNL A   1      36.921  30.029  27.591  1.00  0.00     0.001 A 
ATOM     61  C   UNL A   1      35.963  29.899  28.597  1.00  0.00     0.000 A 
ENDBRANCH  42  56
BRANCH  43  62
ATOM     62  C   UNL A   1      48.172  26.657  30.335  1.00  0.00    -0.014 A 
ATOM     63  C   UNL A   1      48.570  25.919  31.460  1.00  0.00     0.009 A 
ATOM     64  C   UNL A   1      49.138  27.042  29.394  1.00  0.00     0.009 A 
ATOM     65  C   UNL A   1      49.915  25.596  31.652  1.00  0.00     0.001 A 
ATOM     66  C   UNL A   1      50.478  26.696  29.577  1.00  0.00     0.001 A 
ATOM     67  C   UNL A   1      50.866  25.981  30.709  1.00  0.00     0.000 A 
ENDBRANCH  43  62
BRANCH  55  68
ATOM     68  C   UNL A   1      44.398  32.140  32.320  1.00  0.00    -0.014 A 
ATOM     69  C   UNL A   1      44.807  33.328  31.694  1.00  0.00     0.009 A 
ATOM     70  C   UNL A   1      44.304  32.106  33.720  1.00  0.00     0.009 A 
ATOM     71  C   UNL A   1      45.153  34.445  32.457  1.00  0.00     0.001 A 
ATOM     72  C   UNL A   1      44.626  33.233  34.479  1.00  0.00     0.001 A 
ATOM     73  C   UNL A   1      45.061  34.397  33.848  1.00  0.00     0.000 A 
ENDBRANCH  55  68
ENDBRANCH  29  30
ENDBRANCH  21  24
ENDBRANCH  19  20
ENDBRANCH   1  19
TORSDOF 12
ENDMDL
