MODEL 1
REMARK VINA RESULT:     -12.8      0.000      0.000
REMARK SMILES COc1ccccc1[C@@H]1C[N@@H+](Cc2cc3c(cc2C)OCO3)C[C@H]1C(=O)NCCCNC(=O)c1ccc(-c2c3nc(c(-c4ccccc4)c4ccc([nH]4)c(-c4ccccc4)c4nc(c(-c5ccccc5)c5ccc2[nH]5)C=C4)C=C3)cc1
REMARK SMILES IDX 29 1 28 2 27 3 25 4 26 5 24 7 9 8 10 9 11 10 23 11 8 13 3 14
REMARK SMILES IDX 4 15 5 16 7 17 6 18 2 19 1 20 12 21 13 22 14 23 18 24 15 25
REMARK SMILES IDX 17 26 19 27 16 28 22 29 20 30 21 31 30 32 31 33 32 34 33 36
REMARK SMILES IDX 34 37 35 38 81 39 36 40 80 41 37 42 38 43 39 44 74 45 40 46
REMARK SMILES IDX 79 47 73 48 75 49 41 50 78 51 72 52 71 53 42 55 64 56 49 57
REMARK SMILES IDX 63 58 50 59 53 60 62 61 76 62 51 63 52 64 61 66 77 67 54 68
REMARK SMILES IDX 43 69 44 70 48 71 45 72 47 73 46 74 65 75 66 76 70 77 67 78
REMARK SMILES IDX 69 79 68 80 55 81 56 82 60 83 57 84 59 85 58 86
REMARK H PARENT 27 6 11 12 31 35 75 54 53 65
REMARK Flexibility Score: inf
ROOT
ATOM      1  C   UNL A   1      34.092  29.824  27.364  1.00  0.00     0.042 C 
ENDROOT
BRANCH   1   2
ATOM      2  C   UNL A   1      33.335  29.190  26.142  1.00  0.00     0.117 C 
BRANCH   2   3
ATOM      3  N   UNL A   1      31.908  28.801  26.306  1.00  0.00    -0.356 N 
ATOM      4  C   UNL A   1      31.408  27.639  26.855  1.00  0.00     0.229 C 
ATOM      5  O   UNL A   1      31.155  27.739  28.068  1.00  0.00    -0.275 OA
ATOM      6  H   UNL A   1      31.242  29.451  25.986  1.00  0.00     0.163 HD
BRANCH   4   7
ATOM      7  C   UNL A   1      30.871  26.349  26.120  1.00  0.00     0.146 C 
ATOM      8  C   UNL A   1      30.817  26.435  24.580  1.00  0.00     0.096 C 
ATOM      9  C   UNL A   1      30.768  24.981  24.079  1.00  0.00     0.272 C 
ATOM     10  N   UNL A   1      31.502  24.188  25.059  1.00  0.00    -0.330 N 
ATOM     11  C   UNL A   1      31.342  24.896  26.352  1.00  0.00     0.276 C 
ATOM     12  H   UNL A   1      31.140  23.251  25.242  1.00  0.00     0.348 HD
BRANCH   8  13
ATOM     13  C   UNL A   1      29.777  27.271  23.847  1.00  0.00     0.004 A 
ATOM     14  C   UNL A   1      29.955  28.570  23.324  1.00  0.00     0.122 A 
ATOM     15  C   UNL A   1      28.845  29.328  22.916  1.00  0.00     0.047 A 
ATOM     16  C   UNL A   1      27.550  28.826  23.028  1.00  0.00     0.004 A 
ATOM     17  C   UNL A   1      28.454  26.777  23.913  1.00  0.00     0.008 A 
ATOM     18  C   UNL A   1      27.356  27.549  23.530  1.00  0.00     0.001 A 
BRANCH  14  19
ATOM     19  O   UNL A   1      31.108  29.307  23.396  1.00  0.00    -0.496 OA
ATOM     20  C   UNL A   1      32.190  28.829  22.610  1.00  0.00     0.278 C 
ENDBRANCH  14  19
ENDBRANCH   8  13
BRANCH  10  21
ATOM     21  C   UNL A   1      32.821  23.756  24.553  1.00  0.00     0.299 C 
BRANCH  21  22
ATOM     22  C   UNL A   1      33.229  22.352  24.954  1.00  0.00     0.013 A 
ATOM     23  C   UNL A   1      32.293  21.287  24.995  1.00  0.00     0.060 A 
ATOM     24  C   UNL A   1      34.593  22.068  25.089  1.00  0.00    -0.038 A 
ATOM     25  C   UNL A   1      32.763  19.986  24.951  1.00  0.00     0.166 A 
ATOM     26  C   UNL A   1      35.001  20.756  24.863  1.00  0.00     0.054 A 
ATOM     27  C   UNL A   1      35.593  23.125  25.463  1.00  0.00     0.045 C 
ATOM     28  C   UNL A   1      34.091  19.742  24.790  1.00  0.00     0.166 A 
ATOM     29  O   UNL A   1      32.047  18.830  24.977  1.00  0.00    -0.454 OA
ATOM     30  O   UNL A   1      34.391  18.433  24.596  1.00  0.00    -0.454 OA
ATOM     31  C   UNL A   1      33.112  17.849  24.897  1.00  0.00     0.468 C 
ENDBRANCH  21  22
ENDBRANCH  10  21
ENDBRANCH   4   7
ENDBRANCH   2   3
ENDBRANCH   1   2
BRANCH   1  32
ATOM     32  C   UNL A   1      34.132  31.358  27.625  1.00  0.00     0.118 C 
BRANCH  32  33
ATOM     33  N   UNL A   1      34.686  31.588  28.974  1.00  0.00    -0.352 N 
ATOM     34  C   UNL A   1      35.648  31.042  29.789  1.00  0.00     0.251 C 
ATOM     35  H   UNL A   1      34.240  32.348  29.414  1.00  0.00     0.163 HD
ATOM     36  O   UNL A   1      35.558  31.342  30.983  1.00  0.00    -0.269 OA
BRANCH  34  37
ATOM     37  C   UNL A   1      36.822  30.205  29.382  1.00  0.00     0.039 A 
ATOM     38  C   UNL A   1      37.478  29.483  30.405  1.00  0.00     0.014 A 
ATOM     39  C   UNL A   1      37.435  30.252  28.132  1.00  0.00     0.014 A 
ATOM     40  C   UNL A   1      38.741  28.900  30.209  1.00  0.00     0.010 A 
ATOM     41  C   UNL A   1      38.684  29.623  27.921  1.00  0.00     0.010 A 
ATOM     42  C   UNL A   1      39.381  28.991  28.969  1.00  0.00    -0.014 A 
BRANCH  42  43
ATOM     43  C   UNL A   1      40.809  28.551  28.823  1.00  0.00     0.031 A 
ATOM     44  C   UNL A   1      41.131  27.132  28.403  1.00  0.00     0.074 A 
ATOM     45  C   UNL A   1      41.835  29.403  29.026  1.00  0.00     0.049 A 
ATOM     46  N   UNL A   1      42.297  26.570  28.179  1.00  0.00    -0.248 NA
ATOM     47  C   UNL A   1      39.992  26.219  28.232  1.00  0.00     0.031 C 
ATOM     48  C   UNL A   1      41.709  30.796  29.451  1.00  0.00     0.029 A 
ATOM     49  N   UNL A   1      43.194  29.218  28.894  1.00  0.00    -0.354 N 
ATOM     50  C   UNL A   1      42.029  25.238  27.874  1.00  0.00     0.074 A 
ATOM     51  C   UNL A   1      40.595  25.069  27.989  1.00  0.00     0.031 C 
ATOM     52  C   UNL A   1      42.934  31.345  29.524  1.00  0.00     0.029 A 
ATOM     53  C   UNL A   1      43.936  30.344  29.162  1.00  0.00     0.049 A 
ATOM     54  H   UNL A   1      43.596  28.358  28.632  1.00  0.00     0.167 HD
ATOM     55  C   UNL A   1      42.879  24.246  27.510  1.00  0.00     0.031 A 
ATOM     56  C   UNL A   1      45.266  30.560  29.107  1.00  0.00     0.031 A 
ATOM     57  C   UNL A   1      44.303  24.398  27.358  1.00  0.00     0.049 A 
ATOM     58  C   UNL A   1      46.194  29.464  28.657  1.00  0.00     0.074 A 
ATOM     59  C   UNL A   1      45.234  23.460  26.943  1.00  0.00     0.029 A 
ATOM     60  N   UNL A   1      45.001  25.568  27.610  1.00  0.00    -0.354 N 
ATOM     61  N   UNL A   1      45.912  28.230  28.317  1.00  0.00    -0.248 NA
ATOM     62  C   UNL A   1      47.623  29.801  28.555  1.00  0.00     0.031 C 
ATOM     63  C   UNL A   1      46.501  24.056  26.974  1.00  0.00     0.029 A 
ATOM     64  C   UNL A   1      46.350  25.375  27.366  1.00  0.00     0.049 A 
ATOM     65  H   UNL A   1      44.597  26.412  27.917  1.00  0.00     0.167 HD
ATOM     66  C   UNL A   1      47.119  27.656  27.934  1.00  0.00     0.074 A 
ATOM     67  C   UNL A   1      48.134  28.679  28.073  1.00  0.00     0.031 C 
ATOM     68  C   UNL A   1      47.359  26.394  27.503  1.00  0.00     0.031 A 
BRANCH  55  69
ATOM     69  C   UNL A   1      42.276  22.889  27.257  1.00  0.00    -0.014 A 
ATOM     70  C   UNL A   1      42.268  21.898  28.252  1.00  0.00     0.009 A 
ATOM     71  C   UNL A   1      41.712  22.597  26.006  1.00  0.00     0.009 A 
ATOM     72  C   UNL A   1      41.762  20.625  27.980  1.00  0.00     0.001 A 
ATOM     73  C   UNL A   1      41.178  21.332  25.747  1.00  0.00     0.001 A 
ATOM     74  C   UNL A   1      41.218  20.343  26.728  1.00  0.00     0.000 A 
ENDBRANCH  55  69
BRANCH  56  75
ATOM     75  C   UNL A   1      45.805  31.905  29.444  1.00  0.00    -0.014 A 
ATOM     76  C   UNL A   1      46.147  32.223  30.769  1.00  0.00     0.009 A 
ATOM     77  C   UNL A   1      45.992  32.871  28.444  1.00  0.00     0.009 A 
ATOM     78  C   UNL A   1      46.652  33.486  31.086  1.00  0.00     0.001 A 
ATOM     79  C   UNL A   1      46.520  34.125  28.761  1.00  0.00     0.001 A 
ATOM     80  C   UNL A   1      46.844  34.433  30.081  1.00  0.00     0.000 A 
ENDBRANCH  56  75
BRANCH  68  81
ATOM     81  C   UNL A   1      48.770  26.052  27.112  1.00  0.00    -0.014 A 
ATOM     82  C   UNL A   1      49.251  26.296  25.816  1.00  0.00     0.009 A 
ATOM     83  C   UNL A   1      49.643  25.507  28.068  1.00  0.00     0.009 A 
ATOM     84  C   UNL A   1      50.567  25.971  25.477  1.00  0.00     0.001 A 
ATOM     85  C   UNL A   1      50.965  25.206  27.733  1.00  0.00     0.001 A 
ATOM     86  C   UNL A   1      51.422  25.429  26.436  1.00  0.00     0.000 A 
ENDBRANCH  68  81
ENDBRANCH  42  43
ENDBRANCH  34  37
ENDBRANCH  32  33
ENDBRANCH   1  32
TORSDOF 14
ENDMDL
MODEL 2
REMARK VINA RESULT:     -12.8      3.620      6.559
REMARK SMILES COc1ccccc1[C@@H]1C[N@@H+](Cc2cc3c(cc2C)OCO3)C[C@H]1C(=O)NCCCNC(=O)c1ccc(-c2c3nc(c(-c4ccccc4)c4ccc([nH]4)c(-c4ccccc4)c4nc(c(-c5ccccc5)c5ccc2[nH]5)C=C4)C=C3)cc1
REMARK SMILES IDX 29 1 28 2 27 3 25 4 26 5 24 7 9 8 10 9 11 10 23 11 8 13 3 14
REMARK SMILES IDX 4 15 5 16 7 17 6 18 2 19 1 20 12 21 13 22 14 23 18 24 15 25
REMARK SMILES IDX 17 26 19 27 16 28 22 29 20 30 21 31 30 32 31 33 32 34 33 36
REMARK SMILES IDX 34 37 35 38 81 39 36 40 80 41 37 42 38 43 39 44 74 45 40 46
REMARK SMILES IDX 79 47 73 48 75 49 41 50 78 51 72 52 71 53 42 55 64 56 49 57
REMARK SMILES IDX 63 58 50 59 53 60 62 61 76 62 51 63 52 64 61 66 77 67 54 68
REMARK SMILES IDX 43 69 44 70 48 71 45 72 47 73 46 74 65 75 66 76 70 77 67 78
REMARK SMILES IDX 69 79 68 80 55 81 56 82 60 83 57 84 59 85 58 86
REMARK H PARENT 27 6 11 12 31 35 75 54 53 65
REMARK Flexibility Score: inf
ROOT
ATOM      1  C   UNL A   1      31.770  29.044  26.914  1.00  0.00     0.042 C 
ENDROOT
BRANCH   1   2
ATOM      2  C   UNL A   1      32.167  27.525  26.877  1.00  0.00     0.117 C 
BRANCH   2   3
ATOM      3  N   UNL A   1      31.088  26.505  26.769  1.00  0.00    -0.356 N 
ATOM      4  C   UNL A   1      31.195  25.209  26.309  1.00  0.00     0.229 C 
ATOM      5  O   UNL A   1      31.402  24.383  27.216  1.00  0.00    -0.275 OA
ATOM      6  H   UNL A   1      30.193  26.788  27.060  1.00  0.00     0.163 HD
BRANCH   4   7
ATOM      7  C   UNL A   1      30.822  24.629  24.889  1.00  0.00     0.146 C 
ATOM      8  C   UNL A   1      31.478  25.341  23.686  1.00  0.00     0.096 C 
ATOM      9  C   UNL A   1      31.399  24.347  22.515  1.00  0.00     0.272 C 
ATOM     10  N   UNL A   1      31.463  23.014  23.107  1.00  0.00    -0.330 N 
ATOM     11  C   UNL A   1      30.872  23.146  24.460  1.00  0.00     0.276 C 
ATOM     12  H   UNL A   1      30.896  22.295  22.656  1.00  0.00     0.348 HD
BRANCH   8  13
ATOM     13  C   UNL A   1      31.043  26.724  23.222  1.00  0.00     0.004 A 
ATOM     14  C   UNL A   1      31.870  27.728  22.674  1.00  0.00     0.122 A 
ATOM     15  C   UNL A   1      31.395  29.044  22.543  1.00  0.00     0.047 A 
ATOM     16  C   UNL A   1      30.111  29.390  22.956  1.00  0.00     0.004 A 
ATOM     17  C   UNL A   1      29.734  27.100  23.599  1.00  0.00     0.008 A 
ATOM     18  C   UNL A   1      29.281  28.416  23.488  1.00  0.00     0.001 A 
BRANCH  14  19
ATOM     19  O   UNL A   1      33.222  27.625  22.473  1.00  0.00    -0.496 OA
ATOM     20  C   UNL A   1      33.992  28.734  22.913  1.00  0.00     0.278 C 
ENDBRANCH  14  19
ENDBRANCH   8  13
BRANCH  10  21
ATOM     21  C   UNL A   1      32.767  22.362  22.875  1.00  0.00     0.299 C 
BRANCH  21  22
ATOM     22  C   UNL A   1      32.987  21.080  23.654  1.00  0.00     0.013 A 
ATOM     23  C   UNL A   1      32.352  19.866  23.286  1.00  0.00     0.060 A 
ATOM     24  C   UNL A   1      33.991  21.057  24.629  1.00  0.00    -0.038 A 
ATOM     25  C   UNL A   1      32.885  18.672  23.739  1.00  0.00     0.166 A 
ATOM     26  C   UNL A   1      34.591  19.831  24.905  1.00  0.00     0.054 A 
ATOM     27  C   UNL A   1      34.418  22.298  25.361  1.00  0.00     0.045 C 
ATOM     28  C   UNL A   1      34.042  18.665  24.456  1.00  0.00     0.166 A 
ATOM     29  O   UNL A   1      32.440  17.409  23.508  1.00  0.00    -0.454 OA
ATOM     30  O   UNL A   1      34.537  17.425  24.690  1.00  0.00    -0.454 OA
ATOM     31  C   UNL A   1      33.422  16.635  24.242  1.00  0.00     0.468 C 
ENDBRANCH  21  22
ENDBRANCH  10  21
ENDBRANCH   4   7
ENDBRANCH   2   3
ENDBRANCH   1   2
BRANCH   1  32
ATOM     32  C   UNL A   1      32.324  30.084  25.897  1.00  0.00     0.118 C 
BRANCH  32  33
ATOM     33  N   UNL A   1      32.525  31.365  26.601  1.00  0.00    -0.352 N 
ATOM     34  C   UNL A   1      33.424  31.916  27.483  1.00  0.00     0.251 C 
ATOM     35  H   UNL A   1      31.813  32.007  26.375  1.00  0.00     0.163 HD
ATOM     36  O   UNL A   1      33.027  32.922  28.079  1.00  0.00    -0.269 OA
BRANCH  34  37
ATOM     37  C   UNL A   1      34.836  31.486  27.733  1.00  0.00     0.039 A 
ATOM     38  C   UNL A   1      35.054  30.108  27.959  1.00  0.00     0.014 A 
ATOM     39  C   UNL A   1      35.901  32.353  27.969  1.00  0.00     0.014 A 
ATOM     40  C   UNL A   1      36.265  29.623  28.481  1.00  0.00     0.010 A 
ATOM     41  C   UNL A   1      37.137  31.859  28.447  1.00  0.00     0.010 A 
ATOM     42  C   UNL A   1      37.317  30.499  28.766  1.00  0.00    -0.014 A 
BRANCH  42  43
ATOM     43  C   UNL A   1      38.526  30.011  29.512  1.00  0.00     0.031 A 
ATOM     44  C   UNL A   1      38.693  30.327  30.983  1.00  0.00     0.074 A 
ATOM     45  C   UNL A   1      39.469  29.257  28.911  1.00  0.00     0.049 A 
ATOM     46  N   UNL A   1      39.643  29.962  31.814  1.00  0.00    -0.248 NA
ATOM     47  C   UNL A   1      37.670  31.187  31.595  1.00  0.00     0.031 C 
ATOM     48  C   UNL A   1      39.477  28.873  27.500  1.00  0.00     0.029 A 
ATOM     49  N   UNL A   1      40.608  28.673  29.420  1.00  0.00    -0.354 N 
ATOM     50  C   UNL A   1      39.343  30.571  33.030  1.00  0.00     0.074 A 
ATOM     51  C   UNL A   1      38.153  31.366  32.812  1.00  0.00     0.031 C 
ATOM     52  C   UNL A   1      40.551  28.101  27.262  1.00  0.00     0.029 A 
ATOM     53  C   UNL A   1      41.317  27.941  28.496  1.00  0.00     0.049 A 
ATOM     54  H   UNL A   1      40.888  28.769  30.359  1.00  0.00     0.167 HD
ATOM     55  C   UNL A   1      39.975  30.471  34.226  1.00  0.00     0.031 A 
ATOM     56  C   UNL A   1      42.443  27.210  28.623  1.00  0.00     0.031 A 
ATOM     57  C   UNL A   1      41.141  29.664  34.475  1.00  0.00     0.049 A 
ATOM     58  C   UNL A   1      43.108  27.070  29.966  1.00  0.00     0.074 A 
ATOM     59  C   UNL A   1      41.816  29.463  35.668  1.00  0.00     0.029 A 
ATOM     60  N   UNL A   1      41.801  28.917  33.513  1.00  0.00    -0.354 N 
ATOM     61  N   UNL A   1      42.774  27.607  31.114  1.00  0.00    -0.248 NA
ATOM     62  C   UNL A   1      44.291  26.197  30.035  1.00  0.00     0.031 C 
ATOM     63  C   UNL A   1      42.905  28.618  35.420  1.00  0.00     0.029 A 
ATOM     64  C   UNL A   1      42.879  28.259  34.083  1.00  0.00     0.049 A 
ATOM     65  H   UNL A   1      41.542  28.862  32.565  1.00  0.00     0.167 HD
ATOM     66  C   UNL A   1      43.684  27.116  32.043  1.00  0.00     0.074 A 
ATOM     67  C   UNL A   1      44.577  26.228  31.328  1.00  0.00     0.031 C 
ATOM     68  C   UNL A   1      43.766  27.375  33.371  1.00  0.00     0.031 A 
BRANCH  55  69
ATOM     69  C   UNL A   1      39.409  31.277  35.366  1.00  0.00    -0.014 A 
ATOM     70  C   UNL A   1      38.382  30.768  36.179  1.00  0.00     0.009 A 
ATOM     71  C   UNL A   1      39.907  32.562  35.629  1.00  0.00     0.009 A 
ATOM     72  C   UNL A   1      37.825  31.554  37.190  1.00  0.00     0.001 A 
ATOM     73  C   UNL A   1      39.370  33.333  36.663  1.00  0.00     0.001 A 
ATOM     74  C   UNL A   1      38.319  32.835  37.432  1.00  0.00     0.000 A 
ENDBRANCH  55  69
BRANCH  56  75
ATOM     75  C   UNL A   1      42.994  26.500  27.439  1.00  0.00    -0.014 A 
ATOM     76  C   UNL A   1      42.627  25.172  27.170  1.00  0.00     0.009 A 
ATOM     77  C   UNL A   1      43.880  27.149  26.565  1.00  0.00     0.009 A 
ATOM     78  C   UNL A   1      43.146  24.504  26.058  1.00  0.00     0.001 A 
ATOM     79  C   UNL A   1      44.379  26.486  25.441  1.00  0.00     0.001 A 
ATOM     80  C   UNL A   1      44.016  25.164  25.192  1.00  0.00     0.000 A 
ENDBRANCH  56  75
BRANCH  68  81
ATOM     81  C   UNL A   1      44.836  26.665  34.152  1.00  0.00    -0.014 A 
ATOM     82  C   UNL A   1      46.107  27.231  34.334  1.00  0.00     0.009 A 
ATOM     83  C   UNL A   1      44.555  25.423  34.744  1.00  0.00     0.009 A 
ATOM     84  C   UNL A   1      47.086  26.552  35.065  1.00  0.00     0.001 A 
ATOM     85  C   UNL A   1      45.527  24.758  35.495  1.00  0.00     0.001 A 
ATOM     86  C   UNL A   1      46.793  25.319  35.647  1.00  0.00     0.000 A 
ENDBRANCH  68  81
ENDBRANCH  42  43
ENDBRANCH  34  37
ENDBRANCH  32  33
ENDBRANCH   1  32
TORSDOF 14
ENDMDL
MODEL 3
REMARK VINA RESULT:     -12.8      3.741      8.140
REMARK SMILES COc1ccccc1[C@@H]1C[N@@H+](Cc2cc3c(cc2C)OCO3)C[C@H]1C(=O)NCCCNC(=O)c1ccc(-c2c3nc(c(-c4ccccc4)c4ccc([nH]4)c(-c4ccccc4)c4nc(c(-c5ccccc5)c5ccc2[nH]5)C=C4)C=C3)cc1
REMARK SMILES IDX 29 1 28 2 27 3 25 4 26 5 24 7 9 8 10 9 11 10 23 11 8 13 3 14
REMARK SMILES IDX 4 15 5 16 7 17 6 18 2 19 1 20 12 21 13 22 14 23 18 24 15 25
REMARK SMILES IDX 17 26 19 27 16 28 22 29 20 30 21 31 30 32 31 33 32 34 33 36
REMARK SMILES IDX 34 37 35 38 81 39 36 40 80 41 37 42 38 43 39 44 74 45 40 46
REMARK SMILES IDX 79 47 73 48 75 49 41 50 78 51 72 52 71 53 42 55 64 56 49 57
REMARK SMILES IDX 63 58 50 59 53 60 62 61 76 62 51 63 52 64 61 66 77 67 54 68
REMARK SMILES IDX 43 69 44 70 48 71 45 72 47 73 46 74 65 75 66 76 70 77 67 78
REMARK SMILES IDX 69 79 68 80 55 81 56 82 60 83 57 84 59 85 58 86
REMARK H PARENT 27 6 11 12 31 35 75 54 53 65
REMARK Flexibility Score: inf
ROOT
ATOM      1  C   UNL A   1      31.779  29.535  27.176  1.00  0.00     0.042 C 
ENDROOT
BRANCH   1   2
ATOM      2  C   UNL A   1      31.343  28.054  26.887  1.00  0.00     0.117 C 
BRANCH   2   3
ATOM      3  N   UNL A   1      32.392  27.046  26.574  1.00  0.00    -0.356 N 
ATOM      4  C   UNL A   1      33.533  27.222  25.820  1.00  0.00     0.229 C 
ATOM      5  O   UNL A   1      34.528  27.528  26.501  1.00  0.00    -0.275 OA
ATOM      6  H   UNL A   1      32.255  26.148  26.949  1.00  0.00     0.163 HD
BRANCH   4   7
ATOM      7  C   UNL A   1      33.795  26.825  24.315  1.00  0.00     0.146 C 
ATOM      8  C   UNL A   1      33.418  25.378  23.933  1.00  0.00     0.096 C 
ATOM      9  C   UNL A   1      33.273  25.372  22.401  1.00  0.00     0.272 C 
ATOM     10  N   UNL A   1      32.816  26.707  22.029  1.00  0.00    -0.330 N 
ATOM     11  C   UNL A   1      33.358  27.620  23.064  1.00  0.00     0.276 C 
ATOM     12  H   UNL A   1      33.182  27.080  21.153  1.00  0.00     0.348 HD
BRANCH   8  13
ATOM     13  C   UNL A   1      34.239  24.177  24.380  1.00  0.00     0.004 A 
ATOM     14  C   UNL A   1      34.229  23.577  25.658  1.00  0.00     0.122 A 
ATOM     15  C   UNL A   1      35.226  22.656  26.016  1.00  0.00     0.047 A 
ATOM     16  C   UNL A   1      36.249  22.321  25.132  1.00  0.00     0.004 A 
ATOM     17  C   UNL A   1      35.270  23.790  23.493  1.00  0.00     0.008 A 
ATOM     18  C   UNL A   1      36.271  22.892  23.868  1.00  0.00     0.001 A 
BRANCH  14  19
ATOM     19  O   UNL A   1      33.472  23.987  26.724  1.00  0.00    -0.496 OA
ATOM     20  C   UNL A   1      32.214  23.344  26.864  1.00  0.00     0.278 C 
ENDBRANCH  14  19
ENDBRANCH   8  13
BRANCH  10  21
ATOM     21  C   UNL A   1      31.394  26.721  21.631  1.00  0.00     0.299 C 
BRANCH  21  22
ATOM     22  C   UNL A   1      30.531  27.719  22.377  1.00  0.00     0.013 A 
ATOM     23  C   UNL A   1      30.480  29.086  22.001  1.00  0.00     0.060 A 
ATOM     24  C   UNL A   1      29.620  27.237  23.324  1.00  0.00    -0.038 A 
ATOM     25  C   UNL A   1      29.403  29.850  22.414  1.00  0.00     0.166 A 
ATOM     26  C   UNL A   1      28.475  27.994  23.557  1.00  0.00     0.054 A 
ATOM     27  C   UNL A   1      29.852  25.953  24.068  1.00  0.00     0.045 C 
ATOM     28  C   UNL A   1      28.377  29.275  23.099  1.00  0.00     0.166 A 
ATOM     29  O   UNL A   1      29.158  31.164  22.169  1.00  0.00    -0.454 OA
ATOM     30  O   UNL A   1      27.316  30.097  23.294  1.00  0.00    -0.454 OA
ATOM     31  C   UNL A   1      27.895  31.340  22.861  1.00  0.00     0.468 C 
ENDBRANCH  21  22
ENDBRANCH  10  21
ENDBRANCH   4   7
ENDBRANCH   2   3
ENDBRANCH   1   2
BRANCH   1  32
ATOM     32  C   UNL A   1      31.803  30.636  26.075  1.00  0.00     0.118 C 
BRANCH  32  33
ATOM     33  N   UNL A   1      32.058  31.938  26.721  1.00  0.00    -0.352 N 
ATOM     34  C   UNL A   1      32.997  32.497  27.554  1.00  0.00     0.251 C 
ATOM     35  H   UNL A   1      31.358  32.590  26.489  1.00  0.00     0.163 HD
ATOM     36  O   UNL A   1      32.645  33.537  28.120  1.00  0.00    -0.269 OA
BRANCH  34  37
ATOM     37  C   UNL A   1      34.404  32.038  27.783  1.00  0.00     0.039 A 
ATOM     38  C   UNL A   1      34.595  30.655  28.009  1.00  0.00     0.014 A 
ATOM     39  C   UNL A   1      35.490  32.882  27.998  1.00  0.00     0.014 A 
ATOM     40  C   UNL A   1      35.804  30.146  28.511  1.00  0.00     0.010 A 
ATOM     41  C   UNL A   1      36.723  32.363  28.458  1.00  0.00     0.010 A 
ATOM     42  C   UNL A   1      36.879  31.000  28.777  1.00  0.00    -0.014 A 
BRANCH  42  43
ATOM     43  C   UNL A   1      38.089  30.487  29.504  1.00  0.00     0.031 A 
ATOM     44  C   UNL A   1      38.290  30.807  30.971  1.00  0.00     0.074 A 
ATOM     45  C   UNL A   1      39.005  29.709  28.891  1.00  0.00     0.049 A 
ATOM     46  N   UNL A   1      39.245  30.424  31.787  1.00  0.00    -0.248 NA
ATOM     47  C   UNL A   1      37.297  31.693  31.596  1.00  0.00     0.031 C 
ATOM     48  C   UNL A   1      38.979  29.318  27.483  1.00  0.00     0.029 A 
ATOM     49  N   UNL A   1      40.139  29.101  29.384  1.00  0.00    -0.354 N 
ATOM     50  C   UNL A   1      38.981  31.045  33.005  1.00  0.00     0.074 A 
ATOM     51  C   UNL A   1      37.805  31.866  32.804  1.00  0.00     0.031 C 
ATOM     52  C   UNL A   1      40.030  28.521  27.230  1.00  0.00     0.029 A 
ATOM     53  C   UNL A   1      40.814  28.349  28.451  1.00  0.00     0.049 A 
ATOM     54  H   UNL A   1      40.437  29.196  30.317  1.00  0.00     0.167 HD
ATOM     55  C   UNL A   1      39.631  30.936  34.190  1.00  0.00     0.031 A 
ATOM     56  C   UNL A   1      41.925  27.593  28.562  1.00  0.00     0.031 A 
ATOM     57  C   UNL A   1      40.782  30.103  34.423  1.00  0.00     0.049 A 
ATOM     58  C   UNL A   1      42.610  27.444  29.894  1.00  0.00     0.074 A 
ATOM     59  C   UNL A   1      41.473  29.893  35.606  1.00  0.00     0.029 A 
ATOM     60  N   UNL A   1      41.409  29.337  33.454  1.00  0.00    -0.354 N 
ATOM     61  N   UNL A   1      42.309  27.994  31.045  1.00  0.00    -0.248 NA
ATOM     62  C   UNL A   1      43.774  26.544  29.947  1.00  0.00     0.031 C 
ATOM     63  C   UNL A   1      42.538  29.021  35.343  1.00  0.00     0.029 A 
ATOM     64  C   UNL A   1      42.480  28.657  34.008  1.00  0.00     0.049 A 
ATOM     65  H   UNL A   1      41.132  29.283  32.511  1.00  0.00     0.167 HD
ATOM     66  C   UNL A   1      43.223  27.486  31.961  1.00  0.00     0.074 A 
ATOM     67  C   UNL A   1      44.084  26.575  31.234  1.00  0.00     0.031 C 
ATOM     68  C   UNL A   1      43.335  27.750  33.285  1.00  0.00     0.031 A 
BRANCH  55  69
ATOM     69  C   UNL A   1      39.104  31.760  35.336  1.00  0.00    -0.014 A 
ATOM     70  C   UNL A   1      39.543  33.077  35.550  1.00  0.00     0.009 A 
ATOM     71  C   UNL A   1      38.158  31.211  36.215  1.00  0.00     0.009 A 
ATOM     72  C   UNL A   1      39.092  33.804  36.654  1.00  0.00     0.001 A 
ATOM     73  C   UNL A   1      37.684  31.951  37.300  1.00  0.00     0.001 A 
ATOM     74  C   UNL A   1      38.163  33.241  37.528  1.00  0.00     0.000 A 
ENDBRANCH  55  69
BRANCH  56  75
ATOM     75  C   UNL A   1      42.439  26.865  27.372  1.00  0.00    -0.014 A 
ATOM     76  C   UNL A   1      43.440  27.434  26.567  1.00  0.00     0.009 A 
ATOM     77  C   UNL A   1      41.943  25.595  27.041  1.00  0.00     0.009 A 
ATOM     78  C   UNL A   1      43.922  26.751  25.448  1.00  0.00     0.001 A 
ATOM     79  C   UNL A   1      42.444  24.906  25.935  1.00  0.00     0.001 A 
ATOM     80  C   UNL A   1      43.428  25.485  25.137  1.00  0.00     0.000 A 
ENDBRANCH  56  75
BRANCH  68  81
ATOM     81  C   UNL A   1      44.402  27.019  34.051  1.00  0.00    -0.014 A 
ATOM     82  C   UNL A   1      44.155  25.768  34.637  1.00  0.00     0.009 A 
ATOM     83  C   UNL A   1      45.686  27.577  34.158  1.00  0.00     0.009 A 
ATOM     84  C   UNL A   1      45.164  25.106  35.343  1.00  0.00     0.001 A 
ATOM     85  C   UNL A   1      46.699  26.903  34.843  1.00  0.00     0.001 A 
ATOM     86  C   UNL A   1      46.434  25.673  35.443  1.00  0.00     0.000 A 
ENDBRANCH  68  81
ENDBRANCH  42  43
ENDBRANCH  34  37
ENDBRANCH  32  33
ENDBRANCH   1  32
TORSDOF 14
ENDMDL
