MODEL 1
REMARK VINA RESULT:     -11.6      0.000      0.000
REMARK SMILES NS(=O)(=O)c1ccc(/N=C/c2ccc(O)c(C(=O)NCCCNC(=O)c3ccc(-c4c5nc(c(-c6ccccc6)c6ccc([nH]6)c(-c6ccccc6)c6nc(c(-c7ccccc7)c7ccc4[nH]7)C=C6)C=C5)cc3)c2)cc1
REMARK SMILES IDX 20 1 19 2 17 3 18 4 16 6 11 7 12 8 74 9 13 10 14 11 10 12
REMARK SMILES IDX 9 13 8 14 5 15 6 16 76 17 7 18 75 19 2 20 3 21 4 22 1 23
REMARK SMILES IDX 15 26 21 28 22 29 23 30 24 31 25 33 26 34 27 35 73 36 28 37
REMARK SMILES IDX 72 38 29 39 30 40 31 41 66 42 32 43 71 44 65 45 67 46 33 47
REMARK SMILES IDX 70 48 64 49 63 50 34 52 56 53 41 54 55 55 42 56 45 57 54 58
REMARK SMILES IDX 68 59 43 60 44 61 53 63 69 64 46 65 35 66 36 67 40 68 37 69
REMARK SMILES IDX 39 70 38 71 57 72 58 73 62 74 59 75 61 76 60 77 47 78 48 79
REMARK SMILES IDX 52 80 49 81 51 82 50 83
REMARK H PARENT 19 5 1 24 1 25 15 27 23 32 67 51 45 62
REMARK Flexibility Score: inf
ROOT
ATOM      1  C   UNL A   1      31.684  30.056  26.905  1.00  0.00     0.118 C 
ENDROOT
BRANCH   1   2
ATOM      2  N   UNL A   1      33.037  29.643  27.267  1.00  0.00    -0.352 N 
ATOM      3  C   UNL A   1      33.925  28.730  26.750  1.00  0.00     0.255 C 
ATOM      4  O   UNL A   1      35.010  28.602  27.326  1.00  0.00    -0.269 OA
ATOM      5  H   UNL A   1      33.388  30.122  28.052  1.00  0.00     0.163 HD
BRANCH   3   6
ATOM      6  C   UNL A   1      33.641  27.829  25.599  1.00  0.00     0.082 A 
ATOM      7  C   UNL A   1      33.462  25.610  24.634  1.00  0.00    -0.006 A 
ATOM      8  C   UNL A   1      33.471  26.136  23.344  1.00  0.00     0.013 A 
ATOM      9  C   UNL A   1      33.431  26.462  25.743  1.00  0.00     0.027 A 
ATOM     10  C   UNL A   1      33.498  27.521  23.181  1.00  0.00     0.047 A 
ATOM     11  C   UNL A   1      33.612  28.357  24.297  1.00  0.00     0.128 A 
BRANCH   7  12
ATOM     12  C   UNL A   1      33.642  24.156  24.858  1.00  0.00     0.119 C 
ATOM     13  N   UNL A   1      33.330  23.320  23.920  1.00  0.00    -0.256 NA
BRANCH  13  14
ATOM     14  C   UNL A   1      33.361  21.934  24.127  1.00  0.00     0.063 A 
ATOM     15  C   UNL A   1      33.676  19.158  24.398  1.00  0.00     0.082 A 
ATOM     16  C   UNL A   1      34.694  20.012  24.820  1.00  0.00     0.024 A 
ATOM     17  C   UNL A   1      32.508  19.673  23.830  1.00  0.00     0.024 A 
ATOM     18  C   UNL A   1      34.529  21.393  24.681  1.00  0.00     0.030 A 
ATOM     19  C   UNL A   1      32.358  21.058  23.691  1.00  0.00     0.030 A 
BRANCH  15  20
ATOM     20  S   UNL A   1      33.882  17.406  24.522  1.00  0.00     0.238 S 
ATOM     21  O   UNL A   1      33.892  16.824  23.204  1.00  0.00    -0.207 OA
ATOM     22  O   UNL A   1      33.035  16.914  25.587  1.00  0.00    -0.207 OA
BRANCH  20  23
ATOM     23  N   UNL A   1      35.460  17.273  25.083  1.00  0.00    -0.225 NA
ATOM     24  H   UNL A   1      35.453  17.179  26.098  1.00  0.00     0.137 HD
ATOM     25  H   UNL A   1      35.985  18.108  24.822  1.00  0.00     0.137 HD
ENDBRANCH  20  23
ENDBRANCH  15  20
ENDBRANCH  13  14
ENDBRANCH   7  12
BRANCH  11  26
ATOM     26  O   UNL A   1      33.698  29.699  24.029  1.00  0.00    -0.507 OA
ATOM     27  H   UNL A   1      32.918  30.216  23.977  1.00  0.00     0.293 HD
ENDBRANCH  11  26
ENDBRANCH   3   6
ENDBRANCH   1   2
BRANCH   1  28
ATOM     28  C   UNL A   1      31.518  31.556  26.740  1.00  0.00     0.042 C 
BRANCH  28  29
ATOM     29  C   UNL A   1      32.786  32.360  26.970  1.00  0.00     0.118 C 
BRANCH  29  30
ATOM     30  N   UNL A   1      32.523  33.691  27.507  1.00  0.00    -0.352 N 
ATOM     31  C   UNL A   1      33.137  34.395  28.513  1.00  0.00     0.251 C 
ATOM     32  H   UNL A   1      31.779  34.166  27.072  1.00  0.00     0.163 HD
ATOM     33  O   UNL A   1      32.611  35.419  28.943  1.00  0.00    -0.269 OA
BRANCH  31  34
ATOM     34  C   UNL A   1      34.413  33.928  29.096  1.00  0.00     0.039 A 
ATOM     35  C   UNL A   1      34.388  33.138  30.250  1.00  0.00     0.014 A 
ATOM     36  C   UNL A   1      35.635  34.288  28.530  1.00  0.00     0.014 A 
ATOM     37  C   UNL A   1      35.584  32.650  30.783  1.00  0.00     0.010 A 
ATOM     38  C   UNL A   1      36.811  33.709  28.988  1.00  0.00     0.010 A 
ATOM     39  C   UNL A   1      36.802  32.894  30.130  1.00  0.00    -0.014 A 
BRANCH  39  40
ATOM     40  C   UNL A   1      38.080  32.322  30.622  1.00  0.00     0.031 A 
ATOM     41  C   UNL A   1      38.614  31.045  30.032  1.00  0.00     0.074 A 
ATOM     42  C   UNL A   1      38.721  32.910  31.650  1.00  0.00     0.049 A 
ATOM     43  N   UNL A   1      39.674  30.355  30.373  1.00  0.00    -0.248 NA
ATOM     44  C   UNL A   1      37.839  30.445  28.932  1.00  0.00     0.031 C 
ATOM     45  C   UNL A   1      38.284  34.127  32.339  1.00  0.00     0.029 A 
ATOM     46  N   UNL A   1      39.878  32.559  32.300  1.00  0.00    -0.354 N 
ATOM     47  C   UNL A   1      39.676  29.237  29.550  1.00  0.00     0.074 A 
ATOM     48  C   UNL A   1      38.483  29.305  28.737  1.00  0.00     0.031 C 
ATOM     49  C   UNL A   1      39.181  34.441  33.287  1.00  0.00     0.029 A 
ATOM     50  C   UNL A   1      40.226  33.424  33.309  1.00  0.00     0.049 A 
ATOM     51  H   UNL A   1      40.407  31.762  32.066  1.00  0.00     0.167 HD
ATOM     52  C   UNL A   1      40.600  28.250  29.461  1.00  0.00     0.031 A 
ATOM     53  C   UNL A   1      41.268  33.398  34.161  1.00  0.00     0.031 A 
ATOM     54  C   UNL A   1      41.790  28.187  30.266  1.00  0.00     0.049 A 
ATOM     55  C   UNL A   1      42.268  32.279  34.060  1.00  0.00     0.074 A 
ATOM     56  C   UNL A   1      42.818  27.264  30.214  1.00  0.00     0.029 A 
ATOM     57  N   UNL A   1      42.105  29.082  31.278  1.00  0.00    -0.354 N 
ATOM     58  N   UNL A   1      42.296  31.270  33.225  1.00  0.00    -0.248 NA
ATOM     59  C   UNL A   1      43.386  32.307  35.012  1.00  0.00     0.031 C 
ATOM     60  C   UNL A   1      43.723  27.561  31.238  1.00  0.00     0.029 A 
ATOM     61  C   UNL A   1      43.295  28.713  31.879  1.00  0.00     0.049 A 
ATOM     62  H   UNL A   1      41.562  29.864  31.530  1.00  0.00     0.167 HD
ATOM     63  C   UNL A   1      43.449  30.557  33.532  1.00  0.00     0.074 A 
ATOM     64  C   UNL A   1      44.101  31.263  34.616  1.00  0.00     0.031 C 
ATOM     65  C   UNL A   1      43.927  29.423  32.963  1.00  0.00     0.031 A 
BRANCH  52  66
ATOM     66  C   UNL A   1      40.345  27.152  28.461  1.00  0.00    -0.014 A 
ATOM     67  C   UNL A   1      39.594  26.013  28.800  1.00  0.00     0.009 A 
ATOM     68  C   UNL A   1      40.848  27.267  27.156  1.00  0.00     0.009 A 
ATOM     69  C   UNL A   1      39.394  24.992  27.867  1.00  0.00     0.001 A 
ATOM     70  C   UNL A   1      40.616  26.260  26.215  1.00  0.00     0.001 A 
ATOM     71  C   UNL A   1      39.902  25.119  26.575  1.00  0.00     0.000 A 
ENDBRANCH  52  66
BRANCH  53  72
ATOM     72  C   UNL A   1      41.429  34.476  35.174  1.00  0.00    -0.014 A 
ATOM     73  C   UNL A   1      40.828  34.361  36.436  1.00  0.00     0.009 A 
ATOM     74  C   UNL A   1      42.186  35.622  34.886  1.00  0.00     0.009 A 
ATOM     75  C   UNL A   1      40.959  35.383  37.380  1.00  0.00     0.001 A 
ATOM     76  C   UNL A   1      42.343  36.628  35.843  1.00  0.00     0.001 A 
ATOM     77  C   UNL A   1      41.722  36.512  37.084  1.00  0.00     0.000 A 
ENDBRANCH  53  72
BRANCH  65  78
ATOM     78  C   UNL A   1      45.236  28.894  33.481  1.00  0.00    -0.014 A 
ATOM     79  C   UNL A   1      45.288  27.947  34.515  1.00  0.00     0.009 A 
ATOM     80  C   UNL A   1      46.436  29.320  32.890  1.00  0.00     0.009 A 
ATOM     81  C   UNL A   1      46.517  27.468  34.974  1.00  0.00     0.001 A 
ATOM     82  C   UNL A   1      47.661  28.815  33.327  1.00  0.00     0.001 A 
ATOM     83  C   UNL A   1      47.701  27.897  34.375  1.00  0.00     0.000 A 
ENDBRANCH  65  78
ENDBRANCH  39  40
ENDBRANCH  31  34
ENDBRANCH  29  30
ENDBRANCH  28  29
ENDBRANCH   1  28
TORSDOF 15
ENDMDL
MODEL 2
REMARK VINA RESULT:     -11.5      2.689      7.031
REMARK SMILES NS(=O)(=O)c1ccc(/N=C/c2ccc(O)c(C(=O)NCCCNC(=O)c3ccc(-c4c5nc(c(-c6ccccc6)c6ccc([nH]6)c(-c6ccccc6)c6nc(c(-c7ccccc7)c7ccc4[nH]7)C=C6)C=C5)cc3)c2)cc1
REMARK SMILES IDX 20 1 19 2 17 3 18 4 16 6 11 7 12 8 74 9 13 10 14 11 10 12
REMARK SMILES IDX 9 13 8 14 5 15 6 16 76 17 7 18 75 19 2 20 3 21 4 22 1 23
REMARK SMILES IDX 15 26 21 28 22 29 23 30 24 31 25 33 26 34 27 35 73 36 28 37
REMARK SMILES IDX 72 38 29 39 30 40 31 41 66 42 32 43 71 44 65 45 67 46 33 47
REMARK SMILES IDX 70 48 64 49 63 50 34 52 56 53 41 54 55 55 42 56 45 57 54 58
REMARK SMILES IDX 68 59 43 60 44 61 53 63 69 64 46 65 35 66 36 67 40 68 37 69
REMARK SMILES IDX 39 70 38 71 57 72 58 73 62 74 59 75 61 76 60 77 47 78 48 79
REMARK SMILES IDX 52 80 49 81 51 82 50 83
REMARK H PARENT 19 5 1 24 1 25 15 27 23 32 67 51 45 62
REMARK Flexibility Score: inf
ROOT
ATOM      1  C   UNL A   1      33.426  29.359  24.946  1.00  0.00     0.118 C 
ENDROOT
BRANCH   1   2
ATOM      2  N   UNL A   1      33.893  29.063  23.595  1.00  0.00    -0.352 N 
ATOM      3  C   UNL A   1      33.593  28.087  22.675  1.00  0.00     0.255 C 
ATOM      4  O   UNL A   1      34.205  28.107  21.603  1.00  0.00    -0.269 OA
ATOM      5  H   UNL A   1      34.571  29.701  23.274  1.00  0.00     0.163 HD
BRANCH   3   6
ATOM      6  C   UNL A   1      32.645  26.963  22.910  1.00  0.00     0.082 A 
ATOM      7  C   UNL A   1      32.199  24.630  23.408  1.00  0.00    -0.006 A 
ATOM      8  C   UNL A   1      30.877  24.761  22.989  1.00  0.00     0.013 A 
ATOM      9  C   UNL A   1      33.033  25.752  23.472  1.00  0.00     0.027 A 
ATOM     10  C   UNL A   1      30.417  26.017  22.590  1.00  0.00     0.047 A 
ATOM     11  C   UNL A   1      31.300  27.099  22.524  1.00  0.00     0.128 A 
BRANCH   7  12
ATOM     12  C   UNL A   1      32.789  23.291  23.640  1.00  0.00     0.119 C 
ATOM     13  N   UNL A   1      32.207  22.242  23.154  1.00  0.00    -0.256 NA
BRANCH  13  14
ATOM     14  C   UNL A   1      32.651  20.947  23.452  1.00  0.00     0.063 A 
ATOM     15  C   UNL A   1      33.261  18.271  24.047  1.00  0.00     0.082 A 
ATOM     16  C   UNL A   1      32.479  18.569  22.931  1.00  0.00     0.024 A 
ATOM     17  C   UNL A   1      33.731  19.293  24.876  1.00  0.00     0.024 A 
ATOM     18  C   UNL A   1      32.180  19.904  22.643  1.00  0.00     0.030 A 
ATOM     19  C   UNL A   1      33.419  20.625  24.579  1.00  0.00     0.030 A 
BRANCH  15  20
ATOM     20  S   UNL A   1      33.614  16.588  24.457  1.00  0.00     0.238 S 
ATOM     21  O   UNL A   1      34.062  15.887  23.280  1.00  0.00    -0.207 OA
ATOM     22  O   UNL A   1      32.558  16.087  25.310  1.00  0.00    -0.207 OA
BRANCH  20  23
ATOM     23  N   UNL A   1      34.972  16.738  25.435  1.00  0.00    -0.225 NA
ATOM     24  H   UNL A   1      35.522  15.880  25.387  1.00  0.00     0.137 HD
ATOM     25  H   UNL A   1      34.680  16.902  26.398  1.00  0.00     0.137 HD
ENDBRANCH  20  23
ENDBRANCH  15  20
ENDBRANCH  13  14
ENDBRANCH   7  12
BRANCH  11  26
ATOM     26  O   UNL A   1      30.768  28.273  22.058  1.00  0.00    -0.507 OA
ATOM     27  H   UNL A   1      31.268  28.818  21.482  1.00  0.00     0.293 HD
ENDBRANCH  11  26
ENDBRANCH   3   6
ENDBRANCH   1   2
BRANCH   1  28
ATOM     28  C   UNL A   1      33.928  28.390  26.001  1.00  0.00     0.042 C 
BRANCH  28  29
ATOM     29  C   UNL A   1      33.443  28.685  27.409  1.00  0.00     0.118 C 
BRANCH  29  30
ATOM     30  N   UNL A   1      33.533  30.100  27.755  1.00  0.00    -0.352 N 
ATOM     31  C   UNL A   1      34.539  30.822  28.347  1.00  0.00     0.251 C 
ATOM     32  H   UNL A   1      32.735  30.627  27.522  1.00  0.00     0.163 HD
ATOM     33  O   UNL A   1      34.314  31.965  28.739  1.00  0.00    -0.269 OA
BRANCH  31  34
ATOM     34  C   UNL A   1      35.884  30.236  28.534  1.00  0.00     0.039 A 
ATOM     35  C   UNL A   1      36.797  30.269  27.474  1.00  0.00     0.014 A 
ATOM     36  C   UNL A   1      36.242  29.629  29.737  1.00  0.00     0.014 A 
ATOM     37  C   UNL A   1      38.086  29.762  27.653  1.00  0.00     0.010 A 
ATOM     38  C   UNL A   1      37.555  29.233  29.952  1.00  0.00     0.010 A 
ATOM     39  C   UNL A   1      38.491  29.281  28.909  1.00  0.00    -0.014 A 
BRANCH  39  40
ATOM     40  C   UNL A   1      39.877  28.812  29.155  1.00  0.00     0.031 A 
ATOM     41  C   UNL A   1      40.885  29.734  29.787  1.00  0.00     0.074 A 
ATOM     42  C   UNL A   1      40.249  27.585  28.743  1.00  0.00     0.049 A 
ATOM     43  N   UNL A   1      42.158  29.533  30.021  1.00  0.00    -0.248 NA
ATOM     44  C   UNL A   1      40.409  31.071  30.181  1.00  0.00     0.031 C 
ATOM     45  C   UNL A   1      39.379  26.613  28.077  1.00  0.00     0.029 A 
ATOM     46  N   UNL A   1      41.462  26.948  28.819  1.00  0.00    -0.354 N 
ATOM     47  C   UNL A   1      42.634  30.719  30.564  1.00  0.00     0.074 A 
ATOM     48  C   UNL A   1      41.533  31.656  30.568  1.00  0.00     0.031 C 
ATOM     49  C   UNL A   1      40.075  25.490  27.842  1.00  0.00     0.029 A 
ATOM     50  C   UNL A   1      41.449  25.679  28.291  1.00  0.00     0.049 A 
ATOM     51  H   UNL A   1      42.264  27.360  29.213  1.00  0.00     0.167 HD
ATOM     52  C   UNL A   1      43.871  31.000  31.039  1.00  0.00     0.031 A 
ATOM     53  C   UNL A   1      42.438  24.771  28.175  1.00  0.00     0.031 A 
ATOM     54  C   UNL A   1      44.963  30.064  31.040  1.00  0.00     0.049 A 
ATOM     55  C   UNL A   1      43.809  25.114  28.687  1.00  0.00     0.074 A 
ATOM     56  C   UNL A   1      46.238  30.228  31.551  1.00  0.00     0.029 A 
ATOM     57  N   UNL A   1      44.910  28.790  30.495  1.00  0.00    -0.354 N 
ATOM     58  N   UNL A   1      44.224  26.214  29.267  1.00  0.00    -0.248 NA
ATOM     59  C   UNL A   1      44.844  24.083  28.538  1.00  0.00     0.031 C 
ATOM     60  C   UNL A   1      46.977  29.078  31.256  1.00  0.00     0.029 A 
ATOM     61  C   UNL A   1      46.140  28.169  30.627  1.00  0.00     0.049 A 
ATOM     62  H   UNL A   1      44.115  28.387  30.076  1.00  0.00     0.167 HD
ATOM     63  C   UNL A   1      45.560  25.997  29.579  1.00  0.00     0.074 A 
ATOM     64  C   UNL A   1      45.878  24.653  29.140  1.00  0.00     0.031 C 
ATOM     65  C   UNL A   1      46.442  26.834  30.178  1.00  0.00     0.031 A 
BRANCH  52  66
ATOM     66  C   UNL A   1      44.105  32.385  31.583  1.00  0.00    -0.014 A 
ATOM     67  C   UNL A   1      43.894  32.684  32.940  1.00  0.00     0.009 A 
ATOM     68  C   UNL A   1      44.563  33.400  30.730  1.00  0.00     0.009 A 
ATOM     69  C   UNL A   1      44.088  33.982  33.419  1.00  0.00     0.001 A 
ATOM     70  C   UNL A   1      44.791  34.689  31.219  1.00  0.00     0.001 A 
ATOM     71  C   UNL A   1      44.541  34.982  32.559  1.00  0.00     0.000 A 
ENDBRANCH  52  66
BRANCH  53  72
ATOM     72  C   UNL A   1      42.160  23.444  27.565  1.00  0.00    -0.014 A 
ATOM     73  C   UNL A   1      42.423  23.218  26.205  1.00  0.00     0.009 A 
ATOM     74  C   UNL A   1      41.637  22.395  28.336  1.00  0.00     0.009 A 
ATOM     75  C   UNL A   1      42.142  21.978  25.625  1.00  0.00     0.001 A 
ATOM     76  C   UNL A   1      41.387  21.146  27.761  1.00  0.00     0.001 A 
ATOM     77  C   UNL A   1      41.631  20.942  26.405  1.00  0.00     0.000 A 
ENDBRANCH  53  72
BRANCH  65  78
ATOM     78  C   UNL A   1      47.829  26.306  30.427  1.00  0.00    -0.014 A 
ATOM     79  C   UNL A   1      48.823  26.361  29.439  1.00  0.00     0.009 A 
ATOM     80  C   UNL A   1      48.154  25.785  31.690  1.00  0.00     0.009 A 
ATOM     81  C   UNL A   1      50.105  25.869  29.698  1.00  0.00     0.001 A 
ATOM     82  C   UNL A   1      49.444  25.325  31.957  1.00  0.00     0.001 A 
ATOM     83  C   UNL A   1      50.415  25.358  30.957  1.00  0.00     0.000 A 
ENDBRANCH  65  78
ENDBRANCH  39  40
ENDBRANCH  31  34
ENDBRANCH  29  30
ENDBRANCH  28  29
ENDBRANCH   1  28
TORSDOF 15
ENDMDL
MODEL 3
REMARK VINA RESULT:     -11.5      1.410      6.090
REMARK SMILES NS(=O)(=O)c1ccc(/N=C/c2ccc(O)c(C(=O)NCCCNC(=O)c3ccc(-c4c5nc(c(-c6ccccc6)c6ccc([nH]6)c(-c6ccccc6)c6nc(c(-c7ccccc7)c7ccc4[nH]7)C=C6)C=C5)cc3)c2)cc1
REMARK SMILES IDX 20 1 19 2 17 3 18 4 16 6 11 7 12 8 74 9 13 10 14 11 10 12
REMARK SMILES IDX 9 13 8 14 5 15 6 16 76 17 7 18 75 19 2 20 3 21 4 22 1 23
REMARK SMILES IDX 15 26 21 28 22 29 23 30 24 31 25 33 26 34 27 35 73 36 28 37
REMARK SMILES IDX 72 38 29 39 30 40 31 41 66 42 32 43 71 44 65 45 67 46 33 47
REMARK SMILES IDX 70 48 64 49 63 50 34 52 56 53 41 54 55 55 42 56 45 57 54 58
REMARK SMILES IDX 68 59 43 60 44 61 53 63 69 64 46 65 35 66 36 67 40 68 37 69
REMARK SMILES IDX 39 70 38 71 57 72 58 73 62 74 59 75 61 76 60 77 47 78 48 79
REMARK SMILES IDX 52 80 49 81 51 82 50 83
REMARK H PARENT 19 5 1 24 1 25 15 27 23 32 67 51 45 62
REMARK Flexibility Score: inf
ROOT
ATOM      1  C   UNL A   1      31.415  30.756  26.454  1.00  0.00     0.118 C 
ENDROOT
BRANCH   1   2
ATOM      2  N   UNL A   1      32.395  30.265  25.490  1.00  0.00    -0.352 N 
ATOM      3  C   UNL A   1      32.392  29.256  24.558  1.00  0.00     0.255 C 
ATOM      4  O   UNL A   1      33.424  29.083  23.902  1.00  0.00    -0.269 OA
ATOM      5  H   UNL A   1      33.242  30.767  25.514  1.00  0.00     0.163 HD
BRANCH   3   6
ATOM      6  C   UNL A   1      31.266  28.306  24.340  1.00  0.00     0.082 A 
ATOM      7  C   UNL A   1      30.370  26.052  24.291  1.00  0.00    -0.006 A 
ATOM      8  C   UNL A   1      29.254  26.477  23.574  1.00  0.00     0.013 A 
ATOM      9  C   UNL A   1      31.301  26.982  24.763  1.00  0.00     0.027 A 
ATOM     10  C   UNL A   1      29.111  27.837  23.294  1.00  0.00     0.047 A 
ATOM     11  C   UNL A   1      30.121  28.736  23.648  1.00  0.00     0.128 A 
BRANCH   7  12
ATOM     12  C   UNL A   1      30.672  24.608  24.431  1.00  0.00     0.119 C 
ATOM     13  N   UNL A   1      31.864  24.175  24.174  1.00  0.00    -0.256 NA
BRANCH  13  14
ATOM     14  C   UNL A   1      32.167  22.807  24.167  1.00  0.00     0.063 A 
ATOM     15  C   UNL A   1      32.519  20.025  24.016  1.00  0.00     0.082 A 
ATOM     16  C   UNL A   1      32.254  20.751  22.855  1.00  0.00     0.024 A 
ATOM     17  C   UNL A   1      32.598  20.670  25.253  1.00  0.00     0.024 A 
ATOM     18  C   UNL A   1      32.079  22.136  22.940  1.00  0.00     0.030 A 
ATOM     19  C   UNL A   1      32.415  22.057  25.324  1.00  0.00     0.030 A 
BRANCH  15  20
ATOM     20  S   UNL A   1      32.698  18.268  23.940  1.00  0.00     0.238 S 
ATOM     21  O   UNL A   1      31.847  17.651  24.926  1.00  0.00    -0.207 OA
ATOM     22  O   UNL A   1      34.104  17.950  23.812  1.00  0.00    -0.207 OA
BRANCH  20  23
ATOM     23  N   UNL A   1      32.001  17.904  22.455  1.00  0.00    -0.225 NA
ATOM     24  H   UNL A   1      31.078  17.498  22.603  1.00  0.00     0.137 HD
ATOM     25  H   UNL A   1      32.590  17.236  21.958  1.00  0.00     0.137 HD
ENDBRANCH  20  23
ENDBRANCH  15  20
ENDBRANCH  13  14
ENDBRANCH   7  12
BRANCH  11  26
ATOM     26  O   UNL A   1      29.916  30.039  23.272  1.00  0.00    -0.507 OA
ATOM     27  H   UNL A   1      29.180  30.513  23.606  1.00  0.00     0.293 HD
ENDBRANCH  11  26
ENDBRANCH   3   6
ENDBRANCH   1   2
BRANCH   1  28
ATOM     28  C   UNL A   1      31.408  32.266  26.616  1.00  0.00     0.042 C 
BRANCH  28  29
ATOM     29  C   UNL A   1      32.718  32.852  27.112  1.00  0.00     0.118 C 
BRANCH  29  30
ATOM     30  N   UNL A   1      32.553  34.162  27.734  1.00  0.00    -0.352 N 
ATOM     31  C   UNL A   1      33.205  34.747  28.791  1.00  0.00     0.251 C 
ATOM     32  H   UNL A   1      31.856  34.723  27.324  1.00  0.00     0.163 HD
ATOM     33  O   UNL A   1      32.755  35.779  29.283  1.00  0.00    -0.269 OA
BRANCH  31  34
ATOM     34  C   UNL A   1      34.431  34.142  29.354  1.00  0.00     0.039 A 
ATOM     35  C   UNL A   1      34.338  33.354  30.506  1.00  0.00     0.014 A 
ATOM     36  C   UNL A   1      35.677  34.371  28.771  1.00  0.00     0.014 A 
ATOM     37  C   UNL A   1      35.481  32.738  31.020  1.00  0.00     0.010 A 
ATOM     38  C   UNL A   1      36.790  33.666  29.211  1.00  0.00     0.010 A 
ATOM     39  C   UNL A   1      36.709  32.852  30.350  1.00  0.00    -0.014 A 
BRANCH  39  40
ATOM     40  C   UNL A   1      37.925  32.143  30.822  1.00  0.00     0.031 A 
ATOM     41  C   UNL A   1      38.737  32.710  31.956  1.00  0.00     0.074 A 
ATOM     42  C   UNL A   1      38.340  31.033  30.183  1.00  0.00     0.049 A 
ATOM     43  N   UNL A   1      39.863  32.276  32.464  1.00  0.00    -0.248 NA
ATOM     44  C   UNL A   1      38.235  33.945  32.581  1.00  0.00     0.031 C 
ATOM     45  C   UNL A   1      37.667  30.408  29.042  1.00  0.00     0.029 A 
ATOM     46  N   UNL A   1      39.434  30.234  30.401  1.00  0.00    -0.354 N 
ATOM     47  C   UNL A   1      40.211  33.193  33.447  1.00  0.00     0.074 A 
ATOM     48  C   UNL A   1      39.214  34.240  33.423  1.00  0.00     0.031 C 
ATOM     49  C   UNL A   1      38.340  29.302  28.686  1.00  0.00     0.029 A 
ATOM     50  C   UNL A   1      39.518  29.169  29.537  1.00  0.00     0.049 A 
ATOM     51  H   UNL A   1      40.097  30.408  31.108  1.00  0.00     0.167 HD
ATOM     52  C   UNL A   1      41.254  33.159  34.310  1.00  0.00     0.031 A 
ATOM     53  C   UNL A   1      40.444  28.196  29.436  1.00  0.00     0.031 A 
ATOM     54  C   UNL A   1      42.242  32.114  34.337  1.00  0.00     0.049 A 
ATOM     55  C   UNL A   1      41.606  28.192  30.389  1.00  0.00     0.074 A 
ATOM     56  C   UNL A   1      43.304  31.953  35.208  1.00  0.00     0.029 A 
ATOM     57  N   UNL A   1      42.291  31.053  33.444  1.00  0.00    -0.354 N 
ATOM     58  N   UNL A   1      41.881  29.025  31.362  1.00  0.00    -0.248 NA
ATOM     59  C   UNL A   1      42.581  27.103  30.234  1.00  0.00     0.031 C 
ATOM     60  C   UNL A   1      44.035  30.832  34.802  1.00  0.00     0.029 A 
ATOM     61  C   UNL A   1      43.386  30.253  33.723  1.00  0.00     0.049 A 
ATOM     62  H   UNL A   1      41.644  30.894  32.719  1.00  0.00     0.167 HD
ATOM     63  C   UNL A   1      43.042  28.547  31.955  1.00  0.00     0.074 A 
ATOM     64  C   UNL A   1      43.408  27.339  31.242  1.00  0.00     0.031 C 
ATOM     65  C   UNL A   1      43.740  29.059  32.999  1.00  0.00     0.031 A 
BRANCH  52  66
ATOM     66  C   UNL A   1      41.383  34.299  35.286  1.00  0.00    -0.014 A 
ATOM     67  C   UNL A   1      40.704  34.291  36.516  1.00  0.00     0.009 A 
ATOM     68  C   UNL A   1      42.211  35.389  34.979  1.00  0.00     0.009 A 
ATOM     69  C   UNL A   1      40.813  35.372  37.395  1.00  0.00     0.001 A 
ATOM     70  C   UNL A   1      42.347  36.453  35.875  1.00  0.00     0.001 A 
ATOM     71  C   UNL A   1      41.638  36.449  37.075  1.00  0.00     0.000 A 
ENDBRANCH  52  66
BRANCH  53  72
ATOM     72  C   UNL A   1      40.298  27.134  28.404  1.00  0.00    -0.014 A 
ATOM     73  C   UNL A   1      40.875  27.291  27.135  1.00  0.00     0.009 A 
ATOM     74  C   UNL A   1      39.586  25.958  28.683  1.00  0.00     0.009 A 
ATOM     75  C   UNL A   1      40.720  26.305  26.158  1.00  0.00     0.001 A 
ATOM     76  C   UNL A   1      39.460  24.957  27.715  1.00  0.00     0.001 A 
ATOM     77  C   UNL A   1      40.018  25.137  26.452  1.00  0.00     0.000 A 
ENDBRANCH  53  72
BRANCH  65  78
ATOM     78  C   UNL A   1      44.952  28.294  33.455  1.00  0.00    -0.014 A 
ATOM     79  C   UNL A   1      44.856  27.265  34.404  1.00  0.00     0.009 A 
ATOM     80  C   UNL A   1      46.205  28.584  32.892  1.00  0.00     0.009 A 
ATOM     81  C   UNL A   1      45.996  26.567  34.807  1.00  0.00     0.001 A 
ATOM     82  C   UNL A   1      47.338  27.862  33.271  1.00  0.00     0.001 A 
ATOM     83  C   UNL A   1      47.234  26.861  34.236  1.00  0.00     0.000 A 
ENDBRANCH  65  78
ENDBRANCH  39  40
ENDBRANCH  31  34
ENDBRANCH  29  30
ENDBRANCH  28  29
ENDBRANCH   1  28
TORSDOF 15
ENDMDL
