MODEL 1
REMARK VINA RESULT:     -10.3      0.000      0.000
REMARK SMILES COCC[C@H](NC(=O)c1ccc(C)cc1F)C(=O)NCCCNC(=O)c1ccc(-c2c3nc(c(-c4ccccc4)c4ccc([nH]4)c(-c4ccccc4)c4nc(c(-c5ccccc5)c5ccc2[nH]5)C=C4)C=C3)cc1
REMARK SMILES IDX 20 1 19 2 17 3 18 4 5 6 4 7 3 8 2 9 1 10 6 11 7 12 8 14 9 15
REMARK SMILES IDX 10 16 15 17 11 18 14 19 16 20 12 21 13 22 21 23 22 24 23 25
REMARK SMILES IDX 24 26 25 28 26 29 27 30 73 31 28 32 72 33 29 34 30 35 31 36
REMARK SMILES IDX 66 37 32 38 71 39 65 40 67 41 33 42 70 43 64 44 63 45 34 47
REMARK SMILES IDX 56 48 41 49 55 50 42 51 45 52 54 53 68 54 43 55 44 56 53 58
REMARK SMILES IDX 69 59 46 60 35 61 36 62 40 63 37 64 39 65 38 66 57 67 58 68
REMARK SMILES IDX 62 69 59 70 61 71 60 72 47 73 48 74 52 75 49 76 51 77 50 78
REMARK H PARENT 19 5 6 13 23 27 67 46 45 57
REMARK Flexibility Score: inf
ROOT
ATOM      1  C   UNL A   1      36.150  20.761  24.854  1.00  0.00     0.117 C 
ENDROOT
BRANCH   1   2
ATOM      2  N   UNL A   1      35.964  21.503  26.091  1.00  0.00    -0.354 N 
ATOM      3  C   UNL A   1      35.082  22.489  26.423  1.00  0.00     0.242 C 
ATOM      4  O   UNL A   1      35.068  22.853  27.603  1.00  0.00    -0.273 OA
ATOM      5  H   UNL A   1      36.583  21.250  26.814  1.00  0.00     0.163 HD
BRANCH   3   6
ATOM      6  C   UNL A   1      34.038  23.026  25.429  1.00  0.00     0.173 C 
BRANCH   6   7
ATOM      7  C   UNL A   1      34.312  24.543  25.304  1.00  0.00     0.063 C 
BRANCH   7   8
ATOM      8  C   UNL A   1      34.216  25.065  23.879  1.00  0.00     0.162 C 
BRANCH   8   9
ATOM      9  O   UNL A   1      33.792  24.005  23.027  1.00  0.00    -0.385 OA
ATOM     10  C   UNL A   1      32.755  24.417  22.144  1.00  0.00     0.194 C 
ENDBRANCH   8   9
ENDBRANCH   7   8
ENDBRANCH   6   7
BRANCH   6  11
ATOM     11  N   UNL A   1      32.643  22.732  25.775  1.00  0.00    -0.340 N 
ATOM     12  C   UNL A   1      31.835  21.679  25.404  1.00  0.00     0.254 C 
ATOM     13  H   UNL A   1      32.215  23.393  26.366  1.00  0.00     0.164 HD
ATOM     14  O   UNL A   1      30.622  21.775  25.578  1.00  0.00    -0.269 OA
BRANCH  12  15
ATOM     15  C   UNL A   1      32.382  20.417  24.860  1.00  0.00     0.075 A 
ATOM     16  C   UNL A   1      32.839  19.406  25.706  1.00  0.00     0.017 A 
ATOM     17  C   UNL A   1      32.304  20.153  23.494  1.00  0.00     0.136 A 
ATOM     18  C   UNL A   1      33.298  18.190  25.196  1.00  0.00     0.004 A 
ATOM     19  C   UNL A   1      32.739  18.928  22.975  1.00  0.00     0.043 A 
ATOM     20  F   UNL A   1      31.817  21.065  22.640  1.00  0.00    -0.206 F 
ATOM     21  C   UNL A   1      33.270  17.946  23.821  1.00  0.00    -0.048 A 
ATOM     22  C   UNL A   1      33.742  16.631  23.278  1.00  0.00     0.044 C 
ENDBRANCH  12  15
ENDBRANCH   6  11
ENDBRANCH   3   6
ENDBRANCH   1   2
BRANCH   1  23
ATOM     23  C   UNL A   1      37.397  19.885  24.830  1.00  0.00     0.042 C 
BRANCH  23  24
ATOM     24  C   UNL A   1      38.546  20.369  25.705  1.00  0.00     0.118 C 
BRANCH  24  25
ATOM     25  N   UNL A   1      39.671  19.452  25.731  1.00  0.00    -0.352 N 
ATOM     26  C   UNL A   1      40.985  19.664  26.057  1.00  0.00     0.251 C 
ATOM     27  H   UNL A   1      39.454  18.527  25.471  1.00  0.00     0.163 HD
ATOM     28  O   UNL A   1      41.805  18.772  25.860  1.00  0.00    -0.269 OA
BRANCH  26  29
ATOM     29  C   UNL A   1      41.431  20.957  26.622  1.00  0.00     0.039 A 
ATOM     30  C   UNL A   1      41.899  21.937  25.742  1.00  0.00     0.014 A 
ATOM     31  C   UNL A   1      41.436  21.197  27.998  1.00  0.00     0.014 A 
ATOM     32  C   UNL A   1      42.318  23.174  26.237  1.00  0.00     0.010 A 
ATOM     33  C   UNL A   1      41.778  22.458  28.484  1.00  0.00     0.010 A 
ATOM     34  C   UNL A   1      42.235  23.454  27.609  1.00  0.00    -0.014 A 
BRANCH  34  35
ATOM     35  C   UNL A   1      42.635  24.779  28.145  1.00  0.00     0.031 A 
ATOM     36  C   UNL A   1      41.604  25.853  28.361  1.00  0.00     0.074 A 
ATOM     37  C   UNL A   1      43.935  25.036  28.388  1.00  0.00     0.049 A 
ATOM     38  N   UNL A   1      41.769  27.084  28.775  1.00  0.00    -0.248 NA
ATOM     39  C   UNL A   1      40.209  25.505  28.049  1.00  0.00     0.031 C 
ATOM     40  C   UNL A   1      45.039  24.096  28.183  1.00  0.00     0.029 A 
ATOM     41  N   UNL A   1      44.546  26.171  28.857  1.00  0.00    -0.354 N 
ATOM     42  C   UNL A   1      40.505  27.662  28.749  1.00  0.00     0.074 A 
ATOM     43  C   UNL A   1      39.593  26.663  28.239  1.00  0.00     0.031 C 
ATOM     44  C   UNL A   1      46.189  24.685  28.548  1.00  0.00     0.029 A 
ATOM     45  C   UNL A   1      45.910  26.051  28.978  1.00  0.00     0.049 A 
ATOM     46  H   UNL A   1      44.056  26.994  29.085  1.00  0.00     0.167 HD
ATOM     47  C   UNL A   1      40.133  28.906  29.132  1.00  0.00     0.031 A 
ATOM     48  C   UNL A   1      46.833  26.941  29.384  1.00  0.00     0.031 A 
ATOM     49  C   UNL A   1      41.035  29.897  29.657  1.00  0.00     0.049 A 
ATOM     50  C   UNL A   1      46.396  28.316  29.805  1.00  0.00     0.074 A 
ATOM     51  C   UNL A   1      40.744  31.163  30.132  1.00  0.00     0.029 A 
ATOM     52  N   UNL A   1      42.406  29.730  29.774  1.00  0.00    -0.354 N 
ATOM     53  N   UNL A   1      45.189  28.824  29.838  1.00  0.00    -0.248 NA
ATOM     54  C   UNL A   1      47.451  29.234  30.256  1.00  0.00     0.031 C 
ATOM     55  C   UNL A   1      41.946  31.780  30.496  1.00  0.00     0.029 A 
ATOM     56  C   UNL A   1      42.978  30.880  30.293  1.00  0.00     0.049 A 
ATOM     57  H   UNL A   1      42.900  28.916  29.525  1.00  0.00     0.167 HD
ATOM     58  C   UNL A   1      45.335  30.113  30.334  1.00  0.00     0.074 A 
ATOM     59  C   UNL A   1      46.746  30.302  30.603  1.00  0.00     0.031 C 
ATOM     60  C   UNL A   1      44.384  31.053  30.550  1.00  0.00     0.031 A 
BRANCH  47  61
ATOM     61  C   UNL A   1      38.681  29.268  28.985  1.00  0.00    -0.014 A 
ATOM     62  C   UNL A   1      38.173  29.759  27.772  1.00  0.00     0.009 A 
ATOM     63  C   UNL A   1      37.806  29.096  30.068  1.00  0.00     0.009 A 
ATOM     64  C   UNL A   1      36.826  30.109  27.660  1.00  0.00     0.001 A 
ATOM     65  C   UNL A   1      36.453  29.420  29.944  1.00  0.00     0.001 A 
ATOM     66  C   UNL A   1      35.967  29.938  28.744  1.00  0.00     0.000 A 
ENDBRANCH  47  61
BRANCH  48  67
ATOM     67  C   UNL A   1      48.265  26.551  29.431  1.00  0.00    -0.014 A 
ATOM     68  C   UNL A   1      49.099  26.776  28.326  1.00  0.00     0.009 A 
ATOM     69  C   UNL A   1      48.806  25.962  30.585  1.00  0.00     0.009 A 
ATOM     70  C   UNL A   1      50.444  26.402  28.369  1.00  0.00     0.001 A 
ATOM     71  C   UNL A   1      50.158  25.613  30.633  1.00  0.00     0.001 A 
ATOM     72  C   UNL A   1      50.974  25.826  29.524  1.00  0.00     0.000 A 
ENDBRANCH  48  67
BRANCH  60  73
ATOM     73  C   UNL A   1      44.835  32.363  31.131  1.00  0.00    -0.014 A 
ATOM     74  C   UNL A   1      44.915  32.554  32.519  1.00  0.00     0.009 A 
ATOM     75  C   UNL A   1      45.222  33.406  30.276  1.00  0.00     0.009 A 
ATOM     76  C   UNL A   1      45.345  33.776  33.039  1.00  0.00     0.001 A 
ATOM     77  C   UNL A   1      45.676  34.618  30.798  1.00  0.00     0.001 A 
ATOM     78  C   UNL A   1      45.730  34.805  32.178  1.00  0.00     0.000 A 
ENDBRANCH  60  73
ENDBRANCH  34  35
ENDBRANCH  26  29
ENDBRANCH  24  25
ENDBRANCH  23  24
ENDBRANCH   1  23
TORSDOF 15
ENDMDL
MODEL 2
REMARK VINA RESULT:     -10.2      0.604      6.009
REMARK SMILES COCC[C@H](NC(=O)c1ccc(C)cc1F)C(=O)NCCCNC(=O)c1ccc(-c2c3nc(c(-c4ccccc4)c4ccc([nH]4)c(-c4ccccc4)c4nc(c(-c5ccccc5)c5ccc2[nH]5)C=C4)C=C3)cc1
REMARK SMILES IDX 20 1 19 2 17 3 18 4 5 6 4 7 3 8 2 9 1 10 6 11 7 12 8 14 9 15
REMARK SMILES IDX 10 16 15 17 11 18 14 19 16 20 12 21 13 22 21 23 22 24 23 25
REMARK SMILES IDX 24 26 25 28 26 29 27 30 73 31 28 32 72 33 29 34 30 35 31 36
REMARK SMILES IDX 66 37 32 38 71 39 65 40 67 41 33 42 70 43 64 44 63 45 34 47
REMARK SMILES IDX 56 48 41 49 55 50 42 51 45 52 54 53 68 54 43 55 44 56 53 58
REMARK SMILES IDX 69 59 46 60 35 61 36 62 40 63 37 64 39 65 38 66 57 67 58 68
REMARK SMILES IDX 62 69 59 70 61 71 60 72 47 73 48 74 52 75 49 76 51 77 50 78
REMARK H PARENT 19 5 6 13 23 27 67 46 45 57
REMARK Flexibility Score: inf
ROOT
ATOM      1  C   UNL A   1      36.233  20.370  24.966  1.00  0.00     0.117 C 
ENDROOT
BRANCH   1   2
ATOM      2  N   UNL A   1      36.388  21.718  25.488  1.00  0.00    -0.354 N 
ATOM      3  C   UNL A   1      35.654  22.849  25.284  1.00  0.00     0.242 C 
ATOM      4  O   UNL A   1      35.945  23.837  25.967  1.00  0.00    -0.273 OA
ATOM      5  H   UNL A   1      37.156  21.834  26.093  1.00  0.00     0.163 HD
BRANCH   3   6
ATOM      6  C   UNL A   1      34.417  22.872  24.369  1.00  0.00     0.173 C 
BRANCH   6   7
ATOM      7  C   UNL A   1      34.552  24.149  23.507  1.00  0.00     0.063 C 
BRANCH   7   8
ATOM      8  C   UNL A   1      33.311  24.466  22.687  1.00  0.00     0.162 C 
BRANCH   8   9
ATOM      9  O   UNL A   1      32.366  25.132  23.519  1.00  0.00    -0.385 OA
ATOM     10  C   UNL A   1      31.035  24.980  23.038  1.00  0.00     0.194 C 
ENDBRANCH   8   9
ENDBRANCH   7   8
ENDBRANCH   6   7
BRANCH   6  11
ATOM     11  N   UNL A   1      33.128  22.796  25.065  1.00  0.00    -0.340 N 
ATOM     12  C   UNL A   1      32.209  21.771  25.130  1.00  0.00     0.254 C 
ATOM     13  H   UNL A   1      32.879  23.607  25.565  1.00  0.00     0.164 HD
ATOM     14  O   UNL A   1      31.075  22.019  25.534  1.00  0.00    -0.269 OA
BRANCH  12  15
ATOM     15  C   UNL A   1      32.557  20.375  24.787  1.00  0.00     0.075 A 
ATOM     16  C   UNL A   1      32.890  19.452  25.778  1.00  0.00     0.017 A 
ATOM     17  C   UNL A   1      32.404  19.917  23.480  1.00  0.00     0.136 A 
ATOM     18  C   UNL A   1      33.159  18.118  25.463  1.00  0.00     0.004 A 
ATOM     19  C   UNL A   1      32.648  18.577  23.157  1.00  0.00     0.043 A 
ATOM     20  F   UNL A   1      32.027  20.747  22.497  1.00  0.00    -0.206 F 
ATOM     21  C   UNL A   1      33.058  17.672  24.143  1.00  0.00    -0.048 A 
ATOM     22  C   UNL A   1      33.325  16.234  23.810  1.00  0.00     0.044 C 
ENDBRANCH  12  15
ENDBRANCH   6  11
ENDBRANCH   3   6
ENDBRANCH   1   2
BRANCH   1  23
ATOM     23  C   UNL A   1      37.525  19.562  24.925  1.00  0.00     0.042 C 
BRANCH  23  24
ATOM     24  C   UNL A   1      38.727  20.228  25.579  1.00  0.00     0.118 C 
BRANCH  24  25
ATOM     25  N   UNL A   1      39.877  19.349  25.693  1.00  0.00    -0.352 N 
ATOM     26  C   UNL A   1      41.165  19.613  26.084  1.00  0.00     0.251 C 
ATOM     27  H   UNL A   1      39.705  18.411  25.450  1.00  0.00     0.163 HD
ATOM     28  O   UNL A   1      42.021  18.744  25.958  1.00  0.00    -0.269 OA
BRANCH  26  29
ATOM     29  C   UNL A   1      41.538  20.935  26.633  1.00  0.00     0.039 A 
ATOM     30  C   UNL A   1      42.025  21.905  25.752  1.00  0.00     0.014 A 
ATOM     31  C   UNL A   1      41.458  21.215  28.000  1.00  0.00     0.014 A 
ATOM     32  C   UNL A   1      42.378  23.168  26.231  1.00  0.00     0.010 A 
ATOM     33  C   UNL A   1      41.734  22.499  28.465  1.00  0.00     0.010 A 
ATOM     34  C   UNL A   1      42.209  23.484  27.588  1.00  0.00    -0.014 A 
BRANCH  34  35
ATOM     35  C   UNL A   1      42.538  24.836  28.105  1.00  0.00     0.031 A 
ATOM     36  C   UNL A   1      43.951  25.175  28.496  1.00  0.00     0.074 A 
ATOM     37  C   UNL A   1      41.558  25.744  28.272  1.00  0.00     0.049 A 
ATOM     38  N   UNL A   1      44.422  26.283  29.010  1.00  0.00    -0.248 NA
ATOM     39  C   UNL A   1      44.962  24.122  28.308  1.00  0.00     0.031 C 
ATOM     40  C   UNL A   1      40.141  25.529  27.970  1.00  0.00     0.029 A 
ATOM     41  N   UNL A   1      41.606  27.031  28.746  1.00  0.00    -0.354 N 
ATOM     42  C   UNL A   1      45.775  26.052  29.228  1.00  0.00     0.074 A 
ATOM     43  C   UNL A   1      46.040  24.686  28.832  1.00  0.00     0.031 C 
ATOM     44  C   UNL A   1      39.460  26.654  28.241  1.00  0.00     0.029 A 
ATOM     45  C   UNL A   1      40.382  27.654  28.769  1.00  0.00     0.049 A 
ATOM     46  H   UNL A   1      42.438  27.467  29.041  1.00  0.00     0.167 HD
ATOM     47  C   UNL A   1      46.716  26.904  29.698  1.00  0.00     0.031 A 
ATOM     48  C   UNL A   1      40.038  28.890  29.174  1.00  0.00     0.031 A 
ATOM     49  C   UNL A   1      46.459  28.268  30.077  1.00  0.00     0.049 A 
ATOM     50  C   UNL A   1      41.101  29.818  29.691  1.00  0.00     0.074 A 
ATOM     51  C   UNL A   1      47.358  29.229  30.504  1.00  0.00     0.029 A 
ATOM     52  N   UNL A   1      45.207  28.864  30.074  1.00  0.00    -0.354 N 
ATOM     53  N   UNL A   1      42.387  29.607  29.827  1.00  0.00    -0.248 NA
ATOM     54  C   UNL A   1      40.663  31.161  30.099  1.00  0.00     0.031 C 
ATOM     55  C   UNL A   1      46.643  30.394  30.802  1.00  0.00     0.029 A 
ATOM     56  C   UNL A   1      45.307  30.173  30.513  1.00  0.00     0.049 A 
ATOM     57  H   UNL A   1      44.371  28.421  29.800  1.00  0.00     0.167 HD
ATOM     58  C   UNL A   1      42.916  30.794  30.315  1.00  0.00     0.074 A 
ATOM     59  C   UNL A   1      41.814  31.727  30.435  1.00  0.00     0.031 C 
ATOM     60  C   UNL A   1      44.200  31.086  30.631  1.00  0.00     0.031 A 
BRANCH  47  61
ATOM     61  C   UNL A   1      48.116  26.374  29.839  1.00  0.00    -0.014 A 
ATOM     62  C   UNL A   1      49.030  26.442  28.776  1.00  0.00     0.009 A 
ATOM     63  C   UNL A   1      48.532  25.817  31.058  1.00  0.00     0.009 A 
ATOM     64  C   UNL A   1      50.320  25.926  28.918  1.00  0.00     0.001 A 
ATOM     65  C   UNL A   1      49.832  25.328  31.207  1.00  0.00     0.001 A 
ATOM     66  C   UNL A   1      50.720  25.372  30.133  1.00  0.00     0.000 A 
ENDBRANCH  47  61
BRANCH  48  67
ATOM     67  C   UNL A   1      38.623  29.329  29.085  1.00  0.00    -0.014 A 
ATOM     68  C   UNL A   1      38.109  29.831  27.880  1.00  0.00     0.009 A 
ATOM     69  C   UNL A   1      37.776  29.238  30.201  1.00  0.00     0.009 A 
ATOM     70  C   UNL A   1      36.779  30.250  27.799  1.00  0.00     0.001 A 
ATOM     71  C   UNL A   1      36.439  29.635  30.109  1.00  0.00     0.001 A 
ATOM     72  C   UNL A   1      35.944  30.147  28.911  1.00  0.00     0.000 A 
ENDBRANCH  48  67
BRANCH  60  73
ATOM     73  C   UNL A   1      44.489  32.480  31.111  1.00  0.00    -0.014 A 
ATOM     74  C   UNL A   1      44.791  33.512  30.210  1.00  0.00     0.009 A 
ATOM     75  C   UNL A   1      44.418  32.771  32.483  1.00  0.00     0.009 A 
ATOM     76  C   UNL A   1      45.046  34.803  30.677  1.00  0.00     0.001 A 
ATOM     77  C   UNL A   1      44.648  34.067  32.944  1.00  0.00     0.001 A 
ATOM     78  C   UNL A   1      44.970  35.080  32.042  1.00  0.00     0.000 A 
ENDBRANCH  60  73
ENDBRANCH  34  35
ENDBRANCH  26  29
ENDBRANCH  24  25
ENDBRANCH  23  24
ENDBRANCH   1  23
TORSDOF 15
ENDMDL
MODEL 3
REMARK VINA RESULT:     -10.2      2.463      7.651
REMARK SMILES COCC[C@H](NC(=O)c1ccc(C)cc1F)C(=O)NCCCNC(=O)c1ccc(-c2c3nc(c(-c4ccccc4)c4ccc([nH]4)c(-c4ccccc4)c4nc(c(-c5ccccc5)c5ccc2[nH]5)C=C4)C=C3)cc1
REMARK SMILES IDX 20 1 19 2 17 3 18 4 5 6 4 7 3 8 2 9 1 10 6 11 7 12 8 14 9 15
REMARK SMILES IDX 10 16 15 17 11 18 14 19 16 20 12 21 13 22 21 23 22 24 23 25
REMARK SMILES IDX 24 26 25 28 26 29 27 30 73 31 28 32 72 33 29 34 30 35 31 36
REMARK SMILES IDX 66 37 32 38 71 39 65 40 67 41 33 42 70 43 64 44 63 45 34 47
REMARK SMILES IDX 56 48 41 49 55 50 42 51 45 52 54 53 68 54 43 55 44 56 53 58
REMARK SMILES IDX 69 59 46 60 35 61 36 62 40 63 37 64 39 65 38 66 57 67 58 68
REMARK SMILES IDX 62 69 59 70 61 71 60 72 47 73 48 74 52 75 49 76 51 77 50 78
REMARK H PARENT 19 5 6 13 23 27 67 46 45 57
REMARK Flexibility Score: inf
ROOT
ATOM      1  C   UNL A   1      32.141  26.704  26.103  1.00  0.00     0.117 C 
ENDROOT
BRANCH   1   2
ATOM      2  N   UNL A   1      33.436  26.043  26.087  1.00  0.00    -0.354 N 
ATOM      3  C   UNL A   1      33.904  25.004  25.338  1.00  0.00     0.242 C 
ATOM      4  O   UNL A   1      35.104  24.731  25.447  1.00  0.00    -0.273 OA
ATOM      5  H   UNL A   1      34.088  26.410  26.727  1.00  0.00     0.163 HD
BRANCH   3   6
ATOM      6  C   UNL A   1      33.036  24.294  24.285  1.00  0.00     0.173 C 
BRANCH   6   7
ATOM      7  C   UNL A   1      33.043  22.796  24.671  1.00  0.00     0.063 C 
BRANCH   7   8
ATOM      8  C   UNL A   1      31.655  22.220  24.904  1.00  0.00     0.162 C 
BRANCH   8   9
ATOM      9  O   UNL A   1      31.780  20.849  25.273  1.00  0.00    -0.385 OA
ATOM     10  C   UNL A   1      32.708  20.160  24.443  1.00  0.00     0.194 C 
ENDBRANCH   8   9
ENDBRANCH   7   8
ENDBRANCH   6   7
BRANCH   6  11
ATOM     11  N   UNL A   1      33.440  24.518  22.893  1.00  0.00    -0.340 N 
ATOM     12  C   UNL A   1      32.968  25.416  21.961  1.00  0.00     0.254 C 
ATOM     13  H   UNL A   1      34.165  23.934  22.573  1.00  0.00     0.164 HD
ATOM     14  O   UNL A   1      33.252  25.246  20.778  1.00  0.00    -0.269 OA
BRANCH  12  15
ATOM     15  C   UNL A   1      32.179  26.609  22.342  1.00  0.00     0.075 A 
ATOM     16  C   UNL A   1      30.805  26.523  22.564  1.00  0.00     0.017 A 
ATOM     17  C   UNL A   1      32.824  27.808  22.640  1.00  0.00     0.136 A 
ATOM     18  C   UNL A   1      30.069  27.634  22.983  1.00  0.00     0.004 A 
ATOM     19  C   UNL A   1      32.100  28.920  23.084  1.00  0.00     0.043 A 
ATOM     20  F   UNL A   1      34.152  27.930  22.504  1.00  0.00    -0.206 F 
ATOM     21  C   UNL A   1      30.709  28.850  23.230  1.00  0.00    -0.048 A 
ATOM     22  C   UNL A   1      29.920  30.035  23.703  1.00  0.00     0.044 C 
ENDBRANCH  12  15
ENDBRANCH   6  11
ENDBRANCH   3   6
ENDBRANCH   1   2
BRANCH   1  23
ATOM     23  C   UNL A   1      32.125  28.034  26.849  1.00  0.00     0.042 C 
BRANCH  23  24
ATOM     24  C   UNL A   1      33.492  28.555  27.273  1.00  0.00     0.118 C 
BRANCH  24  25
ATOM     25  N   UNL A   1      33.490  29.972  27.589  1.00  0.00    -0.352 N 
ATOM     26  C   UNL A   1      34.454  30.756  28.168  1.00  0.00     0.251 C 
ATOM     27  H   UNL A   1      32.663  30.447  27.349  1.00  0.00     0.163 HD
ATOM     28  O   UNL A   1      34.181  31.909  28.486  1.00  0.00    -0.269 OA
BRANCH  26  29
ATOM     29  C   UNL A   1      35.809  30.225  28.436  1.00  0.00     0.039 A 
ATOM     30  C   UNL A   1      36.746  30.246  27.399  1.00  0.00     0.014 A 
ATOM     31  C   UNL A   1      36.152  29.669  29.672  1.00  0.00     0.014 A 
ATOM     32  C   UNL A   1      38.038  29.764  27.616  1.00  0.00     0.010 A 
ATOM     33  C   UNL A   1      37.463  29.263  29.912  1.00  0.00     0.010 A 
ATOM     34  C   UNL A   1      38.415  29.294  28.884  1.00  0.00    -0.014 A 
BRANCH  34  35
ATOM     35  C   UNL A   1      39.797  28.818  29.143  1.00  0.00     0.031 A 
ATOM     36  C   UNL A   1      40.802  29.727  29.797  1.00  0.00     0.074 A 
ATOM     37  C   UNL A   1      40.166  27.586  28.742  1.00  0.00     0.049 A 
ATOM     38  N   UNL A   1      42.065  29.508  30.061  1.00  0.00    -0.248 NA
ATOM     39  C   UNL A   1      40.331  31.067  30.183  1.00  0.00     0.031 C 
ATOM     40  C   UNL A   1      39.301  26.621  28.061  1.00  0.00     0.029 A 
ATOM     41  N   UNL A   1      41.370  26.938  28.847  1.00  0.00    -0.354 N 
ATOM     42  C   UNL A   1      42.544  30.686  30.620  1.00  0.00     0.074 A 
ATOM     43  C   UNL A   1      41.448  31.631  30.617  1.00  0.00     0.031 C 
ATOM     44  C   UNL A   1      39.996  25.496  27.832  1.00  0.00     0.029 A 
ATOM     45  C   UNL A   1      41.361  25.671  28.315  1.00  0.00     0.049 A 
ATOM     46  H   UNL A   1      42.167  27.342  29.262  1.00  0.00     0.167 HD
ATOM     47  C   UNL A   1      43.777  30.954  31.109  1.00  0.00     0.031 A 
ATOM     48  C   UNL A   1      42.342  24.755  28.223  1.00  0.00     0.031 A 
ATOM     49  C   UNL A   1      44.864  30.011  31.129  1.00  0.00     0.049 A 
ATOM     50  C   UNL A   1      43.703  25.075  28.773  1.00  0.00     0.074 A 
ATOM     51  C   UNL A   1      46.132  30.167  31.661  1.00  0.00     0.029 A 
ATOM     52  N   UNL A   1      44.809  28.734  30.592  1.00  0.00    -0.354 N 
ATOM     53  N   UNL A   1      44.121  26.170  29.360  1.00  0.00    -0.248 NA
ATOM     54  C   UNL A   1      44.725  24.024  28.658  1.00  0.00     0.031 C 
ATOM     55  C   UNL A   1      46.859  28.999  31.406  1.00  0.00     0.029 A 
ATOM     56  C   UNL A   1      46.028  28.099  30.760  1.00  0.00     0.049 A 
ATOM     57  H   UNL A   1      44.020  28.338  30.156  1.00  0.00     0.167 HD
ATOM     58  C   UNL A   1      45.445  25.933  29.704  1.00  0.00     0.074 A 
ATOM     59  C   UNL A   1      45.756  24.585  29.275  1.00  0.00     0.031 C 
ATOM     60  C   UNL A   1      46.322  26.759  30.323  1.00  0.00     0.031 A 
BRANCH  47  61
ATOM     61  C   UNL A   1      44.019  32.334  31.654  1.00  0.00    -0.014 A 
ATOM     62  C   UNL A   1      44.484  33.371  30.829  1.00  0.00     0.009 A 
ATOM     63  C   UNL A   1      43.759  32.606  33.006  1.00  0.00     0.009 A 
ATOM     64  C   UNL A   1      44.722  34.642  31.357  1.00  0.00     0.001 A 
ATOM     65  C   UNL A   1      43.971  33.886  33.524  1.00  0.00     0.001 A 
ATOM     66  C   UNL A   1      44.463  34.899  32.702  1.00  0.00     0.000 A 
ENDBRANCH  47  61
BRANCH  48  67
ATOM     67  C   UNL A   1      42.064  23.436  27.601  1.00  0.00    -0.014 A 
ATOM     68  C   UNL A   1      42.400  23.199  26.259  1.00  0.00     0.009 A 
ATOM     69  C   UNL A   1      41.473  22.405  28.347  1.00  0.00     0.009 A 
ATOM     70  C   UNL A   1      42.132  21.961  25.672  1.00  0.00     0.001 A 
ATOM     71  C   UNL A   1      41.229  21.159  27.764  1.00  0.00     0.001 A 
ATOM     72  C   UNL A   1      41.552  20.940  26.426  1.00  0.00     0.000 A 
ENDBRANCH  48  67
BRANCH  60  73
ATOM     73  C   UNL A   1      47.696  26.217  30.599  1.00  0.00    -0.014 A 
ATOM     74  C   UNL A   1      48.686  26.203  29.604  1.00  0.00     0.009 A 
ATOM     75  C   UNL A   1      48.013  25.751  31.884  1.00  0.00     0.009 A 
ATOM     76  C   UNL A   1      49.959  25.704  29.884  1.00  0.00     0.001 A 
ATOM     77  C   UNL A   1      49.295  25.277  32.168  1.00  0.00     0.001 A 
ATOM     78  C   UNL A   1      50.263  25.246  31.167  1.00  0.00     0.000 A 
ENDBRANCH  60  73
ENDBRANCH  34  35
ENDBRANCH  26  29
ENDBRANCH  24  25
ENDBRANCH  23  24
ENDBRANCH   1  23
TORSDOF 15
ENDMDL
