MODEL 1
REMARK VINA RESULT:     -12.9      0.000      0.000
REMARK SMILES Cc1c(Cl)cccc1NC(=O)C[C@H](C(=O)NCCCNC(=O)c1ccc(-c2c3nc(c(-c4ccccc4)c4ccc([nH]4)c(-c4ccccc4)c4nc(c(-c5ccccc5)c5ccc2[nH]5)C=C4)C=C3)cc1)[C@H](C)c1ccccc1
REMARK SMILES IDX 17 1 16 2 14 3 15 4 13 6 12 7 10 8 9 9 11 11 8 12 1 13 2 14
REMARK SMILES IDX 3 15 4 16 5 17 7 18 6 19 71 20 72 21 73 22 74 23 78 24 75 25
REMARK SMILES IDX 77 26 76 27 18 28 19 29 20 30 21 31 22 33 23 34 24 35 70 36
REMARK SMILES IDX 25 37 69 38 26 39 27 40 28 41 63 42 29 43 68 44 62 45 64 46
REMARK SMILES IDX 30 47 67 48 61 49 60 50 31 52 53 53 38 54 52 55 39 56 42 57
REMARK SMILES IDX 51 58 65 59 40 60 41 61 50 63 66 64 43 65 32 66 33 67 37 68
REMARK SMILES IDX 34 69 36 70 35 71 54 72 55 73 59 74 56 75 58 76 57 77 44 78
REMARK SMILES IDX 45 79 49 80 46 81 48 82 47 83
REMARK H PARENT 16 5 9 10 20 32 64 51 42 62
REMARK Flexibility Score: inf
ROOT
ATOM      1  C   UNL A   1      33.591  28.547  23.673  1.00  0.00     0.117 C 
ENDROOT
BRANCH   1   2
ATOM      2  N   UNL A   1      32.095  28.570  23.067  1.00  0.00    -0.356 N 
ATOM      3  C   UNL A   1      31.201  27.611  22.730  1.00  0.00     0.224 C 
ATOM      4  O   UNL A   1      30.216  27.959  22.075  1.00  0.00    -0.275 OA
ATOM      5  H   UNL A   1      31.759  29.481  22.909  1.00  0.00     0.163 HD
BRANCH   3   6
ATOM      6  C   UNL A   1      31.410  26.163  23.134  1.00  0.00     0.095 C 
BRANCH   6   7
ATOM      7  C   UNL A   1      32.801  25.723  22.614  1.00  0.00     0.114 C 
BRANCH   7   8
ATOM      8  C   UNL A   1      33.019  24.945  21.334  1.00  0.00     0.225 C 
ATOM      9  N   UNL A   1      33.319  23.615  21.315  1.00  0.00    -0.326 N 
ATOM     10  H   UNL A   1      33.634  23.250  20.457  1.00  0.00     0.169 HD
ATOM     11  O   UNL A   1      32.900  25.513  20.242  1.00  0.00    -0.275 OA
BRANCH   9  12
ATOM     12  C   UNL A   1      33.229  22.717  22.376  1.00  0.00     0.045 A 
ATOM     13  C   UNL A   1      35.572  23.880  23.563  1.00  0.00     0.048 C 
ATOM     14  C   UNL A   1      34.594  22.740  23.559  1.00  0.00    -0.009 A 
ATOM     15  C   UNL A   1      34.807  21.394  24.728  1.00  0.00     0.046 A 
ATOM     16  Cl  UNL A   1      36.106  21.408  25.852  1.00  0.00    -0.084 Cl
ATOM     17  C   UNL A   1      33.629  20.035  24.762  1.00  0.00     0.021 A 
ATOM     18  C   UNL A   1      32.008  21.397  22.434  1.00  0.00     0.026 A 
ATOM     19  C   UNL A   1      32.212  20.030  23.620  1.00  0.00     0.004 A 
ENDBRANCH   9  12
ENDBRANCH   7   8
ENDBRANCH   6   7
BRANCH   6  20
ATOM     20  C   UNL A   1      30.826  25.943  24.567  1.00  0.00     0.029 C 
ATOM     21  C   UNL A   1      30.705  27.179  25.454  1.00  0.00     0.013 C 
BRANCH  20  22
ATOM     22  C   UNL A   1      31.426  24.729  25.293  1.00  0.00    -0.044 A 
ATOM     23  C   UNL A   1      30.715  23.512  25.308  1.00  0.00     0.004 A 
ATOM     24  C   UNL A   1      32.584  24.823  26.074  1.00  0.00     0.004 A 
ATOM     25  C   UNL A   1      31.114  22.453  26.124  1.00  0.00     0.000 A 
ATOM     26  C   UNL A   1      32.972  23.770  26.903  1.00  0.00     0.000 A 
ATOM     27  C   UNL A   1      32.231  22.592  26.939  1.00  0.00     0.000 A 
ENDBRANCH  20  22
ENDBRANCH   6  20
ENDBRANCH   3   6
ENDBRANCH   1   2
BRANCH   1  28
ATOM     28  C   UNL A   1      34.306  28.128  25.697  1.00  0.00     0.042 C 
BRANCH  28  29
ATOM     29  C   UNL A   1      33.896  28.703  27.273  1.00  0.00     0.118 C 
BRANCH  29  30
ATOM     30  N   UNL A   1      33.901  30.151  27.539  1.00  0.00    -0.352 N 
ATOM     31  C   UNL A   1      34.690  30.866  28.397  1.00  0.00     0.251 C 
ATOM     32  H   UNL A   1      33.244  30.678  27.030  1.00  0.00     0.163 HD
ATOM     33  O   UNL A   1      34.338  31.944  28.854  1.00  0.00    -0.269 OA
BRANCH  31  34
ATOM     34  C   UNL A   1      36.016  30.312  28.664  1.00  0.00     0.039 A 
ATOM     35  C   UNL A   1      36.289  29.630  29.846  1.00  0.00     0.014 A 
ATOM     36  C   UNL A   1      36.977  30.471  27.661  1.00  0.00     0.014 A 
ATOM     37  C   UNL A   1      37.556  29.080  30.005  1.00  0.00     0.010 A 
ATOM     38  C   UNL A   1      38.163  29.790  27.753  1.00  0.00     0.010 A 
ATOM     39  C   UNL A   1      38.486  29.154  28.953  1.00  0.00    -0.014 A 
BRANCH  39  40
ATOM     40  C   UNL A   1      39.869  28.680  29.096  1.00  0.00     0.031 A 
ATOM     41  C   UNL A   1      40.896  29.634  29.641  1.00  0.00     0.074 A 
ATOM     42  C   UNL A   1      40.191  27.458  28.643  1.00  0.00     0.049 A 
ATOM     43  N   UNL A   1      42.188  29.483  29.746  1.00  0.00    -0.248 NA
ATOM     44  C   UNL A   1      40.415  30.965  30.064  1.00  0.00     0.031 C 
ATOM     45  C   UNL A   1      39.264  26.505  28.027  1.00  0.00     0.029 A 
ATOM     46  N   UNL A   1      41.394  26.813  28.630  1.00  0.00    -0.354 N 
ATOM     47  C   UNL A   1      42.666  30.705  30.204  1.00  0.00     0.074 A 
ATOM     48  C   UNL A   1      41.549  31.613  30.266  1.00  0.00     0.031 C 
ATOM     49  C   UNL A   1      39.927  25.371  27.747  1.00  0.00     0.029 A 
ATOM     50  C   UNL A   1      41.323  25.539  28.127  1.00  0.00     0.049 A 
ATOM     51  H   UNL A   1      42.230  27.222  28.952  1.00  0.00     0.167 HD
ATOM     52  C   UNL A   1      43.924  31.024  30.582  1.00  0.00     0.031 A 
ATOM     53  C   UNL A   1      42.291  24.615  28.007  1.00  0.00     0.031 A 
ATOM     54  C   UNL A   1      45.004  30.081  30.558  1.00  0.00     0.049 A 
ATOM     55  C   UNL A   1      43.668  24.971  28.494  1.00  0.00     0.074 A 
ATOM     56  C   UNL A   1      46.308  30.244  30.982  1.00  0.00     0.029 A 
ATOM     57  N   UNL A   1      44.887  28.777  30.093  1.00  0.00    -0.354 N 
ATOM     58  N   UNL A   1      44.101  26.106  28.993  1.00  0.00    -0.248 NA
ATOM     59  C   UNL A   1      44.681  23.914  28.423  1.00  0.00     0.031 C 
ATOM     60  C   UNL A   1      46.992  29.048  30.735  1.00  0.00     0.029 A 
ATOM     61  C   UNL A   1      46.098  28.125  30.212  1.00  0.00     0.049 A 
ATOM     62  H   UNL A   1      44.062  28.379  29.732  1.00  0.00     0.167 HD
ATOM     63  C   UNL A   1      45.430  25.890  29.327  1.00  0.00     0.074 A 
ATOM     64  C   UNL A   1      45.720  24.508  28.991  1.00  0.00     0.031 C 
ATOM     65  C   UNL A   1      46.336  26.747  29.862  1.00  0.00     0.031 A 
BRANCH  52  66
ATOM     66  C   UNL A   1      44.169  32.430  31.057  1.00  0.00    -0.014 A 
ATOM     67  C   UNL A   1      44.187  32.749  32.427  1.00  0.00     0.009 A 
ATOM     68  C   UNL A   1      44.376  33.457  30.125  1.00  0.00     0.009 A 
ATOM     69  C   UNL A   1      44.355  34.069  32.849  1.00  0.00     0.001 A 
ATOM     70  C   UNL A   1      44.582  34.772  30.551  1.00  0.00     0.001 A 
ATOM     71  C   UNL A   1      44.558  35.080  31.911  1.00  0.00     0.000 A 
ENDBRANCH  52  66
BRANCH  53  72
ATOM     72  C   UNL A   1      41.973  23.266  27.475  1.00  0.00    -0.014 A 
ATOM     73  C   UNL A   1      42.219  22.960  26.127  1.00  0.00     0.009 A 
ATOM     74  C   UNL A   1      41.443  22.271  28.310  1.00  0.00     0.009 A 
ATOM     75  C   UNL A   1      41.909  21.696  25.619  1.00  0.00     0.001 A 
ATOM     76  C   UNL A   1      41.164  20.997  27.806  1.00  0.00     0.001 A 
ATOM     77  C   UNL A   1      41.386  20.715  26.459  1.00  0.00     0.000 A 
ENDBRANCH  53  72
BRANCH  65  78
ATOM     78  C   UNL A   1      47.699  26.191  30.150  1.00  0.00    -0.014 A 
ATOM     79  C   UNL A   1      48.632  25.978  29.125  1.00  0.00     0.009 A 
ATOM     80  C   UNL A   1      48.060  25.905  31.476  1.00  0.00     0.009 A 
ATOM     81  C   UNL A   1      49.885  25.442  29.417  1.00  0.00     0.001 A 
ATOM     82  C   UNL A   1      49.326  25.403  31.769  1.00  0.00     0.001 A 
ATOM     83  C   UNL A   1      50.233  25.160  30.737  1.00  0.00     0.000 A 
ENDBRANCH  65  78
ENDBRANCH  39  40
ENDBRANCH  31  34
ENDBRANCH  29  30
ENDBRANCH  28  29
ENDBRANCH   1  28
TORSDOF 15
ENDMDL
MODEL 2
REMARK VINA RESULT:     -12.8      2.675      7.382
REMARK SMILES Cc1c(Cl)cccc1NC(=O)C[C@H](C(=O)NCCCNC(=O)c1ccc(-c2c3nc(c(-c4ccccc4)c4ccc([nH]4)c(-c4ccccc4)c4nc(c(-c5ccccc5)c5ccc2[nH]5)C=C4)C=C3)cc1)[C@H](C)c1ccccc1
REMARK SMILES IDX 17 1 16 2 14 3 15 4 13 6 12 7 10 8 9 9 11 11 8 12 1 13 2 14
REMARK SMILES IDX 3 15 4 16 5 17 7 18 6 19 71 20 72 21 73 22 74 23 78 24 75 25
REMARK SMILES IDX 77 26 76 27 18 28 19 29 20 30 21 31 22 33 23 34 24 35 70 36
REMARK SMILES IDX 25 37 69 38 26 39 27 40 28 41 63 42 29 43 68 44 62 45 64 46
REMARK SMILES IDX 30 47 67 48 61 49 60 50 31 52 53 53 38 54 52 55 39 56 42 57
REMARK SMILES IDX 51 58 65 59 40 60 41 61 50 63 66 64 43 65 32 66 33 67 37 68
REMARK SMILES IDX 34 69 36 70 35 71 54 72 55 73 59 74 56 75 58 76 57 77 44 78
REMARK SMILES IDX 45 79 49 80 46 81 48 82 47 83
REMARK H PARENT 16 5 9 10 20 32 64 51 42 62
REMARK Flexibility Score: inf
ROOT
ATOM      1  C   UNL A   1      34.744  20.342  25.337  1.00  0.00     0.117 C 
ENDROOT
BRANCH   1   2
ATOM      2  N   UNL A   1      33.922  21.057  26.527  1.00  0.00    -0.356 N 
ATOM      3  C   UNL A   1      33.161  22.175  26.607  1.00  0.00     0.224 C 
ATOM      4  O   UNL A   1      32.852  22.570  27.733  1.00  0.00    -0.275 OA
ATOM      5  H   UNL A   1      33.987  20.574  27.382  1.00  0.00     0.163 HD
BRANCH   3   6
ATOM      6  C   UNL A   1      32.718  22.915  25.360  1.00  0.00     0.095 C 
BRANCH   6   7
ATOM      7  C   UNL A   1      31.178  23.077  25.427  1.00  0.00     0.114 C 
BRANCH   7   8
ATOM      8  C   UNL A   1      30.446  23.734  26.577  1.00  0.00     0.225 C 
ATOM      9  N   UNL A   1      30.296  25.085  26.687  1.00  0.00    -0.326 N 
ATOM     10  H   UNL A   1      29.985  25.422  27.558  1.00  0.00     0.169 HD
ATOM     11  O   UNL A   1      29.930  23.036  27.457  1.00  0.00    -0.275 OA
BRANCH   9  12
ATOM     12  C   UNL A   1      30.536  26.041  25.702  1.00  0.00     0.045 A 
ATOM     13  C   UNL A   1      32.129  27.554  27.553  1.00  0.00     0.048 C 
ATOM     14  C   UNL A   1      31.421  27.525  26.230  1.00  0.00    -0.009 A 
ATOM     15  C   UNL A   1      31.448  28.987  25.186  1.00  0.00     0.046 A 
ATOM     16  Cl  UNL A   1      32.284  30.402  25.685  1.00  0.00    -0.084 Cl
ATOM     17  C   UNL A   1      30.634  28.964  23.582  1.00  0.00     0.021 A 
ATOM     18  C   UNL A   1      29.767  25.980  24.077  1.00  0.00     0.026 A 
ATOM     19  C   UNL A   1      29.794  27.455  23.009  1.00  0.00     0.004 A 
ENDBRANCH   9  12
ENDBRANCH   7   8
ENDBRANCH   6   7
BRANCH   6  20
ATOM     20  C   UNL A   1      33.768  24.024  25.022  1.00  0.00     0.029 C 
ATOM     21  C   UNL A   1      34.311  24.832  26.197  1.00  0.00     0.013 C 
BRANCH  20  22
ATOM     22  C   UNL A   1      33.378  24.890  23.815  1.00  0.00    -0.044 A 
ATOM     23  C   UNL A   1      32.872  24.271  22.654  1.00  0.00     0.004 A 
ATOM     24  C   UNL A   1      33.647  26.263  23.764  1.00  0.00     0.004 A 
ATOM     25  C   UNL A   1      32.705  24.988  21.469  1.00  0.00     0.000 A 
ATOM     26  C   UNL A   1      33.495  26.975  22.573  1.00  0.00     0.000 A 
ATOM     27  C   UNL A   1      33.039  26.336  21.424  1.00  0.00     0.000 A 
ENDBRANCH  20  22
ENDBRANCH   6  20
ENDBRANCH   3   6
ENDBRANCH   1   2
BRANCH   1  28
ATOM     28  C   UNL A   1      36.794  20.642  24.636  1.00  0.00     0.042 C 
BRANCH  28  29
ATOM     29  C   UNL A   1      38.300  21.000  25.402  1.00  0.00     0.118 C 
BRANCH  29  30
ATOM     30  N   UNL A   1      39.251  19.909  25.675  1.00  0.00    -0.352 N 
ATOM     31  C   UNL A   1      40.586  19.983  25.961  1.00  0.00     0.251 C 
ATOM     32  H   UNL A   1      38.874  19.000  25.646  1.00  0.00     0.163 HD
ATOM     33  O   UNL A   1      41.346  19.050  25.743  1.00  0.00    -0.269 OA
BRANCH  31  34
ATOM     34  C   UNL A   1      41.035  21.205  26.624  1.00  0.00     0.039 A 
ATOM     35  C   UNL A   1      41.067  21.305  28.011  1.00  0.00     0.014 A 
ATOM     36  C   UNL A   1      41.464  22.247  25.796  1.00  0.00     0.014 A 
ATOM     37  C   UNL A   1      41.562  22.476  28.571  1.00  0.00     0.010 A 
ATOM     38  C   UNL A   1      42.100  23.327  26.350  1.00  0.00     0.010 A 
ATOM     39  C   UNL A   1      42.086  23.481  27.738  1.00  0.00    -0.014 A 
BRANCH  39  40
ATOM     40  C   UNL A   1      42.533  24.779  28.262  1.00  0.00     0.031 A 
ATOM     41  C   UNL A   1      41.503  25.855  28.468  1.00  0.00     0.074 A 
ATOM     42  C   UNL A   1      43.846  24.996  28.438  1.00  0.00     0.049 A 
ATOM     43  N   UNL A   1      41.673  27.105  28.805  1.00  0.00    -0.248 NA
ATOM     44  C   UNL A   1      40.096  25.498  28.196  1.00  0.00     0.031 C 
ATOM     45  C   UNL A   1      44.913  24.024  28.181  1.00  0.00     0.029 A 
ATOM     46  N   UNL A   1      44.502  26.110  28.874  1.00  0.00    -0.354 N 
ATOM     47  C   UNL A   1      40.409  27.679  28.742  1.00  0.00     0.074 A 
ATOM     48  C   UNL A   1      39.500  26.676  28.246  1.00  0.00     0.031 C 
ATOM     49  C   UNL A   1      46.092  24.572  28.520  1.00  0.00     0.029 A 
ATOM     50  C   UNL A   1      45.860  25.937  28.975  1.00  0.00     0.049 A 
ATOM     51  H   UNL A   1      44.047  26.955  29.095  1.00  0.00     0.167 HD
ATOM     52  C   UNL A   1      40.034  28.924  29.109  1.00  0.00     0.031 A 
ATOM     53  C   UNL A   1      46.799  26.796  29.406  1.00  0.00     0.031 A 
ATOM     54  C   UNL A   1      40.955  29.883  29.649  1.00  0.00     0.049 A 
ATOM     55  C   UNL A   1      46.350  28.153  29.870  1.00  0.00     0.074 A 
ATOM     56  C   UNL A   1      40.702  31.151  30.133  1.00  0.00     0.029 A 
ATOM     57  N   UNL A   1      42.317  29.657  29.791  1.00  0.00    -0.354 N 
ATOM     58  N   UNL A   1      45.142  28.669  29.876  1.00  0.00    -0.248 NA
ATOM     59  C   UNL A   1      47.389  29.037  30.409  1.00  0.00     0.031 C 
ATOM     60  C   UNL A   1      41.922  31.710  30.530  1.00  0.00     0.029 A 
ATOM     61  C   UNL A   1      42.923  30.766  30.348  1.00  0.00     0.049 A 
ATOM     62  H   UNL A   1      42.783  28.828  29.532  1.00  0.00     0.167 HD
ATOM     63  C   UNL A   1      45.270  29.925  30.449  1.00  0.00     0.074 A 
ATOM     64  C   UNL A   1      46.670  30.081  30.795  1.00  0.00     0.031 C 
ATOM     65  C   UNL A   1      44.323  30.871  30.673  1.00  0.00     0.031 A 
BRANCH  52  66
ATOM     66  C   UNL A   1      38.584  29.288  28.949  1.00  0.00    -0.014 A 
ATOM     67  C   UNL A   1      38.085  29.797  27.736  1.00  0.00     0.009 A 
ATOM     68  C   UNL A   1      37.700  29.131  30.027  1.00  0.00     0.009 A 
ATOM     69  C   UNL A   1      36.749  30.188  27.624  1.00  0.00     0.001 A 
ATOM     70  C   UNL A   1      36.354  29.488  29.900  1.00  0.00     0.001 A 
ATOM     71  C   UNL A   1      35.883  30.028  28.704  1.00  0.00     0.000 A 
ENDBRANCH  52  66
BRANCH  53  72
ATOM     72  C   UNL A   1      48.220  26.372  29.479  1.00  0.00    -0.014 A 
ATOM     73  C   UNL A   1      48.714  25.747  30.635  1.00  0.00     0.009 A 
ATOM     74  C   UNL A   1      49.084  26.566  28.392  1.00  0.00     0.009 A 
ATOM     75  C   UNL A   1      50.054  25.357  30.713  1.00  0.00     0.001 A 
ATOM     76  C   UNL A   1      50.415  26.147  28.460  1.00  0.00     0.001 A 
ATOM     77  C   UNL A   1      50.902  25.554  29.624  1.00  0.00     0.000 A 
ENDBRANCH  53  72
BRANCH  65  78
ATOM     78  C   UNL A   1      44.776  32.126  31.358  1.00  0.00    -0.014 A 
ATOM     79  C   UNL A   1      44.777  32.235  32.757  1.00  0.00     0.009 A 
ATOM     80  C   UNL A   1      45.235  33.206  30.587  1.00  0.00     0.009 A 
ATOM     81  C   UNL A   1      45.184  33.420  33.368  1.00  0.00     0.001 A 
ATOM     82  C   UNL A   1      45.675  34.376  31.202  1.00  0.00     0.001 A 
ATOM     83  C   UNL A   1      45.636  34.486  32.592  1.00  0.00     0.000 A 
ENDBRANCH  65  78
ENDBRANCH  39  40
ENDBRANCH  31  34
ENDBRANCH  29  30
ENDBRANCH  28  29
ENDBRANCH   1  28
TORSDOF 15
ENDMDL
MODEL 3
REMARK VINA RESULT:     -12.7      3.361      7.334
REMARK SMILES Cc1c(Cl)cccc1NC(=O)C[C@H](C(=O)NCCCNC(=O)c1ccc(-c2c3nc(c(-c4ccccc4)c4ccc([nH]4)c(-c4ccccc4)c4nc(c(-c5ccccc5)c5ccc2[nH]5)C=C4)C=C3)cc1)[C@H](C)c1ccccc1
REMARK SMILES IDX 17 1 16 2 14 3 15 4 13 6 12 7 10 8 9 9 11 11 8 12 1 13 2 14
REMARK SMILES IDX 3 15 4 16 5 17 7 18 6 19 71 20 72 21 73 22 74 23 78 24 75 25
REMARK SMILES IDX 77 26 76 27 18 28 19 29 20 30 21 31 22 33 23 34 24 35 70 36
REMARK SMILES IDX 25 37 69 38 26 39 27 40 28 41 63 42 29 43 68 44 62 45 64 46
REMARK SMILES IDX 30 47 67 48 61 49 60 50 31 52 53 53 38 54 52 55 39 56 42 57
REMARK SMILES IDX 51 58 65 59 40 60 41 61 50 63 66 64 43 65 32 66 33 67 37 68
REMARK SMILES IDX 34 69 36 70 35 71 54 72 55 73 59 74 56 75 58 76 57 77 44 78
REMARK SMILES IDX 45 79 49 80 46 81 48 82 47 83
REMARK H PARENT 16 5 9 10 20 32 64 51 42 62
REMARK Flexibility Score: inf
ROOT
ATOM      1  C   UNL A   1      31.104  29.799  24.929  1.00  0.00     0.117 C 
ENDROOT
BRANCH   1   2
ATOM      2  N   UNL A   1      32.136  29.231  23.826  1.00  0.00    -0.356 N 
ATOM      3  C   UNL A   1      32.754  28.040  23.639  1.00  0.00     0.224 C 
ATOM      4  O   UNL A   1      33.668  28.000  22.814  1.00  0.00    -0.275 OA
ATOM      5  H   UNL A   1      32.365  29.895  23.137  1.00  0.00     0.163 HD
BRANCH   3   6
ATOM      6  C   UNL A   1      32.343  26.809  24.424  1.00  0.00     0.095 C 
BRANCH   6   7
ATOM      7  C   UNL A   1      31.645  25.833  23.443  1.00  0.00     0.114 C 
BRANCH   7   8
ATOM      8  C   UNL A   1      30.367  25.086  23.760  1.00  0.00     0.225 C 
ATOM      9  N   UNL A   1      30.349  23.893  24.421  1.00  0.00    -0.326 N 
ATOM     10  H   UNL A   1      29.500  23.395  24.403  1.00  0.00     0.169 HD
ATOM     11  O   UNL A   1      29.276  25.569  23.439  1.00  0.00    -0.275 OA
BRANCH   9  12
ATOM     12  C   UNL A   1      31.401  23.300  25.117  1.00  0.00     0.045 A 
ATOM     13  C   UNL A   1      31.993  21.661  22.833  1.00  0.00     0.048 C 
ATOM     14  C   UNL A   1      32.222  21.917  24.295  1.00  0.00    -0.009 A 
ATOM     15  C   UNL A   1      33.306  20.824  25.220  1.00  0.00     0.046 A 
ATOM     16  Cl  UNL A   1      34.086  19.504  24.445  1.00  0.00    -0.084 Cl
ATOM     17  C   UNL A   1      33.620  21.131  26.964  1.00  0.00     0.021 A 
ATOM     18  C   UNL A   1      31.749  23.658  26.845  1.00  0.00     0.026 A 
ATOM     19  C   UNL A   1      32.851  22.559  27.790  1.00  0.00     0.004 A 
ENDBRANCH   9  12
ENDBRANCH   7   8
ENDBRANCH   6   7
BRANCH   6  20
ATOM     20  C   UNL A   1      33.463  26.464  25.459  1.00  0.00     0.029 C 
ATOM     21  C   UNL A   1      34.175  27.643  26.115  1.00  0.00     0.013 C 
BRANCH  20  22
ATOM     22  C   UNL A   1      34.422  25.363  24.979  1.00  0.00    -0.044 A 
ATOM     23  C   UNL A   1      34.337  24.904  23.649  1.00  0.00     0.004 A 
ATOM     24  C   UNL A   1      35.281  24.687  25.854  1.00  0.00     0.004 A 
ATOM     25  C   UNL A   1      35.036  23.770  23.231  1.00  0.00     0.000 A 
ATOM     26  C   UNL A   1      35.966  23.544  25.440  1.00  0.00     0.000 A 
ATOM     27  C   UNL A   1      35.833  23.078  24.135  1.00  0.00     0.000 A 
ENDBRANCH  20  22
ENDBRANCH   6  20
ENDBRANCH   3   6
ENDBRANCH   1   2
BRANCH   1  28
ATOM     28  C   UNL A   1      31.360  31.329  26.471  1.00  0.00     0.042 C 
BRANCH  28  29
ATOM     29  C   UNL A   1      32.703  32.233  27.074  1.00  0.00     0.118 C 
BRANCH  29  30
ATOM     30  N   UNL A   1      32.538  33.668  27.361  1.00  0.00    -0.352 N 
ATOM     31  C   UNL A   1      33.045  34.401  28.398  1.00  0.00     0.251 C 
ATOM     32  H   UNL A   1      31.986  34.169  26.718  1.00  0.00     0.163 HD
ATOM     33  O   UNL A   1      32.516  35.437  28.777  1.00  0.00    -0.269 OA
BRANCH  31  34
ATOM     34  C   UNL A   1      34.305  33.926  28.967  1.00  0.00     0.039 A 
ATOM     35  C   UNL A   1      35.530  34.345  28.460  1.00  0.00     0.014 A 
ATOM     36  C   UNL A   1      34.212  33.065  30.064  1.00  0.00     0.014 A 
ATOM     37  C   UNL A   1      36.686  33.898  29.089  1.00  0.00     0.010 A 
ATOM     38  C   UNL A   1      35.342  32.761  30.777  1.00  0.00     0.010 A 
ATOM     39  C   UNL A   1      36.588  33.114  30.253  1.00  0.00    -0.014 A 
BRANCH  39  40
ATOM     40  C   UNL A   1      37.767  32.531  30.906  1.00  0.00     0.031 A 
ATOM     41  C   UNL A   1      38.405  31.323  30.276  1.00  0.00     0.074 A 
ATOM     42  C   UNL A   1      38.170  33.024  32.088  1.00  0.00     0.049 A 
ATOM     43  N   UNL A   1      39.372  30.573  30.728  1.00  0.00    -0.248 NA
ATOM     44  C   UNL A   1      37.836  30.856  28.996  1.00  0.00     0.031 C 
ATOM     45  C   UNL A   1      37.550  34.144  32.802  1.00  0.00     0.029 A 
ATOM     46  N   UNL A   1      39.200  32.639  32.896  1.00  0.00    -0.354 N 
ATOM     47  C   UNL A   1      39.492  29.534  29.812  1.00  0.00     0.074 A 
ATOM     48  C   UNL A   1      38.444  29.694  28.835  1.00  0.00     0.031 C 
ATOM     49  C   UNL A   1      38.252  34.390  33.920  1.00  0.00     0.029 A 
ATOM     50  C   UNL A   1      39.337  33.422  34.014  1.00  0.00     0.049 A 
ATOM     51  H   UNL A   1      39.788  31.874  32.697  1.00  0.00     0.167 HD
ATOM     52  C   UNL A   1      40.425  28.558  29.767  1.00  0.00     0.031 A 
ATOM     53  C   UNL A   1      40.257  33.360  34.992  1.00  0.00     0.031 A 
ATOM     54  C   UNL A   1      41.487  28.457  30.727  1.00  0.00     0.049 A 
ATOM     55  C   UNL A   1      41.323  32.306  34.887  1.00  0.00     0.074 A 
ATOM     56  C   UNL A   1      42.543  27.568  30.761  1.00  0.00     0.029 A 
ATOM     57  N   UNL A   1      41.630  29.302  31.819  1.00  0.00    -0.354 N 
ATOM     58  N   UNL A   1      41.475  31.368  33.980  1.00  0.00    -0.248 NA
ATOM     59  C   UNL A   1      42.357  32.316  35.927  1.00  0.00     0.031 C 
ATOM     60  C   UNL A   1      43.304  27.850  31.901  1.00  0.00     0.029 A 
ATOM     61  C   UNL A   1      42.754  28.952  32.541  1.00  0.00     0.049 A 
ATOM     62  H   UNL A   1      41.020  30.042  32.044  1.00  0.00     0.167 HD
ATOM     63  C   UNL A   1      42.640  30.697  34.320  1.00  0.00     0.074 A 
ATOM     64  C   UNL A   1      43.162  31.352  35.505  1.00  0.00     0.031 C 
ATOM     65  C   UNL A   1      43.232  29.636  33.716  1.00  0.00     0.031 A 
BRANCH  52  66
ATOM     66  C   UNL A   1      40.331  27.558  28.648  1.00  0.00    -0.014 A 
ATOM     67  C   UNL A   1      39.605  26.361  28.793  1.00  0.00     0.009 A 
ATOM     68  C   UNL A   1      40.983  27.805  27.432  1.00  0.00     0.009 A 
ATOM     69  C   UNL A   1      39.579  25.415  27.766  1.00  0.00     0.001 A 
ATOM     70  C   UNL A   1      40.924  26.874  26.391  1.00  0.00     0.001 A 
ATOM     71  C   UNL A   1      40.234  25.675  26.563  1.00  0.00     0.000 A 
ENDBRANCH  52  66
BRANCH  53  72
ATOM     72  C   UNL A   1      40.243  34.355  36.093  1.00  0.00    -0.014 A 
ATOM     73  C   UNL A   1      40.922  35.576  35.953  1.00  0.00     0.009 A 
ATOM     74  C   UNL A   1      39.536  34.106  37.278  1.00  0.00     0.009 A 
ATOM     75  C   UNL A   1      40.922  36.511  36.992  1.00  0.00     0.001 A 
ATOM     76  C   UNL A   1      39.511  35.055  38.303  1.00  0.00     0.001 A 
ATOM     77  C   UNL A   1      40.213  36.252  38.163  1.00  0.00     0.000 A 
ENDBRANCH  53  72
BRANCH  65  78
ATOM     78  C   UNL A   1      44.525  29.160  34.309  1.00  0.00    -0.014 A 
ATOM     79  C   UNL A   1      45.756  29.696  33.903  1.00  0.00     0.009 A 
ATOM     80  C   UNL A   1      44.503  28.177  35.311  1.00  0.00     0.009 A 
ATOM     81  C   UNL A   1      46.944  29.222  34.456  1.00  0.00     0.001 A 
ATOM     82  C   UNL A   1      45.690  27.731  35.888  1.00  0.00     0.001 A 
ATOM     83  C   UNL A   1      46.911  28.245  35.450  1.00  0.00     0.000 A 
ENDBRANCH  65  78
ENDBRANCH  39  40
ENDBRANCH  31  34
ENDBRANCH  29  30
ENDBRANCH  28  29
ENDBRANCH   1  28
TORSDOF 15
ENDMDL
