MODEL 1
REMARK VINA RESULT:     -14.7      0.000      0.000
REMARK SMILES COc1ccc(C2=NN(C(=O)CCC(=O)NCCCNC(=O)c3ccc(-c4c5nc(c(-c6ccccc6)c6ccc([nH]6)c(-c6ccccc6)c6nc(c(-c7ccccc7)c7ccc4[nH]7)C=C6)C=C5)cc3)[C@H](c3ccc(Cl)cc3Cl)C2)cc1
REMARK SMILES IDX 14 1 15 2 16 3 13 5 12 6 10 7 11 8 9 9 7 10 8 11 80 12 71 13
REMARK SMILES IDX 6 14 3 15 4 16 82 17 5 18 81 19 2 20 1 21 72 22 73 23 78 24
REMARK SMILES IDX 74 25 77 26 79 27 75 28 76 29 17 30 18 31 19 32 20 33 21 34
REMARK SMILES IDX 22 36 23 37 24 38 70 39 25 40 69 41 26 42 27 43 28 44 63 45
REMARK SMILES IDX 29 46 68 47 62 48 64 49 30 50 67 51 61 52 60 53 31 55 53 56
REMARK SMILES IDX 38 57 52 58 39 59 42 60 51 61 65 62 40 63 41 64 50 66 66 67
REMARK SMILES IDX 43 68 32 69 33 70 37 71 34 72 36 73 35 74 54 75 55 76 59 77
REMARK SMILES IDX 56 78 58 79 57 80 44 81 45 82 49 83 46 84 48 85 47 86
REMARK H PARENT 16 4 20 35 64 54 42 65
REMARK Flexibility Score: inf
ROOT
ATOM      1  C   UNL A   1      37.014  20.854  24.649  1.00  0.00     0.220 C 
ATOM      2  O   UNL A   1      35.881  20.375  24.725  1.00  0.00    -0.275 OA
ATOM      3  N   UNL A   1      38.003  20.145  25.236  1.00  0.00    -0.356 N 
ATOM      4  H   UNL A   1      37.756  19.209  25.415  1.00  0.00     0.163 HD
ENDROOT
BRANCH   1   5
ATOM      5  C   UNL A   1      37.300  22.143  23.933  1.00  0.00     0.110 C 
BRANCH   5   6
ATOM      6  C   UNL A   1      36.263  23.255  23.766  1.00  0.00     0.112 C 
BRANCH   6   7
ATOM      7  C   UNL A   1      35.635  23.928  24.974  1.00  0.00     0.243 C 
ATOM      8  O   UNL A   1      36.358  24.276  25.911  1.00  0.00    -0.273 OA
BRANCH   7   9
ATOM      9  N   UNL A   1      34.205  23.957  25.028  1.00  0.00    -0.225 N 
ATOM     10  C   UNL A   1      32.505  25.709  26.430  1.00  0.00     0.071 C 
ATOM     11  N   UNL A   1      33.674  25.657  25.444  1.00  0.00    -0.174 NA
ATOM     12  C   UNL A   1      32.053  23.735  27.169  1.00  0.00     0.091 C 
ATOM     13  C   UNL A   1      33.154  22.623  25.843  1.00  0.00     0.149 C 
BRANCH  10  14
ATOM     14  C   UNL A   1      31.242  26.768  25.612  1.00  0.00    -0.002 A 
ATOM     15  C   UNL A   1      29.576  28.417  22.979  1.00  0.00     0.118 A 
ATOM     16  C   UNL A   1      29.164  26.547  23.604  1.00  0.00     0.047 A 
ATOM     17  C   UNL A   1      30.741  29.386  23.804  1.00  0.00     0.047 A 
ATOM     18  C   UNL A   1      30.043  25.784  24.905  1.00  0.00     0.014 A 
ATOM     19  C   UNL A   1      31.499  28.597  25.114  1.00  0.00     0.014 A 
BRANCH  15  20
ATOM     20  O   UNL A   1      29.106  29.205  21.880  1.00  0.00    -0.497 OA
ATOM     21  C   UNL A   1      27.895  29.947  22.139  1.00  0.00     0.278 C 
ENDBRANCH  15  20
ENDBRANCH  10  14
BRANCH  13  22
ATOM     22  C   UNL A   1      32.599  21.617  24.632  1.00  0.00    -0.004 A 
ATOM     23  C   UNL A   1      32.054  22.044  23.383  1.00  0.00     0.009 A 
ATOM     24  C   UNL A   1      32.749  20.213  24.733  1.00  0.00     0.047 A 
ATOM     25  C   UNL A   1      31.921  21.197  22.272  1.00  0.00     0.021 A 
ATOM     26  C   UNL A   1      32.649  19.362  23.613  1.00  0.00     0.041 A 
ATOM     27  Cl  UNL A   1      32.720  19.376  26.248  1.00  0.00    -0.084 Cl
ATOM     28  C   UNL A   1      32.257  19.862  22.383  1.00  0.00     0.042 A 
ATOM     29  Cl  UNL A   1      32.066  18.815  21.034  1.00  0.00    -0.084 Cl
ENDBRANCH  13  22
ENDBRANCH   7   9
ENDBRANCH   6   7
ENDBRANCH   5   6
ENDBRANCH   1   5
BRANCH   3  30
ATOM     30  C   UNL A   1      39.475  20.498  25.698  1.00  0.00     0.117 C 
BRANCH  30  31
ATOM     31  C   UNL A   1      41.201  19.110  25.890  1.00  0.00     0.042 C 
BRANCH  31  32
ATOM     32  C   UNL A   1      42.745  20.207  26.521  1.00  0.00     0.118 C 
BRANCH  32  33
ATOM     33  N   UNL A   1      43.671  21.055  25.140  1.00  0.00    -0.352 N 
ATOM     34  C   UNL A   1      43.728  22.675  24.680  1.00  0.00     0.251 C 
ATOM     35  H   UNL A   1      44.219  20.455  24.587  1.00  0.00     0.163 HD
ATOM     36  O   UNL A   1      44.238  22.929  23.591  1.00  0.00    -0.269 OA
BRANCH  34  37
ATOM     37  C   UNL A   1      43.061  24.017  25.758  1.00  0.00     0.039 A 
ATOM     38  C   UNL A   1      43.382  25.779  25.385  1.00  0.00     0.014 A 
ATOM     39  C   UNL A   1      41.972  23.684  27.426  1.00  0.00     0.014 A 
ATOM     40  C   UNL A   1      42.769  27.022  26.585  1.00  0.00     0.010 A 
ATOM     41  C   UNL A   1      41.453  24.929  28.489  1.00  0.00     0.010 A 
ATOM     42  C   UNL A   1      41.884  26.560  28.109  1.00  0.00    -0.014 A 
BRANCH  42  43
ATOM     43  C   UNL A   1      41.318  27.345  29.234  1.00  0.00     0.031 A 
ATOM     44  C   UNL A   1      40.050  28.207  29.057  1.00  0.00     0.074 A 
ATOM     45  C   UNL A   1      42.233  27.734  30.138  1.00  0.00     0.049 A 
ATOM     46  N   UNL A   1      39.519  29.078  29.885  1.00  0.00    -0.248 NA
ATOM     47  C   UNL A   1      39.337  28.159  27.758  1.00  0.00     0.031 C 
ATOM     48  C   UNL A   1      43.614  27.256  30.184  1.00  0.00     0.029 A 
ATOM     49  N   UNL A   1      42.168  28.642  31.156  1.00  0.00    -0.354 N 
ATOM     50  C   UNL A   1      38.414  29.628  29.228  1.00  0.00     0.074 A 
ATOM     51  C   UNL A   1      38.433  29.124  27.879  1.00  0.00     0.031 C 
ATOM     52  C   UNL A   1      44.242  27.802  31.228  1.00  0.00     0.029 A 
ATOM     53  C   UNL A   1      43.302  28.655  31.927  1.00  0.00     0.049 A 
ATOM     54  H   UNL A   1      41.390  29.224  31.319  1.00  0.00     0.167 HD
ATOM     55  C   UNL A   1      37.436  30.425  29.733  1.00  0.00     0.031 A 
ATOM     56  C   UNL A   1      43.528  29.221  33.121  1.00  0.00     0.031 A 
ATOM     57  C   UNL A   1      37.485  30.924  31.082  1.00  0.00     0.049 A 
ATOM     58  C   UNL A   1      42.396  29.966  33.747  1.00  0.00     0.074 A 
ATOM     59  C   UNL A   1      36.522  31.601  31.808  1.00  0.00     0.029 A 
ATOM     60  N   UNL A   1      38.597  30.798  31.905  1.00  0.00    -0.354 N 
ATOM     61  N   UNL A   1      41.222  30.259  33.240  1.00  0.00    -0.248 NA
ATOM     62  C   UNL A   1      42.600  30.416  35.125  1.00  0.00     0.031 C 
ATOM     63  C   UNL A   1      37.080  31.940  33.046  1.00  0.00     0.029 A 
ATOM     64  C   UNL A   1      38.358  31.404  33.123  1.00  0.00     0.049 A 
ATOM     65  H   UNL A   1      39.434  30.342  31.656  1.00  0.00     0.167 HD
ATOM     66  C   UNL A   1      40.528  30.904  34.250  1.00  0.00     0.074 A 
ATOM     67  C   UNL A   1      41.412  30.929  35.403  1.00  0.00     0.031 C 
ATOM     68  C   UNL A   1      39.278  31.428  34.232  1.00  0.00     0.031 A 
BRANCH  55  69
ATOM     69  C   UNL A   1      36.228  30.734  28.870  1.00  0.00    -0.014 A 
ATOM     70  C   UNL A   1      35.350  29.710  28.464  1.00  0.00     0.009 A 
ATOM     71  C   UNL A   1      35.913  32.052  28.497  1.00  0.00     0.009 A 
ATOM     72  C   UNL A   1      34.243  29.983  27.652  1.00  0.00     0.001 A 
ATOM     73  C   UNL A   1      34.783  32.329  27.716  1.00  0.00     0.001 A 
ATOM     74  C   UNL A   1      33.960  31.293  27.279  1.00  0.00     0.000 A 
ENDBRANCH  55  69
BRANCH  56  75
ATOM     75  C   UNL A   1      44.791  28.914  33.840  1.00  0.00    -0.014 A 
ATOM     76  C   UNL A   1      45.935  29.697  33.621  1.00  0.00     0.009 A 
ATOM     77  C   UNL A   1      44.837  27.903  34.810  1.00  0.00     0.009 A 
ATOM     78  C   UNL A   1      47.116  29.437  34.318  1.00  0.00     0.001 A 
ATOM     79  C   UNL A   1      46.008  27.671  35.535  1.00  0.00     0.001 A 
ATOM     80  C   UNL A   1      47.151  28.426  35.276  1.00  0.00     0.000 A 
ENDBRANCH  56  75
BRANCH  68  81
ATOM     81  C   UNL A   1      38.803  32.052  35.509  1.00  0.00    -0.014 A 
ATOM     82  C   UNL A   1      38.209  31.283  36.521  1.00  0.00     0.009 A 
ATOM     83  C   UNL A   1      38.980  33.430  35.706  1.00  0.00     0.009 A 
ATOM     84  C   UNL A   1      37.750  31.894  37.686  1.00  0.00     0.001 A 
ATOM     85  C   UNL A   1      38.565  34.029  36.892  1.00  0.00     0.001 A 
ATOM     86  C   UNL A   1      37.936  33.264  37.873  1.00  0.00     0.000 A 
ENDBRANCH  68  81
ENDBRANCH  42  43
ENDBRANCH  34  37
ENDBRANCH  32  33
ENDBRANCH  31  32
ENDBRANCH  30  31
ENDBRANCH   3  30
TORSDOF 16
ENDMDL
MODEL 2
REMARK VINA RESULT:     -14.1      4.035     10.089
REMARK SMILES COc1ccc(C2=NN(C(=O)CCC(=O)NCCCNC(=O)c3ccc(-c4c5nc(c(-c6ccccc6)c6ccc([nH]6)c(-c6ccccc6)c6nc(c(-c7ccccc7)c7ccc4[nH]7)C=C6)C=C5)cc3)[C@H](c3ccc(Cl)cc3Cl)C2)cc1
REMARK SMILES IDX 14 1 15 2 16 3 13 5 12 6 10 7 11 8 9 9 7 10 8 11 80 12 71 13
REMARK SMILES IDX 6 14 3 15 4 16 82 17 5 18 81 19 2 20 1 21 72 22 73 23 78 24
REMARK SMILES IDX 74 25 77 26 79 27 75 28 76 29 17 30 18 31 19 32 20 33 21 34
REMARK SMILES IDX 22 36 23 37 24 38 70 39 25 40 69 41 26 42 27 43 28 44 63 45
REMARK SMILES IDX 29 46 68 47 62 48 64 49 30 50 67 51 61 52 60 53 31 55 53 56
REMARK SMILES IDX 38 57 52 58 39 59 42 60 51 61 65 62 40 63 41 64 50 66 66 67
REMARK SMILES IDX 43 68 32 69 33 70 37 71 34 72 36 73 35 74 54 75 55 76 59 77
REMARK SMILES IDX 56 78 58 79 57 80 44 81 45 82 49 83 46 84 48 85 47 86
REMARK H PARENT 16 4 20 35 64 54 42 65
REMARK Flexibility Score: inf
ROOT
ATOM      1  C   UNL A   1      32.201  29.599  26.469  1.00  0.00     0.220 C 
ATOM      2  O   UNL A   1      31.405  28.751  26.061  1.00  0.00    -0.275 OA
ATOM      3  N   UNL A   1      31.662  30.742  26.948  1.00  0.00    -0.356 N 
ATOM      4  H   UNL A   1      30.706  30.657  27.167  1.00  0.00     0.163 HD
ENDROOT
BRANCH   1   5
ATOM      5  C   UNL A   1      33.687  29.385  26.456  1.00  0.00     0.110 C 
BRANCH   5   6
ATOM      6  C   UNL A   1      34.365  28.264  25.667  1.00  0.00     0.112 C 
BRANCH   6   7
ATOM      7  C   UNL A   1      34.092  28.074  24.185  1.00  0.00     0.243 C 
ATOM      8  O   UNL A   1      34.482  28.930  23.388  1.00  0.00    -0.273 OA
BRANCH   7   9
ATOM      9  N   UNL A   1      33.233  26.989  23.820  1.00  0.00    -0.225 N 
ATOM     10  C   UNL A   1      33.895  24.462  22.772  1.00  0.00     0.071 C 
ATOM     11  N   UNL A   1      34.190  25.434  23.916  1.00  0.00    -0.174 NA
ATOM     12  C   UNL A   1      32.613  25.388  21.306  1.00  0.00     0.091 C 
ATOM     13  C   UNL A   1      32.028  27.039  22.373  1.00  0.00     0.149 C 
BRANCH  10  14
ATOM     14  C   UNL A   1      33.462  22.875  23.597  1.00  0.00    -0.002 A 
ATOM     15  C   UNL A   1      33.464  19.401  24.194  1.00  0.00     0.118 A 
ATOM     16  C   UNL A   1      34.776  20.702  24.995  1.00  0.00     0.047 A 
ATOM     17  C   UNL A   1      32.154  19.957  23.220  1.00  0.00     0.047 A 
ATOM     18  C   UNL A   1      34.728  22.411  24.641  1.00  0.00     0.014 A 
ATOM     19  C   UNL A   1      32.129  21.647  22.987  1.00  0.00     0.014 A 
BRANCH  15  20
ATOM     20  O   UNL A   1      33.368  17.972  24.218  1.00  0.00    -0.497 OA
ATOM     21  C   UNL A   1      32.854  17.419  25.448  1.00  0.00     0.278 C 
ENDBRANCH  15  20
ENDBRANCH  10  14
BRANCH  13  22
ATOM     22  C   UNL A   1      30.517  27.381  22.995  1.00  0.00    -0.004 A 
ATOM     23  C   UNL A   1      29.805  28.606  22.819  1.00  0.00     0.009 A 
ATOM     24  C   UNL A   1      29.771  26.386  23.671  1.00  0.00     0.047 A 
ATOM     25  C   UNL A   1      28.428  28.736  23.053  1.00  0.00     0.021 A 
ATOM     26  C   UNL A   1      28.381  26.497  23.879  1.00  0.00     0.041 A 
ATOM     27  Cl  UNL A   1      30.516  25.128  24.600  1.00  0.00    -0.084 Cl
ATOM     28  C   UNL A   1      27.712  27.664  23.549  1.00  0.00     0.042 A 
ATOM     29  Cl  UNL A   1      26.032  27.828  23.867  1.00  0.00    -0.084 Cl
ENDBRANCH  13  22
ENDBRANCH   7   9
ENDBRANCH   6   7
ENDBRANCH   5   6
ENDBRANCH   1   5
BRANCH   3  30
ATOM     30  C   UNL A   1      32.239  32.188  27.231  1.00  0.00     0.117 C 
BRANCH  30  31
ATOM     31  C   UNL A   1      34.219  32.707  28.099  1.00  0.00     0.042 C 
BRANCH  31  32
ATOM     32  C   UNL A   1      33.975  34.428  29.079  1.00  0.00     0.118 C 
BRANCH  32  33
ATOM     33  N   UNL A   1      33.678  34.210  30.909  1.00  0.00    -0.352 N 
ATOM     34  C   UNL A   1      34.401  33.182  32.031  1.00  0.00     0.251 C 
ATOM     35  H   UNL A   1      32.980  34.794  31.283  1.00  0.00     0.163 HD
ATOM     36  O   UNL A   1      33.856  33.080  33.128  1.00  0.00    -0.269 OA
BRANCH  34  37
ATOM     37  C   UNL A   1      35.945  32.248  31.642  1.00  0.00     0.039 A 
ATOM     38  C   UNL A   1      36.726  31.151  32.881  1.00  0.00     0.014 A 
ATOM     39  C   UNL A   1      36.918  32.368  29.875  1.00  0.00     0.014 A 
ATOM     40  C   UNL A   1      38.318  30.363  32.426  1.00  0.00     0.010 A 
ATOM     41  C   UNL A   1      38.416  31.590  29.558  1.00  0.00     0.010 A 
ATOM     42  C   UNL A   1      39.131  30.650  30.821  1.00  0.00    -0.014 A 
BRANCH  42  43
ATOM     43  C   UNL A   1      40.403  30.169  30.225  1.00  0.00     0.031 A 
ATOM     44  C   UNL A   1      41.545  31.144  29.871  1.00  0.00     0.074 A 
ATOM     45  C   UNL A   1      40.269  29.049  29.494  1.00  0.00     0.049 A 
ATOM     46  N   UNL A   1      42.650  30.915  29.198  1.00  0.00    -0.248 NA
ATOM     47  C   UNL A   1      41.394  32.574  30.233  1.00  0.00     0.031 C 
ATOM     48  C   UNL A   1      39.068  28.217  29.456  1.00  0.00     0.029 A 
ATOM     49  N   UNL A   1      41.117  28.439  28.613  1.00  0.00    -0.354 N 
ATOM     50  C   UNL A   1      43.319  32.139  29.104  1.00  0.00     0.074 A 
ATOM     51  C   UNL A   1      42.436  33.143  29.640  1.00  0.00     0.031 C 
ATOM     52  C   UNL A   1      39.281  27.158  28.670  1.00  0.00     0.029 A 
ATOM     53  C   UNL A   1      40.637  27.235  28.164  1.00  0.00     0.049 A 
ATOM     54  H   UNL A   1      41.979  28.823  28.332  1.00  0.00     0.167 HD
ATOM     55  C   UNL A   1      44.584  32.385  28.673  1.00  0.00     0.031 A 
ATOM     56  C   UNL A   1      41.257  26.255  27.493  1.00  0.00     0.031 A 
ATOM     57  C   UNL A   1      45.412  31.346  28.118  1.00  0.00     0.049 A 
ATOM     58  C   UNL A   1      42.697  26.463  27.158  1.00  0.00     0.074 A 
ATOM     59  C   UNL A   1      46.753  31.372  27.783  1.00  0.00     0.029 A 
ATOM     60  N   UNL A   1      44.940  30.078  27.804  1.00  0.00    -0.354 N 
ATOM     61  N   UNL A   1      43.434  27.536  27.321  1.00  0.00    -0.248 NA
ATOM     62  C   UNL A   1      43.403  25.313  26.594  1.00  0.00     0.031 C 
ATOM     63  C   UNL A   1      47.073  30.137  27.205  1.00  0.00     0.029 A 
ATOM     64  C   UNL A   1      45.954  29.317  27.257  1.00  0.00     0.049 A 
ATOM     65  H   UNL A   1      44.018  29.767  27.952  1.00  0.00     0.167 HD
ATOM     66  C   UNL A   1      44.707  27.183  26.907  1.00  0.00     0.074 A 
ATOM     67  C   UNL A   1      44.637  25.787  26.514  1.00  0.00     0.031 C 
ATOM     68  C   UNL A   1      45.832  27.938  26.854  1.00  0.00     0.031 A 
BRANCH  55  69
ATOM     69  C   UNL A   1      45.159  33.777  28.852  1.00  0.00    -0.014 A 
ATOM     70  C   UNL A   1      45.042  34.743  27.833  1.00  0.00     0.009 A 
ATOM     71  C   UNL A   1      45.773  34.166  30.055  1.00  0.00     0.009 A 
ATOM     72  C   UNL A   1      45.586  36.023  27.981  1.00  0.00     0.001 A 
ATOM     73  C   UNL A   1      46.284  35.461  30.217  1.00  0.00     0.001 A 
ATOM     74  C   UNL A   1      46.206  36.382  29.174  1.00  0.00     0.000 A 
ENDBRANCH  55  69
BRANCH  56  75
ATOM     75  C   UNL A   1      40.561  24.957  27.302  1.00  0.00    -0.014 A 
ATOM     76  C   UNL A   1      39.421  24.882  26.484  1.00  0.00     0.009 A 
ATOM     77  C   UNL A   1      41.078  23.777  27.854  1.00  0.00     0.009 A 
ATOM     78  C   UNL A   1      38.782  23.660  26.270  1.00  0.00     0.001 A 
ATOM     79  C   UNL A   1      40.458  22.550  27.606  1.00  0.00     0.001 A 
ATOM     80  C   UNL A   1      39.302  22.495  26.830  1.00  0.00     0.000 A 
ENDBRANCH  56  75
BRANCH  68  81
ATOM     81  C   UNL A   1      47.070  27.247  26.369  1.00  0.00    -0.014 A 
ATOM     82  C   UNL A   1      47.409  27.228  25.008  1.00  0.00     0.009 A 
ATOM     83  C   UNL A   1      47.920  26.629  27.299  1.00  0.00     0.009 A 
ATOM     84  C   UNL A   1      48.550  26.553  24.580  1.00  0.00     0.001 A 
ATOM     85  C   UNL A   1      49.085  25.998  26.873  1.00  0.00     0.001 A 
ATOM     86  C   UNL A   1      49.390  25.946  25.514  1.00  0.00     0.000 A 
ENDBRANCH  68  81
ENDBRANCH  42  43
ENDBRANCH  34  37
ENDBRANCH  32  33
ENDBRANCH  31  32
ENDBRANCH  30  31
ENDBRANCH   3  30
TORSDOF 16
ENDMDL
MODEL 3
REMARK VINA RESULT:     -13.9      1.174      5.893
REMARK SMILES COc1ccc(C2=NN(C(=O)CCC(=O)NCCCNC(=O)c3ccc(-c4c5nc(c(-c6ccccc6)c6ccc([nH]6)c(-c6ccccc6)c6nc(c(-c7ccccc7)c7ccc4[nH]7)C=C6)C=C5)cc3)[C@H](c3ccc(Cl)cc3Cl)C2)cc1
REMARK SMILES IDX 14 1 15 2 16 3 13 5 12 6 10 7 11 8 9 9 7 10 8 11 80 12 71 13
REMARK SMILES IDX 6 14 3 15 4 16 82 17 5 18 81 19 2 20 1 21 72 22 73 23 78 24
REMARK SMILES IDX 74 25 77 26 79 27 75 28 76 29 17 30 18 31 19 32 20 33 21 34
REMARK SMILES IDX 22 36 23 37 24 38 70 39 25 40 69 41 26 42 27 43 28 44 63 45
REMARK SMILES IDX 29 46 68 47 62 48 64 49 30 50 67 51 61 52 60 53 31 55 53 56
REMARK SMILES IDX 38 57 52 58 39 59 42 60 51 61 65 62 40 63 41 64 50 66 66 67
REMARK SMILES IDX 43 68 32 69 33 70 37 71 34 72 36 73 35 74 54 75 55 76 59 77
REMARK SMILES IDX 56 78 58 79 57 80 44 81 45 82 49 83 46 84 48 85 47 86
REMARK H PARENT 16 4 20 35 64 54 42 65
REMARK Flexibility Score: inf
ROOT
ATOM      1  C   UNL A   1      37.629  20.613  24.886  1.00  0.00     0.220 C 
ATOM      2  O   UNL A   1      37.112  19.495  24.907  1.00  0.00    -0.275 OA
ATOM      3  N   UNL A   1      38.751  20.767  25.623  1.00  0.00    -0.356 N 
ATOM      4  H   UNL A   1      39.174  19.912  25.869  1.00  0.00     0.163 HD
ENDROOT
BRANCH   1   5
ATOM      5  C   UNL A   1      37.067  21.747  24.078  1.00  0.00     0.110 C 
BRANCH   5   6
ATOM      6  C   UNL A   1      37.184  23.214  24.499  1.00  0.00     0.112 C 
BRANCH   6   7
ATOM      7  C   UNL A   1      36.228  23.815  25.513  1.00  0.00     0.243 C 
ATOM      8  O   UNL A   1      36.668  24.193  26.602  1.00  0.00    -0.273 OA
BRANCH   7   9
ATOM      9  N   UNL A   1      34.832  23.742  25.209  1.00  0.00    -0.225 N 
ATOM     10  C   UNL A   1      32.781  25.586  25.775  1.00  0.00     0.071 C 
ATOM     11  N   UNL A   1      34.165  25.444  25.136  1.00  0.00    -0.174 NA
ATOM     12  C   UNL A   1      32.211  23.753  26.757  1.00  0.00     0.091 C 
ATOM     13  C   UNL A   1      33.645  22.505  25.989  1.00  0.00     0.149 C 
BRANCH  10  14
ATOM     14  C   UNL A   1      31.740  26.375  24.480  1.00  0.00    -0.002 A 
ATOM     15  C   UNL A   1      29.382  28.602  23.098  1.00  0.00     0.118 A 
ATOM     16  C   UNL A   1      31.354  28.978  23.263  1.00  0.00     0.047 A 
ATOM     17  C   UNL A   1      28.737  27.066  23.544  1.00  0.00     0.047 A 
ATOM     18  C   UNL A   1      32.464  27.835  23.977  1.00  0.00     0.014 A 
ATOM     19  C   UNL A   1      29.898  25.975  24.157  1.00  0.00     0.014 A 
BRANCH  15  20
ATOM     20  O   UNL A   1      28.267  29.400  22.684  1.00  0.00    -0.497 OA
ATOM     21  C   UNL A   1      28.154  30.676  23.348  1.00  0.00     0.278 C 
ENDBRANCH  15  20
ENDBRANCH  10  14
BRANCH  13  22
ATOM     22  C   UNL A   1      33.447  21.253  24.904  1.00  0.00    -0.004 A 
ATOM     23  C   UNL A   1      33.926  19.918  25.078  1.00  0.00     0.009 A 
ATOM     24  C   UNL A   1      32.655  21.421  23.742  1.00  0.00     0.047 A 
ATOM     25  C   UNL A   1      33.457  18.829  24.329  1.00  0.00     0.021 A 
ATOM     26  C   UNL A   1      32.155  20.328  23.006  1.00  0.00     0.041 A 
ATOM     27  Cl  UNL A   1      32.515  22.938  22.918  1.00  0.00    -0.084 Cl
ATOM     28  C   UNL A   1      32.540  19.035  23.317  1.00  0.00     0.042 A 
ATOM     29  Cl  UNL A   1      31.987  17.708  22.377  1.00  0.00    -0.084 Cl
ENDBRANCH  13  22
ENDBRANCH   7   9
ENDBRANCH   6   7
ENDBRANCH   5   6
ENDBRANCH   1   5
BRANCH   3  30
ATOM     30  C   UNL A   1      39.531  22.028  26.177  1.00  0.00     0.117 C 
BRANCH  30  31
ATOM     31  C   UNL A   1      41.607  22.092  26.971  1.00  0.00     0.042 C 
BRANCH  31  32
ATOM     32  C   UNL A   1      42.649  20.736  25.943  1.00  0.00     0.118 C 
BRANCH  32  33
ATOM     33  N   UNL A   1      44.013  21.473  24.904  1.00  0.00    -0.352 N 
ATOM     34  C   UNL A   1      44.503  23.071  24.695  1.00  0.00     0.251 C 
ATOM     35  H   UNL A   1      44.535  20.817  24.389  1.00  0.00     0.163 HD
ATOM     36  O   UNL A   1      45.282  23.302  23.773  1.00  0.00    -0.269 OA
BRANCH  34  37
ATOM     37  C   UNL A   1      43.903  24.425  25.798  1.00  0.00     0.039 A 
ATOM     38  C   UNL A   1      44.096  26.183  25.331  1.00  0.00     0.014 A 
ATOM     39  C   UNL A   1      43.033  24.110  27.595  1.00  0.00     0.014 A 
ATOM     40  C   UNL A   1      43.569  27.444  26.553  1.00  0.00     0.010 A 
ATOM     41  C   UNL A   1      42.584  25.373  28.669  1.00  0.00     0.010 A 
ATOM     42  C   UNL A   1      42.892  27.004  28.186  1.00  0.00    -0.014 A 
BRANCH  42  43
ATOM     43  C   UNL A   1      42.424  27.808  29.344  1.00  0.00     0.031 A 
ATOM     44  C   UNL A   1      42.997  27.588  30.760  1.00  0.00     0.074 A 
ATOM     45  C   UNL A   1      41.158  28.241  29.227  1.00  0.00     0.049 A 
ATOM     46  N   UNL A   1      42.587  28.086  31.904  1.00  0.00    -0.248 NA
ATOM     47  C   UNL A   1      44.107  26.621  30.933  1.00  0.00     0.031 C 
ATOM     48  C   UNL A   1      40.360  28.162  28.003  1.00  0.00     0.029 A 
ATOM     49  N   UNL A   1      40.302  28.786  30.141  1.00  0.00    -0.354 N 
ATOM     50  C   UNL A   1      43.404  27.532  32.894  1.00  0.00     0.074 A 
ATOM     51  C   UNL A   1      44.228  26.540  32.252  1.00  0.00     0.031 C 
ATOM     52  C   UNL A   1      39.165  28.720  28.213  1.00  0.00     0.029 A 
ATOM     53  C   UNL A   1      39.123  29.204  29.578  1.00  0.00     0.049 A 
ATOM     54  H   UNL A   1      40.509  28.869  31.100  1.00  0.00     0.167 HD
ATOM     55  C   UNL A   1      43.502  27.876  34.205  1.00  0.00     0.031 A 
ATOM     56  C   UNL A   1      38.152  29.978  30.083  1.00  0.00     0.031 A 
ATOM     57  C   UNL A   1      42.631  28.854  34.800  1.00  0.00     0.049 A 
ATOM     58  C   UNL A   1      38.339  30.485  31.474  1.00  0.00     0.074 A 
ATOM     59  C   UNL A   1      42.685  29.438  36.053  1.00  0.00     0.029 A 
ATOM     60  N   UNL A   1      41.518  29.380  34.156  1.00  0.00    -0.354 N 
ATOM     61  N   UNL A   1      39.276  30.184  32.342  1.00  0.00    -0.248 NA
ATOM     62  C   UNL A   1      37.366  31.474  31.940  1.00  0.00     0.031 C 
ATOM     63  C   UNL A   1      41.565  30.269  36.186  1.00  0.00     0.029 A 
ATOM     64  C   UNL A   1      40.861  30.264  34.989  1.00  0.00     0.049 A 
ATOM     65  H   UNL A   1      41.239  29.156  33.239  1.00  0.00     0.167 HD
ATOM     66  C   UNL A   1      39.026  30.972  33.453  1.00  0.00     0.074 A 
ATOM     67  C   UNL A   1      37.864  31.780  33.128  1.00  0.00     0.031 C 
ATOM     68  C   UNL A   1      39.691  31.027  34.633  1.00  0.00     0.031 A 
BRANCH  55  69
ATOM     69  C   UNL A   1      44.609  27.261  35.040  1.00  0.00    -0.014 A 
ATOM     70  C   UNL A   1      45.889  27.848  35.087  1.00  0.00     0.009 A 
ATOM     71  C   UNL A   1      44.380  26.125  35.836  1.00  0.00     0.009 A 
ATOM     72  C   UNL A   1      46.921  27.278  35.840  1.00  0.00     0.001 A 
ATOM     73  C   UNL A   1      45.405  25.577  36.619  1.00  0.00     0.001 A 
ATOM     74  C   UNL A   1      46.679  26.142  36.606  1.00  0.00     0.000 A 
ENDBRANCH  55  69
BRANCH  56  75
ATOM     75  C   UNL A   1      37.066  30.452  29.188  1.00  0.00    -0.014 A 
ATOM     76  C   UNL A   1      36.009  29.593  28.845  1.00  0.00     0.009 A 
ATOM     77  C   UNL A   1      37.027  31.783  28.748  1.00  0.00     0.009 A 
ATOM     78  C   UNL A   1      34.966  30.041  28.034  1.00  0.00     0.001 A 
ATOM     79  C   UNL A   1      35.962  32.239  27.968  1.00  0.00     0.001 A 
ATOM     80  C   UNL A   1      34.942  31.364  27.597  1.00  0.00     0.000 A 
ENDBRANCH  56  75
BRANCH  68  81
ATOM     81  C   UNL A   1      39.174  32.009  35.639  1.00  0.00    -0.014 A 
ATOM     82  C   UNL A   1      39.615  33.341  35.653  1.00  0.00     0.009 A 
ATOM     83  C   UNL A   1      38.210  31.594  36.571  1.00  0.00     0.009 A 
ATOM     84  C   UNL A   1      39.140  34.226  36.619  1.00  0.00     0.001 A 
ATOM     85  C   UNL A   1      37.700  32.494  37.502  1.00  0.00     0.001 A 
ATOM     86  C   UNL A   1      38.178  33.803  37.536  1.00  0.00     0.000 A 
ENDBRANCH  68  81
ENDBRANCH  42  43
ENDBRANCH  34  37
ENDBRANCH  32  33
ENDBRANCH  31  32
ENDBRANCH  30  31
ENDBRANCH   3  30
TORSDOF 16
ENDMDL
