MODEL 1
REMARK VINA RESULT:      -9.5      0.000      0.000
REMARK SMILES CC(C)CC1(CNc2ccnc(C(=O)NCCCNC(=O)c3ccc(-c4c5nc(c(-c6ccccc6)c6ccc([nH]6)c(-c6ccccc6)c6nc(c(-c7ccccc7)c7ccc4[nH]7)C=C6)C=C5)cc3)c2)CCCC1
REMARK SMILES IDX 13 1 14 2 15 3 12 5 8 6 9 7 70 8 10 9 11 10 7 11 6 13 5 14
REMARK SMILES IDX 71 15 74 16 72 17 73 18 4 19 2 20 1 21 3 22 16 23 17 24
REMARK SMILES IDX 18 25 19 26 20 27 21 29 22 30 23 31 69 32 24 33 68 34 25 35
REMARK SMILES IDX 26 36 27 37 62 38 28 39 67 40 61 41 63 42 29 43 66 44 60 45
REMARK SMILES IDX 59 46 30 48 52 49 37 50 51 51 38 52 41 53 50 54 64 55 39 56
REMARK SMILES IDX 40 57 49 59 65 60 42 61 31 62 32 63 36 64 33 65 35 66 34 67
REMARK SMILES IDX 53 68 54 69 58 70 55 71 57 72 56 73 43 74 44 75 48 76 45 77
REMARK SMILES IDX 47 78 46 79
REMARK H PARENT 15 4 7 12 19 28 63 47 41 58
REMARK Flexibility Score: inf
ROOT
ATOM      1  C   UNL A   1      33.464  36.210  31.105  1.00  0.00     0.269 C 
ATOM      2  O   UNL A   1      33.311  37.394  31.416  1.00  0.00    -0.268 OA
ATOM      3  N   UNL A   1      33.050  35.880  29.831  1.00  0.00    -0.351 N 
ATOM      4  H   UNL A   1      32.659  36.640  29.343  1.00  0.00     0.163 HD
ENDROOT
BRANCH   1   5
ATOM      5  C   UNL A   1      34.072  35.244  32.093  1.00  0.00     0.130 A 
ATOM      6  C   UNL A   1      35.856  34.384  33.476  1.00  0.00     0.038 A 
ATOM      7  C   UNL A   1      35.032  33.321  33.815  1.00  0.00     0.046 A 
ATOM      8  C   UNL A   1      35.370  35.330  32.570  1.00  0.00     0.060 A 
ATOM      9  C   UNL A   1      33.749  33.288  33.296  1.00  0.00     0.114 A 
ATOM     10  N   UNL A   1      33.254  34.222  32.458  1.00  0.00    -0.251 NA
BRANCH   6  11
ATOM     11  N   UNL A   1      37.157  34.513  33.926  1.00  0.00    -0.384 N 
ATOM     12  H   UNL A   1      37.347  34.335  34.875  1.00  0.00     0.160 HD
BRANCH  11  13
ATOM     13  C   UNL A   1      38.258  34.902  33.058  1.00  0.00     0.119 C 
BRANCH  13  14
ATOM     14  C   UNL A   1      38.916  33.656  32.358  1.00  0.00    -0.012 C 
ATOM     15  C   UNL A   1      40.139  34.178  31.573  1.00  0.00     0.009 C 
ATOM     16  C   UNL A   1      38.036  33.097  31.223  1.00  0.00     0.009 C 
ATOM     17  C   UNL A   1      39.582  34.726  30.260  1.00  0.00     0.001 C 
ATOM     18  C   UNL A   1      38.240  34.036  30.037  1.00  0.00     0.001 C 
BRANCH  14  19
ATOM     19  C   UNL A   1      39.303  32.602  33.440  1.00  0.00     0.012 C 
BRANCH  19  20
ATOM     20  C   UNL A   1      38.478  31.301  33.615  1.00  0.00    -0.017 C 
ATOM     21  C   UNL A   1      39.192  30.026  33.180  1.00  0.00     0.007 C 
ATOM     22  C   UNL A   1      38.074  31.158  35.091  1.00  0.00     0.007 C 
ENDBRANCH  19  20
ENDBRANCH  14  19
ENDBRANCH  13  14
ENDBRANCH  11  13
ENDBRANCH   6  11
ENDBRANCH   1   5
BRANCH   3  23
ATOM     23  C   UNL A   1      33.068  34.655  29.056  1.00  0.00     0.118 C 
BRANCH  23  24
ATOM     24  C   UNL A   1      34.498  34.247  28.690  1.00  0.00     0.042 C 
BRANCH  24  25
ATOM     25  C   UNL A   1      34.912  32.901  29.284  1.00  0.00     0.118 C 
BRANCH  25  26
ATOM     26  N   UNL A   1      34.184  31.797  28.672  1.00  0.00    -0.352 N 
ATOM     27  C   UNL A   1      34.631  30.609  28.153  1.00  0.00     0.251 C 
ATOM     28  H   UNL A   1      33.210  31.925  28.623  1.00  0.00     0.163 HD
ATOM     29  O   UNL A   1      33.870  29.932  27.466  1.00  0.00    -0.269 OA
BRANCH  27  30
ATOM     30  C   UNL A   1      36.007  30.129  28.405  1.00  0.00     0.039 A 
ATOM     31  C   UNL A   1      36.952  30.240  27.378  1.00  0.00     0.014 A 
ATOM     32  C   UNL A   1      36.355  29.504  29.605  1.00  0.00     0.014 A 
ATOM     33  C   UNL A   1      38.251  29.765  27.570  1.00  0.00     0.010 A 
ATOM     34  C   UNL A   1      37.668  29.090  29.820  1.00  0.00     0.010 A 
ATOM     35  C   UNL A   1      38.627  29.208  28.802  1.00  0.00    -0.014 A 
BRANCH  35  36
ATOM     36  C   UNL A   1      40.015  28.740  29.041  1.00  0.00     0.031 A 
ATOM     37  C   UNL A   1      41.038  29.670  29.636  1.00  0.00     0.074 A 
ATOM     38  C   UNL A   1      40.370  27.496  28.667  1.00  0.00     0.049 A 
ATOM     39  N   UNL A   1      42.311  29.463  29.858  1.00  0.00    -0.248 NA
ATOM     40  C   UNL A   1      40.574  31.016  30.011  1.00  0.00     0.031 C 
ATOM     41  C   UNL A   1      39.480  26.511  28.049  1.00  0.00     0.029 A 
ATOM     42  N   UNL A   1      41.578  26.851  28.745  1.00  0.00    -0.354 N 
ATOM     43  C   UNL A   1      42.804  30.655  30.373  1.00  0.00     0.074 A 
ATOM     44  C   UNL A   1      41.704  31.594  30.394  1.00  0.00     0.031 C 
ATOM     45  C   UNL A   1      40.166  25.380  27.825  1.00  0.00     0.029 A 
ATOM     46  C   UNL A   1      41.550  25.572  28.245  1.00  0.00     0.049 A 
ATOM     47  H   UNL A   1      42.387  27.266  29.122  1.00  0.00     0.167 HD
ATOM     48  C   UNL A   1      44.056  30.939  30.805  1.00  0.00     0.031 A 
ATOM     49  C   UNL A   1      42.531  24.658  28.132  1.00  0.00     0.031 A 
ATOM     50  C   UNL A   1      45.148  30.001  30.797  1.00  0.00     0.049 A 
ATOM     51  C   UNL A   1      43.913  24.999  28.613  1.00  0.00     0.074 A 
ATOM     52  C   UNL A   1      46.439  30.175  31.265  1.00  0.00     0.029 A 
ATOM     53  N   UNL A   1      45.075  28.712  30.293  1.00  0.00    -0.354 N 
ATOM     54  N   UNL A   1      44.347  26.111  29.154  1.00  0.00    -0.248 NA
ATOM     55  C   UNL A   1      44.937  23.954  28.476  1.00  0.00     0.031 C 
ATOM     56  C   UNL A   1      47.161  29.007  31.001  1.00  0.00     0.029 A 
ATOM     57  C   UNL A   1      46.304  28.086  30.419  1.00  0.00     0.049 A 
ATOM     58  H   UNL A   1      44.269  28.302  29.904  1.00  0.00     0.167 HD
ATOM     59  C   UNL A   1      45.687  25.891  29.446  1.00  0.00     0.074 A 
ATOM     60  C   UNL A   1      45.988  24.534  29.037  1.00  0.00     0.031 C 
ATOM     61  C   UNL A   1      46.587  26.736  30.004  1.00  0.00     0.031 A 
BRANCH  48  62
ATOM     62  C   UNL A   1      44.313  32.330  31.316  1.00  0.00    -0.014 A 
ATOM     63  C   UNL A   1      44.152  32.649  32.674  1.00  0.00     0.009 A 
ATOM     64  C   UNL A   1      44.755  33.328  30.434  1.00  0.00     0.009 A 
ATOM     65  C   UNL A   1      44.389  33.948  33.130  1.00  0.00     0.001 A 
ATOM     66  C   UNL A   1      45.019  34.619  30.897  1.00  0.00     0.001 A 
ATOM     67  C   UNL A   1      44.826  34.930  32.243  1.00  0.00     0.000 A 
ENDBRANCH  48  62
BRANCH  49  68
ATOM     68  C   UNL A   1      42.237  23.322  27.551  1.00  0.00    -0.014 A 
ATOM     69  C   UNL A   1      41.681  22.309  28.346  1.00  0.00     0.009 A 
ATOM     70  C   UNL A   1      42.509  23.054  26.200  1.00  0.00     0.009 A 
ATOM     71  C   UNL A   1      41.425  21.046  27.807  1.00  0.00     0.001 A 
ATOM     72  C   UNL A   1      42.225  21.799  25.657  1.00  0.00     0.001 A 
ATOM     73  C   UNL A   1      41.693  20.794  26.462  1.00  0.00     0.000 A 
ENDBRANCH  49  68
BRANCH  61  74
ATOM     74  C   UNL A   1      47.973  26.206  30.237  1.00  0.00    -0.014 A 
ATOM     75  C   UNL A   1      48.362  25.711  31.491  1.00  0.00     0.009 A 
ATOM     76  C   UNL A   1      48.889  26.166  29.174  1.00  0.00     0.009 A 
ATOM     77  C   UNL A   1      49.654  25.218  31.683  1.00  0.00     0.001 A 
ATOM     78  C   UNL A   1      50.169  25.645  29.362  1.00  0.00     0.001 A 
ATOM     79  C   UNL A   1      50.554  25.180  30.617  1.00  0.00     0.000 A 
ENDBRANCH  61  74
ENDBRANCH  35  36
ENDBRANCH  27  30
ENDBRANCH  25  26
ENDBRANCH  24  25
ENDBRANCH  23  24
ENDBRANCH   3  23
TORSDOF 15
ENDMDL
MODEL 2
REMARK VINA RESULT:      -9.3      3.807      7.076
REMARK SMILES CC(C)CC1(CNc2ccnc(C(=O)NCCCNC(=O)c3ccc(-c4c5nc(c(-c6ccccc6)c6ccc([nH]6)c(-c6ccccc6)c6nc(c(-c7ccccc7)c7ccc4[nH]7)C=C6)C=C5)cc3)c2)CCCC1
REMARK SMILES IDX 13 1 14 2 15 3 12 5 8 6 9 7 70 8 10 9 11 10 7 11 6 13 5 14
REMARK SMILES IDX 71 15 74 16 72 17 73 18 4 19 2 20 1 21 3 22 16 23 17 24
REMARK SMILES IDX 18 25 19 26 20 27 21 29 22 30 23 31 69 32 24 33 68 34 25 35
REMARK SMILES IDX 26 36 27 37 62 38 28 39 67 40 61 41 63 42 29 43 66 44 60 45
REMARK SMILES IDX 59 46 30 48 52 49 37 50 51 51 38 52 41 53 50 54 64 55 39 56
REMARK SMILES IDX 40 57 49 59 65 60 42 61 31 62 32 63 36 64 33 65 35 66 34 67
REMARK SMILES IDX 53 68 54 69 58 70 55 71 57 72 56 73 43 74 44 75 48 76 45 77
REMARK SMILES IDX 47 78 46 79
REMARK H PARENT 15 4 7 12 19 28 63 47 41 58
REMARK Flexibility Score: inf
ROOT
ATOM      1  C   UNL A   1      31.158  27.369  24.105  1.00  0.00     0.269 C 
ATOM      2  O   UNL A   1      29.952  27.279  24.352  1.00  0.00    -0.268 OA
ATOM      3  N   UNL A   1      31.805  28.419  24.723  1.00  0.00    -0.351 N 
ATOM      4  H   UNL A   1      31.203  28.979  25.265  1.00  0.00     0.163 HD
ENDROOT
BRANCH   1   5
ATOM      5  C   UNL A   1      31.817  26.365  23.192  1.00  0.00     0.130 A 
ATOM      6  C   UNL A   1      33.071  24.357  22.710  1.00  0.00     0.038 A 
ATOM      7  C   UNL A   1      33.048  24.708  21.368  1.00  0.00     0.046 A 
ATOM      8  C   UNL A   1      32.477  25.229  23.628  1.00  0.00     0.060 A 
ATOM      9  C   UNL A   1      32.381  25.863  20.999  1.00  0.00     0.114 A 
ATOM     10  N   UNL A   1      31.763  26.685  21.872  1.00  0.00    -0.251 NA
BRANCH   6  11
ATOM     11  N   UNL A   1      33.716  23.234  23.193  1.00  0.00    -0.384 N 
ATOM     12  H   UNL A   1      33.214  22.389  23.247  1.00  0.00     0.160 HD
BRANCH  11  13
ATOM     13  C   UNL A   1      35.104  23.247  23.628  1.00  0.00     0.119 C 
BRANCH  13  14
ATOM     14  C   UNL A   1      35.265  22.668  25.082  1.00  0.00    -0.012 C 
ATOM     15  C   UNL A   1      35.955  23.762  25.926  1.00  0.00     0.009 C 
ATOM     16  C   UNL A   1      36.304  21.531  25.141  1.00  0.00     0.009 C 
ATOM     17  C   UNL A   1      37.447  23.637  25.621  1.00  0.00     0.001 C 
ATOM     18  C   UNL A   1      37.669  22.213  25.120  1.00  0.00     0.001 C 
BRANCH  14  19
ATOM     19  C   UNL A   1      33.862  22.277  25.639  1.00  0.00     0.012 C 
BRANCH  19  20
ATOM     20  C   UNL A   1      33.223  23.065  26.811  1.00  0.00    -0.017 C 
ATOM     21  C   UNL A   1      31.740  23.376  26.641  1.00  0.00     0.007 C 
ATOM     22  C   UNL A   1      33.411  22.269  28.113  1.00  0.00     0.007 C 
ENDBRANCH  19  20
ENDBRANCH  14  19
ENDBRANCH  13  14
ENDBRANCH  11  13
ENDBRANCH   6  11
ENDBRANCH   1   5
BRANCH   3  23
ATOM     23  C   UNL A   1      33.181  28.875  24.746  1.00  0.00     0.118 C 
BRANCH  23  24
ATOM     24  C   UNL A   1      33.999  28.127  25.802  1.00  0.00     0.042 C 
BRANCH  24  25
ATOM     25  C   UNL A   1      33.543  28.411  27.233  1.00  0.00     0.118 C 
BRANCH  25  26
ATOM     26  N   UNL A   1      33.525  29.841  27.517  1.00  0.00    -0.352 N 
ATOM     27  C   UNL A   1      34.455  30.643  28.125  1.00  0.00     0.251 C 
ATOM     28  H   UNL A   1      32.710  30.307  27.223  1.00  0.00     0.163 HD
ATOM     29  O   UNL A   1      34.130  31.773  28.480  1.00  0.00    -0.269 OA
BRANCH  27  30
ATOM     30  C   UNL A   1      35.838  30.175  28.360  1.00  0.00     0.039 A 
ATOM     31  C   UNL A   1      36.175  29.696  29.630  1.00  0.00     0.014 A 
ATOM     32  C   UNL A   1      36.822  30.277  27.372  1.00  0.00     0.014 A 
ATOM     33  C   UNL A   1      37.481  29.280  29.897  1.00  0.00     0.010 A 
ATOM     34  C   UNL A   1      38.108  29.800  27.617  1.00  0.00     0.010 A 
ATOM     35  C   UNL A   1      38.453  29.305  28.885  1.00  0.00    -0.014 A 
BRANCH  35  36
ATOM     36  C   UNL A   1      39.834  28.822  29.134  1.00  0.00     0.031 A 
ATOM     37  C   UNL A   1      40.858  29.735  29.752  1.00  0.00     0.074 A 
ATOM     38  C   UNL A   1      40.182  27.580  28.748  1.00  0.00     0.049 A 
ATOM     39  N   UNL A   1      42.127  29.513  29.985  1.00  0.00    -0.248 NA
ATOM     40  C   UNL A   1      40.402  31.080  30.138  1.00  0.00     0.031 C 
ATOM     41  C   UNL A   1      39.291  26.610  28.108  1.00  0.00     0.029 A 
ATOM     42  N   UNL A   1      41.383  26.922  28.832  1.00  0.00    -0.354 N 
ATOM     43  C   UNL A   1      42.625  30.694  30.521  1.00  0.00     0.074 A 
ATOM     44  C   UNL A   1      41.533  31.643  30.541  1.00  0.00     0.031 C 
ATOM     45  C   UNL A   1      39.970  25.475  27.878  1.00  0.00     0.029 A 
ATOM     46  C   UNL A   1      41.350  25.650  28.316  1.00  0.00     0.049 A 
ATOM     47  H   UNL A   1      42.192  27.325  29.223  1.00  0.00     0.167 HD
ATOM     48  C   UNL A   1      43.875  30.962  30.970  1.00  0.00     0.031 A 
ATOM     49  C   UNL A   1      42.325  24.729  28.202  1.00  0.00     0.031 A 
ATOM     50  C   UNL A   1      44.958  30.015  30.963  1.00  0.00     0.049 A 
ATOM     51  C   UNL A   1      43.704  25.052  28.703  1.00  0.00     0.074 A 
ATOM     52  C   UNL A   1      46.245  30.171  31.448  1.00  0.00     0.029 A 
ATOM     53  N   UNL A   1      44.879  28.733  30.443  1.00  0.00    -0.354 N 
ATOM     54  N   UNL A   1      44.141  26.153  29.263  1.00  0.00    -0.248 NA
ATOM     55  C   UNL A   1      44.720  23.999  28.564  1.00  0.00     0.031 C 
ATOM     56  C   UNL A   1      46.959  29.000  31.177  1.00  0.00     0.029 A 
ATOM     57  C   UNL A   1      46.101  28.094  30.574  1.00  0.00     0.049 A 
ATOM     58  H   UNL A   1      44.074  28.334  30.039  1.00  0.00     0.167 HD
ATOM     59  C   UNL A   1      45.476  25.917  29.567  1.00  0.00     0.074 A 
ATOM     60  C   UNL A   1      45.769  24.563  29.145  1.00  0.00     0.031 C 
ATOM     61  C   UNL A   1      46.377  26.747  30.146  1.00  0.00     0.031 A 
BRANCH  48  62
ATOM     62  C   UNL A   1      44.138  32.344  31.502  1.00  0.00    -0.014 A 
ATOM     63  C   UNL A   1      43.951  32.652  32.859  1.00  0.00     0.009 A 
ATOM     64  C   UNL A   1      44.612  33.346  30.641  1.00  0.00     0.009 A 
ATOM     65  C   UNL A   1      44.194  33.943  33.334  1.00  0.00     0.001 A 
ATOM     66  C   UNL A   1      44.883  34.628  31.124  1.00  0.00     0.001 A 
ATOM     67  C   UNL A   1      44.664  34.927  32.467  1.00  0.00     0.000 A 
ENDBRANCH  48  62
BRANCH  49  68
ATOM     68  C   UNL A   1      42.025  23.403  27.601  1.00  0.00    -0.014 A 
ATOM     69  C   UNL A   1      42.308  23.157  26.249  1.00  0.00     0.009 A 
ATOM     70  C   UNL A   1      41.458  22.378  28.375  1.00  0.00     0.009 A 
ATOM     71  C   UNL A   1      42.005  21.919  25.678  1.00  0.00     0.001 A 
ATOM     72  C   UNL A   1      41.183  21.132  27.807  1.00  0.00     0.001 A 
ATOM     73  C   UNL A   1      41.448  20.907  26.457  1.00  0.00     0.000 A 
ENDBRANCH  49  68
BRANCH  61  74
ATOM     74  C   UNL A   1      47.755  26.201  30.388  1.00  0.00    -0.014 A 
ATOM     75  C   UNL A   1      48.143  25.738  31.654  1.00  0.00     0.009 A 
ATOM     76  C   UNL A   1      48.664  26.114  29.322  1.00  0.00     0.009 A 
ATOM     77  C   UNL A   1      49.428  25.230  31.855  1.00  0.00     0.001 A 
ATOM     78  C   UNL A   1      49.938  25.579  29.519  1.00  0.00     0.001 A 
ATOM     79  C   UNL A   1      50.322  25.145  30.786  1.00  0.00     0.000 A 
ENDBRANCH  61  74
ENDBRANCH  35  36
ENDBRANCH  27  30
ENDBRANCH  25  26
ENDBRANCH  24  25
ENDBRANCH  23  24
ENDBRANCH   3  23
TORSDOF 15
ENDMDL
MODEL 3
REMARK VINA RESULT:      -9.3      4.738     10.421
REMARK SMILES CC(C)CC1(CNc2ccnc(C(=O)NCCCNC(=O)c3ccc(-c4c5nc(c(-c6ccccc6)c6ccc([nH]6)c(-c6ccccc6)c6nc(c(-c7ccccc7)c7ccc4[nH]7)C=C6)C=C5)cc3)c2)CCCC1
REMARK SMILES IDX 13 1 14 2 15 3 12 5 8 6 9 7 70 8 10 9 11 10 7 11 6 13 5 14
REMARK SMILES IDX 71 15 74 16 72 17 73 18 4 19 2 20 1 21 3 22 16 23 17 24
REMARK SMILES IDX 18 25 19 26 20 27 21 29 22 30 23 31 69 32 24 33 68 34 25 35
REMARK SMILES IDX 26 36 27 37 62 38 28 39 67 40 61 41 63 42 29 43 66 44 60 45
REMARK SMILES IDX 59 46 30 48 52 49 37 50 51 51 38 52 41 53 50 54 64 55 39 56
REMARK SMILES IDX 40 57 49 59 65 60 42 61 31 62 32 63 36 64 33 65 35 66 34 67
REMARK SMILES IDX 53 68 54 69 58 70 55 71 57 72 56 73 43 74 44 75 48 76 45 77
REMARK SMILES IDX 47 78 46 79
REMARK H PARENT 15 4 7 12 19 28 63 47 41 58
REMARK Flexibility Score: inf
ROOT
ATOM      1  C   UNL A   1      33.550  19.662  25.361  1.00  0.00     0.269 C 
ATOM      2  O   UNL A   1      32.810  18.679  25.261  1.00  0.00    -0.268 OA
ATOM      3  N   UNL A   1      34.854  19.456  24.964  1.00  0.00    -0.351 N 
ATOM      4  H   UNL A   1      35.029  18.532  24.675  1.00  0.00     0.163 HD
ENDROOT
BRANCH   1   5
ATOM      5  C   UNL A   1      33.000  20.968  25.881  1.00  0.00     0.130 A 
ATOM      6  C   UNL A   1      31.614  22.944  25.767  1.00  0.00     0.038 A 
ATOM      7  C   UNL A   1      32.200  23.378  26.948  1.00  0.00     0.046 A 
ATOM      8  C   UNL A   1      32.060  21.739  25.217  1.00  0.00     0.060 A 
ATOM      9  C   UNL A   1      33.141  22.566  27.555  1.00  0.00     0.114 A 
ATOM     10  N   UNL A   1      33.543  21.379  27.058  1.00  0.00    -0.251 NA
BRANCH   6  11
ATOM     11  N   UNL A   1      30.673  23.677  25.069  1.00  0.00    -0.384 N 
ATOM     12  H   UNL A   1      29.794  23.831  25.484  1.00  0.00     0.160 HD
BRANCH  11  13
ATOM     13  C   UNL A   1      30.924  24.228  23.747  1.00  0.00     0.119 C 
BRANCH  13  14
ATOM     14  C   UNL A   1      31.570  25.660  23.825  1.00  0.00    -0.012 C 
ATOM     15  C   UNL A   1      31.277  26.359  22.480  1.00  0.00     0.009 C 
ATOM     16  C   UNL A   1      33.111  25.602  23.813  1.00  0.00     0.009 C 
ATOM     17  C   UNL A   1      32.337  25.843  21.508  1.00  0.00     0.001 C 
ATOM     18  C   UNL A   1      33.506  25.359  22.360  1.00  0.00     0.001 C 
BRANCH  14  19
ATOM     19  C   UNL A   1      30.973  26.429  25.043  1.00  0.00     0.012 C 
BRANCH  19  20
ATOM     20  C   UNL A   1      31.721  27.634  25.669  1.00  0.00    -0.017 C 
ATOM     21  C   UNL A   1      31.345  28.994  25.089  1.00  0.00     0.007 C 
ATOM     22  C   UNL A   1      31.460  27.657  27.183  1.00  0.00     0.007 C 
ENDBRANCH  19  20
ENDBRANCH  14  19
ENDBRANCH  13  14
ENDBRANCH  11  13
ENDBRANCH   6  11
ENDBRANCH   1   5
BRANCH   3  23
ATOM     23  C   UNL A   1      36.024  20.309  24.881  1.00  0.00     0.118 C 
BRANCH  23  24
ATOM     24  C   UNL A   1      37.316  19.490  24.932  1.00  0.00     0.042 C 
BRANCH  24  25
ATOM     25  C   UNL A   1      38.490  20.250  25.548  1.00  0.00     0.118 C 
BRANCH  25  26
ATOM     26  N   UNL A   1      39.656  19.392  25.717  1.00  0.00    -0.352 N 
ATOM     27  C   UNL A   1      40.950  19.698  26.053  1.00  0.00     0.251 C 
ATOM     28  H   UNL A   1      39.487  18.435  25.565  1.00  0.00     0.163 HD
ATOM     29  O   UNL A   1      41.824  18.849  25.900  1.00  0.00    -0.269 OA
BRANCH  27  30
ATOM     30  C   UNL A   1      41.310  21.025  26.596  1.00  0.00     0.039 A 
ATOM     31  C   UNL A   1      41.884  21.966  25.734  1.00  0.00     0.014 A 
ATOM     32  C   UNL A   1      41.163  21.325  27.953  1.00  0.00     0.014 A 
ATOM     33  C   UNL A   1      42.270  23.217  26.221  1.00  0.00     0.010 A 
ATOM     34  C   UNL A   1      41.486  22.595  28.425  1.00  0.00     0.010 A 
ATOM     35  C   UNL A   1      42.051  23.551  27.566  1.00  0.00    -0.014 A 
BRANCH  35  36
ATOM     36  C   UNL A   1      42.409  24.892  28.092  1.00  0.00     0.031 A 
ATOM     37  C   UNL A   1      43.826  25.196  28.498  1.00  0.00     0.074 A 
ATOM     38  C   UNL A   1      41.445  25.817  28.262  1.00  0.00     0.049 A 
ATOM     39  N   UNL A   1      44.315  26.284  29.037  1.00  0.00    -0.248 NA
ATOM     40  C   UNL A   1      44.819  24.129  28.289  1.00  0.00     0.031 C 
ATOM     41  C   UNL A   1      40.028  25.633  27.941  1.00  0.00     0.029 A 
ATOM     42  N   UNL A   1      41.511  27.095  28.757  1.00  0.00    -0.354 N 
ATOM     43  C   UNL A   1      45.662  26.026  29.254  1.00  0.00     0.074 A 
ATOM     44  C   UNL A   1      45.906  24.665  28.826  1.00  0.00     0.031 C 
ATOM     45  C   UNL A   1      39.364  26.765  28.224  1.00  0.00     0.029 A 
ATOM     46  C   UNL A   1      40.297  27.737  28.784  1.00  0.00     0.049 A 
ATOM     47  H   UNL A   1      42.349  27.511  29.064  1.00  0.00     0.167 HD
ATOM     48  C   UNL A   1      46.615  26.850  29.751  1.00  0.00     0.031 A 
ATOM     49  C   UNL A   1      39.970  28.968  29.217  1.00  0.00     0.031 A 
ATOM     50  C   UNL A   1      46.376  28.208  30.164  1.00  0.00     0.049 A 
ATOM     51  C   UNL A   1      41.044  29.862  29.769  1.00  0.00     0.074 A 
ATOM     52  C   UNL A   1      47.286  29.143  30.627  1.00  0.00     0.029 A 
ATOM     53  N   UNL A   1      45.134  28.824  30.164  1.00  0.00    -0.354 N 
ATOM     54  N   UNL A   1      42.325  29.623  29.910  1.00  0.00    -0.248 NA
ATOM     55  C   UNL A   1      40.627  31.200  30.211  1.00  0.00     0.031 C 
ATOM     56  C   UNL A   1      46.586  30.309  30.953  1.00  0.00     0.029 A 
ATOM     57  C   UNL A   1      45.249  30.119  30.640  1.00  0.00     0.049 A 
ATOM     58  H   UNL A   1      44.294  28.402  29.869  1.00  0.00     0.167 HD
ATOM     59  C   UNL A   1      42.871  30.789  30.432  1.00  0.00     0.074 A 
ATOM     60  C   UNL A   1      41.785  31.737  30.566  1.00  0.00     0.031 C 
ATOM     61  C   UNL A   1      44.158  31.049  30.769  1.00  0.00     0.031 A 
BRANCH  48  62
ATOM     62  C   UNL A   1      48.008  26.300  29.881  1.00  0.00    -0.014 A 
ATOM     63  C   UNL A   1      48.926  26.376  28.821  1.00  0.00     0.009 A 
ATOM     64  C   UNL A   1      48.421  25.724  31.093  1.00  0.00     0.009 A 
ATOM     65  C   UNL A   1      50.214  25.854  28.959  1.00  0.00     0.001 A 
ATOM     66  C   UNL A   1      49.719  25.228  31.237  1.00  0.00     0.001 A 
ATOM     67  C   UNL A   1      50.610  25.285  30.167  1.00  0.00     0.000 A 
ENDBRANCH  48  62
BRANCH  49  68
ATOM     68  C   UNL A   1      38.562  29.435  29.131  1.00  0.00    -0.014 A 
ATOM     69  C   UNL A   1      37.699  29.292  30.228  1.00  0.00     0.009 A 
ATOM     70  C   UNL A   1      38.075  30.027  27.955  1.00  0.00     0.009 A 
ATOM     71  C   UNL A   1      36.369  29.709  30.140  1.00  0.00     0.001 A 
ATOM     72  C   UNL A   1      36.752  30.469  27.881  1.00  0.00     0.001 A 
ATOM     73  C   UNL A   1      35.899  30.301  28.970  1.00  0.00     0.000 A 
ENDBRANCH  49  68
BRANCH  61  74
ATOM     74  C   UNL A   1      44.466  32.427  31.283  1.00  0.00    -0.014 A 
ATOM     75  C   UNL A   1      44.793  33.474  30.408  1.00  0.00     0.009 A 
ATOM     76  C   UNL A   1      44.389  32.688  32.660  1.00  0.00     0.009 A 
ATOM     77  C   UNL A   1      45.070  34.748  30.908  1.00  0.00     0.001 A 
ATOM     78  C   UNL A   1      44.638  33.969  33.153  1.00  0.00     0.001 A 
ATOM     79  C   UNL A   1      44.987  34.995  32.278  1.00  0.00     0.000 A 
ENDBRANCH  61  74
ENDBRANCH  35  36
ENDBRANCH  27  30
ENDBRANCH  25  26
ENDBRANCH  24  25
ENDBRANCH  23  24
ENDBRANCH   3  23
TORSDOF 15
ENDMDL
