MODEL 1
REMARK VINA RESULT:      -9.5      0.000      0.000
REMARK SMILES COCC[NH2+]CC(=O)N1C[C@H](OC)C[C@@H]1C(=O)NCCCNC(=O)c1ccc(-c2c3nc(c(-c4ccccc4)c4ccc([nH]4)c(-c4ccccc4)c4nc(c(-c5ccccc5)c5ccc2[nH]5)C=C4)C=C3)cc1
REMARK SMILES IDX 16 1 17 2 18 3 15 5 9 6 10 7 11 8 14 9 7 10 8 11 6 12 5 13
REMARK SMILES IDX 4 16 3 17 2 18 1 19 12 20 13 21 19 22 20 23 21 24 22 25
REMARK SMILES IDX 23 26 24 28 25 29 26 30 72 31 27 32 71 33 28 34 29 35 30 36
REMARK SMILES IDX 65 37 31 38 70 39 64 40 66 41 32 42 69 43 63 44 62 45 33 47
REMARK SMILES IDX 55 48 40 49 54 50 41 51 44 52 53 53 67 54 42 55 43 56 52 58
REMARK SMILES IDX 68 59 45 60 34 61 35 62 39 63 36 64 38 65 37 66 56 67 57 68
REMARK SMILES IDX 61 69 58 70 60 71 59 72 46 73 47 74 51 75 48 76 50 77 49 78
REMARK H PARENT 18 4 5 14 5 15 22 27 66 46 44 57
REMARK Flexibility Score: inf
ROOT
ATOM      1  C   UNL A   1      35.341  22.617  24.005  1.00  0.00     0.242 C 
ATOM      2  O   UNL A   1      35.496  23.407  23.066  1.00  0.00    -0.273 OA
ATOM      3  N   UNL A   1      36.299  21.660  24.150  1.00  0.00    -0.354 N 
ATOM      4  H   UNL A   1      37.071  21.758  23.547  1.00  0.00     0.163 HD
ENDROOT
BRANCH   1   5
ATOM      5  C   UNL A   1      34.017  22.618  24.800  1.00  0.00     0.177 C 
ATOM      6  N   UNL A   1      32.760  22.446  24.070  1.00  0.00    -0.323 N 
ATOM      7  C   UNL A   1      31.752  23.216  24.760  1.00  0.00     0.152 C 
ATOM      8  C   UNL A   1      32.460  24.479  25.205  1.00  0.00     0.139 C 
ATOM      9  C   UNL A   1      33.855  23.953  25.571  1.00  0.00     0.069 C 
BRANCH   6  10
ATOM     10  C   UNL A   1      32.416  21.240  23.476  1.00  0.00     0.278 C 
ATOM     11  O   UNL A   1      31.957  21.172  22.338  1.00  0.00    -0.268 OA
BRANCH  10  12
ATOM     12  C   UNL A   1      32.536  19.997  24.385  1.00  0.00     0.362 C 
BRANCH  12  13
ATOM     13  N   UNL A   1      33.440  18.936  23.891  1.00  0.00    -0.337 N 
ATOM     14  H   UNL A   1      33.582  19.066  22.889  1.00  0.00     0.346 HD
ATOM     15  H   UNL A   1      34.319  19.011  24.405  1.00  0.00     0.346 HD
BRANCH  13  16
ATOM     16  C   UNL A   1      32.902  17.595  24.119  1.00  0.00     0.289 C 
BRANCH  16  17
ATOM     17  C   UNL A   1      33.600  16.733  25.177  1.00  0.00     0.221 C 
BRANCH  17  18
ATOM     18  O   UNL A   1      33.523  15.340  24.875  1.00  0.00    -0.379 OA
ATOM     19  C   UNL A   1      32.470  14.682  25.559  1.00  0.00     0.195 C 
ENDBRANCH  17  18
ENDBRANCH  16  17
ENDBRANCH  13  16
ENDBRANCH  12  13
ENDBRANCH  10  12
ENDBRANCH   6  10
BRANCH   8  20
ATOM     20  O   UNL A   1      32.590  25.472  24.181  1.00  0.00    -0.380 OA
ATOM     21  C   UNL A   1      33.725  26.330  24.282  1.00  0.00     0.195 C 
ENDBRANCH   8  20
ENDBRANCH   1   5
BRANCH   3  22
ATOM     22  C   UNL A   1      36.369  20.523  25.042  1.00  0.00     0.117 C 
BRANCH  22  23
ATOM     23  C   UNL A   1      37.680  19.757  24.902  1.00  0.00     0.042 C 
BRANCH  23  24
ATOM     24  C   UNL A   1      38.817  20.321  25.736  1.00  0.00     0.118 C 
BRANCH  24  25
ATOM     25  N   UNL A   1      39.952  19.402  25.829  1.00  0.00    -0.352 N 
ATOM     26  C   UNL A   1      41.275  19.625  26.125  1.00  0.00     0.251 C 
ATOM     27  H   UNL A   1      39.729  18.461  25.648  1.00  0.00     0.163 HD
ATOM     28  O   UNL A   1      42.087  18.713  25.979  1.00  0.00    -0.269 OA
BRANCH  26  29
ATOM     29  C   UNL A   1      41.735  20.951  26.587  1.00  0.00     0.039 A 
ATOM     30  C   UNL A   1      42.202  21.880  25.649  1.00  0.00     0.014 A 
ATOM     31  C   UNL A   1      41.712  21.285  27.939  1.00  0.00     0.014 A 
ATOM     32  C   UNL A   1      42.553  23.168  26.061  1.00  0.00     0.010 A 
ATOM     33  C   UNL A   1      41.946  22.594  28.330  1.00  0.00     0.010 A 
ATOM     34  C   UNL A   1      42.378  23.551  27.399  1.00  0.00    -0.014 A 
BRANCH  34  35
ATOM     35  C   UNL A   1      42.657  24.926  27.888  1.00  0.00     0.031 A 
ATOM     36  C   UNL A   1      44.047  25.270  28.347  1.00  0.00     0.074 A 
ATOM     37  C   UNL A   1      41.651  25.807  28.049  1.00  0.00     0.049 A 
ATOM     38  N   UNL A   1      44.460  26.299  29.042  1.00  0.00    -0.248 NA
ATOM     39  C   UNL A   1      45.105  24.295  28.030  1.00  0.00     0.031 C 
ATOM     40  C   UNL A   1      40.252  25.589  27.677  1.00  0.00     0.029 A 
ATOM     41  N   UNL A   1      41.655  27.066  28.598  1.00  0.00    -0.354 N 
ATOM     42  C   UNL A   1      45.804  26.060  29.299  1.00  0.00     0.074 A 
ATOM     43  C   UNL A   1      46.128  24.775  28.721  1.00  0.00     0.031 C 
ATOM     44  C   UNL A   1      39.537  26.682  27.990  1.00  0.00     0.029 A 
ATOM     45  C   UNL A   1      40.413  27.654  28.635  1.00  0.00     0.049 A 
ATOM     46  H   UNL A   1      42.468  27.505  28.934  1.00  0.00     0.167 HD
ATOM     47  C   UNL A   1      46.696  26.847  29.946  1.00  0.00     0.031 A 
ATOM     48  C   UNL A   1      40.022  28.836  29.148  1.00  0.00     0.031 A 
ATOM     49  C   UNL A   1      46.384  28.150  30.463  1.00  0.00     0.049 A 
ATOM     50  C   UNL A   1      41.039  29.715  29.820  1.00  0.00     0.074 A 
ATOM     51  C   UNL A   1      47.230  29.063  31.070  1.00  0.00     0.029 A 
ATOM     52  N   UNL A   1      45.129  28.736  30.414  1.00  0.00    -0.354 N 
ATOM     53  N   UNL A   1      42.314  29.492  30.029  1.00  0.00    -0.248 NA
ATOM     54  C   UNL A   1      40.565  31.013  30.320  1.00  0.00     0.031 C 
ATOM     55  C   UNL A   1      46.478  30.191  31.411  1.00  0.00     0.029 A 
ATOM     56  C   UNL A   1      45.177  29.997  30.977  1.00  0.00     0.049 A 
ATOM     57  H   UNL A   1      44.323  28.315  30.033  1.00  0.00     0.167 HD
ATOM     58  C   UNL A   1      42.801  30.633  30.650  1.00  0.00     0.074 A 
ATOM     59  C   UNL A   1      41.686  31.549  30.782  1.00  0.00     0.031 C 
ATOM     60  C   UNL A   1      44.061  30.900  31.072  1.00  0.00     0.031 A 
BRANCH  47  61
ATOM     61  C   UNL A   1      48.089  26.314  30.124  1.00  0.00    -0.014 A 
ATOM     62  C   UNL A   1      48.477  25.665  31.307  1.00  0.00     0.009 A 
ATOM     63  C   UNL A   1      49.024  26.447  29.086  1.00  0.00     0.009 A 
ATOM     64  C   UNL A   1      49.786  25.203  31.465  1.00  0.00     0.001 A 
ATOM     65  C   UNL A   1      50.322  25.956  29.233  1.00  0.00     0.001 A 
ATOM     66  C   UNL A   1      50.706  25.346  30.427  1.00  0.00     0.000 A 
ENDBRANCH  47  61
BRANCH  48  67
ATOM     67  C   UNL A   1      38.605  29.265  29.031  1.00  0.00    -0.014 A 
ATOM     68  C   UNL A   1      38.131  29.813  27.828  1.00  0.00     0.009 A 
ATOM     69  C   UNL A   1      37.718  29.133  30.111  1.00  0.00     0.009 A 
ATOM     70  C   UNL A   1      36.807  30.244  27.718  1.00  0.00     0.001 A 
ATOM     71  C   UNL A   1      36.387  29.539  29.988  1.00  0.00     0.001 A 
ATOM     72  C   UNL A   1      35.935  30.102  28.795  1.00  0.00     0.000 A 
ENDBRANCH  48  67
BRANCH  60  73
ATOM     73  C   UNL A   1      44.322  32.259  31.653  1.00  0.00    -0.014 A 
ATOM     74  C   UNL A   1      44.736  33.331  30.848  1.00  0.00     0.009 A 
ATOM     75  C   UNL A   1      44.076  32.482  33.017  1.00  0.00     0.009 A 
ATOM     76  C   UNL A   1      44.914  34.598  31.405  1.00  0.00     0.001 A 
ATOM     77  C   UNL A   1      44.232  33.754  33.565  1.00  0.00     0.001 A 
ATOM     78  C   UNL A   1      44.656  34.810  32.760  1.00  0.00     0.000 A 
ENDBRANCH  60  73
ENDBRANCH  34  35
ENDBRANCH  26  29
ENDBRANCH  24  25
ENDBRANCH  23  24
ENDBRANCH  22  23
ENDBRANCH   3  22
TORSDOF 17
ENDMDL
MODEL 2
REMARK VINA RESULT:      -9.5      4.070      7.206
REMARK SMILES COCC[NH2+]CC(=O)N1C[C@H](OC)C[C@@H]1C(=O)NCCCNC(=O)c1ccc(-c2c3nc(c(-c4ccccc4)c4ccc([nH]4)c(-c4ccccc4)c4nc(c(-c5ccccc5)c5ccc2[nH]5)C=C4)C=C3)cc1
REMARK SMILES IDX 16 1 17 2 18 3 15 5 9 6 10 7 11 8 14 9 7 10 8 11 6 12 5 13
REMARK SMILES IDX 4 16 3 17 2 18 1 19 12 20 13 21 19 22 20 23 21 24 22 25
REMARK SMILES IDX 23 26 24 28 25 29 26 30 72 31 27 32 71 33 28 34 29 35 30 36
REMARK SMILES IDX 65 37 31 38 70 39 64 40 66 41 32 42 69 43 63 44 62 45 33 47
REMARK SMILES IDX 55 48 40 49 54 50 41 51 44 52 53 53 67 54 42 55 43 56 52 58
REMARK SMILES IDX 68 59 45 60 34 61 35 62 39 63 36 64 38 65 37 66 56 67 57 68
REMARK SMILES IDX 61 69 58 70 60 71 59 72 46 73 47 74 51 75 48 76 50 77 49 78
REMARK H PARENT 18 4 5 14 5 15 22 27 66 46 44 57
REMARK Flexibility Score: inf
ROOT
ATOM      1  C   UNL A   1      44.811  23.917  28.106  1.00  0.00     0.242 C 
ATOM      2  O   UNL A   1      45.984  23.614  28.350  1.00  0.00    -0.273 OA
ATOM      3  N   UNL A   1      43.858  23.269  28.833  1.00  0.00    -0.354 N 
ATOM      4  H   UNL A   1      44.211  22.695  29.551  1.00  0.00     0.163 HD
ENDROOT
BRANCH   1   5
ATOM      5  C   UNL A   1      44.484  24.815  26.893  1.00  0.00     0.177 C 
ATOM      6  N   UNL A   1      45.192  24.579  25.635  1.00  0.00    -0.323 N 
ATOM      7  C   UNL A   1      45.356  25.858  24.984  1.00  0.00     0.152 C 
ATOM      8  C   UNL A   1      45.653  26.832  26.107  1.00  0.00     0.139 C 
ATOM      9  C   UNL A   1      44.760  26.302  27.237  1.00  0.00     0.069 C 
BRANCH   6  10
ATOM     10  C   UNL A   1      44.968  23.444  24.869  1.00  0.00     0.278 C 
ATOM     11  O   UNL A   1      43.932  23.272  24.230  1.00  0.00    -0.268 OA
BRANCH  10  12
ATOM     12  C   UNL A   1      46.057  22.353  24.967  1.00  0.00     0.362 C 
BRANCH  12  13
ATOM     13  N   UNL A   1      45.697  21.170  25.778  1.00  0.00    -0.337 N 
ATOM     14  H   UNL A   1      46.198  21.216  26.665  1.00  0.00     0.346 HD
ATOM     15  H   UNL A   1      44.687  21.183  25.918  1.00  0.00     0.346 HD
BRANCH  13  16
ATOM     16  C   UNL A   1      46.038  19.914  25.110  1.00  0.00     0.289 C 
BRANCH  16  17
ATOM     17  C   UNL A   1      45.007  19.342  24.130  1.00  0.00     0.221 C 
BRANCH  17  18
ATOM     18  O   UNL A   1      44.236  18.290  24.711  1.00  0.00    -0.379 OA
ATOM     19  C   UNL A   1      43.390  18.736  25.758  1.00  0.00     0.195 C 
ENDBRANCH  17  18
ENDBRANCH  16  17
ENDBRANCH  13  16
ENDBRANCH  12  13
ENDBRANCH  10  12
ENDBRANCH   6  10
BRANCH   8  20
ATOM     20  O   UNL A   1      47.016  26.824  26.546  1.00  0.00    -0.380 OA
ATOM     21  C   UNL A   1      47.228  27.099  27.929  1.00  0.00     0.195 C 
ENDBRANCH   8  20
ENDBRANCH   1   5
BRANCH   3  22
ATOM     22  C   UNL A   1      42.416  23.285  28.726  1.00  0.00     0.117 C 
BRANCH  22  23
ATOM     23  C   UNL A   1      41.874  22.052  28.011  1.00  0.00     0.042 C 
BRANCH  23  24
ATOM     24  C   UNL A   1      41.758  22.211  26.505  1.00  0.00     0.118 C 
BRANCH  24  25
ATOM     25  N   UNL A   1      40.374  22.118  26.038  1.00  0.00    -0.352 N 
ATOM     26  C   UNL A   1      39.295  22.946  26.231  1.00  0.00     0.251 C 
ATOM     27  H   UNL A   1      40.183  21.322  25.490  1.00  0.00     0.163 HD
ATOM     28  O   UNL A   1      38.178  22.573  25.878  1.00  0.00    -0.269 OA
BRANCH  26  29
ATOM     29  C   UNL A   1      39.457  24.262  26.884  1.00  0.00     0.039 A 
ATOM     30  C   UNL A   1      38.907  24.470  28.154  1.00  0.00     0.014 A 
ATOM     31  C   UNL A   1      40.147  25.293  26.251  1.00  0.00     0.014 A 
ATOM     32  C   UNL A   1      39.131  25.678  28.821  1.00  0.00     0.010 A 
ATOM     33  C   UNL A   1      40.469  26.442  26.958  1.00  0.00     0.010 A 
ATOM     34  C   UNL A   1      39.959  26.653  28.248  1.00  0.00    -0.014 A 
BRANCH  34  35
ATOM     35  C   UNL A   1      40.302  27.925  28.935  1.00  0.00     0.031 A 
ATOM     36  C   UNL A   1      41.586  28.012  29.714  1.00  0.00     0.074 A 
ATOM     37  C   UNL A   1      39.414  28.936  28.978  1.00  0.00     0.049 A 
ATOM     38  N   UNL A   1      41.966  28.905  30.590  1.00  0.00    -0.248 NA
ATOM     39  C   UNL A   1      42.549  26.912  29.520  1.00  0.00     0.031 C 
ATOM     40  C   UNL A   1      38.118  28.968  28.296  1.00  0.00     0.029 A 
ATOM     41  N   UNL A   1      39.462  30.132  29.652  1.00  0.00    -0.354 N 
ATOM     42  C   UNL A   1      43.173  28.441  31.097  1.00  0.00     0.074 A 
ATOM     43  C   UNL A   1      43.444  27.172  30.461  1.00  0.00     0.031 C 
ATOM     44  C   UNL A   1      37.504  30.130  28.571  1.00  0.00     0.029 A 
ATOM     45  C   UNL A   1      38.334  30.900  29.491  1.00  0.00     0.049 A 
ATOM     46  H   UNL A   1      40.230  30.411  30.200  1.00  0.00     0.167 HD
ATOM     47  C   UNL A   1      43.993  29.026  32.002  1.00  0.00     0.031 A 
ATOM     48  C   UNL A   1      37.999  32.083  30.039  1.00  0.00     0.031 A 
ATOM     49  C   UNL A   1      43.751  30.316  32.584  1.00  0.00     0.049 A 
ATOM     50  C   UNL A   1      38.947  32.738  31.005  1.00  0.00     0.074 A 
ATOM     51  C   UNL A   1      44.552  31.035  33.454  1.00  0.00     0.029 A 
ATOM     52  N   UNL A   1      42.628  31.092  32.336  1.00  0.00    -0.354 N 
ATOM     53  N   UNL A   1      40.100  32.304  31.452  1.00  0.00    -0.248 NA
ATOM     54  C   UNL A   1      38.550  34.050  31.535  1.00  0.00     0.031 C 
ATOM     55  C   UNL A   1      43.901  32.236  33.752  1.00  0.00     0.029 A 
ATOM     56  C   UNL A   1      42.717  32.281  33.035  1.00  0.00     0.049 A 
ATOM     57  H   UNL A   1      41.881  30.832  31.750  1.00  0.00     0.167 HD
ATOM     58  C   UNL A   1      40.583  33.302  32.286  1.00  0.00     0.074 A 
ATOM     59  C   UNL A   1      39.600  34.367  32.281  1.00  0.00     0.031 C 
ATOM     60  C   UNL A   1      41.739  33.336  32.991  1.00  0.00     0.031 A 
BRANCH  47  61
ATOM     61  C   UNL A   1      45.226  28.270  32.410  1.00  0.00    -0.014 A 
ATOM     62  C   UNL A   1      46.439  28.425  31.719  1.00  0.00     0.009 A 
ATOM     63  C   UNL A   1      45.179  27.402  33.511  1.00  0.00     0.009 A 
ATOM     64  C   UNL A   1      47.566  27.691  32.094  1.00  0.00     0.001 A 
ATOM     65  C   UNL A   1      46.316  26.694  33.905  1.00  0.00     0.001 A 
ATOM     66  C   UNL A   1      47.505  26.828  33.188  1.00  0.00     0.000 A 
ENDBRANCH  47  61
BRANCH  48  67
ATOM     67  C   UNL A   1      36.715  32.736  29.674  1.00  0.00    -0.014 A 
ATOM     68  C   UNL A   1      36.627  33.515  28.509  1.00  0.00     0.009 A 
ATOM     69  C   UNL A   1      35.575  32.588  30.479  1.00  0.00     0.009 A 
ATOM     70  C   UNL A   1      35.431  34.153  28.172  1.00  0.00     0.001 A 
ATOM     71  C   UNL A   1      34.373  33.205  30.125  1.00  0.00     0.001 A 
ATOM     72  C   UNL A   1      34.305  33.994  28.977  1.00  0.00     0.000 A 
ENDBRANCH  48  67
BRANCH  60  73
ATOM     73  C   UNL A   1      42.042  34.587  33.763  1.00  0.00    -0.014 A 
ATOM     74  C   UNL A   1      42.699  35.673  33.165  1.00  0.00     0.009 A 
ATOM     75  C   UNL A   1      41.594  34.703  35.088  1.00  0.00     0.009 A 
ATOM     76  C   UNL A   1      42.915  36.847  33.889  1.00  0.00     0.001 A 
ATOM     77  C   UNL A   1      41.792  35.885  35.800  1.00  0.00     0.001 A 
ATOM     78  C   UNL A   1      42.456  36.954  35.203  1.00  0.00     0.000 A 
ENDBRANCH  60  73
ENDBRANCH  34  35
ENDBRANCH  26  29
ENDBRANCH  24  25
ENDBRANCH  23  24
ENDBRANCH  22  23
ENDBRANCH   3  22
TORSDOF 17
ENDMDL
MODEL 3
REMARK VINA RESULT:      -9.5      1.768      6.281
REMARK SMILES COCC[NH2+]CC(=O)N1C[C@H](OC)C[C@@H]1C(=O)NCCCNC(=O)c1ccc(-c2c3nc(c(-c4ccccc4)c4ccc([nH]4)c(-c4ccccc4)c4nc(c(-c5ccccc5)c5ccc2[nH]5)C=C4)C=C3)cc1
REMARK SMILES IDX 16 1 17 2 18 3 15 5 9 6 10 7 11 8 14 9 7 10 8 11 6 12 5 13
REMARK SMILES IDX 4 16 3 17 2 18 1 19 12 20 13 21 19 22 20 23 21 24 22 25
REMARK SMILES IDX 23 26 24 28 25 29 26 30 72 31 27 32 71 33 28 34 29 35 30 36
REMARK SMILES IDX 65 37 31 38 70 39 64 40 66 41 32 42 69 43 63 44 62 45 33 47
REMARK SMILES IDX 55 48 40 49 54 50 41 51 44 52 53 53 67 54 42 55 43 56 52 58
REMARK SMILES IDX 68 59 45 60 34 61 35 62 39 63 36 64 38 65 37 66 56 67 57 68
REMARK SMILES IDX 61 69 58 70 60 71 59 72 46 73 47 74 51 75 48 76 50 77 49 78
REMARK H PARENT 18 4 5 14 5 15 22 27 66 46 44 57
REMARK Flexibility Score: inf
ROOT
ATOM      1  C   UNL A   1      35.396  22.780  23.821  1.00  0.00     0.242 C 
ATOM      2  O   UNL A   1      35.368  23.332  22.715  1.00  0.00    -0.273 OA
ATOM      3  N   UNL A   1      36.486  22.006  24.078  1.00  0.00    -0.354 N 
ATOM      4  H   UNL A   1      37.189  22.045  23.390  1.00  0.00     0.163 HD
ENDROOT
BRANCH   1   5
ATOM      5  C   UNL A   1      34.150  22.817  24.732  1.00  0.00     0.177 C 
ATOM      6  N   UNL A   1      32.857  22.431  24.168  1.00  0.00    -0.323 N 
ATOM      7  C   UNL A   1      31.845  23.229  24.819  1.00  0.00     0.152 C 
ATOM      8  C   UNL A   1      32.472  24.599  24.980  1.00  0.00     0.139 C 
ATOM      9  C   UNL A   1      33.934  24.249  25.287  1.00  0.00     0.069 C 
BRANCH   6  10
ATOM     10  C   UNL A   1      32.573  21.119  23.816  1.00  0.00     0.278 C 
ATOM     11  O   UNL A   1      32.128  20.813  22.712  1.00  0.00    -0.268 OA
BRANCH  10  12
ATOM     12  C   UNL A   1      32.741  20.079  24.945  1.00  0.00     0.362 C 
BRANCH  12  13
ATOM     13  N   UNL A   1      33.718  19.001  24.674  1.00  0.00    -0.337 N 
ATOM     14  H   UNL A   1      34.296  19.275  23.880  1.00  0.00     0.346 HD
ATOM     15  H   UNL A   1      34.279  18.869  25.516  1.00  0.00     0.346 HD
BRANCH  13  16
ATOM     16  C   UNL A   1      33.068  17.727  24.366  1.00  0.00     0.289 C 
BRANCH  16  17
ATOM     17  C   UNL A   1      33.960  16.602  23.826  1.00  0.00     0.221 C 
BRANCH  17  18
ATOM     18  O   UNL A   1      33.922  15.440  24.654  1.00  0.00    -0.379 OA
ATOM     19  C   UNL A   1      32.693  15.292  25.347  1.00  0.00     0.195 C 
ENDBRANCH  17  18
ENDBRANCH  16  17
ENDBRANCH  13  16
ENDBRANCH  12  13
ENDBRANCH  10  12
ENDBRANCH   6  10
BRANCH   8  20
ATOM     20  O   UNL A   1      32.424  25.409  23.800  1.00  0.00    -0.380 OA
ATOM     21  C   UNL A   1      31.331  25.165  22.917  1.00  0.00     0.195 C 
ENDBRANCH   8  20
ENDBRANCH   1   5
BRANCH   3  22
ATOM     22  C   UNL A   1      36.783  21.134  25.194  1.00  0.00     0.117 C 
BRANCH  22  23
ATOM     23  C   UNL A   1      38.038  20.301  24.961  1.00  0.00     0.042 C 
BRANCH  23  24
ATOM     24  C   UNL A   1      39.015  20.316  26.124  1.00  0.00     0.118 C 
BRANCH  24  25
ATOM     25  N   UNL A   1      40.035  19.273  26.011  1.00  0.00    -0.352 N 
ATOM     26  C   UNL A   1      41.407  19.340  26.056  1.00  0.00     0.251 C 
ATOM     27  H   UNL A   1      39.676  18.366  25.880  1.00  0.00     0.163 HD
ATOM     28  O   UNL A   1      42.068  18.345  25.768  1.00  0.00    -0.269 OA
BRANCH  26  29
ATOM     29  C   UNL A   1      42.093  20.598  26.416  1.00  0.00     0.039 A 
ATOM     30  C   UNL A   1      42.496  21.474  25.402  1.00  0.00     0.014 A 
ATOM     31  C   UNL A   1      42.342  20.920  27.748  1.00  0.00     0.014 A 
ATOM     32  C   UNL A   1      43.063  22.708  25.732  1.00  0.00     0.010 A 
ATOM     33  C   UNL A   1      42.793  22.189  28.078  1.00  0.00     0.010 A 
ATOM     34  C   UNL A   1      43.167  23.097  27.075  1.00  0.00    -0.014 A 
BRANCH  34  35
ATOM     35  C   UNL A   1      43.686  24.424  27.493  1.00  0.00     0.031 A 
ATOM     36  C   UNL A   1      42.714  25.481  27.944  1.00  0.00     0.074 A 
ATOM     37  C   UNL A   1      44.990  24.725  27.338  1.00  0.00     0.049 A 
ATOM     38  N   UNL A   1      42.900  26.766  28.102  1.00  0.00    -0.248 NA
ATOM     39  C   UNL A   1      41.332  25.038  28.196  1.00  0.00     0.031 C 
ATOM     40  C   UNL A   1      46.032  23.804  26.878  1.00  0.00     0.029 A 
ATOM     41  N   UNL A   1      45.657  25.910  27.530  1.00  0.00    -0.354 N 
ATOM     42  C   UNL A   1      41.650  27.289  28.405  1.00  0.00     0.074 A 
ATOM     43  C   UNL A   1      40.708  26.193  28.371  1.00  0.00     0.031 C 
ATOM     44  C   UNL A   1      47.208  24.453  26.842  1.00  0.00     0.029 A 
ATOM     45  C   UNL A   1      46.994  25.845  27.220  1.00  0.00     0.049 A 
ATOM     46  H   UNL A   1      45.218  26.728  27.857  1.00  0.00     0.167 HD
ATOM     47  C   UNL A   1      41.315  28.568  28.700  1.00  0.00     0.031 A 
ATOM     48  C   UNL A   1      47.937  26.807  27.223  1.00  0.00     0.031 A 
ATOM     49  C   UNL A   1      42.265  29.641  28.794  1.00  0.00     0.049 A 
ATOM     50  C   UNL A   1      47.553  28.210  27.601  1.00  0.00     0.074 A 
ATOM     51  C   UNL A   1      42.045  30.959  29.159  1.00  0.00     0.029 A 
ATOM     52  N   UNL A   1      43.622  29.514  28.542  1.00  0.00    -0.354 N 
ATOM     53  N   UNL A   1      46.372  28.685  27.915  1.00  0.00    -0.248 NA
ATOM     54  C   UNL A   1      48.632  29.206  27.631  1.00  0.00     0.031 C 
ATOM     55  C   UNL A   1      43.268  31.634  29.102  1.00  0.00     0.029 A 
ATOM     56  C   UNL A   1      44.252  30.728  28.744  1.00  0.00     0.049 A 
ATOM     57  H   UNL A   1      44.069  28.683  28.260  1.00  0.00     0.167 HD
ATOM     58  C   UNL A   1      46.573  30.025  28.216  1.00  0.00     0.074 A 
ATOM     59  C   UNL A   1      47.988  30.287  28.050  1.00  0.00     0.031 C 
ATOM     60  C   UNL A   1      45.666  30.956  28.599  1.00  0.00     0.031 A 
BRANCH  47  61
ATOM     61  C   UNL A   1      39.863  28.865  28.944  1.00  0.00    -0.014 A 
ATOM     62  C   UNL A   1      39.293  28.726  30.219  1.00  0.00     0.009 A 
ATOM     63  C   UNL A   1      39.055  29.307  27.885  1.00  0.00     0.009 A 
ATOM     64  C   UNL A   1      37.934  28.977  30.419  1.00  0.00     0.001 A 
ATOM     65  C   UNL A   1      37.704  29.590  28.093  1.00  0.00     0.001 A 
ATOM     66  C   UNL A   1      37.141  29.412  29.357  1.00  0.00     0.000 A 
ENDBRANCH  47  61
BRANCH  48  67
ATOM     67  C   UNL A   1      49.341  26.472  26.873  1.00  0.00    -0.014 A 
ATOM     68  C   UNL A   1      50.247  26.096  27.878  1.00  0.00     0.009 A 
ATOM     69  C   UNL A   1      49.787  26.523  25.543  1.00  0.00     0.009 A 
ATOM     70  C   UNL A   1      51.576  25.805  27.562  1.00  0.00     0.001 A 
ATOM     71  C   UNL A   1      51.110  26.205  25.227  1.00  0.00     0.001 A 
ATOM     72  C   UNL A   1      52.005  25.854  26.236  1.00  0.00     0.000 A 
ENDBRANCH  48  67
BRANCH  60  73
ATOM     73  C   UNL A   1      46.179  32.327  28.932  1.00  0.00    -0.014 A 
ATOM     74  C   UNL A   1      46.635  32.643  30.220  1.00  0.00     0.009 A 
ATOM     75  C   UNL A   1      46.275  33.290  27.915  1.00  0.00     0.009 A 
ATOM     76  C   UNL A   1      47.162  33.908  30.486  1.00  0.00     0.001 A 
ATOM     77  C   UNL A   1      46.823  34.544  28.179  1.00  0.00     0.001 A 
ATOM     78  C   UNL A   1      47.262  34.854  29.465  1.00  0.00     0.000 A 
ENDBRANCH  60  73
ENDBRANCH  34  35
ENDBRANCH  26  29
ENDBRANCH  24  25
ENDBRANCH  23  24
ENDBRANCH  22  23
ENDBRANCH   3  22
TORSDOF 17
ENDMDL
