MODEL 1
REMARK VINA RESULT:     -11.8      0.000      0.000
REMARK SMILES Cc1ccc([C@H](CC2CCCC2)C(=O)NCCCNC(=O)c2ccc(-c3c4nc(c(-c5ccccc5)c5ccc([nH]5)c(-c5ccccc5)c5nc(c(-c6ccccc6)c6ccc3[nH]6)C=C5)C=C4)cc2)cc1
REMARK SMILES IDX 17 1 16 2 15 3 13 4 14 5 6 7 5 8 1 9 2 10 3 11 71 12 4 13
REMARK SMILES IDX 70 14 7 15 8 16 9 17 12 18 10 19 11 20 18 21 19 22 20 23
REMARK SMILES IDX 21 25 22 26 23 27 69 28 24 29 68 30 25 31 26 32 27 33 62 34
REMARK SMILES IDX 28 35 67 36 61 37 63 38 29 39 66 40 60 41 59 42 30 44 52 45
REMARK SMILES IDX 37 46 51 47 38 48 41 49 50 50 64 51 39 52 40 53 49 55 65 56
REMARK SMILES IDX 42 57 31 58 32 59 36 60 33 61 35 62 34 63 53 64 54 65 58 66
REMARK SMILES IDX 55 67 57 68 56 69 43 70 44 71 48 72 45 73 47 74 46 75
REMARK H PARENT 15 6 19 24 63 43 41 54
REMARK Flexibility Score: inf
ROOT
ATOM      1  C   UNL A   1      35.140  29.987  28.141  1.00  0.00     0.042 C 
ENDROOT
BRANCH   1   2
ATOM      2  C   UNL A   1      34.304  29.077  27.263  1.00  0.00     0.117 C 
BRANCH   2   3
ATOM      3  N   UNL A   1      32.962  28.856  27.788  1.00  0.00    -0.356 N 
ATOM      4  C   UNL A   1      31.974  28.023  27.338  1.00  0.00     0.227 C 
ATOM      5  O   UNL A   1      30.975  27.895  28.054  1.00  0.00    -0.274 OA
ATOM      6  H   UNL A   1      32.732  29.386  28.585  1.00  0.00     0.163 HD
BRANCH   4   7
ATOM      7  C   UNL A   1      32.064  27.300  25.986  1.00  0.00     0.109 C 
BRANCH   7   8
ATOM      8  C   UNL A   1      31.205  27.900  24.859  1.00  0.00    -0.036 A 
ATOM      9  C   UNL A   1      28.113  29.484  22.285  1.00  0.00     0.044 C 
ATOM     10  C   UNL A   1      29.235  28.932  23.108  1.00  0.00    -0.051 A 
ATOM     11  C   UNL A   1      29.428  27.554  23.221  1.00  0.00     0.004 A 
ATOM     12  C   UNL A   1      30.132  29.787  23.750  1.00  0.00     0.004 A 
ATOM     13  C   UNL A   1      30.403  27.046  24.081  1.00  0.00     0.005 A 
ATOM     14  C   UNL A   1      31.130  29.274  24.583  1.00  0.00     0.005 A 
ENDBRANCH   7   8
BRANCH   7  15
ATOM     15  C   UNL A   1      31.806  25.775  26.166  1.00  0.00     0.022 C 
BRANCH  15  16
ATOM     16  C   UNL A   1      32.921  24.854  25.648  1.00  0.00    -0.010 C 
ATOM     17  C   UNL A   1      34.275  25.522  25.417  1.00  0.00     0.003 C 
ATOM     18  C   UNL A   1      33.279  23.790  26.693  1.00  0.00     0.003 C 
ATOM     19  C   UNL A   1      35.264  24.357  25.404  1.00  0.00     0.000 C 
ATOM     20  C   UNL A   1      34.632  23.253  26.250  1.00  0.00     0.000 C 
ENDBRANCH  15  16
ENDBRANCH   7  15
ENDBRANCH   4   7
ENDBRANCH   2   3
ENDBRANCH   1   2
BRANCH   1  21
ATOM     21  C   UNL A   1      35.282  31.383  27.567  1.00  0.00     0.118 C 
BRANCH  21  22
ATOM     22  N   UNL A   1      34.336  32.360  28.099  1.00  0.00    -0.352 N 
ATOM     23  C   UNL A   1      34.454  33.204  29.196  1.00  0.00     0.251 C 
ATOM     24  H   UNL A   1      33.487  32.432  27.607  1.00  0.00     0.163 HD
ATOM     25  O   UNL A   1      33.533  33.943  29.500  1.00  0.00    -0.269 OA
BRANCH  23  26
ATOM     26  C   UNL A   1      35.762  33.317  29.894  1.00  0.00     0.039 A 
ATOM     27  C   UNL A   1      36.837  33.860  29.182  1.00  0.00     0.014 A 
ATOM     28  C   UNL A   1      35.987  32.647  31.088  1.00  0.00     0.014 A 
ATOM     29  C   UNL A   1      38.132  33.465  29.505  1.00  0.00     0.010 A 
ATOM     30  C   UNL A   1      37.240  32.123  31.310  1.00  0.00     0.010 A 
ATOM     31  C   UNL A   1      38.301  32.486  30.477  1.00  0.00    -0.014 A 
BRANCH  31  32
ATOM     32  C   UNL A   1      39.519  31.713  30.654  1.00  0.00     0.031 A 
ATOM     33  C   UNL A   1      39.676  30.432  29.942  1.00  0.00     0.074 A 
ATOM     34  C   UNL A   1      40.546  32.242  31.356  1.00  0.00     0.049 A 
ATOM     35  N   UNL A   1      40.550  29.536  30.244  1.00  0.00    -0.248 NA
ATOM     36  C   UNL A   1      38.787  30.021  28.857  1.00  0.00     0.031 C 
ATOM     37  C   UNL A   1      41.940  31.810  31.369  1.00  0.00     0.029 A 
ATOM     38  N   UNL A   1      40.464  33.177  32.390  1.00  0.00    -0.354 N 
ATOM     39  C   UNL A   1      40.556  28.611  29.228  1.00  0.00     0.074 A 
ATOM     40  C   UNL A   1      39.364  28.884  28.465  1.00  0.00     0.031 C 
ATOM     41  C   UNL A   1      42.523  32.258  32.492  1.00  0.00     0.029 A 
ATOM     42  C   UNL A   1      41.478  32.849  33.311  1.00  0.00     0.049 A 
ATOM     43  H   UNL A   1      39.823  33.921  32.462  1.00  0.00     0.167 HD
ATOM     44  C   UNL A   1      41.654  27.824  29.068  1.00  0.00     0.031 A 
ATOM     45  C   UNL A   1      41.165  32.440  34.576  1.00  0.00     0.031 A 
ATOM     46  C   UNL A   1      42.562  27.940  30.211  1.00  0.00     0.049 A 
ATOM     47  C   UNL A   1      41.614  31.027  34.888  1.00  0.00     0.074 A 
ATOM     48  C   UNL A   1      43.773  28.581  30.405  1.00  0.00     0.029 A 
ATOM     49  N   UNL A   1      42.095  27.591  31.475  1.00  0.00    -0.354 N 
ATOM     50  N   UNL A   1      41.946  30.147  33.983  1.00  0.00    -0.248 NA
ATOM     51  C   UNL A   1      41.696  30.487  36.242  1.00  0.00     0.031 C 
ATOM     52  C   UNL A   1      43.987  28.694  31.807  1.00  0.00     0.029 A 
ATOM     53  C   UNL A   1      42.928  28.086  32.459  1.00  0.00     0.049 A 
ATOM     54  H   UNL A   1      41.281  27.064  31.645  1.00  0.00     0.167 HD
ATOM     55  C   UNL A   1      42.266  28.959  34.588  1.00  0.00     0.074 A 
ATOM     56  C   UNL A   1      42.107  29.228  36.006  1.00  0.00     0.031 C 
ATOM     57  C   UNL A   1      42.618  27.853  33.865  1.00  0.00     0.031 A 
BRANCH  44  58
ATOM     58  C   UNL A   1      42.030  27.152  27.762  1.00  0.00    -0.014 A 
ATOM     59  C   UNL A   1      42.566  27.928  26.718  1.00  0.00     0.009 A 
ATOM     60  C   UNL A   1      41.794  25.801  27.449  1.00  0.00     0.009 A 
ATOM     61  C   UNL A   1      42.796  27.401  25.437  1.00  0.00     0.001 A 
ATOM     62  C   UNL A   1      42.019  25.266  26.174  1.00  0.00     0.001 A 
ATOM     63  C   UNL A   1      42.510  26.071  25.161  1.00  0.00     0.000 A 
ENDBRANCH  44  58
BRANCH  45  64
ATOM     64  C   UNL A   1      39.933  33.085  35.114  1.00  0.00    -0.014 A 
ATOM     65  C   UNL A   1      38.718  32.377  35.018  1.00  0.00     0.009 A 
ATOM     66  C   UNL A   1      40.017  34.144  36.028  1.00  0.00     0.009 A 
ATOM     67  C   UNL A   1      37.664  32.633  35.902  1.00  0.00     0.001 A 
ATOM     68  C   UNL A   1      38.953  34.408  36.902  1.00  0.00     0.001 A 
ATOM     69  C   UNL A   1      37.796  33.628  36.866  1.00  0.00     0.000 A 
ENDBRANCH  45  64
BRANCH  57  70
ATOM     70  C   UNL A   1      42.754  26.443  34.396  1.00  0.00    -0.014 A 
ATOM     71  C   UNL A   1      41.792  25.784  35.171  1.00  0.00     0.009 A 
ATOM     72  C   UNL A   1      43.864  25.668  33.984  1.00  0.00     0.009 A 
ATOM     73  C   UNL A   1      41.950  24.441  35.548  1.00  0.00     0.001 A 
ATOM     74  C   UNL A   1      44.001  24.317  34.314  1.00  0.00     0.001 A 
ATOM     75  C   UNL A   1      43.046  23.706  35.109  1.00  0.00     0.000 A 
ENDBRANCH  57  70
ENDBRANCH  31  32
ENDBRANCH  23  26
ENDBRANCH  21  22
ENDBRANCH   1  21
TORSDOF 13
ENDMDL
MODEL 2
REMARK VINA RESULT:     -11.8      2.295      4.387
REMARK SMILES Cc1ccc([C@H](CC2CCCC2)C(=O)NCCCNC(=O)c2ccc(-c3c4nc(c(-c5ccccc5)c5ccc([nH]5)c(-c5ccccc5)c5nc(c(-c6ccccc6)c6ccc3[nH]6)C=C5)C=C4)cc2)cc1
REMARK SMILES IDX 17 1 16 2 15 3 13 4 14 5 6 7 5 8 1 9 2 10 3 11 71 12 4 13
REMARK SMILES IDX 70 14 7 15 8 16 9 17 12 18 10 19 11 20 18 21 19 22 20 23
REMARK SMILES IDX 21 25 22 26 23 27 69 28 24 29 68 30 25 31 26 32 27 33 62 34
REMARK SMILES IDX 28 35 67 36 61 37 63 38 29 39 66 40 60 41 59 42 30 44 52 45
REMARK SMILES IDX 37 46 51 47 38 48 41 49 50 50 64 51 39 52 40 53 49 55 65 56
REMARK SMILES IDX 42 57 31 58 32 59 36 60 33 61 35 62 34 63 53 64 54 65 58 66
REMARK SMILES IDX 55 67 57 68 56 69 43 70 44 71 48 72 45 73 47 74 46 75
REMARK H PARENT 15 6 19 24 63 43 41 54
REMARK Flexibility Score: inf
ROOT
ATOM      1  C   UNL A   1      32.502  31.292  26.882  1.00  0.00     0.042 C 
ENDROOT
BRANCH   1   2
ATOM      2  C   UNL A   1      31.698  30.245  26.137  1.00  0.00     0.117 C 
BRANCH   2   3
ATOM      3  N   UNL A   1      32.387  29.731  24.959  1.00  0.00    -0.356 N 
ATOM      4  C   UNL A   1      31.901  28.989  23.917  1.00  0.00     0.227 C 
ATOM      5  O   UNL A   1      32.653  28.813  22.952  1.00  0.00    -0.274 OA
ATOM      6  H   UNL A   1      33.345  29.950  24.906  1.00  0.00     0.163 HD
BRANCH   4   7
ATOM      7  C   UNL A   1      30.501  28.359  23.942  1.00  0.00     0.109 C 
BRANCH   7   8
ATOM      8  C   UNL A   1      30.456  26.865  24.307  1.00  0.00    -0.036 A 
ATOM      9  C   UNL A   1      31.229  22.708  25.212  1.00  0.00     0.044 C 
ATOM     10  C   UNL A   1      30.878  24.129  24.895  1.00  0.00    -0.051 A 
ATOM     11  C   UNL A   1      30.766  24.558  23.571  1.00  0.00     0.004 A 
ATOM     12  C   UNL A   1      30.623  25.043  25.917  1.00  0.00     0.004 A 
ATOM     13  C   UNL A   1      30.552  25.907  23.282  1.00  0.00     0.005 A 
ATOM     14  C   UNL A   1      30.374  26.387  25.624  1.00  0.00     0.005 A 
ENDBRANCH   7   8
BRANCH   7  15
ATOM     15  C   UNL A   1      29.747  28.657  22.612  1.00  0.00     0.022 C 
BRANCH  15  16
ATOM     16  C   UNL A   1      29.495  30.143  22.319  1.00  0.00    -0.010 C 
ATOM     17  C   UNL A   1      28.423  30.437  21.271  1.00  0.00     0.003 C 
ATOM     18  C   UNL A   1      28.920  30.853  23.551  1.00  0.00     0.003 C 
ATOM     19  C   UNL A   1      28.036  31.892  21.536  1.00  0.00     0.000 C 
ATOM     20  C   UNL A   1      28.331  32.149  23.012  1.00  0.00     0.000 C 
ENDBRANCH  15  16
ENDBRANCH   7  15
ENDBRANCH   4   7
ENDBRANCH   2   3
ENDBRANCH   1   2
BRANCH   1  21
ATOM     21  C   UNL A   1      33.728  30.714  27.561  1.00  0.00     0.118 C 
BRANCH  21  22
ATOM     22  N   UNL A   1      34.426  31.639  28.450  1.00  0.00    -0.352 N 
ATOM     23  C   UNL A   1      35.600  31.462  29.170  1.00  0.00     0.251 C 
ATOM     24  H   UNL A   1      34.000  32.520  28.555  1.00  0.00     0.163 HD
ATOM     25  O   UNL A   1      36.018  32.356  29.885  1.00  0.00    -0.269 OA
BRANCH  23  26
ATOM     26  C   UNL A   1      36.424  30.246  28.938  1.00  0.00     0.039 A 
ATOM     27  C   UNL A   1      36.600  29.365  30.011  1.00  0.00     0.014 A 
ATOM     28  C   UNL A   1      37.224  30.136  27.810  1.00  0.00     0.014 A 
ATOM     29  C   UNL A   1      37.759  28.596  30.072  1.00  0.00     0.010 A 
ATOM     30  C   UNL A   1      38.442  29.512  27.939  1.00  0.00     0.010 A 
ATOM     31  C   UNL A   1      38.733  28.792  29.100  1.00  0.00    -0.014 A 
BRANCH  31  32
ATOM     32  C   UNL A   1      40.116  28.363  29.232  1.00  0.00     0.031 A 
ATOM     33  C   UNL A   1      40.528  27.062  28.676  1.00  0.00     0.074 A 
ATOM     34  C   UNL A   1      41.032  29.218  29.738  1.00  0.00     0.049 A 
ATOM     35  N   UNL A   1      41.620  26.453  28.988  1.00  0.00    -0.248 NA
ATOM     36  C   UNL A   1      39.685  26.293  27.762  1.00  0.00     0.031 C 
ATOM     37  C   UNL A   1      42.486  29.133  29.646  1.00  0.00     0.029 A 
ATOM     38  N   UNL A   1      40.804  30.254  30.648  1.00  0.00    -0.354 N 
ATOM     39  C   UNL A   1      41.773  25.412  28.104  1.00  0.00     0.074 A 
ATOM     40  C   UNL A   1      40.494  25.278  27.454  1.00  0.00     0.031 C 
ATOM     41  C   UNL A   1      43.028  29.870  30.628  1.00  0.00     0.029 A 
ATOM     42  C   UNL A   1      41.939  30.316  31.480  1.00  0.00     0.049 A 
ATOM     43  H   UNL A   1      40.006  30.828  30.697  1.00  0.00     0.167 HD
ATOM     44  C   UNL A   1      43.016  24.889  27.920  1.00  0.00     0.031 A 
ATOM     45  C   UNL A   1      41.839  30.042  32.814  1.00  0.00     0.031 A 
ATOM     46  C   UNL A   1      43.955  25.387  28.926  1.00  0.00     0.049 A 
ATOM     47  C   UNL A   1      42.650  28.838  33.250  1.00  0.00     0.074 A 
ATOM     48  C   UNL A   1      44.981  26.316  28.897  1.00  0.00     0.029 A 
ATOM     49  N   UNL A   1      43.694  25.134  30.270  1.00  0.00    -0.354 N 
ATOM     50  N   UNL A   1      43.116  27.934  32.432  1.00  0.00    -0.248 NA
ATOM     51  C   UNL A   1      42.972  28.544  34.643  1.00  0.00     0.031 C 
ATOM     52  C   UNL A   1      45.273  26.688  30.239  1.00  0.00     0.029 A 
ATOM     53  C   UNL A   1      44.454  25.955  31.080  1.00  0.00     0.049 A 
ATOM     54  H   UNL A   1      43.053  24.463  30.598  1.00  0.00     0.167 HD
ATOM     55  C   UNL A   1      43.769  26.959  33.142  1.00  0.00     0.074 A 
ATOM     56  C   UNL A   1      43.663  27.396  34.524  1.00  0.00     0.031 C 
ATOM     57  C   UNL A   1      44.326  25.871  32.531  1.00  0.00     0.031 A 
BRANCH  44  58
ATOM     58  C   UNL A   1      43.440  24.135  26.676  1.00  0.00    -0.014 A 
ATOM     59  C   UNL A   1      42.995  22.814  26.486  1.00  0.00     0.009 A 
ATOM     60  C   UNL A   1      44.347  24.609  25.710  1.00  0.00     0.009 A 
ATOM     61  C   UNL A   1      43.466  22.008  25.437  1.00  0.00     0.001 A 
ATOM     62  C   UNL A   1      44.825  23.814  24.661  1.00  0.00     0.001 A 
ATOM     63  C   UNL A   1      44.393  22.506  24.530  1.00  0.00     0.000 A 
ENDBRANCH  44  58
BRANCH  45  64
ATOM     64  C   UNL A   1      40.534  30.454  33.404  1.00  0.00    -0.014 A 
ATOM     65  C   UNL A   1      40.284  31.832  33.565  1.00  0.00     0.009 A 
ATOM     66  C   UNL A   1      39.445  29.572  33.426  1.00  0.00     0.009 A 
ATOM     67  C   UNL A   1      38.976  32.325  33.612  1.00  0.00     0.001 A 
ATOM     68  C   UNL A   1      38.136  30.070  33.489  1.00  0.00     0.001 A 
ATOM     69  C   UNL A   1      37.901  31.444  33.540  1.00  0.00     0.000 A 
ENDBRANCH  45  64
BRANCH  57  70
ATOM     70  C   UNL A   1      44.851  24.630  33.218  1.00  0.00    -0.014 A 
ATOM     71  C   UNL A   1      46.151  24.482  33.717  1.00  0.00     0.009 A 
ATOM     72  C   UNL A   1      43.946  23.580  33.507  1.00  0.00     0.009 A 
ATOM     73  C   UNL A   1      46.537  23.333  34.426  1.00  0.00     0.001 A 
ATOM     74  C   UNL A   1      44.311  22.459  34.255  1.00  0.00     0.001 A 
ATOM     75  C   UNL A   1      45.615  22.330  34.705  1.00  0.00     0.000 A 
ENDBRANCH  57  70
ENDBRANCH  31  32
ENDBRANCH  23  26
ENDBRANCH  21  22
ENDBRANCH   1  21
TORSDOF 13
ENDMDL
MODEL 3
REMARK VINA RESULT:     -11.7      1.358      3.201
REMARK SMILES Cc1ccc([C@H](CC2CCCC2)C(=O)NCCCNC(=O)c2ccc(-c3c4nc(c(-c5ccccc5)c5ccc([nH]5)c(-c5ccccc5)c5nc(c(-c6ccccc6)c6ccc3[nH]6)C=C5)C=C4)cc2)cc1
REMARK SMILES IDX 17 1 16 2 15 3 13 4 14 5 6 7 5 8 1 9 2 10 3 11 71 12 4 13
REMARK SMILES IDX 70 14 7 15 8 16 9 17 12 18 10 19 11 20 18 21 19 22 20 23
REMARK SMILES IDX 21 25 22 26 23 27 69 28 24 29 68 30 25 31 26 32 27 33 62 34
REMARK SMILES IDX 28 35 67 36 61 37 63 38 29 39 66 40 60 41 59 42 30 44 52 45
REMARK SMILES IDX 37 46 51 47 38 48 41 49 50 50 64 51 39 52 40 53 49 55 65 56
REMARK SMILES IDX 42 57 31 58 32 59 36 60 33 61 35 62 34 63 53 64 54 65 58 66
REMARK SMILES IDX 55 67 57 68 56 69 43 70 44 71 48 72 45 73 47 74 46 75
REMARK H PARENT 15 6 19 24 63 43 41 54
REMARK Flexibility Score: inf
ROOT
ATOM      1  C   UNL A   1      34.012  29.455  26.937  1.00  0.00     0.042 C 
ENDROOT
BRANCH   1   2
ATOM      2  C   UNL A   1      32.964  29.917  25.944  1.00  0.00     0.117 C 
BRANCH   2   3
ATOM      3  N   UNL A   1      33.258  29.507  24.575  1.00  0.00    -0.356 N 
ATOM      4  C   UNL A   1      32.420  29.013  23.613  1.00  0.00     0.227 C 
ATOM      5  O   UNL A   1      32.882  28.890  22.473  1.00  0.00    -0.274 OA
ATOM      6  H   UNL A   1      34.200  29.599  24.305  1.00  0.00     0.163 HD
BRANCH   4   7
ATOM      7  C   UNL A   1      30.978  28.583  23.922  1.00  0.00     0.109 C 
BRANCH   7   8
ATOM      8  C   UNL A   1      30.822  27.166  24.500  1.00  0.00    -0.036 A 
ATOM      9  C   UNL A   1      31.185  23.036  25.727  1.00  0.00     0.044 C 
ATOM     10  C   UNL A   1      30.977  24.464  25.326  1.00  0.00    -0.051 A 
ATOM     11  C   UNL A   1      30.506  24.787  24.052  1.00  0.00     0.004 A 
ATOM     12  C   UNL A   1      31.218  25.497  26.231  1.00  0.00     0.004 A 
ATOM     13  C   UNL A   1      30.424  26.120  23.647  1.00  0.00     0.005 A 
ATOM     14  C   UNL A   1      31.102  26.833  25.833  1.00  0.00     0.005 A 
ENDBRANCH   7   8
BRANCH   7  15
ATOM     15  C   UNL A   1      30.066  28.812  22.681  1.00  0.00     0.022 C 
BRANCH  15  16
ATOM     16  C   UNL A   1      29.687  30.274  22.405  1.00  0.00    -0.010 C 
ATOM     17  C   UNL A   1      28.539  30.485  21.420  1.00  0.00     0.003 C 
ATOM     18  C   UNL A   1      29.131  30.942  23.669  1.00  0.00     0.003 C 
ATOM     19  C   UNL A   1      28.059  31.906  21.708  1.00  0.00     0.000 C 
ATOM     20  C   UNL A   1      28.417  32.189  23.166  1.00  0.00     0.000 C 
ENDBRANCH  15  16
ENDBRANCH   7  15
ENDBRANCH   4   7
ENDBRANCH   2   3
ENDBRANCH   1   2
BRANCH   1  21
ATOM     21  C   UNL A   1      34.715  30.610  27.624  1.00  0.00     0.118 C 
BRANCH  21  22
ATOM     22  N   UNL A   1      33.923  31.833  27.724  1.00  0.00    -0.352 N 
ATOM     23  C   UNL A   1      34.119  32.954  28.521  1.00  0.00     0.251 C 
ATOM     24  H   UNL A   1      33.132  31.869  27.140  1.00  0.00     0.163 HD
ATOM     25  O   UNL A   1      33.325  33.877  28.480  1.00  0.00    -0.269 OA
BRANCH  23  26
ATOM     26  C   UNL A   1      35.380  33.088  29.297  1.00  0.00     0.039 A 
ATOM     27  C   UNL A   1      36.469  33.706  28.670  1.00  0.00     0.014 A 
ATOM     28  C   UNL A   1      35.568  32.375  30.472  1.00  0.00     0.014 A 
ATOM     29  C   UNL A   1      37.760  33.350  29.050  1.00  0.00     0.010 A 
ATOM     30  C   UNL A   1      36.828  31.893  30.742  1.00  0.00     0.010 A 
ATOM     31  C   UNL A   1      37.917  32.335  29.988  1.00  0.00    -0.014 A 
BRANCH  31  32
ATOM     32  C   UNL A   1      39.156  31.606  30.201  1.00  0.00     0.031 A 
ATOM     33  C   UNL A   1      39.341  30.289  29.564  1.00  0.00     0.074 A 
ATOM     34  C   UNL A   1      40.172  32.202  30.863  1.00  0.00     0.049 A 
ATOM     35  N   UNL A   1      40.240  29.435  29.913  1.00  0.00    -0.248 NA
ATOM     36  C   UNL A   1      38.457  29.792  28.512  1.00  0.00     0.031 C 
ATOM     37  C   UNL A   1      41.577  31.806  30.891  1.00  0.00     0.029 A 
ATOM     38  N   UNL A   1      40.072  33.194  31.841  1.00  0.00    -0.354 N 
ATOM     39  C   UNL A   1      40.264  28.453  28.953  1.00  0.00     0.074 A 
ATOM     40  C   UNL A   1      39.061  28.649  28.184  1.00  0.00     0.031 C 
ATOM     41  C   UNL A   1      42.155  32.335  31.982  1.00  0.00     0.029 A 
ATOM     42  C   UNL A   1      41.100  32.946  32.772  1.00  0.00     0.049 A 
ATOM     43  H   UNL A   1      39.413  33.924  31.874  1.00  0.00     0.167 HD
ATOM     44  C   UNL A   1      41.381  27.685  28.831  1.00  0.00     0.031 A 
ATOM     45  C   UNL A   1      40.804  32.605  34.061  1.00  0.00     0.031 A 
ATOM     46  C   UNL A   1      42.292  27.892  29.958  1.00  0.00     0.049 A 
ATOM     47  C   UNL A   1      41.292  31.225  34.452  1.00  0.00     0.074 A 
ATOM     48  C   UNL A   1      43.488  28.574  30.106  1.00  0.00     0.029 A 
ATOM     49  N   UNL A   1      41.842  27.606  31.244  1.00  0.00    -0.354 N 
ATOM     50  N   UNL A   1      41.641  30.301  33.599  1.00  0.00    -0.248 NA
ATOM     51  C   UNL A   1      41.396  30.768  35.835  1.00  0.00     0.031 C 
ATOM     52  C   UNL A   1      43.707  28.775  31.498  1.00  0.00     0.029 A 
ATOM     53  C   UNL A   1      42.667  28.180  32.191  1.00  0.00     0.049 A 
ATOM     54  H   UNL A   1      41.043  27.069  31.451  1.00  0.00     0.167 HD
ATOM     55  C   UNL A   1      41.995  29.159  34.270  1.00  0.00     0.074 A 
ATOM     56  C   UNL A   1      41.838  29.508  35.671  1.00  0.00     0.031 C 
ATOM     57  C   UNL A   1      42.371  28.023  33.611  1.00  0.00     0.031 A 
BRANCH  44  58
ATOM     58  C   UNL A   1      41.766  26.947  27.564  1.00  0.00    -0.014 A 
ATOM     59  C   UNL A   1      41.953  25.554  27.610  1.00  0.00     0.009 A 
ATOM     60  C   UNL A   1      42.061  27.556  26.331  1.00  0.00     0.009 A 
ATOM     61  C   UNL A   1      42.453  24.830  26.515  1.00  0.00     0.001 A 
ATOM     62  C   UNL A   1      42.562  26.844  25.233  1.00  0.00     0.001 A 
ATOM     63  C   UNL A   1      42.769  25.479  25.328  1.00  0.00     0.000 A 
ENDBRANCH  44  58
BRANCH  45  64
ATOM     64  C   UNL A   1      39.560  33.249  34.570  1.00  0.00    -0.014 A 
ATOM     65  C   UNL A   1      38.331  32.601  34.326  1.00  0.00     0.009 A 
ATOM     66  C   UNL A   1      39.613  34.219  35.580  1.00  0.00     0.009 A 
ATOM     67  C   UNL A   1      37.226  32.821  35.155  1.00  0.00     0.001 A 
ATOM     68  C   UNL A   1      38.498  34.447  36.398  1.00  0.00     0.001 A 
ATOM     69  C   UNL A   1      37.321  33.721  36.212  1.00  0.00     0.000 A 
ENDBRANCH  45  64
BRANCH  57  70
ATOM     70  C   UNL A   1      42.547  26.650  34.223  1.00  0.00    -0.014 A 
ATOM     71  C   UNL A   1      41.605  26.012  35.039  1.00  0.00     0.009 A 
ATOM     72  C   UNL A   1      43.677  25.882  33.853  1.00  0.00     0.009 A 
ATOM     73  C   UNL A   1      41.800  24.698  35.493  1.00  0.00     0.001 A 
ATOM     74  C   UNL A   1      43.851  24.558  34.261  1.00  0.00     0.001 A 
ATOM     75  C   UNL A   1      42.915  23.968  35.094  1.00  0.00     0.000 A 
ENDBRANCH  57  70
ENDBRANCH  31  32
ENDBRANCH  23  26
ENDBRANCH  21  22
ENDBRANCH   1  21
TORSDOF 13
ENDMDL
