MODEL 1
REMARK VINA RESULT:     -11.7      0.000      0.000
REMARK SMILES NC(=O)CC[C@H](C(=O)NCCCNC(=O)c1ccc(-c2c3nc(c(-c4ccccc4)c4ccc([nH]4)c(-c4ccccc4)c4nc(c(-c5ccccc5)c5ccc2[nH]5)C=C4)C=C3)cc1)N1C(=O)/C(=C/c2ccc(O)c(O)c2)SC1=S
REMARK SMILES IDX 10 1 9 2 7 3 8 4 6 6 5 7 4 8 2 9 1 10 3 13 64 14 65 15 78 16
REMARK SMILES IDX 66 17 67 18 77 19 79 20 68 21 69 22 70 23 76 24 71 25 74 26
REMARK SMILES IDX 72 27 75 28 73 30 11 32 12 33 13 34 14 35 15 37 16 38 17 39
REMARK SMILES IDX 63 40 18 41 62 42 19 43 20 44 21 45 56 46 22 47 61 48 55 49
REMARK SMILES IDX 57 50 23 51 60 52 54 53 53 54 24 56 46 57 31 58 45 59 32 60
REMARK SMILES IDX 35 61 44 62 58 63 33 64 34 65 43 67 59 68 36 69 25 70 26 71
REMARK SMILES IDX 30 72 27 73 29 74 28 75 47 76 48 77 52 78 49 79 51 80 50 81
REMARK SMILES IDX 37 82 38 83 42 84 39 85 41 86 40 87
REMARK H PARENT 9 5 1 11 1 12 75 29 73 31 13 36 57 55 35 66
REMARK Flexibility Score: inf
ROOT
ATOM      1  C   UNL A   1      31.712  30.344  26.445  1.00  0.00     0.117 C 
ENDROOT
BRANCH   1   2
ATOM      2  N   UNL A   1      32.331  30.258  25.139  1.00  0.00    -0.354 N 
ATOM      3  C   UNL A   1      32.464  29.199  24.294  1.00  0.00     0.243 C 
ATOM      4  O   UNL A   1      33.273  29.330  23.378  1.00  0.00    -0.273 OA
ATOM      5  H   UNL A   1      32.717  31.102  24.810  1.00  0.00     0.163 HD
BRANCH   3   6
ATOM      6  C   UNL A   1      31.656  27.906  24.533  1.00  0.00     0.181 C 
BRANCH   6   7
ATOM      7  C   UNL A   1      30.355  27.872  23.709  1.00  0.00     0.045 C 
BRANCH   7   8
ATOM      8  C   UNL A   1      29.725  29.260  23.525  1.00  0.00     0.102 C 
BRANCH   8   9
ATOM      9  C   UNL A   1      29.613  29.686  22.077  1.00  0.00     0.217 C 
ATOM     10  N   UNL A   1      30.776  30.084  21.488  1.00  0.00    -0.370 N 
ATOM     11  H   UNL A   1      30.777  30.375  20.547  1.00  0.00     0.159 HD
ATOM     12  H   UNL A   1      31.615  30.081  22.004  1.00  0.00     0.159 HD
ATOM     13  O   UNL A   1      28.560  29.681  21.453  1.00  0.00    -0.275 OA
ENDBRANCH   8   9
ENDBRANCH   7   8
ENDBRANCH   6   7
BRANCH   6  14
ATOM     14  N   UNL A   1      32.552  26.752  24.295  1.00  0.00    -0.280 N 
ATOM     15  C   UNL A   1      33.453  26.366  25.277  1.00  0.00     0.266 C 
ATOM     16  C   UNL A   1      32.607  26.025  23.122  1.00  0.00     0.149 C 
ATOM     17  O   UNL A   1      33.731  26.977  26.294  1.00  0.00    -0.268 OA
ATOM     18  C   UNL A   1      34.108  25.083  24.906  1.00  0.00     0.081 C 
ATOM     19  S   UNL A   1      33.585  24.585  23.354  1.00  0.00    -0.054 SA
ATOM     20  S   UNL A   1      31.923  26.371  21.641  1.00  0.00    -0.052 S 
ATOM     21  C   UNL A   1      34.952  24.464  25.743  1.00  0.00     0.029 C 
BRANCH  21  22
ATOM     22  C   UNL A   1      35.656  23.193  25.520  1.00  0.00    -0.020 A 
ATOM     23  C   UNL A   1      37.053  23.212  25.369  1.00  0.00     0.012 A 
ATOM     24  C   UNL A   1      34.969  21.977  25.390  1.00  0.00     0.058 A 
ATOM     25  C   UNL A   1      37.759  22.032  25.124  1.00  0.00     0.051 A 
ATOM     26  C   UNL A   1      35.681  20.806  25.159  1.00  0.00     0.157 A 
ATOM     27  C   UNL A   1      37.065  20.837  25.026  1.00  0.00     0.157 A 
BRANCH  26  28
ATOM     28  O   UNL A   1      35.057  19.594  25.051  1.00  0.00    -0.504 OA
ATOM     29  H   UNL A   1      35.316  18.991  24.381  1.00  0.00     0.293 HD
ENDBRANCH  26  28
BRANCH  27  30
ATOM     30  O   UNL A   1      37.751  19.682  24.788  1.00  0.00    -0.504 OA
ATOM     31  H   UNL A   1      37.858  19.051  25.472  1.00  0.00     0.293 HD
ENDBRANCH  27  30
ENDBRANCH  21  22
ENDBRANCH   6  14
ENDBRANCH   3   6
ENDBRANCH   1   2
BRANCH   1  32
ATOM     32  C   UNL A   1      31.476  31.799  26.831  1.00  0.00     0.042 C 
BRANCH  32  33
ATOM     33  C   UNL A   1      32.772  32.576  27.037  1.00  0.00     0.118 C 
BRANCH  33  34
ATOM     34  N   UNL A   1      32.537  33.887  27.624  1.00  0.00    -0.352 N 
ATOM     35  C   UNL A   1      33.190  34.527  28.643  1.00  0.00     0.251 C 
ATOM     36  H   UNL A   1      31.790  34.392  27.227  1.00  0.00     0.163 HD
ATOM     37  O   UNL A   1      32.695  35.537  29.134  1.00  0.00    -0.269 OA
BRANCH  35  38
ATOM     38  C   UNL A   1      34.473  34.007  29.158  1.00  0.00     0.039 A 
ATOM     39  C   UNL A   1      34.470  33.316  30.371  1.00  0.00     0.014 A 
ATOM     40  C   UNL A   1      35.675  34.223  28.477  1.00  0.00     0.014 A 
ATOM     41  C   UNL A   1      35.664  32.802  30.877  1.00  0.00     0.010 A 
ATOM     42  C   UNL A   1      36.851  33.636  28.938  1.00  0.00     0.010 A 
ATOM     43  C   UNL A   1      36.858  32.927  30.146  1.00  0.00    -0.014 A 
BRANCH  43  44
ATOM     44  C   UNL A   1      38.108  32.295  30.639  1.00  0.00     0.031 A 
ATOM     45  C   UNL A   1      38.610  31.010  30.040  1.00  0.00     0.074 A 
ATOM     46  C   UNL A   1      38.777  32.876  31.655  1.00  0.00     0.049 A 
ATOM     47  N   UNL A   1      39.701  30.342  30.326  1.00  0.00    -0.248 NA
ATOM     48  C   UNL A   1      37.778  30.382  29.004  1.00  0.00     0.031 C 
ATOM     49  C   UNL A   1      38.360  34.094  32.355  1.00  0.00     0.029 A 
ATOM     50  N   UNL A   1      39.952  32.526  32.268  1.00  0.00    -0.354 N 
ATOM     51  C   UNL A   1      39.678  29.216  29.514  1.00  0.00     0.074 A 
ATOM     52  C   UNL A   1      38.444  29.261  28.762  1.00  0.00     0.031 C 
ATOM     53  C   UNL A   1      39.289  34.413  33.270  1.00  0.00     0.029 A 
ATOM     54  C   UNL A   1      40.340  33.402  33.253  1.00  0.00     0.049 A 
ATOM     55  H   UNL A   1      40.469  31.723  32.026  1.00  0.00     0.167 HD
ATOM     56  C   UNL A   1      40.611  28.241  29.390  1.00  0.00     0.031 A 
ATOM     57  C   UNL A   1      41.421  33.395  34.054  1.00  0.00     0.031 A 
ATOM     58  C   UNL A   1      41.839  28.198  30.140  1.00  0.00     0.049 A 
ATOM     59  C   UNL A   1      42.434  32.295  33.901  1.00  0.00     0.074 A 
ATOM     60  C   UNL A   1      42.875  27.286  30.042  1.00  0.00     0.029 A 
ATOM     61  N   UNL A   1      42.191  29.098  31.133  1.00  0.00    -0.354 N 
ATOM     62  N   UNL A   1      42.443  31.288  33.063  1.00  0.00    -0.248 NA
ATOM     63  C   UNL A   1      43.596  32.342  34.799  1.00  0.00     0.031 C 
ATOM     64  C   UNL A   1      43.824  27.596  31.022  1.00  0.00     0.029 A 
ATOM     65  C   UNL A   1      43.413  28.744  31.681  1.00  0.00     0.049 A 
ATOM     66  H   UNL A   1      41.653  29.875  31.409  1.00  0.00     0.167 HD
ATOM     67  C   UNL A   1      43.619  30.595  33.316  1.00  0.00     0.074 A 
ATOM     68  C   UNL A   1      44.311  31.315  34.365  1.00  0.00     0.031 C 
ATOM     69  C   UNL A   1      44.083  29.462  32.734  1.00  0.00     0.031 A 
BRANCH  56  70
ATOM     70  C   UNL A   1      40.334  27.130  28.414  1.00  0.00    -0.014 A 
ATOM     71  C   UNL A   1      40.851  27.158  27.108  1.00  0.00     0.009 A 
ATOM     72  C   UNL A   1      39.589  26.012  28.821  1.00  0.00     0.009 A 
ATOM     73  C   UNL A   1      40.599  26.107  26.223  1.00  0.00     0.001 A 
ATOM     74  C   UNL A   1      39.365  24.949  27.945  1.00  0.00     0.001 A 
ATOM     75  C   UNL A   1      39.863  25.001  26.644  1.00  0.00     0.000 A 
ENDBRANCH  56  70
BRANCH  57  76
ATOM     76  C   UNL A   1      41.606  34.466  35.068  1.00  0.00    -0.014 A 
ATOM     77  C   UNL A   1      42.203  35.688  34.720  1.00  0.00     0.009 A 
ATOM     78  C   UNL A   1      41.196  34.267  36.396  1.00  0.00     0.009 A 
ATOM     79  C   UNL A   1      42.417  36.673  35.688  1.00  0.00     0.001 A 
ATOM     80  C   UNL A   1      41.379  35.267  37.354  1.00  0.00     0.001 A 
ATOM     81  C   UNL A   1      42.000  36.464  37.001  1.00  0.00     0.000 A 
ENDBRANCH  57  76
BRANCH  69  82
ATOM     82  C   UNL A   1      45.417  28.950  33.206  1.00  0.00    -0.014 A 
ATOM     83  C   UNL A   1      46.616  29.369  32.608  1.00  0.00     0.009 A 
ATOM     84  C   UNL A   1      45.475  28.045  34.278  1.00  0.00     0.009 A 
ATOM     85  C   UNL A   1      47.839  28.858  33.042  1.00  0.00     0.001 A 
ATOM     86  C   UNL A   1      46.701  27.563  34.735  1.00  0.00     0.001 A 
ATOM     87  C   UNL A   1      47.882  27.959  34.108  1.00  0.00     0.000 A 
ENDBRANCH  69  82
ENDBRANCH  43  44
ENDBRANCH  35  38
ENDBRANCH  33  34
ENDBRANCH  32  33
ENDBRANCH   1  32
TORSDOF 17
ENDMDL
MODEL 2
REMARK VINA RESULT:     -11.6      0.696      5.788
REMARK SMILES NC(=O)CC[C@H](C(=O)NCCCNC(=O)c1ccc(-c2c3nc(c(-c4ccccc4)c4ccc([nH]4)c(-c4ccccc4)c4nc(c(-c5ccccc5)c5ccc2[nH]5)C=C4)C=C3)cc1)N1C(=O)/C(=C/c2ccc(O)c(O)c2)SC1=S
REMARK SMILES IDX 10 1 9 2 7 3 8 4 6 6 5 7 4 8 2 9 1 10 3 13 64 14 65 15 78 16
REMARK SMILES IDX 66 17 67 18 77 19 79 20 68 21 69 22 70 23 76 24 71 25 74 26
REMARK SMILES IDX 72 27 75 28 73 30 11 32 12 33 13 34 14 35 15 37 16 38 17 39
REMARK SMILES IDX 63 40 18 41 62 42 19 43 20 44 21 45 56 46 22 47 61 48 55 49
REMARK SMILES IDX 57 50 23 51 60 52 54 53 53 54 24 56 46 57 31 58 45 59 32 60
REMARK SMILES IDX 35 61 44 62 58 63 33 64 34 65 43 67 59 68 36 69 25 70 26 71
REMARK SMILES IDX 30 72 27 73 29 74 28 75 47 76 48 77 52 78 49 79 51 80 50 81
REMARK SMILES IDX 37 82 38 83 42 84 39 85 41 86 40 87
REMARK H PARENT 9 5 1 11 1 12 75 29 73 31 13 36 57 55 35 66
REMARK Flexibility Score: inf
ROOT
ATOM      1  C   UNL A   1      31.522  30.015  25.942  1.00  0.00     0.117 C 
ENDROOT
BRANCH   1   2
ATOM      2  N   UNL A   1      32.107  29.962  24.619  1.00  0.00    -0.354 N 
ATOM      3  C   UNL A   1      32.262  28.913  23.764  1.00  0.00     0.243 C 
ATOM      4  O   UNL A   1      33.039  29.083  22.827  1.00  0.00    -0.273 OA
ATOM      5  H   UNL A   1      32.448  30.823  24.284  1.00  0.00     0.163 HD
BRANCH   3   6
ATOM      6  C   UNL A   1      31.518  27.586  24.018  1.00  0.00     0.181 C 
BRANCH   6   7
ATOM      7  C   UNL A   1      30.263  27.445  23.136  1.00  0.00     0.045 C 
BRANCH   7   8
ATOM      8  C   UNL A   1      29.214  28.535  23.406  1.00  0.00     0.102 C 
BRANCH   8   9
ATOM      9  C   UNL A   1      28.931  29.411  22.206  1.00  0.00     0.217 C 
ATOM     10  N   UNL A   1      27.629  29.775  22.036  1.00  0.00    -0.370 N 
ATOM     11  H   UNL A   1      27.372  30.345  21.274  1.00  0.00     0.159 HD
ATOM     12  H   UNL A   1      26.945  29.467  22.673  1.00  0.00     0.159 HD
ATOM     13  O   UNL A   1      29.797  29.784  21.425  1.00  0.00    -0.275 OA
ENDBRANCH   8   9
ENDBRANCH   7   8
ENDBRANCH   6   7
BRANCH   6  14
ATOM     14  N   UNL A   1      32.488  26.478  23.868  1.00  0.00    -0.280 N 
ATOM     15  C   UNL A   1      33.319  26.143  24.928  1.00  0.00     0.266 C 
ATOM     16  C   UNL A   1      32.680  25.749  22.712  1.00  0.00     0.149 C 
ATOM     17  O   UNL A   1      33.478  26.773  25.959  1.00  0.00    -0.268 OA
ATOM     18  C   UNL A   1      34.068  24.894  24.627  1.00  0.00     0.081 C 
ATOM     19  S   UNL A   1      33.706  24.361  23.041  1.00  0.00    -0.054 SA
ATOM     20  S   UNL A   1      32.109  26.051  21.174  1.00  0.00    -0.052 S 
ATOM     21  C   UNL A   1      34.866  24.322  25.540  1.00  0.00     0.029 C 
BRANCH  21  22
ATOM     22  C   UNL A   1      35.650  23.088  25.390  1.00  0.00    -0.020 A 
ATOM     23  C   UNL A   1      37.052  23.178  25.360  1.00  0.00     0.012 A 
ATOM     24  C   UNL A   1      35.038  21.839  25.212  1.00  0.00     0.058 A 
ATOM     25  C   UNL A   1      37.835  22.034  25.188  1.00  0.00     0.051 A 
ATOM     26  C   UNL A   1      35.826  20.704  25.055  1.00  0.00     0.157 A 
ATOM     27  C   UNL A   1      37.213  20.804  25.042  1.00  0.00     0.157 A 
BRANCH  26  28
ATOM     28  O   UNL A   1      35.275  19.461  24.905  1.00  0.00    -0.504 OA
ATOM     29  H   UNL A   1      34.858  19.227  24.099  1.00  0.00     0.293 HD
ENDBRANCH  26  28
BRANCH  27  30
ATOM     30  O   UNL A   1      37.974  19.685  24.875  1.00  0.00    -0.504 OA
ATOM     31  H   UNL A   1      38.409  19.300  25.610  1.00  0.00     0.293 HD
ENDBRANCH  27  30
ENDBRANCH  21  22
ENDBRANCH   6  14
ENDBRANCH   3   6
ENDBRANCH   1   2
BRANCH   1  32
ATOM     32  C   UNL A   1      31.346  31.460  26.392  1.00  0.00     0.042 C 
BRANCH  32  33
ATOM     33  C   UNL A   1      32.645  32.091  26.884  1.00  0.00     0.118 C 
BRANCH  33  34
ATOM     34  N   UNL A   1      32.440  33.440  27.390  1.00  0.00    -0.352 N 
ATOM     35  C   UNL A   1      33.152  34.149  28.321  1.00  0.00     0.251 C 
ATOM     36  H   UNL A   1      31.671  33.916  27.004  1.00  0.00     0.163 HD
ATOM     37  O   UNL A   1      32.684  35.192  28.769  1.00  0.00    -0.269 OA
BRANCH  35  38
ATOM     38  C   UNL A   1      34.464  33.665  28.794  1.00  0.00     0.039 A 
ATOM     39  C   UNL A   1      34.504  32.867  29.939  1.00  0.00     0.014 A 
ATOM     40  C   UNL A   1      35.651  34.017  28.143  1.00  0.00     0.014 A 
ATOM     41  C   UNL A   1      35.728  32.385  30.403  1.00  0.00     0.010 A 
ATOM     42  C   UNL A   1      36.861  33.465  28.556  1.00  0.00     0.010 A 
ATOM     43  C   UNL A   1      36.912  32.650  29.694  1.00  0.00    -0.014 A 
BRANCH  43  44
ATOM     44  C   UNL A   1      38.199  32.055  30.135  1.00  0.00     0.031 A 
ATOM     45  C   UNL A   1      39.058  32.746  31.156  1.00  0.00     0.074 A 
ATOM     46  C   UNL A   1      38.603  30.892  29.585  1.00  0.00     0.049 A 
ATOM     47  N   UNL A   1      40.192  32.350  31.680  1.00  0.00    -0.248 NA
ATOM     48  C   UNL A   1      38.603  34.059  31.639  1.00  0.00     0.031 C 
ATOM     49  C   UNL A   1      37.882  30.153  28.545  1.00  0.00     0.029 A 
ATOM     50  N   UNL A   1      39.711  30.124  29.832  1.00  0.00    -0.354 N 
ATOM     51  C   UNL A   1      40.586  33.364  32.543  1.00  0.00     0.074 A 
ATOM     52  C   UNL A   1      39.601  34.417  32.435  1.00  0.00     0.031 C 
ATOM     53  C   UNL A   1      38.545  29.017  28.276  1.00  0.00     0.029 A 
ATOM     54  C   UNL A   1      39.755  28.969  29.088  1.00  0.00     0.049 A 
ATOM     55  H   UNL A   1      40.409  30.375  30.479  1.00  0.00     0.167 HD
ATOM     56  C   UNL A   1      41.661  33.407  33.366  1.00  0.00     0.031 A 
ATOM     57  C   UNL A   1      40.667  27.980  29.062  1.00  0.00     0.031 A 
ATOM     58  C   UNL A   1      42.641  32.358  33.471  1.00  0.00     0.049 A 
ATOM     59  C   UNL A   1      41.855  28.059  29.979  1.00  0.00     0.074 A 
ATOM     60  C   UNL A   1      43.731  32.280  34.320  1.00  0.00     0.029 A 
ATOM     61  N   UNL A   1      42.655  31.209  32.696  1.00  0.00    -0.354 N 
ATOM     62  N   UNL A   1      42.164  28.983  30.857  1.00  0.00    -0.248 NA
ATOM     63  C   UNL A   1      42.814  26.948  29.911  1.00  0.00     0.031 C 
ATOM     64  C   UNL A   1      44.443  31.117  34.012  1.00  0.00     0.029 A 
ATOM     65  C   UNL A   1      43.755  30.432  33.022  1.00  0.00     0.049 A 
ATOM     66  H   UNL A   1      41.983  30.978  32.015  1.00  0.00     0.167 HD
ATOM     67  C   UNL A   1      43.338  28.554  31.460  1.00  0.00     0.074 A 
ATOM     68  C   UNL A   1      43.669  27.274  30.869  1.00  0.00     0.031 C 
ATOM     69  C   UNL A   1      44.079  29.167  32.416  1.00  0.00     0.031 A 
BRANCH  56  70
ATOM     70  C   UNL A   1      41.843  34.638  34.213  1.00  0.00    -0.014 A 
ATOM     71  C   UNL A   1      42.520  35.768  33.724  1.00  0.00     0.009 A 
ATOM     72  C   UNL A   1      41.287  34.689  35.500  1.00  0.00     0.009 A 
ATOM     73  C   UNL A   1      42.662  36.908  34.519  1.00  0.00     0.001 A 
ATOM     74  C   UNL A   1      41.403  35.840  36.281  1.00  0.00     0.001 A 
ATOM     75  C   UNL A   1      42.097  36.945  35.793  1.00  0.00     0.000 A 
ENDBRANCH  56  70
BRANCH  57  76
ATOM     76  C   UNL A   1      40.491  26.826  28.141  1.00  0.00    -0.014 A 
ATOM     77  C   UNL A   1      39.790  25.681  28.552  1.00  0.00     0.009 A 
ATOM     78  C   UNL A   1      41.035  26.859  26.847  1.00  0.00     0.009 A 
ATOM     79  C   UNL A   1      39.668  24.581  27.698  1.00  0.00     0.001 A 
ATOM     80  C   UNL A   1      40.881  25.772  25.984  1.00  0.00     0.001 A 
ATOM     81  C   UNL A   1      40.208  24.630  26.415  1.00  0.00     0.000 A 
ENDBRANCH  57  76
BRANCH  69  82
ATOM     82  C   UNL A   1      45.306  28.442  32.898  1.00  0.00    -0.014 A 
ATOM     83  C   UNL A   1      46.561  28.654  32.305  1.00  0.00     0.009 A 
ATOM     84  C   UNL A   1      45.207  27.546  33.974  1.00  0.00     0.009 A 
ATOM     85  C   UNL A   1      47.680  27.947  32.749  1.00  0.00     0.001 A 
ATOM     86  C   UNL A   1      46.334  26.869  34.441  1.00  0.00     0.001 A 
ATOM     87  C   UNL A   1      47.567  27.059  33.819  1.00  0.00     0.000 A 
ENDBRANCH  69  82
ENDBRANCH  43  44
ENDBRANCH  35  38
ENDBRANCH  33  34
ENDBRANCH  32  33
ENDBRANCH   1  32
TORSDOF 17
ENDMDL
MODEL 3
REMARK VINA RESULT:     -11.5      2.958      4.267
REMARK SMILES NC(=O)CC[C@H](C(=O)NCCCNC(=O)c1ccc(-c2c3nc(c(-c4ccccc4)c4ccc([nH]4)c(-c4ccccc4)c4nc(c(-c5ccccc5)c5ccc2[nH]5)C=C4)C=C3)cc1)N1C(=O)/C(=C/c2ccc(O)c(O)c2)SC1=S
REMARK SMILES IDX 10 1 9 2 7 3 8 4 6 6 5 7 4 8 2 9 1 10 3 13 64 14 65 15 78 16
REMARK SMILES IDX 66 17 67 18 77 19 79 20 68 21 69 22 70 23 76 24 71 25 74 26
REMARK SMILES IDX 72 27 75 28 73 30 11 32 12 33 13 34 14 35 15 37 16 38 17 39
REMARK SMILES IDX 63 40 18 41 62 42 19 43 20 44 21 45 56 46 22 47 61 48 55 49
REMARK SMILES IDX 57 50 23 51 60 52 54 53 53 54 24 56 46 57 31 58 45 59 32 60
REMARK SMILES IDX 35 61 44 62 58 63 33 64 34 65 43 67 59 68 36 69 25 70 26 71
REMARK SMILES IDX 30 72 27 73 29 74 28 75 47 76 48 77 52 78 49 79 51 80 50 81
REMARK SMILES IDX 37 82 38 83 42 84 39 85 41 86 40 87
REMARK H PARENT 9 5 1 11 1 12 75 29 73 31 13 36 57 55 35 66
REMARK Flexibility Score: inf
ROOT
ATOM      1  C   UNL A   1      31.709  28.439  25.974  1.00  0.00     0.117 C 
ENDROOT
BRANCH   1   2
ATOM      2  N   UNL A   1      32.711  28.271  24.944  1.00  0.00    -0.354 N 
ATOM      3  C   UNL A   1      32.803  27.351  23.943  1.00  0.00     0.243 C 
ATOM      4  O   UNL A   1      33.893  27.261  23.382  1.00  0.00    -0.273 OA
ATOM      5  H   UNL A   1      33.445  28.928  24.970  1.00  0.00     0.163 HD
BRANCH   3   6
ATOM      6  C   UNL A   1      31.593  26.460  23.592  1.00  0.00     0.181 C 
BRANCH   6   7
ATOM      7  C   UNL A   1      30.738  27.059  22.460  1.00  0.00     0.045 C 
BRANCH   7   8
ATOM      8  C   UNL A   1      29.780  28.156  22.946  1.00  0.00     0.102 C 
BRANCH   8   9
ATOM      9  C   UNL A   1      29.765  29.382  22.059  1.00  0.00     0.217 C 
ATOM     10  N   UNL A   1      30.981  29.938  21.801  1.00  0.00    -0.370 N 
ATOM     11  H   UNL A   1      31.046  30.739  21.231  1.00  0.00     0.159 HD
ATOM     12  H   UNL A   1      31.796  29.540  22.185  1.00  0.00     0.159 HD
ATOM     13  O   UNL A   1      28.740  29.860  21.590  1.00  0.00    -0.275 OA
ENDBRANCH   8   9
ENDBRANCH   7   8
ENDBRANCH   6   7
BRANCH   6  14
ATOM     14  N   UNL A   1      32.092  25.095  23.316  1.00  0.00    -0.280 N 
ATOM     15  C   UNL A   1      32.216  24.183  24.355  1.00  0.00     0.266 C 
ATOM     16  C   UNL A   1      32.503  24.641  22.079  1.00  0.00     0.149 C 
ATOM     17  O   UNL A   1      32.118  24.417  25.547  1.00  0.00    -0.268 OA
ATOM     18  C   UNL A   1      32.547  22.833  23.826  1.00  0.00     0.081 C 
ATOM     19  S   UNL A   1      32.747  22.902  22.126  1.00  0.00    -0.054 SA
ATOM     20  S   UNL A   1      32.791  25.511  20.685  1.00  0.00    -0.052 S 
ATOM     21  C   UNL A   1      32.627  21.767  24.635  1.00  0.00     0.029 C 
BRANCH  21  22
ATOM     22  C   UNL A   1      32.927  20.380  24.255  1.00  0.00    -0.020 A 
ATOM     23  C   UNL A   1      34.061  19.758  24.805  1.00  0.00     0.012 A 
ATOM     24  C   UNL A   1      32.154  19.686  23.311  1.00  0.00     0.058 A 
ATOM     25  C   UNL A   1      34.401  18.451  24.447  1.00  0.00     0.051 A 
ATOM     26  C   UNL A   1      32.493  18.382  22.970  1.00  0.00     0.157 A 
ATOM     27  C   UNL A   1      33.609  17.772  23.535  1.00  0.00     0.157 A 
BRANCH  26  28
ATOM     28  O   UNL A   1      31.755  17.656  22.077  1.00  0.00    -0.504 OA
ATOM     29  H   UNL A   1      32.134  16.912  21.649  1.00  0.00     0.293 HD
ENDBRANCH  26  28
BRANCH  27  30
ATOM     30  O   UNL A   1      33.938  16.496  23.184  1.00  0.00    -0.504 OA
ATOM     31  H   UNL A   1      34.305  15.914  23.820  1.00  0.00     0.293 HD
ENDBRANCH  27  30
ENDBRANCH  21  22
ENDBRANCH   6  14
ENDBRANCH   3   6
ENDBRANCH   1   2
BRANCH   1  32
ATOM     32  C   UNL A   1      32.296  28.130  27.347  1.00  0.00     0.042 C 
BRANCH  32  33
ATOM     33  C   UNL A   1      33.719  28.656  27.516  1.00  0.00     0.118 C 
BRANCH  33  34
ATOM     34  N   UNL A   1      33.741  30.067  27.876  1.00  0.00    -0.352 N 
ATOM     35  C   UNL A   1      34.718  30.805  28.487  1.00  0.00     0.251 C 
ATOM     36  H   UNL A   1      32.926  30.567  27.643  1.00  0.00     0.163 HD
ATOM     37  O   UNL A   1      34.453  31.930  28.900  1.00  0.00    -0.269 OA
BRANCH  35  38
ATOM     38  C   UNL A   1      36.078  30.255  28.664  1.00  0.00     0.039 A 
ATOM     39  C   UNL A   1      36.958  30.299  27.581  1.00  0.00     0.014 A 
ATOM     40  C   UNL A   1      36.478  29.668  29.869  1.00  0.00     0.014 A 
ATOM     41  C   UNL A   1      38.252  29.799  27.722  1.00  0.00     0.010 A 
ATOM     42  C   UNL A   1      37.795  29.248  30.034  1.00  0.00     0.010 A 
ATOM     43  C   UNL A   1      38.693  29.302  28.961  1.00  0.00    -0.014 A 
BRANCH  43  44
ATOM     44  C   UNL A   1      40.100  28.861  29.134  1.00  0.00     0.031 A 
ATOM     45  C   UNL A   1      40.529  27.478  28.728  1.00  0.00     0.074 A 
ATOM     46  C   UNL A   1      40.987  29.711  29.687  1.00  0.00     0.049 A 
ATOM     47  N   UNL A   1      41.724  26.942  28.776  1.00  0.00    -0.248 NA
ATOM     48  C   UNL A   1      39.486  26.573  28.223  1.00  0.00     0.031 C 
ATOM     49  C   UNL A   1      40.679  31.059  30.171  1.00  0.00     0.029 A 
ATOM     50  N   UNL A   1      42.330  29.571  29.926  1.00  0.00    -0.354 N 
ATOM     51  C   UNL A   1      41.573  25.640  28.318  1.00  0.00     0.074 A 
ATOM     52  C   UNL A   1      40.165  25.448  28.046  1.00  0.00     0.031 C 
ATOM     53  C   UNL A   1      41.809  31.638  30.607  1.00  0.00     0.029 A 
ATOM     54  C   UNL A   1      42.909  30.689  30.476  1.00  0.00     0.049 A 
ATOM     55  H   UNL A   1      42.832  28.748  29.723  1.00  0.00     0.167 HD
ATOM     56  C   UNL A   1      42.523  24.695  28.122  1.00  0.00     0.031 A 
ATOM     57  C   UNL A   1      44.184  30.927  30.835  1.00  0.00     0.031 A 
ATOM     58  C   UNL A   1      43.924  24.888  28.393  1.00  0.00     0.049 A 
ATOM     59  C   UNL A   1      45.215  29.856  30.616  1.00  0.00     0.074 A 
ATOM     60  C   UNL A   1      44.973  24.014  28.169  1.00  0.00     0.029 A 
ATOM     61  N   UNL A   1      44.469  26.031  28.957  1.00  0.00    -0.354 N 
ATOM     62  N   UNL A   1      45.071  28.662  30.095  1.00  0.00    -0.248 NA
ATOM     63  C   UNL A   1      46.591  30.175  31.022  1.00  0.00     0.031 C 
ATOM     64  C   UNL A   1      46.143  24.601  28.660  1.00  0.00     0.029 A 
ATOM     65  C   UNL A   1      45.836  25.870  29.122  1.00  0.00     0.049 A 
ATOM     66  H   UNL A   1      43.961  26.838  29.204  1.00  0.00     0.167 HD
ATOM     67  C   UNL A   1      46.339  28.096  30.089  1.00  0.00     0.074 A 
ATOM     68  C   UNL A   1      47.243  29.089  30.631  1.00  0.00     0.031 C 
ATOM     69  C   UNL A   1      46.720  26.863  29.676  1.00  0.00     0.031 A 
BRANCH  56  70
ATOM     70  C   UNL A   1      42.079  23.355  27.598  1.00  0.00    -0.014 A 
ATOM     71  C   UNL A   1      41.601  22.355  28.461  1.00  0.00     0.009 A 
ATOM     72  C   UNL A   1      42.090  23.107  26.217  1.00  0.00     0.009 A 
ATOM     73  C   UNL A   1      41.174  21.126  27.953  1.00  0.00     0.001 A 
ATOM     74  C   UNL A   1      41.635  21.889  25.709  1.00  0.00     0.001 A 
ATOM     75  C   UNL A   1      41.185  20.897  26.578  1.00  0.00     0.000 A 
ENDBRANCH  56  70
BRANCH  57  76
ATOM     76  C   UNL A   1      44.559  32.236  31.434  1.00  0.00    -0.014 A 
ATOM     77  C   UNL A   1      44.976  33.302  30.623  1.00  0.00     0.009 A 
ATOM     78  C   UNL A   1      44.514  32.420  32.825  1.00  0.00     0.009 A 
ATOM     79  C   UNL A   1      45.372  34.514  31.195  1.00  0.00     0.001 A 
ATOM     80  C   UNL A   1      44.877  33.644  33.392  1.00  0.00     0.001 A 
ATOM     81  C   UNL A   1      45.317  34.685  32.577  1.00  0.00     0.000 A 
ENDBRANCH  57  76
BRANCH  69  82
ATOM     82  C   UNL A   1      48.185  26.533  29.771  1.00  0.00    -0.014 A 
ATOM     83  C   UNL A   1      49.100  26.980  28.805  1.00  0.00     0.009 A 
ATOM     84  C   UNL A   1      48.659  25.778  30.856  1.00  0.00     0.009 A 
ATOM     85  C   UNL A   1      50.450  26.636  28.898  1.00  0.00     0.001 A 
ATOM     86  C   UNL A   1      50.014  25.468  30.968  1.00  0.00     0.001 A 
ATOM     87  C   UNL A   1      50.907  25.885  29.981  1.00  0.00     0.000 A 
ENDBRANCH  69  82
ENDBRANCH  43  44
ENDBRANCH  35  38
ENDBRANCH  33  34
ENDBRANCH  32  33
ENDBRANCH   1  32
TORSDOF 17
ENDMDL
