MODEL 1
REMARK VINA RESULT:     -13.9      0.000      0.000
REMARK SMILES O=C(Cn1nc(C(=O)NCCCNC(=O)c2ccc(-c3c4nc(c(-c5ccccc5)c5ccc([nH]5)c(-c5ccccc5)c5nc(c(-c6ccccc6)c6ccc3[nH]6)C=C5)C=C4)cc2)c2ccccc2c1=O)Nc1ccc2c(c1)C(=O)c1ccccc1C2=O
REMARK SMILES IDX 10 1 9 2 7 3 8 4 6 6 4 7 5 8 70 9 69 10 71 11 64 12 68 13
REMARK SMILES IDX 65 14 67 15 66 16 3 17 2 18 1 19 72 20 73 22 74 23 78 24
REMARK SMILES IDX 75 25 77 26 76 27 79 28 87 29 80 30 81 31 86 32 88 33 82 34
REMARK SMILES IDX 85 35 83 36 84 37 11 38 12 39 13 40 14 41 15 43 16 44 17 45
REMARK SMILES IDX 63 46 18 47 62 48 19 49 20 50 21 51 56 52 22 53 61 54 55 55
REMARK SMILES IDX 57 56 23 57 60 58 54 59 53 60 24 62 46 63 31 64 45 65 32 66
REMARK SMILES IDX 35 67 44 68 58 69 33 70 34 71 43 73 59 74 36 75 25 76 26 77
REMARK SMILES IDX 30 78 27 79 29 80 28 81 47 82 48 83 52 84 49 85 51 86 50 87
REMARK SMILES IDX 37 88 38 89 42 90 39 91 41 92 40 93
REMARK H PARENT 9 5 72 21 13 42 57 61 35 72
REMARK Flexibility Score: inf
ROOT
ATOM      1  C   UNL A   1      34.489  28.665  26.467  1.00  0.00     0.118 C 
ENDROOT
BRANCH   1   2
ATOM      2  N   UNL A   1      33.503  27.667  26.841  1.00  0.00    -0.351 N 
ATOM      3  C   UNL A   1      32.275  27.338  26.318  1.00  0.00     0.272 C 
ATOM      4  O   UNL A   1      31.613  26.523  26.950  1.00  0.00    -0.267 OA
ATOM      5  H   UNL A   1      33.764  27.120  27.616  1.00  0.00     0.163 HD
BRANCH   3   6
ATOM      6  C   UNL A   1      31.755  27.925  24.985  1.00  0.00     0.156 A 
ATOM      7  N   UNL A   1      31.248  27.580  22.742  1.00  0.00    -0.219 N 
ATOM      8  N   UNL A   1      31.826  27.173  23.923  1.00  0.00    -0.163 NA
ATOM      9  C   UNL A   1      30.467  28.720  22.625  1.00  0.00     0.275 A 
ATOM     10  C   UNL A   1      30.503  29.654  23.762  1.00  0.00     0.051 A 
ATOM     11  O   UNL A   1      29.777  28.970  21.643  1.00  0.00    -0.267 OA
ATOM     12  C   UNL A   1      31.166  29.296  24.936  1.00  0.00     0.020 A 
ATOM     13  C   UNL A   1      29.904  30.917  23.625  1.00  0.00     0.014 A 
ATOM     14  C   UNL A   1      31.254  30.248  25.962  1.00  0.00     0.011 A 
ATOM     15  C   UNL A   1      29.987  31.845  24.659  1.00  0.00     0.001 A 
ATOM     16  C   UNL A   1      30.670  31.513  25.823  1.00  0.00     0.001 A 
BRANCH   7  17
ATOM     17  C   UNL A   1      31.408  26.685  21.586  1.00  0.00     0.248 C 
BRANCH  17  18
ATOM     18  C   UNL A   1      32.288  25.464  21.867  1.00  0.00     0.246 C 
ATOM     19  O   UNL A   1      33.479  25.465  21.557  1.00  0.00    -0.273 OA
ATOM     20  N   UNL A   1      31.604  24.384  22.391  1.00  0.00    -0.324 N 
ATOM     21  H   UNL A   1      30.647  24.311  22.170  1.00  0.00     0.169 HD
BRANCH  20  22
ATOM     22  C   UNL A   1      32.144  23.377  23.212  1.00  0.00     0.042 A 
ATOM     23  C   UNL A   1      32.175  22.021  22.863  1.00  0.00     0.027 A 
ATOM     24  C   UNL A   1      32.864  23.816  24.327  1.00  0.00     0.039 A 
ATOM     25  C   UNL A   1      33.034  21.137  23.523  1.00  0.00     0.015 A 
ATOM     26  C   UNL A   1      33.768  22.948  24.938  1.00  0.00     0.036 A 
ATOM     27  C   UNL A   1      33.889  21.629  24.509  1.00  0.00     0.034 A 
ATOM     28  C   UNL A   1      34.753  23.513  25.888  1.00  0.00     0.194 C 
ATOM     29  C   UNL A   1      35.050  20.828  24.945  1.00  0.00     0.194 C 
ATOM     30  O   UNL A   1      34.512  24.498  26.533  1.00  0.00    -0.289 OA
ATOM     31  C   UNL A   1      36.091  22.878  25.884  1.00  0.00     0.034 A 
ATOM     32  C   UNL A   1      36.239  21.576  25.405  1.00  0.00     0.034 A 
ATOM     33  O   UNL A   1      35.069  19.610  24.823  1.00  0.00    -0.289 OA
ATOM     34  C   UNL A   1      37.206  23.640  26.236  1.00  0.00     0.013 A 
ATOM     35  C   UNL A   1      37.516  21.029  25.255  1.00  0.00     0.013 A 
ATOM     36  C   UNL A   1      38.483  23.102  26.060  1.00  0.00     0.001 A 
ATOM     37  C   UNL A   1      38.635  21.804  25.566  1.00  0.00     0.001 A 
ENDBRANCH  20  22
ENDBRANCH  17  18
ENDBRANCH   7  17
ENDBRANCH   3   6
ENDBRANCH   1   2
BRANCH   1  38
ATOM     38  C   UNL A   1      34.231  30.003  27.157  1.00  0.00     0.042 C 
BRANCH  38  39
ATOM     39  C   UNL A   1      35.470  30.615  27.819  1.00  0.00     0.118 C 
BRANCH  39  40
ATOM     40  N   UNL A   1      35.385  30.642  29.274  1.00  0.00    -0.352 N 
ATOM     41  C   UNL A   1      36.239  30.150  30.229  1.00  0.00     0.251 C 
ATOM     42  H   UNL A   1      34.582  31.087  29.630  1.00  0.00     0.163 HD
ATOM     43  O   UNL A   1      35.890  30.137  31.406  1.00  0.00    -0.269 OA
BRANCH  41  44
ATOM     44  C   UNL A   1      37.568  29.618  29.858  1.00  0.00     0.039 A 
ATOM     45  C   UNL A   1      38.389  28.998  30.802  1.00  0.00     0.014 A 
ATOM     46  C   UNL A   1      37.979  29.700  28.522  1.00  0.00     0.014 A 
ATOM     47  C   UNL A   1      39.671  28.586  30.442  1.00  0.00     0.010 A 
ATOM     48  C   UNL A   1      39.244  29.236  28.150  1.00  0.00     0.010 A 
ATOM     49  C   UNL A   1      40.116  28.714  29.116  1.00  0.00    -0.014 A 
BRANCH  49  50
ATOM     50  C   UNL A   1      41.504  28.319  28.770  1.00  0.00     0.031 A 
ATOM     51  C   UNL A   1      41.812  26.911  28.339  1.00  0.00     0.074 A 
ATOM     52  C   UNL A   1      42.482  29.245  28.777  1.00  0.00     0.049 A 
ATOM     53  N   UNL A   1      42.950  26.407  27.930  1.00  0.00    -0.248 NA
ATOM     54  C   UNL A   1      40.702  25.945  28.367  1.00  0.00     0.031 C 
ATOM     55  C   UNL A   1      42.314  30.647  29.160  1.00  0.00     0.029 A 
ATOM     56  N   UNL A   1      43.802  29.151  28.415  1.00  0.00    -0.354 N 
ATOM     57  C   UNL A   1      42.697  25.067  27.665  1.00  0.00     0.074 A 
ATOM     58  C   UNL A   1      41.304  24.830  27.977  1.00  0.00     0.031 C 
ATOM     59  C   UNL A   1      43.470  31.298  28.954  1.00  0.00     0.029 A 
ATOM     60  C   UNL A   1      44.468  30.351  28.462  1.00  0.00     0.049 A 
ATOM     61  H   UNL A   1      44.231  28.306  28.148  1.00  0.00     0.167 HD
ATOM     62  C   UNL A   1      43.543  24.120  27.196  1.00  0.00     0.031 A 
ATOM     63  C   UNL A   1      45.737  30.662  28.136  1.00  0.00     0.031 A 
ATOM     64  C   UNL A   1      44.924  24.345  26.869  1.00  0.00     0.049 A 
ATOM     65  C   UNL A   1      46.663  29.588  27.646  1.00  0.00     0.074 A 
ATOM     66  C   UNL A   1      45.850  23.443  26.374  1.00  0.00     0.029 A 
ATOM     67  N   UNL A   1      45.575  25.560  27.002  1.00  0.00    -0.354 N 
ATOM     68  N   UNL A   1      46.405  28.326  27.406  1.00  0.00    -0.248 NA
ATOM     69  C   UNL A   1      48.057  29.980  27.394  1.00  0.00     0.031 C 
ATOM     70  C   UNL A   1      47.072  24.107  26.232  1.00  0.00     0.029 A 
ATOM     71  C   UNL A   1      46.897  25.427  26.612  1.00  0.00     0.049 A 
ATOM     72  H   UNL A   1      45.162  26.392  27.324  1.00  0.00     0.167 HD
ATOM     73  C   UNL A   1      47.603  27.772  26.978  1.00  0.00     0.074 A 
ATOM     74  C   UNL A   1      48.585  28.838  26.972  1.00  0.00     0.031 C 
ATOM     75  C   UNL A   1      47.865  26.491  26.626  1.00  0.00     0.031 A 
BRANCH  62  76
ATOM     76  C   UNL A   1      42.996  22.735  27.017  1.00  0.00    -0.014 A 
ATOM     77  C   UNL A   1      43.095  22.101  25.768  1.00  0.00     0.009 A 
ATOM     78  C   UNL A   1      42.337  22.080  28.068  1.00  0.00     0.009 A 
ATOM     79  C   UNL A   1      42.545  20.833  25.576  1.00  0.00     0.001 A 
ATOM     80  C   UNL A   1      41.802  20.805  27.876  1.00  0.00     0.001 A 
ATOM     81  C   UNL A   1      41.904  20.185  26.631  1.00  0.00     0.000 A 
ENDBRANCH  62  76
BRANCH  63  82
ATOM     82  C   UNL A   1      46.196  32.066  28.251  1.00  0.00    -0.014 A 
ATOM     83  C   UNL A   1      46.131  32.932  27.150  1.00  0.00     0.009 A 
ATOM     84  C   UNL A   1      46.737  32.534  29.458  1.00  0.00     0.009 A 
ATOM     85  C   UNL A   1      46.610  34.239  27.250  1.00  0.00     0.001 A 
ATOM     86  C   UNL A   1      47.202  33.846  29.559  1.00  0.00     0.001 A 
ATOM     87  C   UNL A   1      47.143  34.695  28.455  1.00  0.00     0.000 A 
ENDBRANCH  63  82
BRANCH  75  88
ATOM     88  C   UNL A   1      49.268  26.162  26.216  1.00  0.00    -0.014 A 
ATOM     89  C   UNL A   1      50.126  25.504  27.111  1.00  0.00     0.009 A 
ATOM     90  C   UNL A   1      49.759  26.568  24.966  1.00  0.00     0.009 A 
ATOM     91  C   UNL A   1      51.454  25.258  26.759  1.00  0.00     0.001 A 
ATOM     92  C   UNL A   1      51.084  26.308  24.613  1.00  0.00     0.001 A 
ATOM     93  C   UNL A   1      51.930  25.658  25.512  1.00  0.00     0.000 A 
ENDBRANCH  75  88
ENDBRANCH  49  50
ENDBRANCH  41  44
ENDBRANCH  39  40
ENDBRANCH  38  39
ENDBRANCH   1  38
TORSDOF 13
ENDMDL
MODEL 2
REMARK VINA RESULT:     -13.7     10.494     16.552
REMARK SMILES O=C(Cn1nc(C(=O)NCCCNC(=O)c2ccc(-c3c4nc(c(-c5ccccc5)c5ccc([nH]5)c(-c5ccccc5)c5nc(c(-c6ccccc6)c6ccc3[nH]6)C=C5)C=C4)cc2)c2ccccc2c1=O)Nc1ccc2c(c1)C(=O)c1ccccc1C2=O
REMARK SMILES IDX 10 1 9 2 7 3 8 4 6 6 4 7 5 8 70 9 69 10 71 11 64 12 68 13
REMARK SMILES IDX 65 14 67 15 66 16 3 17 2 18 1 19 72 20 73 22 74 23 78 24
REMARK SMILES IDX 75 25 77 26 76 27 79 28 87 29 80 30 81 31 86 32 88 33 82 34
REMARK SMILES IDX 85 35 83 36 84 37 11 38 12 39 13 40 14 41 15 43 16 44 17 45
REMARK SMILES IDX 63 46 18 47 62 48 19 49 20 50 21 51 56 52 22 53 61 54 55 55
REMARK SMILES IDX 57 56 23 57 60 58 54 59 53 60 24 62 46 63 31 64 45 65 32 66
REMARK SMILES IDX 35 67 44 68 58 69 33 70 34 71 43 73 59 74 36 75 25 76 26 77
REMARK SMILES IDX 30 78 27 79 29 80 28 81 47 82 48 83 52 84 49 85 51 86 50 87
REMARK SMILES IDX 37 88 38 89 42 90 39 91 41 92 40 93
REMARK H PARENT 9 5 72 21 13 42 57 61 35 72
REMARK Flexibility Score: inf
ROOT
ATOM      1  C   UNL A   1      46.109  22.092  35.960  1.00  0.00     0.118 C 
ENDROOT
BRANCH   1   2
ATOM      2  N   UNL A   1      45.562  20.751  35.855  1.00  0.00    -0.351 N 
ATOM      3  C   UNL A   1      45.821  19.590  36.543  1.00  0.00     0.272 C 
ATOM      4  O   UNL A   1      45.279  18.574  36.124  1.00  0.00    -0.267 OA
ATOM      5  H   UNL A   1      44.872  20.656  35.160  1.00  0.00     0.163 HD
BRANCH   3   6
ATOM      6  C   UNL A   1      46.716  19.553  37.805  1.00  0.00     0.156 A 
ATOM      7  N   UNL A   1      46.869  19.263  40.107  1.00  0.00    -0.219 N 
ATOM      8  N   UNL A   1      46.126  19.449  38.962  1.00  0.00    -0.163 NA
ATOM      9  C   UNL A   1      48.239  19.055  40.104  1.00  0.00     0.275 A 
ATOM     10  C   UNL A   1      48.937  19.321  38.835  1.00  0.00     0.051 A 
ATOM     11  O   UNL A   1      48.868  18.675  41.086  1.00  0.00    -0.267 OA
ATOM     12  C   UNL A   1      48.203  19.603  37.684  1.00  0.00     0.020 A 
ATOM     13  C   UNL A   1      50.342  19.330  38.819  1.00  0.00     0.014 A 
ATOM     14  C   UNL A   1      48.905  19.939  36.518  1.00  0.00     0.011 A 
ATOM     15  C   UNL A   1      51.024  19.650  37.650  1.00  0.00     0.001 A 
ATOM     16  C   UNL A   1      50.305  19.963  36.502  1.00  0.00     0.001 A 
BRANCH   7  17
ATOM     17  C   UNL A   1      46.123  19.192  41.372  1.00  0.00     0.248 C 
BRANCH  17  18
ATOM     18  C   UNL A   1      45.522  17.814  41.659  1.00  0.00     0.246 C 
ATOM     19  O   UNL A   1      45.890  17.159  42.634  1.00  0.00    -0.273 OA
ATOM     20  N   UNL A   1      44.638  17.372  40.693  1.00  0.00    -0.324 N 
ATOM     21  H   UNL A   1      44.763  17.719  39.780  1.00  0.00     0.169 HD
BRANCH  20  22
ATOM     22  C   UNL A   1      43.573  16.473  40.890  1.00  0.00     0.042 A 
ATOM     23  C   UNL A   1      42.926  15.795  39.850  1.00  0.00     0.027 A 
ATOM     24  C   UNL A   1      43.318  16.106  42.214  1.00  0.00     0.039 A 
ATOM     25  C   UNL A   1      42.149  14.663  40.116  1.00  0.00     0.015 A 
ATOM     26  C   UNL A   1      42.601  14.938  42.470  1.00  0.00     0.036 A 
ATOM     27  C   UNL A   1      42.060  14.193  41.426  1.00  0.00     0.034 A 
ATOM     28  C   UNL A   1      42.622  14.386  43.844  1.00  0.00     0.194 C 
ATOM     29  C   UNL A   1      41.584  12.819  41.686  1.00  0.00     0.194 C 
ATOM     30  O   UNL A   1      42.758  15.094  44.804  1.00  0.00    -0.289 OA
ATOM     31  C   UNL A   1      42.612  12.909  43.944  1.00  0.00     0.034 A 
ATOM     32  C   UNL A   1      42.125  12.144  42.885  1.00  0.00     0.034 A 
ATOM     33  O   UNL A   1      40.868  12.228  40.888  1.00  0.00    -0.289 OA
ATOM     34  C   UNL A   1      43.214  12.298  45.046  1.00  0.00     0.013 A 
ATOM     35  C   UNL A   1      42.254  10.753  42.910  1.00  0.00     0.013 A 
ATOM     36  C   UNL A   1      43.368  10.911  45.059  1.00  0.00     0.001 A 
ATOM     37  C   UNL A   1      42.894  10.143  43.991  1.00  0.00     0.001 A 
ENDBRANCH  20  22
ENDBRANCH  17  18
ENDBRANCH   7  17
ENDBRANCH   3   6
ENDBRANCH   1   2
BRANCH   1  38
ATOM     38  C   UNL A   1      46.957  22.456  34.742  1.00  0.00     0.042 C 
BRANCH  38  39
ATOM     39  C   UNL A   1      47.321  23.941  34.654  1.00  0.00     0.118 C 
BRANCH  39  40
ATOM     40  N   UNL A   1      47.344  24.601  35.953  1.00  0.00    -0.352 N 
ATOM     41  C   UNL A   1      46.712  25.739  36.389  1.00  0.00     0.251 C 
ATOM     42  H   UNL A   1      47.905  24.158  36.629  1.00  0.00     0.163 HD
ATOM     43  O   UNL A   1      47.003  26.213  37.483  1.00  0.00    -0.269 OA
BRANCH  41  44
ATOM     44  C   UNL A   1      45.698  26.415  35.549  1.00  0.00     0.039 A 
ATOM     45  C   UNL A   1      46.031  27.517  34.759  1.00  0.00     0.014 A 
ATOM     46  C   UNL A   1      44.397  25.900  35.519  1.00  0.00     0.014 A 
ATOM     47  C   UNL A   1      45.035  28.185  34.048  1.00  0.00     0.010 A 
ATOM     48  C   UNL A   1      43.410  26.539  34.761  1.00  0.00     0.010 A 
ATOM     49  C   UNL A   1      43.713  27.711  34.053  1.00  0.00    -0.014 A 
BRANCH  49  50
ATOM     50  C   UNL A   1      42.661  28.471  33.333  1.00  0.00     0.031 A 
ATOM     51  C   UNL A   1      42.343  28.161  31.897  1.00  0.00     0.074 A 
ATOM     52  C   UNL A   1      41.941  29.399  33.993  1.00  0.00     0.049 A 
ATOM     53  N   UNL A   1      41.409  28.670  31.133  1.00  0.00    -0.248 NA
ATOM     54  C   UNL A   1      43.177  27.147  31.231  1.00  0.00     0.031 C 
ATOM     55  C   UNL A   1      42.138  29.785  35.390  1.00  0.00     0.029 A 
ATOM     56  N   UNL A   1      40.873  30.157  33.581  1.00  0.00    -0.354 N 
ATOM     57  C   UNL A   1      41.550  28.051  29.897  1.00  0.00     0.074 A 
ATOM     58  C   UNL A   1      42.671  27.142  30.006  1.00  0.00     0.031 C 
ATOM     59  C   UNL A   1      41.183  30.662  35.740  1.00  0.00     0.029 A 
ATOM     60  C   UNL A   1      40.333  30.927  34.582  1.00  0.00     0.049 A 
ATOM     61  H   UNL A   1      40.529  30.151  32.659  1.00  0.00     0.167 HD
ATOM     62  C   UNL A   1      40.810  28.216  28.776  1.00  0.00     0.031 A 
ATOM     63  C   UNL A   1      39.266  31.748  34.575  1.00  0.00     0.031 A 
ATOM     64  C   UNL A   1      39.687  29.104  28.659  1.00  0.00     0.049 A 
ATOM     65  C   UNL A   1      38.479  31.935  33.311  1.00  0.00     0.074 A 
ATOM     66  C   UNL A   1      38.871  29.322  27.562  1.00  0.00     0.029 A 
ATOM     67  N   UNL A   1      39.220  29.919  29.676  1.00  0.00    -0.354 N 
ATOM     68  N   UNL A   1      38.631  31.343  32.153  1.00  0.00    -0.248 NA
ATOM     69  C   UNL A   1      37.382  32.913  33.353  1.00  0.00     0.031 C 
ATOM     70  C   UNL A   1      37.925  30.292  27.908  1.00  0.00     0.029 A 
ATOM     71  C   UNL A   1      38.136  30.654  29.228  1.00  0.00     0.049 A 
ATOM     72  H   UNL A   1      39.601  29.969  30.582  1.00  0.00     0.167 HD
ATOM     73  C   UNL A   1      37.653  31.877  31.326  1.00  0.00     0.074 A 
ATOM     74  C   UNL A   1      36.900  32.827  32.120  1.00  0.00     0.031 C 
ATOM     75  C   UNL A   1      37.407  31.605  30.023  1.00  0.00     0.031 A 
BRANCH  62  76
ATOM     76  C   UNL A   1      41.202  27.418  27.569  1.00  0.00    -0.014 A 
ATOM     77  C   UNL A   1      40.745  26.098  27.424  1.00  0.00     0.009 A 
ATOM     78  C   UNL A   1      42.066  27.954  26.601  1.00  0.00     0.009 A 
ATOM     79  C   UNL A   1      41.144  25.330  26.330  1.00  0.00     0.001 A 
ATOM     80  C   UNL A   1      42.450  27.187  25.500  1.00  0.00     0.001 A 
ATOM     81  C   UNL A   1      41.992  25.876  25.367  1.00  0.00     0.000 A 
ENDBRANCH  62  76
BRANCH  63  82
ATOM     82  C   UNL A   1      38.873  32.443  35.823  1.00  0.00    -0.014 A 
ATOM     83  C   UNL A   1      38.059  31.806  36.771  1.00  0.00     0.009 A 
ATOM     84  C   UNL A   1      39.285  33.765  36.053  1.00  0.00     0.009 A 
ATOM     85  C   UNL A   1      37.653  32.483  37.922  1.00  0.00     0.001 A 
ATOM     86  C   UNL A   1      38.888  34.434  37.212  1.00  0.00     0.001 A 
ATOM     87  C   UNL A   1      38.069  33.795  38.142  1.00  0.00     0.000 A 
ENDBRANCH  63  82
BRANCH  75  88
ATOM     88  C   UNL A   1      36.286  32.351  29.364  1.00  0.00    -0.014 A 
ATOM     89  C   UNL A   1      36.479  33.671  28.930  1.00  0.00     0.009 A 
ATOM     90  C   UNL A   1      35.018  31.764  29.237  1.00  0.00     0.009 A 
ATOM     91  C   UNL A   1      35.419  34.393  28.380  1.00  0.00     0.001 A 
ATOM     92  C   UNL A   1      33.964  32.484  28.673  1.00  0.00     0.001 A 
ATOM     93  C   UNL A   1      34.164  33.799  28.250  1.00  0.00     0.000 A 
ENDBRANCH  75  88
ENDBRANCH  49  50
ENDBRANCH  41  44
ENDBRANCH  39  40
ENDBRANCH  38  39
ENDBRANCH   1  38
TORSDOF 13
ENDMDL
MODEL 3
REMARK VINA RESULT:     -13.3     10.506     17.023
REMARK SMILES O=C(Cn1nc(C(=O)NCCCNC(=O)c2ccc(-c3c4nc(c(-c5ccccc5)c5ccc([nH]5)c(-c5ccccc5)c5nc(c(-c6ccccc6)c6ccc3[nH]6)C=C5)C=C4)cc2)c2ccccc2c1=O)Nc1ccc2c(c1)C(=O)c1ccccc1C2=O
REMARK SMILES IDX 10 1 9 2 7 3 8 4 6 6 4 7 5 8 70 9 69 10 71 11 64 12 68 13
REMARK SMILES IDX 65 14 67 15 66 16 3 17 2 18 1 19 72 20 73 22 74 23 78 24
REMARK SMILES IDX 75 25 77 26 76 27 79 28 87 29 80 30 81 31 86 32 88 33 82 34
REMARK SMILES IDX 85 35 83 36 84 37 11 38 12 39 13 40 14 41 15 43 16 44 17 45
REMARK SMILES IDX 63 46 18 47 62 48 19 49 20 50 21 51 56 52 22 53 61 54 55 55
REMARK SMILES IDX 57 56 23 57 60 58 54 59 53 60 24 62 46 63 31 64 45 65 32 66
REMARK SMILES IDX 35 67 44 68 58 69 33 70 34 71 43 73 59 74 36 75 25 76 26 77
REMARK SMILES IDX 30 78 27 79 29 80 28 81 47 82 48 83 52 84 49 85 51 86 50 87
REMARK SMILES IDX 37 88 38 89 42 90 39 91 41 92 40 93
REMARK H PARENT 9 5 72 21 13 42 57 61 35 72
REMARK Flexibility Score: inf
ROOT
ATOM      1  C   UNL A   1      46.130  22.593  36.430  1.00  0.00     0.118 C 
ENDROOT
BRANCH   1   2
ATOM      2  N   UNL A   1      45.629  21.280  36.063  1.00  0.00    -0.351 N 
ATOM      3  C   UNL A   1      46.001  20.011  36.436  1.00  0.00     0.272 C 
ATOM      4  O   UNL A   1      45.461  19.086  35.840  1.00  0.00    -0.267 OA
ATOM      5  H   UNL A   1      44.878  21.305  35.428  1.00  0.00     0.163 HD
BRANCH   3   6
ATOM      6  C   UNL A   1      47.017  19.742  37.572  1.00  0.00     0.156 A 
ATOM      7  N   UNL A   1      47.403  18.972  39.732  1.00  0.00    -0.219 N 
ATOM      8  N   UNL A   1      46.547  19.367  38.728  1.00  0.00    -0.163 NA
ATOM      9  C   UNL A   1      48.770  18.827  39.558  1.00  0.00     0.275 A 
ATOM     10  C   UNL A   1      49.333  19.388  38.319  1.00  0.00     0.051 A 
ATOM     11  O   UNL A   1      49.501  18.272  40.372  1.00  0.00    -0.267 OA
ATOM     12  C   UNL A   1      48.483  19.880  37.329  1.00  0.00     0.020 A 
ATOM     13  C   UNL A   1      50.729  19.460  38.176  1.00  0.00     0.014 A 
ATOM     14  C   UNL A   1      49.060  20.488  36.204  1.00  0.00     0.011 A 
ATOM     15  C   UNL A   1      51.286  20.052  37.047  1.00  0.00     0.001 A 
ATOM     16  C   UNL A   1      50.450  20.573  36.065  1.00  0.00     0.001 A 
BRANCH   7  17
ATOM     17  C   UNL A   1      46.787  18.599  41.015  1.00  0.00     0.248 C 
BRANCH  17  18
ATOM     18  C   UNL A   1      46.048  17.259  40.980  1.00  0.00     0.246 C 
ATOM     19  O   UNL A   1      46.594  16.231  41.379  1.00  0.00    -0.273 OA
ATOM     20  N   UNL A   1      44.801  17.318  40.387  1.00  0.00    -0.324 N 
ATOM     21  H   UNL A   1      44.659  18.022  39.713  1.00  0.00     0.169 HD
BRANCH  20  22
ATOM     22  C   UNL A   1      43.713  16.466  40.654  1.00  0.00     0.042 A 
ATOM     23  C   UNL A   1      42.980  15.805  39.661  1.00  0.00     0.027 A 
ATOM     24  C   UNL A   1      43.519  16.124  41.995  1.00  0.00     0.039 A 
ATOM     25  C   UNL A   1      42.174  14.709  39.985  1.00  0.00     0.015 A 
ATOM     26  C   UNL A   1      42.769  14.990  42.306  1.00  0.00     0.036 A 
ATOM     27  C   UNL A   1      42.139  14.257  41.304  1.00  0.00     0.034 A 
ATOM     28  C   UNL A   1      42.845  14.452  43.683  1.00  0.00     0.194 C 
ATOM     29  C   UNL A   1      41.623  12.908  41.607  1.00  0.00     0.194 C 
ATOM     30  O   UNL A   1      43.065  15.163  44.626  1.00  0.00    -0.289 OA
ATOM     31  C   UNL A   1      42.780  12.977  43.803  1.00  0.00     0.034 A 
ATOM     32  C   UNL A   1      42.202  12.223  42.782  1.00  0.00     0.034 A 
ATOM     33  O   UNL A   1      40.838  12.339  40.858  1.00  0.00    -0.289 OA
ATOM     34  C   UNL A   1      43.417  12.353  44.877  1.00  0.00     0.013 A 
ATOM     35  C   UNL A   1      42.275  10.828  42.818  1.00  0.00     0.013 A 
ATOM     36  C   UNL A   1      43.514  10.961  44.898  1.00  0.00     0.001 A 
ATOM     37  C   UNL A   1      42.949  10.203  43.869  1.00  0.00     0.001 A 
ENDBRANCH  20  22
ENDBRANCH  17  18
ENDBRANCH   7  17
ENDBRANCH   3   6
ENDBRANCH   1   2
BRANCH   1  38
ATOM     38  C   UNL A   1      45.525  23.086  37.743  1.00  0.00     0.042 C 
BRANCH  38  39
ATOM     39  C   UNL A   1      45.280  24.597  37.792  1.00  0.00     0.118 C 
BRANCH  39  40
ATOM     40  N   UNL A   1      46.476  25.379  37.509  1.00  0.00    -0.352 N 
ATOM     41  C   UNL A   1      46.706  26.354  36.571  1.00  0.00     0.251 C 
ATOM     42  H   UNL A   1      47.248  25.174  38.085  1.00  0.00     0.163 HD
ATOM     43  O   UNL A   1      47.847  26.771  36.395  1.00  0.00    -0.269 OA
BRANCH  41  44
ATOM     44  C   UNL A   1      45.599  26.898  35.754  1.00  0.00     0.039 A 
ATOM     45  C   UNL A   1      45.727  28.114  35.080  1.00  0.00     0.014 A 
ATOM     46  C   UNL A   1      44.425  26.147  35.623  1.00  0.00     0.014 A 
ATOM     47  C   UNL A   1      44.636  28.643  34.391  1.00  0.00     0.010 A 
ATOM     48  C   UNL A   1      43.350  26.653  34.886  1.00  0.00     0.010 A 
ATOM     49  C   UNL A   1      43.433  27.924  34.299  1.00  0.00    -0.014 A 
BRANCH  49  50
ATOM     50  C   UNL A   1      42.269  28.532  33.607  1.00  0.00     0.031 A 
ATOM     51  C   UNL A   1      41.395  29.529  34.316  1.00  0.00     0.074 A 
ATOM     52  C   UNL A   1      42.035  28.238  32.314  1.00  0.00     0.049 A 
ATOM     53  N   UNL A   1      40.383  30.215  33.847  1.00  0.00    -0.248 NA
ATOM     54  C   UNL A   1      41.697  29.795  35.732  1.00  0.00     0.031 C 
ATOM     55  C   UNL A   1      42.815  27.299  31.507  1.00  0.00     0.029 A 
ATOM     56  N   UNL A   1      41.095  28.730  31.443  1.00  0.00    -0.354 N 
ATOM     57  C   UNL A   1      39.919  30.981  34.909  1.00  0.00     0.074 A 
ATOM     58  C   UNL A   1      40.748  30.664  36.053  1.00  0.00     0.031 C 
ATOM     59  C   UNL A   1      42.362  27.328  30.243  1.00  0.00     0.029 A 
ATOM     60  C   UNL A   1      41.238  28.258  30.162  1.00  0.00     0.049 A 
ATOM     61  H   UNL A   1      40.387  29.359  31.711  1.00  0.00     0.167 HD
ATOM     62  C   UNL A   1      38.904  31.876  34.931  1.00  0.00     0.031 A 
ATOM     63  C   UNL A   1      40.550  28.546  29.041  1.00  0.00     0.031 A 
ATOM     64  C   UNL A   1      38.083  32.210  33.800  1.00  0.00     0.049 A 
ATOM     65  C   UNL A   1      39.409  29.519  29.098  1.00  0.00     0.074 A 
ATOM     66  C   UNL A   1      37.040  33.118  33.731  1.00  0.00     0.029 A 
ATOM     67  N   UNL A   1      38.216  31.654  32.539  1.00  0.00    -0.354 N 
ATOM     68  N   UNL A   1      38.985  30.230  30.113  1.00  0.00    -0.248 NA
ATOM     69  C   UNL A   1      38.647  29.719  27.856  1.00  0.00     0.031 C 
ATOM     70  C   UNL A   1      36.522  33.090  32.432  1.00  0.00     0.029 A 
ATOM     71  C   UNL A   1      37.263  32.187  31.688  1.00  0.00     0.049 A 
ATOM     72  H   UNL A   1      38.887  30.980  32.286  1.00  0.00     0.167 HD
ATOM     73  C   UNL A   1      37.905  30.959  29.636  1.00  0.00     0.074 A 
ATOM     74  C   UNL A   1      37.750  30.620  28.236  1.00  0.00     0.031 C 
ATOM     75  C   UNL A   1      37.111  31.829  30.304  1.00  0.00     0.031 A 
BRANCH  62  76
ATOM     76  C   UNL A   1      38.611  32.554  36.235  1.00  0.00    -0.014 A 
ATOM     77  C   UNL A   1      39.214  33.787  36.532  1.00  0.00     0.009 A 
ATOM     78  C   UNL A   1      37.782  31.950  37.192  1.00  0.00     0.009 A 
ATOM     79  C   UNL A   1      38.989  34.404  37.763  1.00  0.00     0.001 A 
ATOM     80  C   UNL A   1      37.547  32.577  38.416  1.00  0.00     0.001 A 
ATOM     81  C   UNL A   1      38.152  33.800  38.702  1.00  0.00     0.000 A 
ENDBRANCH  62  76
BRANCH  63  82
ATOM     82  C   UNL A   1      40.941  27.909  27.761  1.00  0.00    -0.014 A 
ATOM     83  C   UNL A   1      40.531  26.602  27.460  1.00  0.00     0.009 A 
ATOM     84  C   UNL A   1      41.757  28.598  26.851  1.00  0.00     0.009 A 
ATOM     85  C   UNL A   1      40.942  25.989  26.274  1.00  0.00     0.001 A 
ATOM     86  C   UNL A   1      42.154  27.987  25.660  1.00  0.00     0.001 A 
ATOM     87  C   UNL A   1      41.751  26.683  25.375  1.00  0.00     0.000 A 
ENDBRANCH  63  82
BRANCH  75  88
ATOM     88  C   UNL A   1      35.993  32.469  29.537  1.00  0.00    -0.014 A 
ATOM     89  C   UNL A   1      34.777  31.789  29.368  1.00  0.00     0.009 A 
ATOM     90  C   UNL A   1      36.173  33.718  28.925  1.00  0.00     0.009 A 
ATOM     91  C   UNL A   1      33.759  32.351  28.597  1.00  0.00     0.001 A 
ATOM     92  C   UNL A   1      35.147  34.283  28.166  1.00  0.00     0.001 A 
ATOM     93  C   UNL A   1      33.943  33.596  27.999  1.00  0.00     0.000 A 
ENDBRANCH  75  88
ENDBRANCH  49  50
ENDBRANCH  41  44
ENDBRANCH  39  40
ENDBRANCH  38  39
ENDBRANCH   1  38
TORSDOF 13
ENDMDL
