MODEL 1
REMARK VINA RESULT:     -10.1      0.000      0.000
REMARK SMILES CC(C)Cc1cc(C(=O)N[C@@H](CO)C(=O)NCCCNC(=O)c2ccc(-c3c4nc(c(-c5ccccc5)c5ccc([nH]5)c(-c5ccccc5)c5nc(c(-c6ccccc6)c6ccc3[nH]6)C=C5)C=C4)cc2)n(C)n1
REMARK SMILES IDX 17 1 16 2 14 3 15 4 11 6 10 7 8 8 9 9 7 11 5 12 6 13 73 14
REMARK SMILES IDX 71 15 72 16 4 17 2 18 1 19 3 20 12 21 13 22 18 24 19 25
REMARK SMILES IDX 20 26 21 27 22 29 23 30 24 31 70 32 25 33 69 34 26 35 27 36
REMARK SMILES IDX 28 37 63 38 29 39 68 40 62 41 64 42 30 43 67 44 61 45 60 46
REMARK SMILES IDX 31 48 53 49 38 50 52 51 39 52 42 53 51 54 65 55 40 56 41 57
REMARK SMILES IDX 50 59 66 60 43 61 32 62 33 63 37 64 34 65 36 66 35 67 54 68
REMARK SMILES IDX 55 69 59 70 56 71 58 72 57 73 44 74 45 75 49 76 46 77 48 78
REMARK SMILES IDX 47 79
REMARK H PARENT 16 5 10 10 13 23 20 28 64 47 42 58
REMARK Flexibility Score: inf
ROOT
ATOM      1  C   UNL A   1      31.899  26.938  26.223  1.00  0.00     0.117 C 
ENDROOT
BRANCH   1   2
ATOM      2  N   UNL A   1      30.779  26.838  25.312  1.00  0.00    -0.354 N 
ATOM      3  C   UNL A   1      30.639  27.231  24.026  1.00  0.00     0.244 C 
ATOM      4  O   UNL A   1      29.564  26.960  23.476  1.00  0.00    -0.273 OA
ATOM      5  H   UNL A   1      29.979  26.408  25.695  1.00  0.00     0.163 HD
BRANCH   3   6
ATOM      6  C   UNL A   1      31.757  27.912  23.227  1.00  0.00     0.197 C 
BRANCH   6   7
ATOM      7  N   UNL A   1      32.307  27.150  22.122  1.00  0.00    -0.337 N 
ATOM      8  C   UNL A   1      32.921  25.933  22.027  1.00  0.00     0.270 C 
ATOM      9  O   UNL A   1      33.176  25.628  20.856  1.00  0.00    -0.268 OA
ATOM     10  H   UNL A   1      32.219  27.608  21.255  1.00  0.00     0.164 HD
BRANCH   8  11
ATOM     11  C   UNL A   1      33.232  25.009  23.111  1.00  0.00     0.126 A 
ATOM     12  C   UNL A   1      34.456  24.086  24.765  1.00  0.00     0.064 A 
ATOM     13  C   UNL A   1      34.430  25.124  23.827  1.00  0.00     0.059 A 
ATOM     14  N   UNL A   1      33.331  23.385  24.717  1.00  0.00    -0.178 NA
ATOM     15  N   UNL A   1      32.607  23.945  23.732  1.00  0.00    -0.263 N 
ATOM     16  C   UNL A   1      31.315  23.333  23.575  1.00  0.00     0.174 C 
BRANCH  12  17
ATOM     17  C   UNL A   1      35.535  23.669  25.703  1.00  0.00     0.061 C 
BRANCH  17  18
ATOM     18  C   UNL A   1      36.870  23.439  24.965  1.00  0.00    -0.011 C 
ATOM     19  C   UNL A   1      38.006  23.138  25.948  1.00  0.00     0.008 C 
ATOM     20  C   UNL A   1      36.732  22.311  23.947  1.00  0.00     0.008 C 
ENDBRANCH  17  18
ENDBRANCH  12  17
ENDBRANCH   8  11
ENDBRANCH   6   7
BRANCH   6  21
ATOM     21  C   UNL A   1      31.402  29.355  22.828  1.00  0.00     0.191 C 
BRANCH  21  22
ATOM     22  O   UNL A   1      30.228  29.864  23.454  1.00  0.00    -0.394 OA
ATOM     23  H   UNL A   1      29.475  29.777  22.849  1.00  0.00     0.210 HD
ENDBRANCH  21  22
ENDBRANCH   6  21
ENDBRANCH   3   6
ENDBRANCH   1   2
BRANCH   1  24
ATOM     24  C   UNL A   1      31.933  28.283  26.921  1.00  0.00     0.042 C 
BRANCH  24  25
ATOM     25  C   UNL A   1      33.328  28.727  27.328  1.00  0.00     0.118 C 
BRANCH  25  26
ATOM     26  N   UNL A   1      33.401  30.148  27.646  1.00  0.00    -0.352 N 
ATOM     27  C   UNL A   1      34.422  30.862  28.223  1.00  0.00     0.251 C 
ATOM     28  H   UNL A   1      32.601  30.672  27.413  1.00  0.00     0.163 HD
ATOM     29  O   UNL A   1      34.240  32.019  28.592  1.00  0.00    -0.269 OA
BRANCH  27  30
ATOM     30  C   UNL A   1      35.733  30.217  28.423  1.00  0.00     0.039 A 
ATOM     31  C   UNL A   1      36.677  30.253  27.395  1.00  0.00     0.014 A 
ATOM     32  C   UNL A   1      36.041  29.614  29.644  1.00  0.00     0.014 A 
ATOM     33  C   UNL A   1      37.959  29.752  27.626  1.00  0.00     0.010 A 
ATOM     34  C   UNL A   1      37.346  29.230  29.910  1.00  0.00     0.010 A 
ATOM     35  C   UNL A   1      38.316  29.278  28.898  1.00  0.00    -0.014 A 
BRANCH  35  36
ATOM     36  C   UNL A   1      39.688  28.800  29.195  1.00  0.00     0.031 A 
ATOM     37  C   UNL A   1      40.662  29.713  29.890  1.00  0.00     0.074 A 
ATOM     38  C   UNL A   1      40.080  27.582  28.775  1.00  0.00     0.049 A 
ATOM     39  N   UNL A   1      41.925  29.514  30.171  1.00  0.00    -0.248 NA
ATOM     40  C   UNL A   1      40.163  31.041  30.287  1.00  0.00     0.031 C 
ATOM     41  C   UNL A   1      39.246  26.625  28.042  1.00  0.00     0.029 A 
ATOM     42  N   UNL A   1      41.286  26.942  28.901  1.00  0.00    -0.354 N 
ATOM     43  C   UNL A   1      42.371  30.695  30.750  1.00  0.00     0.074 A 
ATOM     44  C   UNL A   1      41.267  31.627  30.722  1.00  0.00     0.031 C 
ATOM     45  C   UNL A   1      39.955  25.507  27.816  1.00  0.00     0.029 A 
ATOM     46  C   UNL A   1      41.302  25.684  28.348  1.00  0.00     0.049 A 
ATOM     47  H   UNL A   1      42.066  27.344  29.344  1.00  0.00     0.167 HD
ATOM     48  C   UNL A   1      43.584  30.973  31.282  1.00  0.00     0.031 A 
ATOM     49  C   UNL A   1      42.293  24.776  28.275  1.00  0.00     0.031 A 
ATOM     50  C   UNL A   1      44.672  30.036  31.332  1.00  0.00     0.049 A 
ATOM     51  C   UNL A   1      43.630  25.105  28.879  1.00  0.00     0.074 A 
ATOM     52  C   UNL A   1      45.918  30.192  31.911  1.00  0.00     0.029 A 
ATOM     53  N   UNL A   1      44.640  28.765  30.779  1.00  0.00    -0.354 N 
ATOM     54  N   UNL A   1      44.013  26.198  29.493  1.00  0.00    -0.248 NA
ATOM     55  C   UNL A   1      44.667  24.067  28.792  1.00  0.00     0.031 C 
ATOM     56  C   UNL A   1      46.660  29.033  31.663  1.00  0.00     0.029 A 
ATOM     57  C   UNL A   1      45.854  28.134  30.982  1.00  0.00     0.049 A 
ATOM     58  H   UNL A   1      43.869  28.370  30.312  1.00  0.00     0.167 HD
ATOM     59  C   UNL A   1      45.324  25.970  29.888  1.00  0.00     0.074 A 
ATOM     60  C   UNL A   1      45.664  24.628  29.460  1.00  0.00     0.031 C 
ATOM     61  C   UNL A   1      46.172  26.798  30.548  1.00  0.00     0.031 A 
BRANCH  48  62
ATOM     62  C   UNL A   1      43.790  32.351  31.849  1.00  0.00    -0.014 A 
ATOM     63  C   UNL A   1      43.514  32.635  33.196  1.00  0.00     0.009 A 
ATOM     64  C   UNL A   1      44.286  33.375  31.028  1.00  0.00     0.009 A 
ATOM     65  C   UNL A   1      43.688  33.926  33.698  1.00  0.00     0.001 A 
ATOM     66  C   UNL A   1      44.492  34.658  31.541  1.00  0.00     0.001 A 
ATOM     67  C   UNL A   1      44.182  34.935  32.872  1.00  0.00     0.000 A 
ENDBRANCH  48  62
BRANCH  49  68
ATOM     68  C   UNL A   1      42.053  23.460  27.625  1.00  0.00    -0.014 A 
ATOM     69  C   UNL A   1      42.437  23.244  26.292  1.00  0.00     0.009 A 
ATOM     70  C   UNL A   1      41.441  22.414  28.331  1.00  0.00     0.009 A 
ATOM     71  C   UNL A   1      42.187  22.018  25.673  1.00  0.00     0.001 A 
ATOM     72  C   UNL A   1      41.218  21.178  27.718  1.00  0.00     0.001 A 
ATOM     73  C   UNL A   1      41.583  20.985  26.387  1.00  0.00     0.000 A 
ENDBRANCH  49  68
BRANCH  61  74
ATOM     74  C   UNL A   1      47.536  26.262  30.877  1.00  0.00    -0.014 A 
ATOM     75  C   UNL A   1      48.584  26.312  29.947  1.00  0.00     0.009 A 
ATOM     76  C   UNL A   1      47.785  25.741  32.158  1.00  0.00     0.009 A 
ATOM     77  C   UNL A   1      49.847  25.818  30.282  1.00  0.00     0.001 A 
ATOM     78  C   UNL A   1      49.055  25.279  32.500  1.00  0.00     0.001 A 
ATOM     79  C   UNL A   1      50.083  25.309  31.559  1.00  0.00     0.000 A 
ENDBRANCH  61  74
ENDBRANCH  35  36
ENDBRANCH  27  30
ENDBRANCH  25  26
ENDBRANCH  24  25
ENDBRANCH   1  24
TORSDOF 16
ENDMDL
MODEL 2
REMARK VINA RESULT:     -10.0      3.049      7.738
REMARK SMILES CC(C)Cc1cc(C(=O)N[C@@H](CO)C(=O)NCCCNC(=O)c2ccc(-c3c4nc(c(-c5ccccc5)c5ccc([nH]5)c(-c5ccccc5)c5nc(c(-c6ccccc6)c6ccc3[nH]6)C=C5)C=C4)cc2)n(C)n1
REMARK SMILES IDX 17 1 16 2 14 3 15 4 11 6 10 7 8 8 9 9 7 11 5 12 6 13 73 14
REMARK SMILES IDX 71 15 72 16 4 17 2 18 1 19 3 20 12 21 13 22 18 24 19 25
REMARK SMILES IDX 20 26 21 27 22 29 23 30 24 31 70 32 25 33 69 34 26 35 27 36
REMARK SMILES IDX 28 37 63 38 29 39 68 40 62 41 64 42 30 43 67 44 61 45 60 46
REMARK SMILES IDX 31 48 53 49 38 50 52 51 39 52 42 53 51 54 65 55 40 56 41 57
REMARK SMILES IDX 50 59 66 60 43 61 32 62 33 63 37 64 34 65 36 66 35 67 54 68
REMARK SMILES IDX 55 69 59 70 56 71 58 72 57 73 44 74 45 75 49 76 46 77 48 78
REMARK SMILES IDX 47 79
REMARK H PARENT 16 5 10 10 13 23 20 28 64 47 42 58
REMARK Flexibility Score: inf
ROOT
ATOM      1  C   UNL A   1      36.440  20.581  25.175  1.00  0.00     0.117 C 
ENDROOT
BRANCH   1   2
ATOM      2  N   UNL A   1      36.631  21.963  25.560  1.00  0.00    -0.354 N 
ATOM      3  C   UNL A   1      35.878  23.064  25.332  1.00  0.00     0.244 C 
ATOM      4  O   UNL A   1      36.272  24.121  25.839  1.00  0.00    -0.273 OA
ATOM      5  H   UNL A   1      37.451  22.132  26.079  1.00  0.00     0.163 HD
BRANCH   3   6
ATOM      6  C   UNL A   1      34.556  23.033  24.556  1.00  0.00     0.197 C 
BRANCH   6   7
ATOM      7  N   UNL A   1      33.374  22.687  25.322  1.00  0.00    -0.337 N 
ATOM      8  C   UNL A   1      32.515  21.625  25.303  1.00  0.00     0.270 C 
ATOM      9  O   UNL A   1      31.660  21.699  26.194  1.00  0.00    -0.268 OA
ATOM     10  H   UNL A   1      33.141  23.362  26.000  1.00  0.00     0.164 HD
BRANCH   8  11
ATOM     11  C   UNL A   1      32.550  20.469  24.416  1.00  0.00     0.126 A 
ATOM     12  C   UNL A   1      32.873  18.318  23.819  1.00  0.00     0.064 A 
ATOM     13  C   UNL A   1      32.892  19.202  24.904  1.00  0.00     0.059 A 
ATOM     14  N   UNL A   1      32.481  18.942  22.715  1.00  0.00    -0.178 NA
ATOM     15  N   UNL A   1      32.287  20.221  23.082  1.00  0.00    -0.263 N 
ATOM     16  C   UNL A   1      31.802  21.041  22.004  1.00  0.00     0.174 C 
BRANCH  12  17
ATOM     17  C   UNL A   1      33.263  16.883  23.746  1.00  0.00     0.061 C 
BRANCH  17  18
ATOM     18  C   UNL A   1      33.593  16.313  25.141  1.00  0.00    -0.011 C 
ATOM     19  C   UNL A   1      32.707  15.110  25.475  1.00  0.00     0.008 C 
ATOM     20  C   UNL A   1      35.067  15.932  25.229  1.00  0.00     0.008 C 
ENDBRANCH  17  18
ENDBRANCH  12  17
ENDBRANCH   8  11
ENDBRANCH   6   7
BRANCH   6  21
ATOM     21  C   UNL A   1      34.350  24.290  23.692  1.00  0.00     0.191 C 
BRANCH  21  22
ATOM     22  O   UNL A   1      34.348  24.043  22.289  1.00  0.00    -0.394 OA
ATOM     23  H   UNL A   1      33.446  23.837  21.998  1.00  0.00     0.210 HD
ENDBRANCH  21  22
ENDBRANCH   6  21
ENDBRANCH   3   6
ENDBRANCH   1   2
BRANCH   1  24
ATOM     24  C   UNL A   1      37.753  19.912  24.821  1.00  0.00     0.042 C 
BRANCH  24  25
ATOM     25  C   UNL A   1      38.919  20.356  25.687  1.00  0.00     0.118 C 
BRANCH  25  26
ATOM     26  N   UNL A   1      39.982  19.360  25.761  1.00  0.00    -0.352 N 
ATOM     27  C   UNL A   1      41.309  19.521  26.076  1.00  0.00     0.251 C 
ATOM     28  H   UNL A   1      39.708  18.438  25.553  1.00  0.00     0.163 HD
ATOM     29  O   UNL A   1      42.105  18.602  25.903  1.00  0.00    -0.269 OA
BRANCH  27  30
ATOM     30  C   UNL A   1      41.777  20.819  26.596  1.00  0.00     0.039 A 
ATOM     31  C   UNL A   1      42.263  21.778  25.706  1.00  0.00     0.014 A 
ATOM     32  C   UNL A   1      41.694  21.100  27.962  1.00  0.00     0.014 A 
ATOM     33  C   UNL A   1      42.590  23.049  26.181  1.00  0.00     0.010 A 
ATOM     34  C   UNL A   1      41.903  22.395  28.409  1.00  0.00     0.010 A 
ATOM     35  C   UNL A   1      42.370  23.380  27.527  1.00  0.00    -0.014 A 
BRANCH  35  36
ATOM     36  C   UNL A   1      42.645  24.740  28.050  1.00  0.00     0.031 A 
ATOM     37  C   UNL A   1      44.039  25.103  28.490  1.00  0.00     0.074 A 
ATOM     38  C   UNL A   1      41.636  25.619  28.200  1.00  0.00     0.049 A 
ATOM     39  N   UNL A   1      44.469  26.208  29.042  1.00  0.00    -0.248 NA
ATOM     40  C   UNL A   1      45.079  24.073  28.322  1.00  0.00     0.031 C 
ATOM     41  C   UNL A   1      40.232  25.369  27.862  1.00  0.00     0.029 A 
ATOM     42  N   UNL A   1      41.637  26.904  28.681  1.00  0.00    -0.354 N 
ATOM     43  C   UNL A   1      45.815  25.994  29.310  1.00  0.00     0.074 A 
ATOM     44  C   UNL A   1      46.116  24.635  28.921  1.00  0.00     0.031 C 
ATOM     45  C   UNL A   1      39.515  26.477  28.113  1.00  0.00     0.029 A 
ATOM     46  C   UNL A   1      40.397  27.497  28.668  1.00  0.00     0.049 A 
ATOM     47  H   UNL A   1      42.447  27.357  29.006  1.00  0.00     0.167 HD
ATOM     48  C   UNL A   1      46.728  26.858  29.812  1.00  0.00     0.031 A 
ATOM     49  C   UNL A   1      40.015  28.726  29.063  1.00  0.00     0.031 A 
ATOM     50  C   UNL A   1      46.432  28.217  30.174  1.00  0.00     0.049 A 
ATOM     51  C   UNL A   1      41.048  29.671  29.610  1.00  0.00     0.074 A 
ATOM     52  C   UNL A   1      47.297  29.197  30.624  1.00  0.00     0.029 A 
ATOM     53  N   UNL A   1      45.168  28.785  30.126  1.00  0.00    -0.354 N 
ATOM     54  N   UNL A   1      42.333  29.479  29.784  1.00  0.00    -0.248 NA
ATOM     55  C   UNL A   1      40.579  31.008  30.002  1.00  0.00     0.031 C 
ATOM     56  C   UNL A   1      46.548  30.345  30.899  1.00  0.00     0.029 A 
ATOM     57  C   UNL A   1      45.226  30.097  30.562  1.00  0.00     0.049 A 
ATOM     58  H   UNL A   1      44.351  28.325  29.826  1.00  0.00     0.167 HD
ATOM     59  C   UNL A   1      42.830  30.677  30.280  1.00  0.00     0.074 A 
ATOM     60  C   UNL A   1      41.711  31.594  30.361  1.00  0.00     0.031 C 
ATOM     61  C   UNL A   1      44.100  30.992  30.636  1.00  0.00     0.031 A 
BRANCH  48  62
ATOM     62  C   UNL A   1      48.131  26.350  29.997  1.00  0.00    -0.014 A 
ATOM     63  C   UNL A   1      49.075  26.416  28.958  1.00  0.00     0.009 A 
ATOM     64  C   UNL A   1      48.522  25.816  31.234  1.00  0.00     0.009 A 
ATOM     65  C   UNL A   1      50.366  25.917  29.141  1.00  0.00     0.001 A 
ATOM     66  C   UNL A   1      49.824  25.348  31.425  1.00  0.00     0.001 A 
ATOM     67  C   UNL A   1      50.741  25.388  30.376  1.00  0.00     0.000 A 
ENDBRANCH  48  62
BRANCH  49  68
ATOM     68  C   UNL A   1      38.593  29.142  28.933  1.00  0.00    -0.014 A 
ATOM     69  C   UNL A   1      38.107  29.646  27.716  1.00  0.00     0.009 A 
ATOM     70  C   UNL A   1      37.714  29.038  30.022  1.00  0.00     0.009 A 
ATOM     71  C   UNL A   1      36.779  30.063  27.601  1.00  0.00     0.001 A 
ATOM     72  C   UNL A   1      36.379  29.428  29.896  1.00  0.00     0.001 A 
ATOM     73  C   UNL A   1      35.915  29.949  28.690  1.00  0.00     0.000 A 
ENDBRANCH  49  68
BRANCH  61  74
ATOM     74  C   UNL A   1      44.352  32.395  31.111  1.00  0.00    -0.014 A 
ATOM     75  C   UNL A   1      44.289  32.726  32.473  1.00  0.00     0.009 A 
ATOM     76  C   UNL A   1      44.705  33.388  30.183  1.00  0.00     0.009 A 
ATOM     77  C   UNL A   1      44.540  34.034  32.891  1.00  0.00     0.001 A 
ATOM     78  C   UNL A   1      44.987  34.686  30.607  1.00  0.00     0.001 A 
ATOM     79  C   UNL A   1      44.895  35.010  31.959  1.00  0.00     0.000 A 
ENDBRANCH  61  74
ENDBRANCH  35  36
ENDBRANCH  27  30
ENDBRANCH  25  26
ENDBRANCH  24  25
ENDBRANCH   1  24
TORSDOF 16
ENDMDL
MODEL 3
REMARK VINA RESULT:     -10.0      1.090      1.563
REMARK SMILES CC(C)Cc1cc(C(=O)N[C@@H](CO)C(=O)NCCCNC(=O)c2ccc(-c3c4nc(c(-c5ccccc5)c5ccc([nH]5)c(-c5ccccc5)c5nc(c(-c6ccccc6)c6ccc3[nH]6)C=C5)C=C4)cc2)n(C)n1
REMARK SMILES IDX 17 1 16 2 14 3 15 4 11 6 10 7 8 8 9 9 7 11 5 12 6 13 73 14
REMARK SMILES IDX 71 15 72 16 4 17 2 18 1 19 3 20 12 21 13 22 18 24 19 25
REMARK SMILES IDX 20 26 21 27 22 29 23 30 24 31 70 32 25 33 69 34 26 35 27 36
REMARK SMILES IDX 28 37 63 38 29 39 68 40 62 41 64 42 30 43 67 44 61 45 60 46
REMARK SMILES IDX 31 48 53 49 38 50 52 51 39 52 42 53 51 54 65 55 40 56 41 57
REMARK SMILES IDX 50 59 66 60 43 61 32 62 33 63 37 64 34 65 36 66 35 67 54 68
REMARK SMILES IDX 55 69 59 70 56 71 58 72 57 73 44 74 45 75 49 76 46 77 48 78
REMARK SMILES IDX 47 79
REMARK H PARENT 16 5 10 10 13 23 20 28 64 47 42 58
REMARK Flexibility Score: inf
ROOT
ATOM      1  C   UNL A   1      31.838  29.736  25.565  1.00  0.00     0.117 C 
ENDROOT
BRANCH   1   2
ATOM      2  N   UNL A   1      32.805  29.524  24.509  1.00  0.00    -0.354 N 
ATOM      3  C   UNL A   1      32.737  28.797  23.371  1.00  0.00     0.244 C 
ATOM      4  O   UNL A   1      33.719  28.846  22.620  1.00  0.00    -0.273 OA
ATOM      5  H   UNL A   1      33.662  29.990  24.643  1.00  0.00     0.163 HD
BRANCH   3   6
ATOM      6  C   UNL A   1      31.495  27.998  22.956  1.00  0.00     0.197 C 
BRANCH   6   7
ATOM      7  N   UNL A   1      30.873  27.200  23.995  1.00  0.00    -0.337 N 
ATOM      8  C   UNL A   1      31.279  26.117  24.724  1.00  0.00     0.270 C 
ATOM      9  O   UNL A   1      30.442  25.786  25.573  1.00  0.00    -0.268 OA
ATOM     10  H   UNL A   1      29.965  27.503  24.225  1.00  0.00     0.164 HD
BRANCH   8  11
ATOM     11  C   UNL A   1      32.545  25.403  24.623  1.00  0.00     0.126 A 
ATOM     12  C   UNL A   1      34.411  24.370  25.358  1.00  0.00     0.064 A 
ATOM     13  C   UNL A   1      33.226  24.987  25.774  1.00  0.00     0.059 A 
ATOM     14  N   UNL A   1      34.471  24.320  24.034  1.00  0.00    -0.178 NA
ATOM     15  N   UNL A   1      33.354  24.934  23.605  1.00  0.00    -0.263 N 
ATOM     16  C   UNL A   1      33.229  24.925  22.172  1.00  0.00     0.174 C 
BRANCH  12  17
ATOM     17  C   UNL A   1      35.552  23.849  26.159  1.00  0.00     0.061 C 
BRANCH  17  18
ATOM     18  C   UNL A   1      36.502  22.988  25.301  1.00  0.00    -0.011 C 
ATOM     19  C   UNL A   1      37.956  23.135  25.759  1.00  0.00     0.008 C 
ATOM     20  C   UNL A   1      36.076  21.523  25.337  1.00  0.00     0.008 C 
ENDBRANCH  17  18
ENDBRANCH  12  17
ENDBRANCH   8  11
ENDBRANCH   6   7
BRANCH   6  21
ATOM     21  C   UNL A   1      30.477  28.852  22.181  1.00  0.00     0.191 C 
BRANCH  21  22
ATOM     22  O   UNL A   1      31.003  30.074  21.671  1.00  0.00    -0.394 OA
ATOM     23  H   UNL A   1      30.316  30.537  21.168  1.00  0.00     0.210 HD
ENDBRANCH  21  22
ENDBRANCH   6  21
ENDBRANCH   3   6
ENDBRANCH   1   2
BRANCH   1  24
ATOM     24  C   UNL A   1      32.194  28.957  26.816  1.00  0.00     0.042 C 
BRANCH  24  25
ATOM     25  C   UNL A   1      33.575  29.275  27.362  1.00  0.00     0.118 C 
BRANCH  25  26
ATOM     26  N   UNL A   1      33.643  30.578  28.011  1.00  0.00    -0.352 N 
ATOM     27  C   UNL A   1      34.657  31.134  28.751  1.00  0.00     0.251 C 
ATOM     28  H   UNL A   1      32.843  31.142  27.905  1.00  0.00     0.163 HD
ATOM     29  O   UNL A   1      34.470  32.168  29.385  1.00  0.00    -0.269 OA
BRANCH  27  30
ATOM     30  C   UNL A   1      35.969  30.461  28.801  1.00  0.00     0.039 A 
ATOM     31  C   UNL A   1      36.814  30.526  27.692  1.00  0.00     0.014 A 
ATOM     32  C   UNL A   1      36.376  29.801  29.962  1.00  0.00     0.014 A 
ATOM     33  C   UNL A   1      38.102  29.996  27.780  1.00  0.00     0.010 A 
ATOM     34  C   UNL A   1      37.693  29.385  30.088  1.00  0.00     0.010 A 
ATOM     35  C   UNL A   1      38.565  29.462  28.993  1.00  0.00    -0.014 A 
BRANCH  35  36
ATOM     36  C   UNL A   1      39.949  28.951  29.140  1.00  0.00     0.031 A 
ATOM     37  C   UNL A   1      41.032  29.864  29.649  1.00  0.00     0.074 A 
ATOM     38  C   UNL A   1      40.247  27.697  28.747  1.00  0.00     0.049 A 
ATOM     39  N   UNL A   1      42.314  29.633  29.778  1.00  0.00    -0.248 NA
ATOM     40  C   UNL A   1      40.629  31.229  30.027  1.00  0.00     0.031 C 
ATOM     41  C   UNL A   1      39.298  26.733  28.185  1.00  0.00     0.029 A 
ATOM     42  N   UNL A   1      41.440  27.020  28.756  1.00  0.00    -0.354 N 
ATOM     43  C   UNL A   1      42.867  30.828  30.223  1.00  0.00     0.074 A 
ATOM     44  C   UNL A   1      41.797  31.797  30.281  1.00  0.00     0.031 C 
ATOM     45  C   UNL A   1      39.938  25.578  27.938  1.00  0.00     0.029 A 
ATOM     46  C   UNL A   1      41.347  25.734  28.281  1.00  0.00     0.049 A 
ATOM     47  H   UNL A   1      42.283  27.417  29.071  1.00  0.00     0.167 HD
ATOM     48  C   UNL A   1      44.147  31.090  30.578  1.00  0.00     0.031 A 
ATOM     49  C   UNL A   1      42.293  24.787  28.136  1.00  0.00     0.031 A 
ATOM     50  C   UNL A   1      45.203  30.117  30.545  1.00  0.00     0.049 A 
ATOM     51  C   UNL A   1      43.706  25.099  28.545  1.00  0.00     0.074 A 
ATOM     52  C   UNL A   1      46.518  30.258  30.950  1.00  0.00     0.029 A 
ATOM     53  N   UNL A   1      45.062  28.819  30.077  1.00  0.00    -0.354 N 
ATOM     54  N   UNL A   1      44.197  26.210  29.038  1.00  0.00    -0.248 NA
ATOM     55  C   UNL A   1      44.692  24.020  28.388  1.00  0.00     0.031 C 
ATOM     56  C   UNL A   1      47.187  29.060  30.678  1.00  0.00     0.029 A 
ATOM     57  C   UNL A   1      46.273  28.155  30.161  1.00  0.00     0.049 A 
ATOM     58  H   UNL A   1      44.225  28.428  29.737  1.00  0.00     0.167 HD
ATOM     59  C   UNL A   1      45.542  25.956  29.275  1.00  0.00     0.074 A 
ATOM     60  C   UNL A   1      45.783  24.581  28.888  1.00  0.00     0.031 C 
ATOM     61  C   UNL A   1      46.492  26.786  29.770  1.00  0.00     0.031 A 
BRANCH  48  62
ATOM     62  C   UNL A   1      44.465  32.488  31.031  1.00  0.00    -0.014 A 
ATOM     63  C   UNL A   1      44.382  32.854  32.384  1.00  0.00     0.009 A 
ATOM     64  C   UNL A   1      44.873  33.448  30.093  1.00  0.00     0.009 A 
ATOM     65  C   UNL A   1      44.658  34.164  32.782  1.00  0.00     0.001 A 
ATOM     66  C   UNL A   1      45.182  34.749  30.498  1.00  0.00     0.001 A 
ATOM     67  C   UNL A   1      45.063  35.108  31.840  1.00  0.00     0.000 A 
ENDBRANCH  48  62
BRANCH  49  68
ATOM     68  C   UNL A   1      41.931  23.447  27.603  1.00  0.00    -0.014 A 
ATOM     69  C   UNL A   1      41.478  22.437  28.465  1.00  0.00     0.009 A 
ATOM     70  C   UNL A   1      42.036  23.171  26.231  1.00  0.00     0.009 A 
ATOM     71  C   UNL A   1      41.164  21.169  27.968  1.00  0.00     0.001 A 
ATOM     72  C   UNL A   1      41.694  21.911  25.732  1.00  0.00     0.001 A 
ATOM     73  C   UNL A   1      41.267  20.910  26.602  1.00  0.00     0.000 A 
ENDBRANCH  49  68
BRANCH  61  74
ATOM     74  C   UNL A   1      47.871  26.219  29.954  1.00  0.00    -0.014 A 
ATOM     75  C   UNL A   1      48.794  26.187  28.899  1.00  0.00     0.009 A 
ATOM     76  C   UNL A   1      48.264  25.752  31.219  1.00  0.00     0.009 A 
ATOM     77  C   UNL A   1      50.074  25.666  29.098  1.00  0.00     0.001 A 
ATOM     78  C   UNL A   1      49.554  25.263  31.424  1.00  0.00     0.001 A 
ATOM     79  C   UNL A   1      50.454  25.211  30.361  1.00  0.00     0.000 A 
ENDBRANCH  61  74
ENDBRANCH  35  36
ENDBRANCH  27  30
ENDBRANCH  25  26
ENDBRANCH  24  25
ENDBRANCH   1  24
TORSDOF 16
ENDMDL
