MODEL 1
REMARK VINA RESULT:     -11.5      0.000      0.000
REMARK SMILES O=C(NCCCNC(=O)[C@H]1C=C[C@H](N2C(=O)[C@H]3C[C@H]3C2=O)C1)c1ccc(-c2c3nc(c(-c4ccccc4)c4ccc([nH]4)c(-c4ccccc4)c4nc(c(-c5ccccc5)c5ccc2[nH]5)C=C4)C=C3)cc1
REMARK SMILES IDX 4 1 3 2 1 3 2 4 23 6 24 7 70 8 25 9 69 10 26 11 27 12 28 13
REMARK SMILES IDX 63 14 29 15 68 16 62 17 64 18 30 19 67 20 61 21 60 22 31 24
REMARK SMILES IDX 53 25 38 26 52 27 39 28 42 29 51 30 65 31 40 32 41 33 50 35
REMARK SMILES IDX 66 36 43 37 32 38 33 39 37 40 34 41 36 42 35 43 54 44 55 45
REMARK SMILES IDX 59 46 56 47 58 48 57 49 44 50 45 51 49 52 46 53 48 54 47 55
REMARK SMILES IDX 5 56 6 57 7 58 8 59 9 61 10 62 11 63 22 64 12 65 13 66 14 67
REMARK SMILES IDX 15 68 20 69 16 70 17 71 19 72 21 73 18 74
REMARK H PARENT 3 5 64 23 42 34 7 60
REMARK Flexibility Score: inf
ROOT
ATOM      1  C   UNL A   1      38.479  20.290  25.543  1.00  0.00     0.118 C 
ENDROOT
BRANCH   1   2
ATOM      2  N   UNL A   1      39.577  19.342  25.668  1.00  0.00    -0.352 N 
ATOM      3  O   UNL A   1      41.686  18.612  25.932  1.00  0.00    -0.269 OA
ATOM      4  C   UNL A   1      40.885  19.538  26.035  1.00  0.00     0.251 C 
ATOM      5  H   UNL A   1      39.344  18.411  25.453  1.00  0.00     0.163 HD
BRANCH   4   6
ATOM      6  C   UNL A   1      41.348  20.852  26.535  1.00  0.00     0.039 A 
ATOM      7  C   UNL A   1      41.965  21.777  25.690  1.00  0.00     0.014 A 
ATOM      8  C   UNL A   1      41.098  21.188  27.870  1.00  0.00     0.014 A 
ATOM      9  C   UNL A   1      42.433  22.985  26.202  1.00  0.00     0.010 A 
ATOM     10  C   UNL A   1      41.497  22.432  28.365  1.00  0.00     0.010 A 
ATOM     11  C   UNL A   1      42.183  23.334  27.538  1.00  0.00    -0.014 A 
BRANCH  11  12
ATOM     12  C   UNL A   1      42.546  24.689  28.024  1.00  0.00     0.031 A 
ATOM     13  C   UNL A   1      43.957  25.028  28.411  1.00  0.00     0.074 A 
ATOM     14  C   UNL A   1      41.572  25.614  28.133  1.00  0.00     0.049 A 
ATOM     15  N   UNL A   1      44.430  26.157  28.877  1.00  0.00    -0.248 NA
ATOM     16  C   UNL A   1      44.968  23.969  28.264  1.00  0.00     0.031 C 
ATOM     17  C   UNL A   1      40.160  25.395  27.805  1.00  0.00     0.029 A 
ATOM     18  N   UNL A   1      41.617  26.920  28.550  1.00  0.00    -0.354 N 
ATOM     19  C   UNL A   1      45.783  25.941  29.099  1.00  0.00     0.074 A 
ATOM     20  C   UNL A   1      46.057  24.568  28.731  1.00  0.00     0.031 C 
ATOM     21  C   UNL A   1      39.479  26.532  28.012  1.00  0.00     0.029 A 
ATOM     22  C   UNL A   1      40.390  27.537  28.543  1.00  0.00     0.049 A 
ATOM     23  H   UNL A   1      42.447  27.370  28.828  1.00  0.00     0.167 HD
ATOM     24  C   UNL A   1      46.710  26.810  29.569  1.00  0.00     0.031 A 
ATOM     25  C   UNL A   1      40.027  28.768  28.948  1.00  0.00     0.031 A 
ATOM     26  C   UNL A   1      46.434  28.178  29.925  1.00  0.00     0.049 A 
ATOM     27  C   UNL A   1      41.070  29.692  29.504  1.00  0.00     0.074 A 
ATOM     28  C   UNL A   1      47.326  29.155  30.335  1.00  0.00     0.029 A 
ATOM     29  N   UNL A   1      45.175  28.755  29.931  1.00  0.00    -0.354 N 
ATOM     30  N   UNL A   1      42.359  29.495  29.633  1.00  0.00    -0.248 NA
ATOM     31  C   UNL A   1      40.608  31.004  29.976  1.00  0.00     0.031 C 
ATOM     32  C   UNL A   1      46.598  30.307  30.648  1.00  0.00     0.029 A 
ATOM     33  C   UNL A   1      45.260  30.061  30.384  1.00  0.00     0.049 A 
ATOM     34  H   UNL A   1      44.345  28.305  29.654  1.00  0.00     0.167 HD
ATOM     35  C   UNL A   1      42.863  30.659  30.194  1.00  0.00     0.074 A 
ATOM     36  C   UNL A   1      41.745  31.566  30.356  1.00  0.00     0.031 C 
ATOM     37  C   UNL A   1      44.138  30.947  30.550  1.00  0.00     0.031 A 
BRANCH  24  38
ATOM     38  C   UNL A   1      48.114  26.311  29.758  1.00  0.00    -0.014 A 
ATOM     39  C   UNL A   1      49.059  26.381  28.723  1.00  0.00     0.009 A 
ATOM     40  C   UNL A   1      48.520  25.848  31.020  1.00  0.00     0.009 A 
ATOM     41  C   UNL A   1      50.380  25.981  28.945  1.00  0.00     0.001 A 
ATOM     42  C   UNL A   1      49.844  25.468  31.244  1.00  0.00     0.001 A 
ATOM     43  C   UNL A   1      50.772  25.531  30.207  1.00  0.00     0.000 A 
ENDBRANCH  24  38
BRANCH  25  44
ATOM     44  C   UNL A   1      38.599  29.176  28.890  1.00  0.00    -0.014 A 
ATOM     45  C   UNL A   1      38.050  29.700  27.712  1.00  0.00     0.009 A 
ATOM     46  C   UNL A   1      37.778  29.039  30.022  1.00  0.00     0.009 A 
ATOM     47  C   UNL A   1      36.713  30.102  27.677  1.00  0.00     0.001 A 
ATOM     48  C   UNL A   1      36.436  29.413  29.974  1.00  0.00     0.001 A 
ATOM     49  C   UNL A   1      35.906  29.954  28.804  1.00  0.00     0.000 A 
ENDBRANCH  25  44
BRANCH  37  50
ATOM     50  C   UNL A   1      44.389  32.301  31.146  1.00  0.00    -0.014 A 
ATOM     51  C   UNL A   1      44.665  33.407  30.327  1.00  0.00     0.009 A 
ATOM     52  C   UNL A   1      44.309  32.481  32.534  1.00  0.00     0.009 A 
ATOM     53  C   UNL A   1      44.883  34.665  30.892  1.00  0.00     0.001 A 
ATOM     54  C   UNL A   1      44.502  33.744  33.095  1.00  0.00     0.001 A 
ATOM     55  C   UNL A   1      44.796  34.833  32.274  1.00  0.00     0.000 A 
ENDBRANCH  37  50
ENDBRANCH  11  12
ENDBRANCH   4   6
ENDBRANCH   1   2
BRANCH   1  56
ATOM     56  C   UNL A   1      37.238  19.690  24.895  1.00  0.00     0.042 C 
BRANCH  56  57
ATOM     57  C   UNL A   1      35.962  20.501  25.079  1.00  0.00     0.117 C 
BRANCH  57  58
ATOM     58  N   UNL A   1      34.789  19.678  25.308  1.00  0.00    -0.356 N 
ATOM     59  C   UNL A   1      33.472  20.019  25.419  1.00  0.00     0.227 C 
ATOM     60  H   UNL A   1      34.973  18.715  25.397  1.00  0.00     0.163 HD
ATOM     61  O   UNL A   1      32.664  19.105  25.584  1.00  0.00    -0.274 OA
BRANCH  59  62
ATOM     62  C   UNL A   1      33.064  21.493  25.394  1.00  0.00     0.103 C 
ATOM     63  C   UNL A   1      31.586  21.722  25.255  1.00  0.00    -0.016 C 
ATOM     64  C   UNL A   1      33.313  22.184  26.749  1.00  0.00     0.047 C 
ATOM     65  C   UNL A   1      31.181  22.741  26.024  1.00  0.00    -0.005 C 
ATOM     66  C   UNL A   1      32.309  23.347  26.818  1.00  0.00     0.117 C 
BRANCH  66  67
ATOM     67  N   UNL A   1      32.691  24.615  26.208  1.00  0.00    -0.275 N 
ATOM     68  C   UNL A   1      31.871  25.720  26.283  1.00  0.00     0.233 C 
ATOM     69  C   UNL A   1      33.945  24.951  25.772  1.00  0.00     0.233 C 
ATOM     70  O   UNL A   1      30.786  25.839  26.820  1.00  0.00    -0.274 OA
ATOM     71  C   UNL A   1      32.546  26.866  25.621  1.00  0.00     0.092 C 
ATOM     72  C   UNL A   1      33.932  26.356  25.289  1.00  0.00     0.092 C 
ATOM     73  O   UNL A   1      34.978  24.303  25.768  1.00  0.00    -0.274 OA
ATOM     74  C   UNL A   1      33.758  27.525  26.222  1.00  0.00     0.028 C 
ENDBRANCH  66  67
ENDBRANCH  59  62
ENDBRANCH  57  58
ENDBRANCH  56  57
ENDBRANCH   1  56
TORSDOF 11
ENDMDL
MODEL 2
REMARK VINA RESULT:     -11.4      0.358      6.164
REMARK SMILES O=C(NCCCNC(=O)[C@H]1C=C[C@H](N2C(=O)[C@H]3C[C@H]3C2=O)C1)c1ccc(-c2c3nc(c(-c4ccccc4)c4ccc([nH]4)c(-c4ccccc4)c4nc(c(-c5ccccc5)c5ccc2[nH]5)C=C4)C=C3)cc1
REMARK SMILES IDX 4 1 3 2 1 3 2 4 23 6 24 7 70 8 25 9 69 10 26 11 27 12 28 13
REMARK SMILES IDX 63 14 29 15 68 16 62 17 64 18 30 19 67 20 61 21 60 22 31 24
REMARK SMILES IDX 53 25 38 26 52 27 39 28 42 29 51 30 65 31 40 32 41 33 50 35
REMARK SMILES IDX 66 36 43 37 32 38 33 39 37 40 34 41 36 42 35 43 54 44 55 45
REMARK SMILES IDX 59 46 56 47 58 48 57 49 44 50 45 51 49 52 46 53 48 54 47 55
REMARK SMILES IDX 5 56 6 57 7 58 8 59 9 61 10 62 11 63 22 64 12 65 13 66 14 67
REMARK SMILES IDX 15 68 20 69 16 70 17 71 19 72 21 73 18 74
REMARK H PARENT 3 5 64 23 42 34 7 60
REMARK Flexibility Score: inf
ROOT
ATOM      1  C   UNL A   1      38.617  20.278  25.571  1.00  0.00     0.118 C 
ENDROOT
BRANCH   1   2
ATOM      2  N   UNL A   1      39.731  19.346  25.659  1.00  0.00    -0.352 N 
ATOM      3  O   UNL A   1      41.855  18.646  25.882  1.00  0.00    -0.269 OA
ATOM      4  C   UNL A   1      41.040  19.554  26.018  1.00  0.00     0.251 C 
ATOM      5  H   UNL A   1      39.512  18.417  25.420  1.00  0.00     0.163 HD
BRANCH   4   6
ATOM      6  C   UNL A   1      41.485  20.861  26.551  1.00  0.00     0.039 A 
ATOM      7  C   UNL A   1      41.934  21.878  25.705  1.00  0.00     0.014 A 
ATOM      8  C   UNL A   1      41.387  21.094  27.928  1.00  0.00     0.014 A 
ATOM      9  C   UNL A   1      42.392  23.079  26.241  1.00  0.00     0.010 A 
ATOM     10  C   UNL A   1      41.774  22.328  28.458  1.00  0.00     0.010 A 
ATOM     11  C   UNL A   1      42.295  23.325  27.620  1.00  0.00    -0.014 A 
BRANCH  11  12
ATOM     12  C   UNL A   1      42.637  24.666  28.153  1.00  0.00     0.031 A 
ATOM     13  C   UNL A   1      41.583  25.715  28.366  1.00  0.00     0.074 A 
ATOM     14  C   UNL A   1      43.929  24.937  28.428  1.00  0.00     0.049 A 
ATOM     15  N   UNL A   1      41.725  26.943  28.800  1.00  0.00    -0.248 NA
ATOM     16  C   UNL A   1      40.195  25.348  28.045  1.00  0.00     0.031 C 
ATOM     17  C   UNL A   1      45.043  24.003  28.245  1.00  0.00     0.029 A 
ATOM     18  N   UNL A   1      44.524  26.072  28.917  1.00  0.00    -0.354 N 
ATOM     19  C   UNL A   1      40.454  27.501  28.786  1.00  0.00     0.074 A 
ATOM     20  C   UNL A   1      39.553  26.485  28.287  1.00  0.00     0.031 C 
ATOM     21  C   UNL A   1      46.182  24.595  28.637  1.00  0.00     0.029 A 
ATOM     22  C   UNL A   1      45.887  25.964  29.039  1.00  0.00     0.049 A 
ATOM     23  H   UNL A   1      44.022  26.885  29.156  1.00  0.00     0.167 HD
ATOM     24  C   UNL A   1      40.077  28.749  29.155  1.00  0.00     0.031 A 
ATOM     25  C   UNL A   1      46.809  26.875  29.404  1.00  0.00     0.031 A 
ATOM     26  C   UNL A   1      40.977  29.753  29.660  1.00  0.00     0.049 A 
ATOM     27  C   UNL A   1      46.363  28.261  29.766  1.00  0.00     0.074 A 
ATOM     28  C   UNL A   1      40.673  31.019  30.133  1.00  0.00     0.029 A 
ATOM     29  N   UNL A   1      42.353  29.614  29.741  1.00  0.00    -0.354 N 
ATOM     30  N   UNL A   1      45.147  28.746  29.821  1.00  0.00    -0.248 NA
ATOM     31  C   UNL A   1      47.416  29.226  30.109  1.00  0.00     0.031 C 
ATOM     32  C   UNL A   1      41.872  31.669  30.444  1.00  0.00     0.029 A 
ATOM     33  C   UNL A   1      42.917  30.789  30.210  1.00  0.00     0.049 A 
ATOM     34  H   UNL A   1      42.855  28.803  29.500  1.00  0.00     0.167 HD
ATOM     35  C   UNL A   1      45.288  30.069  30.211  1.00  0.00     0.074 A 
ATOM     36  C   UNL A   1      46.704  30.303  30.404  1.00  0.00     0.031 C 
ATOM     37  C   UNL A   1      44.328  31.009  30.386  1.00  0.00     0.031 A 
BRANCH  24  38
ATOM     38  C   UNL A   1      38.630  29.123  29.005  1.00  0.00    -0.014 A 
ATOM     39  C   UNL A   1      37.733  29.015  30.078  1.00  0.00     0.009 A 
ATOM     40  C   UNL A   1      38.181  29.677  27.795  1.00  0.00     0.009 A 
ATOM     41  C   UNL A   1      36.409  29.440  29.936  1.00  0.00     0.001 A 
ATOM     42  C   UNL A   1      36.864  30.119  27.663  1.00  0.00     0.001 A 
ATOM     43  C   UNL A   1      35.978  29.997  28.731  1.00  0.00     0.000 A 
ENDBRANCH  24  38
BRANCH  25  44
ATOM     44  C   UNL A   1      48.250  26.514  29.395  1.00  0.00    -0.014 A 
ATOM     45  C   UNL A   1      48.861  25.969  30.532  1.00  0.00     0.009 A 
ATOM     46  C   UNL A   1      49.021  26.718  28.238  1.00  0.00     0.009 A 
ATOM     47  C   UNL A   1      50.223  25.656  30.517  1.00  0.00     0.001 A 
ATOM     48  C   UNL A   1      50.373  26.377  28.218  1.00  0.00     0.001 A 
ATOM     49  C   UNL A   1      50.976  25.855  29.361  1.00  0.00     0.000 A 
ENDBRANCH  25  44
BRANCH  37  50
ATOM     50  C   UNL A   1      44.782  32.374  30.812  1.00  0.00    -0.014 A 
ATOM     51  C   UNL A   1      44.943  32.688  32.170  1.00  0.00     0.009 A 
ATOM     52  C   UNL A   1      45.090  33.343  29.846  1.00  0.00     0.009 A 
ATOM     53  C   UNL A   1      45.380  33.957  32.554  1.00  0.00     0.001 A 
ATOM     54  C   UNL A   1      45.551  34.603  30.231  1.00  0.00     0.001 A 
ATOM     55  C   UNL A   1      45.688  34.911  31.584  1.00  0.00     0.000 A 
ENDBRANCH  37  50
ENDBRANCH  11  12
ENDBRANCH   4   6
ENDBRANCH   1   2
BRANCH   1  56
ATOM     56  C   UNL A   1      37.414  19.708  24.830  1.00  0.00     0.042 C 
BRANCH  56  57
ATOM     57  C   UNL A   1      36.115  20.481  25.024  1.00  0.00     0.117 C 
BRANCH  57  58
ATOM     58  N   UNL A   1      34.959  19.622  25.199  1.00  0.00    -0.356 N 
ATOM     59  C   UNL A   1      33.632  19.926  25.288  1.00  0.00     0.227 C 
ATOM     60  H   UNL A   1      35.166  18.662  25.264  1.00  0.00     0.163 HD
ATOM     61  O   UNL A   1      32.844  18.987  25.406  1.00  0.00    -0.274 OA
BRANCH  59  62
ATOM     62  C   UNL A   1      33.186  21.389  25.299  1.00  0.00     0.103 C 
ATOM     63  C   UNL A   1      31.699  21.582  25.209  1.00  0.00    -0.016 C 
ATOM     64  C   UNL A   1      33.460  22.067  26.655  1.00  0.00     0.047 C 
ATOM     65  C   UNL A   1      31.292  22.579  26.005  1.00  0.00    -0.005 C 
ATOM     66  C   UNL A   1      32.430  23.203  26.773  1.00  0.00     0.117 C 
BRANCH  66  67
ATOM     67  N   UNL A   1      32.760  24.488  26.169  1.00  0.00    -0.275 N 
ATOM     68  C   UNL A   1      31.901  25.562  26.259  1.00  0.00     0.233 C 
ATOM     69  C   UNL A   1      33.998  24.873  25.728  1.00  0.00     0.233 C 
ATOM     70  O   UNL A   1      30.816  25.637  26.805  1.00  0.00    -0.274 OA
ATOM     71  C   UNL A   1      32.529  26.737  25.602  1.00  0.00     0.092 C 
ATOM     72  C   UNL A   1      33.930  26.281  25.256  1.00  0.00     0.092 C 
ATOM     73  O   UNL A   1      35.054  24.264  25.712  1.00  0.00    -0.274 OA
ATOM     74  C   UNL A   1      33.719  27.435  26.199  1.00  0.00     0.028 C 
ENDBRANCH  66  67
ENDBRANCH  59  62
ENDBRANCH  57  58
ENDBRANCH  56  57
ENDBRANCH   1  56
TORSDOF 11
ENDMDL
MODEL 3
REMARK VINA RESULT:     -11.4      3.530      8.823
REMARK SMILES O=C(NCCCNC(=O)[C@H]1C=C[C@H](N2C(=O)[C@H]3C[C@H]3C2=O)C1)c1ccc(-c2c3nc(c(-c4ccccc4)c4ccc([nH]4)c(-c4ccccc4)c4nc(c(-c5ccccc5)c5ccc2[nH]5)C=C4)C=C3)cc1
REMARK SMILES IDX 4 1 3 2 1 3 2 4 23 6 24 7 70 8 25 9 69 10 26 11 27 12 28 13
REMARK SMILES IDX 63 14 29 15 68 16 62 17 64 18 30 19 67 20 61 21 60 22 31 24
REMARK SMILES IDX 53 25 38 26 52 27 39 28 42 29 51 30 65 31 40 32 41 33 50 35
REMARK SMILES IDX 66 36 43 37 32 38 33 39 37 40 34 41 36 42 35 43 54 44 55 45
REMARK SMILES IDX 59 46 56 47 58 48 57 49 44 50 45 51 49 52 46 53 48 54 47 55
REMARK SMILES IDX 5 56 6 57 7 58 8 59 9 61 10 62 11 63 22 64 12 65 13 66 14 67
REMARK SMILES IDX 15 68 20 69 16 70 17 71 19 72 21 73 18 74
REMARK H PARENT 3 5 64 23 42 34 7 60
REMARK Flexibility Score: inf
ROOT
ATOM      1  C   UNL A   1      32.321  31.875  26.869  1.00  0.00     0.118 C 
ENDROOT
BRANCH   1   2
ATOM      2  N   UNL A   1      32.167  33.269  27.262  1.00  0.00    -0.352 N 
ATOM      3  O   UNL A   1      32.541  35.172  28.397  1.00  0.00    -0.269 OA
ATOM      4  C   UNL A   1      32.937  34.052  28.085  1.00  0.00     0.251 C 
ATOM      5  H   UNL A   1      31.384  33.722  26.875  1.00  0.00     0.163 HD
BRANCH   4   6
ATOM      6  C   UNL A   1      34.229  33.561  28.616  1.00  0.00     0.039 A 
ATOM      7  C   UNL A   1      34.292  32.784  29.774  1.00  0.00     0.014 A 
ATOM      8  C   UNL A   1      35.398  33.832  27.895  1.00  0.00     0.014 A 
ATOM      9  C   UNL A   1      35.527  32.378  30.274  1.00  0.00     0.010 A 
ATOM     10  C   UNL A   1      36.629  33.358  28.355  1.00  0.00     0.010 A 
ATOM     11  C   UNL A   1      36.705  32.641  29.558  1.00  0.00    -0.014 A 
BRANCH  11  12
ATOM     12  C   UNL A   1      37.991  32.064  30.021  1.00  0.00     0.031 A 
ATOM     13  C   UNL A   1      38.504  30.760  29.479  1.00  0.00     0.074 A 
ATOM     14  C   UNL A   1      38.690  32.729  30.963  1.00  0.00     0.049 A 
ATOM     15  N   UNL A   1      39.597  30.112  29.800  1.00  0.00    -0.248 NA
ATOM     16  C   UNL A   1      37.689  30.092  28.452  1.00  0.00     0.031 C 
ATOM     17  C   UNL A   1      38.283  33.995  31.578  1.00  0.00     0.029 A 
ATOM     18  N   UNL A   1      39.885  32.434  31.569  1.00  0.00    -0.354 N 
ATOM     19  C   UNL A   1      39.591  28.954  29.034  1.00  0.00     0.074 A 
ATOM     20  C   UNL A   1      38.380  28.978  28.241  1.00  0.00     0.031 C 
ATOM     21  C   UNL A   1      39.222  34.379  32.456  1.00  0.00     0.029 A 
ATOM     22  C   UNL A   1      40.262  33.360  32.510  1.00  0.00     0.049 A 
ATOM     23  H   UNL A   1      40.419  31.637  31.350  1.00  0.00     0.167 HD
ATOM     24  C   UNL A   1      40.513  27.962  28.999  1.00  0.00     0.031 A 
ATOM     25  C   UNL A   1      41.312  33.376  33.352  1.00  0.00     0.031 A 
ATOM     26  C   UNL A   1      41.721  27.948  29.783  1.00  0.00     0.049 A 
ATOM     27  C   UNL A   1      42.293  32.241  33.318  1.00  0.00     0.074 A 
ATOM     28  C   UNL A   1      42.751  27.024  29.756  1.00  0.00     0.029 A 
ATOM     29  N   UNL A   1      42.050  28.889  30.745  1.00  0.00    -0.354 N 
ATOM     30  N   UNL A   1      42.311  31.193  32.531  1.00  0.00    -0.248 NA
ATOM     31  C   UNL A   1      43.392  32.287  34.291  1.00  0.00     0.031 C 
ATOM     32  C   UNL A   1      43.677  27.372  30.744  1.00  0.00     0.029 A 
ATOM     33  C   UNL A   1      43.246  28.540  31.352  1.00  0.00     0.049 A 
ATOM     34  H   UNL A   1      41.516  29.685  30.965  1.00  0.00     0.167 HD
ATOM     35  C   UNL A   1      43.426  30.459  32.910  1.00  0.00     0.074 A 
ATOM     36  C   UNL A   1      44.072  31.194  33.977  1.00  0.00     0.031 C 
ATOM     37  C   UNL A   1      43.869  29.276  32.420  1.00  0.00     0.031 A 
BRANCH  24  38
ATOM     38  C   UNL A   1      40.250  26.785  28.104  1.00  0.00    -0.014 A 
ATOM     39  C   UNL A   1      40.793  26.714  26.812  1.00  0.00     0.009 A 
ATOM     40  C   UNL A   1      39.522  25.690  28.598  1.00  0.00     0.009 A 
ATOM     41  C   UNL A   1      40.597  25.575  26.026  1.00  0.00     0.001 A 
ATOM     42  C   UNL A   1      39.346  24.546  27.818  1.00  0.00     0.001 A 
ATOM     43  C   UNL A   1      39.879  24.490  26.533  1.00  0.00     0.000 A 
ENDBRANCH  24  38
BRANCH  25  44
ATOM     44  C   UNL A   1      41.459  34.482  34.332  1.00  0.00    -0.014 A 
ATOM     45  C   UNL A   1      40.925  34.373  35.623  1.00  0.00     0.009 A 
ATOM     46  C   UNL A   1      42.139  35.659  33.973  1.00  0.00     0.009 A 
ATOM     47  C   UNL A   1      41.050  35.430  36.528  1.00  0.00     0.001 A 
ATOM     48  C   UNL A   1      42.287  36.700  34.889  1.00  0.00     0.001 A 
ATOM     49  C   UNL A   1      41.734  36.589  36.163  1.00  0.00     0.000 A 
ENDBRANCH  25  44
BRANCH  37  50
ATOM     50  C   UNL A   1      45.115  28.710  33.034  1.00  0.00    -0.014 A 
ATOM     51  C   UNL A   1      45.043  27.808  34.107  1.00  0.00     0.009 A 
ATOM     52  C   UNL A   1      46.371  29.050  32.510  1.00  0.00     0.009 A 
ATOM     53  C   UNL A   1      46.209  27.277  34.661  1.00  0.00     0.001 A 
ATOM     54  C   UNL A   1      47.535  28.497  33.049  1.00  0.00     0.001 A 
ATOM     55  C   UNL A   1      47.452  27.618  34.128  1.00  0.00     0.000 A 
ENDBRANCH  37  50
ENDBRANCH  11  12
ENDBRANCH   4   6
ENDBRANCH   1   2
BRANCH   1  56
ATOM     56  C   UNL A   1      31.134  31.339  26.079  1.00  0.00     0.042 C 
BRANCH  56  57
ATOM     57  C   UNL A   1      31.412  30.069  25.285  1.00  0.00     0.117 C 
BRANCH  57  58
ATOM     58  N   UNL A   1      30.849  30.095  23.948  1.00  0.00    -0.356 N 
ATOM     59  C   UNL A   1      30.807  29.130  22.983  1.00  0.00     0.227 C 
ATOM     60  H   UNL A   1      30.430  30.948  23.695  1.00  0.00     0.163 HD
ATOM     61  O   UNL A   1      30.233  29.409  21.931  1.00  0.00    -0.274 OA
BRANCH  59  62
ATOM     62  C   UNL A   1      31.509  27.792  23.215  1.00  0.00     0.103 C 
ATOM     63  C   UNL A   1      31.088  26.702  22.271  1.00  0.00    -0.016 C 
ATOM     64  C   UNL A   1      33.012  27.862  22.886  1.00  0.00     0.047 C 
ATOM     65  C   UNL A   1      32.135  25.955  21.897  1.00  0.00    -0.005 C 
ATOM     66  C   UNL A   1      33.428  26.430  22.509  1.00  0.00     0.117 C 
BRANCH  66  67
ATOM     67  N   UNL A   1      33.803  25.524  23.588  1.00  0.00    -0.275 N 
ATOM     68  C   UNL A   1      34.272  24.255  23.325  1.00  0.00     0.233 C 
ATOM     69  C   UNL A   1      34.016  25.875  24.894  1.00  0.00     0.233 C 
ATOM     70  O   UNL A   1      34.449  23.705  22.253  1.00  0.00    -0.274 OA
ATOM     71  C   UNL A   1      34.620  23.594  24.609  1.00  0.00     0.092 C 
ATOM     72  C   UNL A   1      34.458  24.677  25.654  1.00  0.00     0.092 C 
ATOM     73  O   UNL A   1      33.927  26.960  25.444  1.00  0.00    -0.274 OA
ATOM     74  C   UNL A   1      35.801  24.033  25.430  1.00  0.00     0.028 C 
ENDBRANCH  66  67
ENDBRANCH  59  62
ENDBRANCH  57  58
ENDBRANCH  56  57
ENDBRANCH   1  56
TORSDOF 11
ENDMDL
