MODEL 1
REMARK VINA RESULT:     -12.5      0.000      0.000
REMARK SMILES COc1ccc([C@H]2CC(c3ccc(S(C)(=O)=O)cc3)=NN2c2ccc(C(=O)NCCCNC(=O)c3ccc(-c4c5nc(c(-c6ccccc6)c6ccc([nH]6)c(-c6ccccc6)c6nc(c(-c7ccccc7)c7ccc4[nH]7)C=C6)C=C5)cc3)cc2)cc1
REMARK SMILES IDX 29 1 28 2 26 3 27 4 25 6 22 7 23 8 84 9 24 10 83 11 21 12
REMARK SMILES IDX 7 13 8 14 9 15 20 16 6 17 3 18 4 19 86 20 5 21 85 22 2 23
REMARK SMILES IDX 1 24 10 25 11 26 19 27 12 28 18 29 13 30 14 31 15 32 16 33
REMARK SMILES IDX 17 34 30 35 31 36 32 37 33 38 34 40 35 41 36 42 82 43 37 44
REMARK SMILES IDX 81 45 38 46 39 47 40 48 75 49 41 50 80 51 74 52 76 53 42 54
REMARK SMILES IDX 79 55 73 56 72 57 43 59 65 60 50 61 64 62 51 63 54 64 63 65
REMARK SMILES IDX 77 66 52 67 53 68 62 70 78 71 55 72 44 73 45 74 49 75 46 76
REMARK SMILES IDX 48 77 47 78 66 79 67 80 71 81 68 82 70 83 69 84 56 85 57 86
REMARK SMILES IDX 61 87 58 88 60 89 59 90
REMARK H PARENT 28 5 32 39 76 58 54 69
REMARK Flexibility Score: inf
ROOT
ATOM      1  C   UNL A   1      32.665  32.288  27.269  1.00  0.00     0.118 C 
ENDROOT
BRANCH   1   2
ATOM      2  N   UNL A   1      33.973  31.801  27.667  1.00  0.00    -0.352 N 
ATOM      3  C   UNL A   1      34.530  30.547  27.665  1.00  0.00     0.251 C 
ATOM      4  O   UNL A   1      35.698  30.447  28.043  1.00  0.00    -0.269 OA
ATOM      5  H   UNL A   1      34.576  32.504  28.001  1.00  0.00     0.163 HD
BRANCH   3   6
ATOM      6  C   UNL A   1      33.815  29.337  27.175  1.00  0.00     0.039 A 
ATOM      7  C   UNL A   1      32.563  27.067  26.051  1.00  0.00     0.060 A 
ATOM      8  C   UNL A   1      33.865  27.419  25.684  1.00  0.00     0.029 A 
ATOM      9  C   UNL A   1      31.924  27.820  27.037  1.00  0.00     0.029 A 
ATOM     10  C   UNL A   1      34.479  28.551  26.224  1.00  0.00     0.016 A 
ATOM     11  C   UNL A   1      32.558  28.923  27.619  1.00  0.00     0.016 A 
BRANCH   7  12
ATOM     12  N   UNL A   1      31.931  26.005  25.429  1.00  0.00    -0.257 N 
ATOM     13  C   UNL A   1      30.517  25.994  25.069  1.00  0.00     0.144 C 
ATOM     14  C   UNL A   1      30.313  24.563  24.556  1.00  0.00     0.091 C 
ATOM     15  C   UNL A   1      31.678  23.993  24.828  1.00  0.00     0.071 C 
ATOM     16  N   UNL A   1      32.556  24.809  25.319  1.00  0.00    -0.176 NA
BRANCH  13  17
ATOM     17  C   UNL A   1      30.199  27.050  24.023  1.00  0.00    -0.023 A 
ATOM     18  C   UNL A   1      29.597  29.029  22.110  1.00  0.00     0.118 A 
ATOM     19  C   UNL A   1      28.578  28.432  22.851  1.00  0.00     0.047 A 
ATOM     20  C   UNL A   1      30.921  28.670  22.345  1.00  0.00     0.047 A 
ATOM     21  C   UNL A   1      28.873  27.442  23.794  1.00  0.00     0.010 A 
ATOM     22  C   UNL A   1      31.220  27.687  23.295  1.00  0.00     0.010 A 
BRANCH  18  23
ATOM     23  O   UNL A   1      29.199  29.992  21.224  1.00  0.00    -0.497 OA
ATOM     24  C   UNL A   1      28.786  31.216  21.824  1.00  0.00     0.278 C 
ENDBRANCH  18  23
ENDBRANCH  13  17
BRANCH  15  25
ATOM     25  C   UNL A   1      31.969  22.580  24.580  1.00  0.00    -0.002 A 
ATOM     26  C   UNL A   1      31.899  22.102  23.268  1.00  0.00     0.011 A 
ATOM     27  C   UNL A   1      32.277  21.726  25.642  1.00  0.00     0.011 A 
ATOM     28  C   UNL A   1      32.154  20.756  23.008  1.00  0.00     0.021 A 
ATOM     29  C   UNL A   1      32.506  20.373  25.388  1.00  0.00     0.021 A 
ATOM     30  C   UNL A   1      32.440  19.896  24.074  1.00  0.00     0.067 A 
BRANCH  30  31
ATOM     31  S   UNL A   1      32.733  18.176  23.738  1.00  0.00     0.175 S 
ATOM     32  C   UNL A   1      34.438  17.935  24.165  1.00  0.00     0.163 C 
ATOM     33  O   UNL A   1      31.913  17.424  24.667  1.00  0.00    -0.224 OA
ATOM     34  O   UNL A   1      32.609  17.982  22.304  1.00  0.00    -0.224 OA
ENDBRANCH  30  31
ENDBRANCH  15  25
ENDBRANCH   7  12
ENDBRANCH   3   6
ENDBRANCH   1   2
BRANCH   1  35
ATOM     35  C   UNL A   1      32.495  33.756  27.657  1.00  0.00     0.042 C 
BRANCH  35  36
ATOM     36  C   UNL A   1      33.679  34.304  28.444  1.00  0.00     0.118 C 
BRANCH  36  37
ATOM     37  N   UNL A   1      33.269  34.859  29.727  1.00  0.00    -0.352 N 
ATOM     38  C   UNL A   1      33.697  34.537  30.991  1.00  0.00     0.251 C 
ATOM     39  H   UNL A   1      32.585  35.566  29.681  1.00  0.00     0.163 HD
ATOM     40  O   UNL A   1      33.084  34.949  31.972  1.00  0.00    -0.269 OA
BRANCH  38  41
ATOM     41  C   UNL A   1      34.889  33.682  31.173  1.00  0.00     0.039 A 
ATOM     42  C   UNL A   1      36.109  34.090  30.626  1.00  0.00     0.014 A 
ATOM     43  C   UNL A   1      34.798  32.471  31.862  1.00  0.00     0.014 A 
ATOM     44  C   UNL A   1      37.253  33.313  30.822  1.00  0.00     0.010 A 
ATOM     45  C   UNL A   1      35.949  31.730  32.110  1.00  0.00     0.010 A 
ATOM     46  C   UNL A   1      37.186  32.143  31.593  1.00  0.00    -0.014 A 
BRANCH  46  47
ATOM     47  C   UNL A   1      38.388  31.319  31.878  1.00  0.00     0.031 A 
ATOM     48  C   UNL A   1      39.286  31.685  33.026  1.00  0.00     0.074 A 
ATOM     49  C   UNL A   1      38.725  30.315  31.045  1.00  0.00     0.049 A 
ATOM     50  N   UNL A   1      40.463  31.205  33.340  1.00  0.00    -0.248 NA
ATOM     51  C   UNL A   1      38.812  32.752  33.924  1.00  0.00     0.031 C 
ATOM     52  C   UNL A   1      37.948  29.873  29.886  1.00  0.00     0.029 A 
ATOM     53  N   UNL A   1      39.831  29.500  31.034  1.00  0.00    -0.354 N 
ATOM     54  C   UNL A   1      40.885  31.936  34.443  1.00  0.00     0.074 A 
ATOM     55  C   UNL A   1      39.851  32.906  34.733  1.00  0.00     0.031 C 
ATOM     56  C   UNL A   1      38.596  28.863  29.281  1.00  0.00     0.029 A 
ATOM     57  C   UNL A   1      39.855  28.621  29.978  1.00  0.00     0.049 A 
ATOM     58  H   UNL A   1      40.538  29.542  31.716  1.00  0.00     0.167 HD
ATOM     59  C   UNL A   1      42.029  31.807  35.154  1.00  0.00     0.031 A 
ATOM     60  C   UNL A   1      40.798  27.738  29.598  1.00  0.00     0.031 A 
ATOM     61  C   UNL A   1      43.040  30.821  34.887  1.00  0.00     0.049 A 
ATOM     62  C   UNL A   1      42.067  27.628  30.399  1.00  0.00     0.074 A 
ATOM     63  C   UNL A   1      44.198  30.560  35.598  1.00  0.00     0.029 A 
ATOM     64  N   UNL A   1      43.014  29.936  33.821  1.00  0.00    -0.354 N 
ATOM     65  N   UNL A   1      42.423  28.282  31.477  1.00  0.00    -0.248 NA
ATOM     66  C   UNL A   1      43.065  26.656  29.928  1.00  0.00     0.031 C 
ATOM     67  C   UNL A   1      44.898  29.548  34.936  1.00  0.00     0.029 A 
ATOM     68  C   UNL A   1      44.149  29.144  33.842  1.00  0.00     0.049 A 
ATOM     69  H   UNL A   1      42.296  29.877  33.150  1.00  0.00     0.167 HD
ATOM     70  C   UNL A   1      43.664  27.774  31.836  1.00  0.00     0.074 A 
ATOM     71  C   UNL A   1      44.000  26.756  30.863  1.00  0.00     0.031 C 
ATOM     72  C   UNL A   1      44.456  28.120  32.880  1.00  0.00     0.031 A 
BRANCH  59  73
ATOM     73  C   UNL A   1      42.262  32.765  36.288  1.00  0.00    -0.014 A 
ATOM     74  C   UNL A   1      42.905  33.996  36.086  1.00  0.00     0.009 A 
ATOM     75  C   UNL A   1      41.772  32.455  37.568  1.00  0.00     0.009 A 
ATOM     76  C   UNL A   1      43.078  34.885  37.149  1.00  0.00     0.001 A 
ATOM     77  C   UNL A   1      41.923  33.357  38.622  1.00  0.00     0.001 A 
ATOM     78  C   UNL A   1      42.581  34.568  38.413  1.00  0.00     0.000 A 
ENDBRANCH  59  73
BRANCH  60  79
ATOM     79  C   UNL A   1      40.591  26.884  28.400  1.00  0.00    -0.014 A 
ATOM     80  C   UNL A   1      39.851  25.695  28.496  1.00  0.00     0.009 A 
ATOM     81  C   UNL A   1      41.155  27.233  27.163  1.00  0.00     0.009 A 
ATOM     82  C   UNL A   1      39.707  24.857  27.388  1.00  0.00     0.001 A 
ATOM     83  C   UNL A   1      40.985  26.408  26.049  1.00  0.00     0.001 A 
ATOM     84  C   UNL A   1      40.272  25.216  26.164  1.00  0.00     0.000 A 
ENDBRANCH  60  79
BRANCH  72  85
ATOM     85  C   UNL A   1      45.733  27.354  33.064  1.00  0.00    -0.014 A 
ATOM     86  C   UNL A   1      45.803  26.246  33.922  1.00  0.00     0.009 A 
ATOM     87  C   UNL A   1      46.864  27.708  32.312  1.00  0.00     0.009 A 
ATOM     88  C   UNL A   1      46.990  25.521  34.038  1.00  0.00     0.001 A 
ATOM     89  C   UNL A   1      48.041  26.966  32.410  1.00  0.00     0.001 A 
ATOM     90  C   UNL A   1      48.105  25.877  33.278  1.00  0.00     0.000 A 
ENDBRANCH  72  85
ENDBRANCH  46  47
ENDBRANCH  38  41
ENDBRANCH  36  37
ENDBRANCH  35  36
ENDBRANCH   1  35
TORSDOF 15
ENDMDL
MODEL 2
REMARK VINA RESULT:     -12.3      1.354      5.824
REMARK SMILES COc1ccc([C@H]2CC(c3ccc(S(C)(=O)=O)cc3)=NN2c2ccc(C(=O)NCCCNC(=O)c3ccc(-c4c5nc(c(-c6ccccc6)c6ccc([nH]6)c(-c6ccccc6)c6nc(c(-c7ccccc7)c7ccc4[nH]7)C=C6)C=C5)cc3)cc2)cc1
REMARK SMILES IDX 29 1 28 2 26 3 27 4 25 6 22 7 23 8 84 9 24 10 83 11 21 12
REMARK SMILES IDX 7 13 8 14 9 15 20 16 6 17 3 18 4 19 86 20 5 21 85 22 2 23
REMARK SMILES IDX 1 24 10 25 11 26 19 27 12 28 18 29 13 30 14 31 15 32 16 33
REMARK SMILES IDX 17 34 30 35 31 36 32 37 33 38 34 40 35 41 36 42 82 43 37 44
REMARK SMILES IDX 81 45 38 46 39 47 40 48 75 49 41 50 80 51 74 52 76 53 42 54
REMARK SMILES IDX 79 55 73 56 72 57 43 59 65 60 50 61 64 62 51 63 54 64 63 65
REMARK SMILES IDX 77 66 52 67 53 68 62 70 78 71 55 72 44 73 45 74 49 75 46 76
REMARK SMILES IDX 48 77 47 78 66 79 67 80 71 81 68 82 70 83 69 84 56 85 57 86
REMARK SMILES IDX 61 87 58 88 60 89 59 90
REMARK H PARENT 28 5 32 39 76 58 54 69
REMARK Flexibility Score: inf
ROOT
ATOM      1  C   UNL A   1      32.704  32.861  27.480  1.00  0.00     0.118 C 
ENDROOT
BRANCH   1   2
ATOM      2  N   UNL A   1      34.024  32.338  27.779  1.00  0.00    -0.352 N 
ATOM      3  C   UNL A   1      34.555  31.076  27.702  1.00  0.00     0.251 C 
ATOM      4  O   UNL A   1      35.741  30.942  28.003  1.00  0.00    -0.269 OA
ATOM      5  H   UNL A   1      34.661  33.019  28.097  1.00  0.00     0.163 HD
BRANCH   3   6
ATOM      6  C   UNL A   1      33.787  29.896  27.218  1.00  0.00     0.039 A 
ATOM      7  C   UNL A   1      32.485  27.631  26.141  1.00  0.00     0.060 A 
ATOM      8  C   UNL A   1      33.878  27.737  26.108  1.00  0.00     0.029 A 
ATOM      9  C   UNL A   1      31.758  28.635  26.782  1.00  0.00     0.029 A 
ATOM     10  C   UNL A   1      34.524  28.863  26.622  1.00  0.00     0.016 A 
ATOM     11  C   UNL A   1      32.406  29.740  27.347  1.00  0.00     0.016 A 
BRANCH   7  12
ATOM     12  N   UNL A   1      31.856  26.559  25.534  1.00  0.00    -0.257 N 
ATOM     13  C   UNL A   1      30.449  26.551  25.145  1.00  0.00     0.144 C 
ATOM     14  C   UNL A   1      30.242  25.109  24.664  1.00  0.00     0.091 C 
ATOM     15  C   UNL A   1      31.596  24.535  24.979  1.00  0.00     0.071 C 
ATOM     16  N   UNL A   1      32.472  25.355  25.467  1.00  0.00    -0.176 NA
BRANCH  13  17
ATOM     17  C   UNL A   1      30.163  27.583  24.066  1.00  0.00    -0.023 A 
ATOM     18  C   UNL A   1      29.650  29.475  22.041  1.00  0.00     0.118 A 
ATOM     19  C   UNL A   1      30.960  29.107  22.347  1.00  0.00     0.047 A 
ATOM     20  C   UNL A   1      28.591  28.874  22.716  1.00  0.00     0.047 A 
ATOM     21  C   UNL A   1      31.218  28.175  23.358  1.00  0.00     0.010 A 
ATOM     22  C   UNL A   1      28.846  27.935  23.721  1.00  0.00     0.010 A 
BRANCH  18  23
ATOM     23  O   UNL A   1      29.510  30.384  21.029  1.00  0.00    -0.497 OA
ATOM     24  C   UNL A   1      28.403  31.268  21.176  1.00  0.00     0.278 C 
ENDBRANCH  18  23
ENDBRANCH  13  17
BRANCH  15  25
ATOM     25  C   UNL A   1      31.879  23.113  24.773  1.00  0.00    -0.002 A 
ATOM     26  C   UNL A   1      31.950  22.276  25.891  1.00  0.00     0.011 A 
ATOM     27  C   UNL A   1      32.104  22.618  23.487  1.00  0.00     0.011 A 
ATOM     28  C   UNL A   1      32.236  20.922  25.722  1.00  0.00     0.021 A 
ATOM     29  C   UNL A   1      32.417  21.268  23.318  1.00  0.00     0.021 A 
ATOM     30  C   UNL A   1      32.485  20.430  24.436  1.00  0.00     0.067 A 
BRANCH  30  31
ATOM     31  S   UNL A   1      32.879  18.709  24.234  1.00  0.00     0.175 S 
ATOM     32  C   UNL A   1      32.353  18.336  22.580  1.00  0.00     0.163 C 
ATOM     33  O   UNL A   1      34.323  18.603  24.294  1.00  0.00    -0.224 OA
ATOM     34  O   UNL A   1      32.034  17.956  25.142  1.00  0.00    -0.224 OA
ENDBRANCH  30  31
ENDBRANCH  15  25
ENDBRANCH   7  12
ENDBRANCH   3   6
ENDBRANCH   1   2
BRANCH   1  35
ATOM     35  C   UNL A   1      32.549  34.281  28.025  1.00  0.00     0.042 C 
BRANCH  35  36
ATOM     36  C   UNL A   1      33.505  34.584  29.172  1.00  0.00     0.118 C 
BRANCH  36  37
ATOM     37  N   UNL A   1      32.812  35.147  30.323  1.00  0.00    -0.352 N 
ATOM     38  C   UNL A   1      33.090  35.010  31.660  1.00  0.00     0.251 C 
ATOM     39  H   UNL A   1      32.030  35.707  30.110  1.00  0.00     0.163 HD
ATOM     40  O   UNL A   1      32.271  35.372  32.499  1.00  0.00    -0.269 OA
BRANCH  38  41
ATOM     41  C   UNL A   1      34.371  34.411  32.091  1.00  0.00     0.039 A 
ATOM     42  C   UNL A   1      34.384  33.093  32.556  1.00  0.00     0.014 A 
ATOM     43  C   UNL A   1      35.552  35.156  32.057  1.00  0.00     0.014 A 
ATOM     44  C   UNL A   1      35.592  32.500  32.929  1.00  0.00     0.010 A 
ATOM     45  C   UNL A   1      36.763  34.546  32.369  1.00  0.00     0.010 A 
ATOM     46  C   UNL A   1      36.795  33.214  32.809  1.00  0.00    -0.014 A 
BRANCH  46  47
ATOM     47  C   UNL A   1      38.107  32.603  33.137  1.00  0.00     0.031 A 
ATOM     48  C   UNL A   1      38.686  31.551  32.232  1.00  0.00     0.074 A 
ATOM     49  C   UNL A   1      38.721  32.916  34.294  1.00  0.00     0.049 A 
ATOM     50  N   UNL A   1      39.726  30.779  32.423  1.00  0.00    -0.248 NA
ATOM     51  C   UNL A   1      37.987  31.316  30.958  1.00  0.00     0.031 C 
ATOM     52  C   UNL A   1      38.253  33.906  35.266  1.00  0.00     0.029 A 
ATOM     53  N   UNL A   1      39.864  32.408  34.863  1.00  0.00    -0.354 N 
ATOM     54  C   UNL A   1      39.781  29.943  31.314  1.00  0.00     0.074 A 
ATOM     55  C   UNL A   1      38.660  30.285  30.466  1.00  0.00     0.031 C 
ATOM     56  C   UNL A   1      39.105  33.939  36.305  1.00  0.00     0.029 A 
ATOM     57  C   UNL A   1      40.147  32.940  36.098  1.00  0.00     0.049 A 
ATOM     58  H   UNL A   1      40.426  31.728  34.427  1.00  0.00     0.167 HD
ATOM     59  C   UNL A   1      40.688  28.980  31.028  1.00  0.00     0.031 A 
ATOM     60  C   UNL A   1      41.122  32.636  36.976  1.00  0.00     0.031 A 
ATOM     61  C   UNL A   1      41.820  28.664  31.854  1.00  0.00     0.049 A 
ATOM     62  C   UNL A   1      42.106  31.550  36.637  1.00  0.00     0.074 A 
ATOM     63  C   UNL A   1      42.839  27.759  31.611  1.00  0.00     0.029 A 
ATOM     64  N   UNL A   1      42.082  29.243  33.086  1.00  0.00    -0.354 N 
ATOM     65  N   UNL A   1      42.182  30.813  35.556  1.00  0.00    -0.248 NA
ATOM     66  C   UNL A   1      43.139  31.255  37.641  1.00  0.00     0.031 C 
ATOM     67  C   UNL A   1      43.692  27.754  32.717  1.00  0.00     0.029 A 
ATOM     68  C   UNL A   1      43.232  28.695  33.626  1.00  0.00     0.049 A 
ATOM     69  H   UNL A   1      41.533  29.939  33.513  1.00  0.00     0.167 HD
ATOM     70  C   UNL A   1      43.291  29.997  35.733  1.00  0.00     0.074 A 
ATOM     71  C   UNL A   1      43.860  30.331  37.022  1.00  0.00     0.031 C 
ATOM     72  C   UNL A   1      43.796  29.055  34.899  1.00  0.00     0.031 A 
BRANCH  59  73
ATOM     73  C   UNL A   1      40.490  28.183  29.769  1.00  0.00    -0.014 A 
ATOM     74  C   UNL A   1      41.090  28.564  28.559  1.00  0.00     0.009 A 
ATOM     75  C   UNL A   1      39.740  26.996  29.813  1.00  0.00     0.009 A 
ATOM     76  C   UNL A   1      40.919  27.787  27.412  1.00  0.00     0.001 A 
ATOM     77  C   UNL A   1      39.594  26.207  28.671  1.00  0.00     0.001 A 
ATOM     78  C   UNL A   1      40.178  26.607  27.470  1.00  0.00     0.000 A 
ENDBRANCH  59  73
BRANCH  60  79
ATOM     79  C   UNL A   1      41.222  33.363  38.269  1.00  0.00    -0.014 A 
ATOM     80  C   UNL A   1      40.549  32.887  39.405  1.00  0.00     0.009 A 
ATOM     81  C   UNL A   1      41.962  34.551  38.369  1.00  0.00     0.009 A 
ATOM     82  C   UNL A   1      40.588  33.601  40.604  1.00  0.00     0.001 A 
ATOM     83  C   UNL A   1      42.024  35.248  39.578  1.00  0.00     0.001 A 
ATOM     84  C   UNL A   1      41.328  34.780  40.691  1.00  0.00     0.000 A 
ENDBRANCH  60  79
BRANCH  72  85
ATOM     85  C   UNL A   1      45.057  28.360  35.323  1.00  0.00    -0.014 A 
ATOM     86  C   UNL A   1      46.320  28.893  35.028  1.00  0.00     0.009 A 
ATOM     87  C   UNL A   1      44.973  27.186  36.089  1.00  0.00     0.009 A 
ATOM     88  C   UNL A   1      47.476  28.251  35.476  1.00  0.00     0.001 A 
ATOM     89  C   UNL A   1      46.129  26.562  36.558  1.00  0.00     0.001 A 
ATOM     90  C   UNL A   1      47.379  27.092  36.245  1.00  0.00     0.000 A 
ENDBRANCH  72  85
ENDBRANCH  46  47
ENDBRANCH  38  41
ENDBRANCH  36  37
ENDBRANCH  35  36
ENDBRANCH   1  35
TORSDOF 15
ENDMDL
MODEL 3
REMARK VINA RESULT:     -12.1      5.745     12.179
REMARK SMILES COc1ccc([C@H]2CC(c3ccc(S(C)(=O)=O)cc3)=NN2c2ccc(C(=O)NCCCNC(=O)c3ccc(-c4c5nc(c(-c6ccccc6)c6ccc([nH]6)c(-c6ccccc6)c6nc(c(-c7ccccc7)c7ccc4[nH]7)C=C6)C=C5)cc3)cc2)cc1
REMARK SMILES IDX 29 1 28 2 26 3 27 4 25 6 22 7 23 8 84 9 24 10 83 11 21 12
REMARK SMILES IDX 7 13 8 14 9 15 20 16 6 17 3 18 4 19 86 20 5 21 85 22 2 23
REMARK SMILES IDX 1 24 10 25 11 26 19 27 12 28 18 29 13 30 14 31 15 32 16 33
REMARK SMILES IDX 17 34 30 35 31 36 32 37 33 38 34 40 35 41 36 42 82 43 37 44
REMARK SMILES IDX 81 45 38 46 39 47 40 48 75 49 41 50 80 51 74 52 76 53 42 54
REMARK SMILES IDX 79 55 73 56 72 57 43 59 65 60 50 61 64 62 51 63 54 64 63 65
REMARK SMILES IDX 77 66 52 67 53 68 62 70 78 71 55 72 44 73 45 74 49 75 46 76
REMARK SMILES IDX 48 77 47 78 66 79 67 80 71 81 68 82 70 83 69 84 56 85 57 86
REMARK SMILES IDX 61 87 58 88 60 89 59 90
REMARK H PARENT 28 5 32 39 76 58 54 69
REMARK Flexibility Score: inf
ROOT
ATOM      1  C   UNL A   1      42.887  20.956  26.839  1.00  0.00     0.118 C 
ENDROOT
BRANCH   1   2
ATOM      2  N   UNL A   1      42.777  21.437  28.204  1.00  0.00    -0.352 N 
ATOM      3  C   UNL A   1      43.249  22.564  28.825  1.00  0.00     0.251 C 
ATOM      4  O   UNL A   1      42.966  22.715  30.014  1.00  0.00    -0.269 OA
ATOM      5  H   UNL A   1      42.266  20.839  28.797  1.00  0.00     0.163 HD
BRANCH   3   6
ATOM      6  C   UNL A   1      44.021  23.623  28.120  1.00  0.00     0.039 A 
ATOM      7  C   UNL A   1      45.380  25.575  26.593  1.00  0.00     0.060 A 
ATOM      8  C   UNL A   1      44.061  25.225  26.294  1.00  0.00     0.029 A 
ATOM      9  C   UNL A   1      45.985  24.990  27.707  1.00  0.00     0.029 A 
ATOM     10  C   UNL A   1      43.393  24.248  27.034  1.00  0.00     0.016 A 
ATOM     11  C   UNL A   1      45.300  24.049  28.484  1.00  0.00     0.016 A 
BRANCH   7  12
ATOM     12  N   UNL A   1      46.061  26.467  25.786  1.00  0.00    -0.257 N 
ATOM     13  C   UNL A   1      45.474  27.685  25.235  1.00  0.00     0.144 C 
ATOM     14  C   UNL A   1      46.587  28.211  24.321  1.00  0.00     0.091 C 
ATOM     15  C   UNL A   1      47.587  27.096  24.462  1.00  0.00     0.071 C 
ATOM     16  N   UNL A   1      47.271  26.137  25.273  1.00  0.00    -0.176 NA
BRANCH  13  17
ATOM     17  C   UNL A   1      45.093  28.665  26.332  1.00  0.00    -0.023 A 
ATOM     18  C   UNL A   1      44.363  30.459  28.379  1.00  0.00     0.118 A 
ATOM     19  C   UNL A   1      43.412  30.009  27.464  1.00  0.00     0.047 A 
ATOM     20  C   UNL A   1      45.670  29.987  28.302  1.00  0.00     0.047 A 
ATOM     21  C   UNL A   1      43.773  29.126  26.441  1.00  0.00     0.010 A 
ATOM     22  C   UNL A   1      46.032  29.097  27.285  1.00  0.00     0.010 A 
BRANCH  18  23
ATOM     23  O   UNL A   1      43.900  31.310  29.346  1.00  0.00    -0.497 OA
ATOM     24  C   UNL A   1      44.032  32.693  29.030  1.00  0.00     0.278 C 
ENDBRANCH  18  23
ENDBRANCH  13  17
BRANCH  15  25
ATOM     25  C   UNL A   1      48.829  27.094  23.687  1.00  0.00    -0.002 A 
ATOM     26  C   UNL A   1      50.044  26.997  24.371  1.00  0.00     0.011 A 
ATOM     27  C   UNL A   1      48.792  27.219  22.296  1.00  0.00     0.011 A 
ATOM     28  C   UNL A   1      51.242  27.012  23.656  1.00  0.00     0.021 A 
ATOM     29  C   UNL A   1      49.990  27.261  21.581  1.00  0.00     0.021 A 
ATOM     30  C   UNL A   1      51.207  27.160  22.265  1.00  0.00     0.067 A 
BRANCH  30  31
ATOM     31  S   UNL A   1      52.738  27.209  21.366  1.00  0.00     0.175 S 
ATOM     32  C   UNL A   1      53.983  27.054  22.621  1.00  0.00     0.163 C 
ATOM     33  O   UNL A   1      52.770  26.023  20.534  1.00  0.00    -0.224 OA
ATOM     34  O   UNL A   1      52.864  28.534  20.786  1.00  0.00    -0.224 OA
ENDBRANCH  30  31
ENDBRANCH  15  25
ENDBRANCH   7  12
ENDBRANCH   3   6
ENDBRANCH   1   2
BRANCH   1  35
ATOM     35  C   UNL A   1      41.504  20.786  26.213  1.00  0.00     0.042 C 
BRANCH  35  36
ATOM     36  C   UNL A   1      40.420  21.571  26.944  1.00  0.00     0.118 C 
BRANCH  36  37
ATOM     37  N   UNL A   1      39.353  21.990  26.045  1.00  0.00    -0.352 N 
ATOM     38  C   UNL A   1      38.677  23.183  25.993  1.00  0.00     0.251 C 
ATOM     39  H   UNL A   1      39.076  21.320  25.378  1.00  0.00     0.163 HD
ATOM     40  O   UNL A   1      37.658  23.285  25.317  1.00  0.00    -0.269 OA
BRANCH  38  41
ATOM     41  C   UNL A   1      39.169  24.345  26.764  1.00  0.00     0.039 A 
ATOM     42  C   UNL A   1      40.006  25.273  26.136  1.00  0.00     0.014 A 
ATOM     43  C   UNL A   1      38.823  24.507  28.106  1.00  0.00     0.014 A 
ATOM     44  C   UNL A   1      40.447  26.397  26.839  1.00  0.00     0.010 A 
ATOM     45  C   UNL A   1      39.211  25.658  28.786  1.00  0.00     0.010 A 
ATOM     46  C   UNL A   1      40.026  26.612  28.160  1.00  0.00    -0.014 A 
BRANCH  46  47
ATOM     47  C   UNL A   1      40.421  27.822  28.924  1.00  0.00     0.031 A 
ATOM     48  C   UNL A   1      41.731  27.841  29.663  1.00  0.00     0.074 A 
ATOM     49  C   UNL A   1      39.562  28.853  29.039  1.00  0.00     0.049 A 
ATOM     50  N   UNL A   1      42.183  28.722  30.518  1.00  0.00    -0.248 NA
ATOM     51  C   UNL A   1      42.638  26.704  29.433  1.00  0.00     0.031 C 
ATOM     52  C   UNL A   1      38.255  28.948  28.386  1.00  0.00     0.029 A 
ATOM     53  N   UNL A   1      39.652  30.011  29.772  1.00  0.00    -0.354 N 
ATOM     54  C   UNL A   1      43.406  28.228  30.956  1.00  0.00     0.074 A 
ATOM     55  C   UNL A   1      43.615  26.960  30.290  1.00  0.00     0.031 C 
ATOM     56  C   UNL A   1      37.669  30.104  28.741  1.00  0.00     0.029 A 
ATOM     57  C   UNL A   1      38.534  30.805  29.684  1.00  0.00     0.049 A 
ATOM     58  H   UNL A   1      40.441  30.248  30.309  1.00  0.00     0.167 HD
ATOM     59  C   UNL A   1      44.277  28.784  31.830  1.00  0.00     0.031 A 
ATOM     60  C   UNL A   1      38.230  31.957  30.313  1.00  0.00     0.031 A 
ATOM     61  C   UNL A   1      44.084  30.059  32.464  1.00  0.00     0.049 A 
ATOM     62  C   UNL A   1      39.211  32.542  31.291  1.00  0.00     0.074 A 
ATOM     63  C   UNL A   1      44.945  30.742  33.304  1.00  0.00     0.029 A 
ATOM     64  N   UNL A   1      42.948  30.841  32.329  1.00  0.00    -0.354 N 
ATOM     65  N   UNL A   1      40.391  32.094  31.646  1.00  0.00    -0.248 NA
ATOM     66  C   UNL A   1      38.818  33.793  31.957  1.00  0.00     0.031 C 
ATOM     67  C   UNL A   1      44.311  31.917  33.717  1.00  0.00     0.029 A 
ATOM     68  C   UNL A   1      43.076  31.988  33.092  1.00  0.00     0.049 A 
ATOM     69  H   UNL A   1      42.167  30.615  31.774  1.00  0.00     0.167 HD
ATOM     70  C   UNL A   1      40.896  33.027  32.542  1.00  0.00     0.074 A 
ATOM     71  C   UNL A   1      39.897  34.067  32.676  1.00  0.00     0.031 C 
ATOM     72  C   UNL A   1      42.083  33.023  33.196  1.00  0.00     0.031 A 
BRANCH  59  73
ATOM     73  C   UNL A   1      45.521  28.010  32.167  1.00  0.00    -0.014 A 
ATOM     74  C   UNL A   1      46.708  28.181  31.439  1.00  0.00     0.009 A 
ATOM     75  C   UNL A   1      45.519  27.144  33.272  1.00  0.00     0.009 A 
ATOM     76  C   UNL A   1      47.861  27.477  31.793  1.00  0.00     0.001 A 
ATOM     77  C   UNL A   1      46.680  26.462  33.640  1.00  0.00     0.001 A 
ATOM     78  C   UNL A   1      47.848  26.624  32.896  1.00  0.00     0.000 A 
ENDBRANCH  59  73
BRANCH  60  79
ATOM     79  C   UNL A   1      36.937  32.640  30.048  1.00  0.00    -0.014 A 
ATOM     80  C   UNL A   1      36.824  33.558  28.992  1.00  0.00     0.009 A 
ATOM     81  C   UNL A   1      35.819  32.404  30.863  1.00  0.00     0.009 A 
ATOM     82  C   UNL A   1      35.630  34.250  28.779  1.00  0.00     0.001 A 
ATOM     83  C   UNL A   1      34.617  33.076  30.629  1.00  0.00     0.001 A 
ATOM     84  C   UNL A   1      34.526  34.007  29.596  1.00  0.00     0.000 A 
ENDBRANCH  60  79
BRANCH  72  85
ATOM     85  C   UNL A   1      42.397  34.204  34.067  1.00  0.00    -0.014 A 
ATOM     86  C   UNL A   1      42.092  34.203  35.436  1.00  0.00     0.009 A 
ATOM     87  C   UNL A   1      43.072  35.306  33.518  1.00  0.00     0.009 A 
ATOM     88  C   UNL A   1      42.439  35.295  36.234  1.00  0.00     0.001 A 
ATOM     89  C   UNL A   1      43.441  36.384  34.323  1.00  0.00     0.001 A 
ATOM     90  C   UNL A   1      43.118  36.379  35.679  1.00  0.00     0.000 A 
ENDBRANCH  72  85
ENDBRANCH  46  47
ENDBRANCH  38  41
ENDBRANCH  36  37
ENDBRANCH  35  36
ENDBRANCH   1  35
TORSDOF 15
ENDMDL
