MODEL 1
REMARK VINA RESULT:     -12.1      0.000      0.000
REMARK SMILES CC(=O)NS(=O)(=O)c1cc(-c2ccn(C(F)F)c(=O)c2)ccc1C(=O)NCCCNC(=O)c1ccc(-c2c3nc(c(-c4ccccc4)c4ccc([nH]4)c(-c4ccccc4)c4nc(c(-c5ccccc5)c5ccc2[nH]5)C=C4)C=C3)cc1
REMARK SMILES IDX 28 1 27 2 26 3 24 4 25 5 23 7 8 8 9 9 10 10 22 11 21 12 5 13
REMARK SMILES IDX 6 14 7 15 4 16 1 17 2 18 3 19 11 21 12 22 20 23 13 24 18 25
REMARK SMILES IDX 14 26 19 27 15 28 16 29 17 30 29 31 30 32 31 33 32 35 33 36
REMARK SMILES IDX 34 37 80 38 35 39 79 40 36 41 37 42 38 43 73 44 39 45 78 46
REMARK SMILES IDX 72 47 74 48 40 49 77 50 71 51 70 52 41 54 63 55 48 56 62 57
REMARK SMILES IDX 49 58 52 59 61 60 75 61 50 62 51 63 60 65 76 66 53 67 42 68
REMARK SMILES IDX 43 69 47 70 44 71 46 72 45 73 64 74 65 75 69 76 66 77 68 78
REMARK SMILES IDX 67 79 54 80 55 81 59 82 56 83 58 84 57 85
REMARK H PARENT 26 6 4 20 30 34 74 53 52 64
REMARK Flexibility Score: inf
ROOT
ATOM      1  C   UNL A   1      36.169  21.546  25.487  1.00  0.00     0.042 C 
ENDROOT
BRANCH   1   2
ATOM      2  C   UNL A   1      34.889  21.809  26.288  1.00  0.00     0.118 C 
BRANCH   2   3
ATOM      3  N   UNL A   1      33.815  20.903  25.931  1.00  0.00    -0.352 N 
ATOM      4  C   UNL A   1      32.544  21.128  25.493  1.00  0.00     0.252 C 
ATOM      5  O   UNL A   1      31.869  20.186  25.084  1.00  0.00    -0.269 OA
ATOM      6  H   UNL A   1      34.047  19.950  26.020  1.00  0.00     0.163 HD
BRANCH   4   7
ATOM      7  C   UNL A   1      31.937  22.471  25.434  1.00  0.00     0.060 A 
ATOM      8  C   UNL A   1      32.088  23.355  24.362  1.00  0.00     0.101 A 
ATOM      9  C   UNL A   1      31.755  24.710  24.523  1.00  0.00     0.031 A 
ATOM     10  C   UNL A   1      31.339  25.202  25.768  1.00  0.00    -0.017 A 
ATOM     11  C   UNL A   1      31.423  22.952  26.652  1.00  0.00     0.016 A 
ATOM     12  C   UNL A   1      31.131  24.309  26.821  1.00  0.00     0.009 A 
BRANCH   8  13
ATOM     13  S   UNL A   1      32.831  22.847  22.843  1.00  0.00     0.264 S 
ATOM     14  O   UNL A   1      32.120  21.657  22.431  1.00  0.00    -0.201 OA
ATOM     15  O   UNL A   1      34.268  22.878  22.962  1.00  0.00    -0.201 OA
BRANCH  13  16
ATOM     16  N   UNL A   1      32.402  24.012  21.741  1.00  0.00    -0.249 N 
ATOM     17  C   UNL A   1      33.852  25.908  22.499  1.00  0.00     0.115 C 
ATOM     18  C   UNL A   1      33.100  25.185  21.418  1.00  0.00     0.230 C 
ATOM     19  O   UNL A   1      32.940  25.670  20.306  1.00  0.00    -0.274 OA
ATOM     20  H   UNL A   1      31.558  23.863  21.258  1.00  0.00     0.183 HD
ENDBRANCH  13  16
ENDBRANCH   8  13
BRANCH  10  21
ATOM     21  C   UNL A   1      31.379  26.660  26.002  1.00  0.00    -0.011 A 
ATOM     22  C   UNL A   1      31.885  27.193  27.257  1.00  0.00     0.027 A 
ATOM     23  C   UNL A   1      31.085  27.509  25.004  1.00  0.00     0.080 A 
ATOM     24  C   UNL A   1      32.132  28.501  27.392  1.00  0.00     0.095 A 
ATOM     25  C   UNL A   1      31.319  28.976  25.156  1.00  0.00     0.255 A 
ATOM     26  N   UNL A   1      31.879  29.380  26.359  1.00  0.00    -0.258 N 
ATOM     27  O   UNL A   1      31.044  29.709  24.213  1.00  0.00    -0.269 OA
BRANCH  26  28
ATOM     28  C   UNL A   1      32.217  30.775  26.492  1.00  0.00     0.451 C 
ATOM     29  F   UNL A   1      31.105  31.522  26.704  1.00  0.00    -0.185 F 
ATOM     30  F   UNL A   1      33.065  30.978  27.528  1.00  0.00    -0.185 F 
ENDBRANCH  26  28
ENDBRANCH  10  21
ENDBRANCH   4   7
ENDBRANCH   2   3
ENDBRANCH   1   2
BRANCH   1  31
ATOM     31  C   UNL A   1      37.179  22.699  25.539  1.00  0.00     0.118 C 
BRANCH  31  32
ATOM     32  N   UNL A   1      38.526  22.207  25.769  1.00  0.00    -0.352 N 
ATOM     33  C   UNL A   1      39.664  22.813  26.228  1.00  0.00     0.251 C 
ATOM     34  H   UNL A   1      38.643  21.253  25.555  1.00  0.00     0.163 HD
ATOM     35  O   UNL A   1      40.730  22.208  26.118  1.00  0.00    -0.269 OA
BRANCH  33  36
ATOM     36  C   UNL A   1      39.669  24.152  26.865  1.00  0.00     0.039 A 
ATOM     37  C   UNL A   1      40.380  25.173  26.217  1.00  0.00     0.014 A 
ATOM     38  C   UNL A   1      39.155  24.382  28.143  1.00  0.00     0.014 A 
ATOM     39  C   UNL A   1      40.580  26.409  26.840  1.00  0.00     0.010 A 
ATOM     40  C   UNL A   1      39.330  25.631  28.757  1.00  0.00     0.010 A 
ATOM     41  C   UNL A   1      40.065  26.645  28.122  1.00  0.00    -0.014 A 
BRANCH  41  42
ATOM     42  C   UNL A   1      40.374  27.911  28.834  1.00  0.00     0.031 A 
ATOM     43  C   UNL A   1      41.728  28.113  29.459  1.00  0.00     0.074 A 
ATOM     44  C   UNL A   1      39.454  28.889  28.925  1.00  0.00     0.049 A 
ATOM     45  N   UNL A   1      42.160  29.109  30.193  1.00  0.00    -0.248 NA
ATOM     46  C   UNL A   1      42.724  27.053  29.236  1.00  0.00     0.031 C 
ATOM     47  C   UNL A   1      38.106  28.844  28.362  1.00  0.00     0.029 A 
ATOM     48  N   UNL A   1      39.526  30.120  29.530  1.00  0.00    -0.354 N 
ATOM     49  C   UNL A   1      43.456  28.774  30.559  1.00  0.00     0.074 A 
ATOM     50  C   UNL A   1      43.750  27.493  29.952  1.00  0.00     0.031 C 
ATOM     51  C   UNL A   1      37.480  30.002  28.635  1.00  0.00     0.029 A 
ATOM     52  C   UNL A   1      38.377  30.859  29.408  1.00  0.00     0.049 A 
ATOM     53  H   UNL A   1      40.326  30.441  30.005  1.00  0.00     0.167 HD
ATOM     54  C   UNL A   1      44.325  29.463  31.338  1.00  0.00     0.031 A 
ATOM     55  C   UNL A   1      38.074  32.085  29.872  1.00  0.00     0.031 A 
ATOM     56  C   UNL A   1      44.074  30.755  31.911  1.00  0.00     0.049 A 
ATOM     57  C   UNL A   1      39.078  32.859  30.675  1.00  0.00     0.074 A 
ATOM     58  C   UNL A   1      44.904  31.521  32.713  1.00  0.00     0.029 A 
ATOM     59  N   UNL A   1      42.913  31.484  31.725  1.00  0.00    -0.354 N 
ATOM     60  N   UNL A   1      40.284  32.509  31.043  1.00  0.00    -0.248 NA
ATOM     61  C   UNL A   1      38.671  34.197  31.131  1.00  0.00     0.031 C 
ATOM     62  C   UNL A   1      44.243  32.720  33.009  1.00  0.00     0.029 A 
ATOM     63  C   UNL A   1      43.006  32.696  32.387  1.00  0.00     0.049 A 
ATOM     64  H   UNL A   1      42.135  31.184  31.201  1.00  0.00     0.167 HD
ATOM     65  C   UNL A   1      40.780  33.579  31.774  1.00  0.00     0.074 A 
ATOM     66  C   UNL A   1      39.750  34.598  31.789  1.00  0.00     0.031 C 
ATOM     67  C   UNL A   1      41.982  33.702  32.386  1.00  0.00     0.031 A 
BRANCH  54  68
ATOM     68  C   UNL A   1      45.635  28.802  31.636  1.00  0.00    -0.014 A 
ATOM     69  C   UNL A   1      46.780  29.099  30.882  1.00  0.00     0.009 A 
ATOM     70  C   UNL A   1      45.726  27.887  32.695  1.00  0.00     0.009 A 
ATOM     71  C   UNL A   1      47.993  28.473  31.176  1.00  0.00     0.001 A 
ATOM     72  C   UNL A   1      46.941  27.269  32.991  1.00  0.00     0.001 A 
ATOM     73  C   UNL A   1      48.072  27.559  32.229  1.00  0.00     0.000 A 
ENDBRANCH  54  68
BRANCH  55  74
ATOM     74  C   UNL A   1      36.743  32.670  29.588  1.00  0.00    -0.014 A 
ATOM     75  C   UNL A   1      36.499  33.307  28.363  1.00  0.00     0.009 A 
ATOM     76  C   UNL A   1      35.721  32.601  30.544  1.00  0.00     0.009 A 
ATOM     77  C   UNL A   1      35.252  33.878  28.105  1.00  0.00     0.001 A 
ATOM     78  C   UNL A   1      34.473  33.166  30.279  1.00  0.00     0.001 A 
ATOM     79  C   UNL A   1      34.241  33.806  29.062  1.00  0.00     0.000 A 
ENDBRANCH  55  74
BRANCH  67  80
ATOM     80  C   UNL A   1      42.247  34.984  33.112  1.00  0.00    -0.014 A 
ATOM     81  C   UNL A   1      41.739  35.187  34.404  1.00  0.00     0.009 A 
ATOM     82  C   UNL A   1      43.030  35.982  32.516  1.00  0.00     0.009 A 
ATOM     83  C   UNL A   1      41.999  36.379  35.081  1.00  0.00     0.001 A 
ATOM     84  C   UNL A   1      43.290  37.172  33.197  1.00  0.00     0.001 A 
ATOM     85  C   UNL A   1      42.774  37.370  34.477  1.00  0.00     0.000 A 
ENDBRANCH  67  80
ENDBRANCH  41  42
ENDBRANCH  33  36
ENDBRANCH  31  32
ENDBRANCH   1  31
TORSDOF 14
ENDMDL
MODEL 2
REMARK VINA RESULT:     -12.0      3.489      8.285
REMARK SMILES CC(=O)NS(=O)(=O)c1cc(-c2ccn(C(F)F)c(=O)c2)ccc1C(=O)NCCCNC(=O)c1ccc(-c2c3nc(c(-c4ccccc4)c4ccc([nH]4)c(-c4ccccc4)c4nc(c(-c5ccccc5)c5ccc2[nH]5)C=C4)C=C3)cc1
REMARK SMILES IDX 28 1 27 2 26 3 24 4 25 5 23 7 8 8 9 9 10 10 22 11 21 12 5 13
REMARK SMILES IDX 6 14 7 15 4 16 1 17 2 18 3 19 11 21 12 22 20 23 13 24 18 25
REMARK SMILES IDX 14 26 19 27 15 28 16 29 17 30 29 31 30 32 31 33 32 35 33 36
REMARK SMILES IDX 34 37 80 38 35 39 79 40 36 41 37 42 38 43 73 44 39 45 78 46
REMARK SMILES IDX 72 47 74 48 40 49 77 50 71 51 70 52 41 54 63 55 48 56 62 57
REMARK SMILES IDX 49 58 52 59 61 60 75 61 50 62 51 63 60 65 76 66 53 67 42 68
REMARK SMILES IDX 43 69 47 70 44 71 46 72 45 73 64 74 65 75 69 76 66 77 68 78
REMARK SMILES IDX 67 79 54 80 55 81 59 82 56 83 58 84 57 85
REMARK H PARENT 26 6 4 20 30 34 74 53 52 64
REMARK Flexibility Score: inf
ROOT
ATOM      1  C   UNL A   1      32.153  29.053  26.756  1.00  0.00     0.042 C 
ENDROOT
BRANCH   1   2
ATOM      2  C   UNL A   1      32.270  27.546  27.010  1.00  0.00     0.118 C 
BRANCH   2   3
ATOM      3  N   UNL A   1      30.987  26.872  26.952  1.00  0.00    -0.352 N 
ATOM      4  C   UNL A   1      30.640  25.612  26.566  1.00  0.00     0.252 C 
ATOM      5  O   UNL A   1      29.496  25.210  26.773  1.00  0.00    -0.269 OA
ATOM      6  H   UNL A   1      30.228  27.427  27.246  1.00  0.00     0.163 HD
BRANCH   4   7
ATOM      7  C   UNL A   1      31.588  24.666  25.948  1.00  0.00     0.060 A 
ATOM      8  C   UNL A   1      31.681  24.431  24.574  1.00  0.00     0.101 A 
ATOM      9  C   UNL A   1      32.369  23.300  24.105  1.00  0.00     0.031 A 
ATOM     10  C   UNL A   1      32.904  22.364  25.001  1.00  0.00    -0.017 A 
ATOM     11  C   UNL A   1      32.214  23.776  26.840  1.00  0.00     0.016 A 
ATOM     12  C   UNL A   1      32.863  22.630  26.371  1.00  0.00     0.009 A 
BRANCH   8  13
ATOM     13  S   UNL A   1      30.826  25.441  23.404  1.00  0.00     0.264 S 
ATOM     14  O   UNL A   1      31.205  26.804  23.704  1.00  0.00    -0.201 OA
ATOM     15  O   UNL A   1      29.447  25.030  23.313  1.00  0.00    -0.201 OA
BRANCH  13  16
ATOM     16  N   UNL A   1      31.538  25.104  21.942  1.00  0.00    -0.249 N 
ATOM     17  C   UNL A   1      33.494  26.667  22.021  1.00  0.00     0.115 C 
ATOM     18  C   UNL A   1      32.849  25.398  21.540  1.00  0.00     0.230 C 
ATOM     19  O   UNL A   1      33.365  24.696  20.680  1.00  0.00    -0.274 OA
ATOM     20  H   UNL A   1      30.974  24.646  21.280  1.00  0.00     0.183 HD
ENDBRANCH  13  16
ENDBRANCH   8  13
BRANCH  10  21
ATOM     21  C   UNL A   1      33.261  21.024  24.496  1.00  0.00    -0.011 A 
ATOM     22  C   UNL A   1      34.428  20.325  25.012  1.00  0.00     0.027 A 
ATOM     23  C   UNL A   1      32.430  20.377  23.662  1.00  0.00     0.080 A 
ATOM     24  C   UNL A   1      34.631  19.035  24.729  1.00  0.00     0.095 A 
ATOM     25  C   UNL A   1      32.668  18.946  23.306  1.00  0.00     0.255 A 
ATOM     26  N   UNL A   1      33.760  18.343  23.911  1.00  0.00    -0.258 N 
ATOM     27  O   UNL A   1      31.875  18.396  22.549  1.00  0.00    -0.269 OA
BRANCH  26  28
ATOM     28  C   UNL A   1      33.951  16.935  23.671  1.00  0.00     0.451 C 
ATOM     29  F   UNL A   1      34.489  16.722  22.445  1.00  0.00    -0.185 F 
ATOM     30  F   UNL A   1      34.776  16.387  24.595  1.00  0.00    -0.185 F 
ENDBRANCH  26  28
ENDBRANCH  10  21
ENDBRANCH   4   7
ENDBRANCH   2   3
ENDBRANCH   1   2
BRANCH   1  31
ATOM     31  C   UNL A   1      33.503  29.755  26.568  1.00  0.00     0.118 C 
BRANCH  31  32
ATOM     32  N   UNL A   1      33.687  30.809  27.551  1.00  0.00    -0.352 N 
ATOM     33  C   UNL A   1      34.652  31.031  28.496  1.00  0.00     0.251 C 
ATOM     34  H   UNL A   1      32.983  31.497  27.533  1.00  0.00     0.163 HD
ATOM     35  O   UNL A   1      34.444  31.894  29.348  1.00  0.00    -0.269 OA
BRANCH  33  36
ATOM     36  C   UNL A   1      35.938  30.295  28.530  1.00  0.00     0.039 A 
ATOM     37  C   UNL A   1      36.295  29.670  29.734  1.00  0.00     0.014 A 
ATOM     38  C   UNL A   1      36.868  30.350  27.488  1.00  0.00     0.014 A 
ATOM     39  C   UNL A   1      37.566  29.111  29.899  1.00  0.00     0.010 A 
ATOM     40  C   UNL A   1      38.132  29.763  27.641  1.00  0.00     0.010 A 
ATOM     41  C   UNL A   1      38.500  29.163  28.856  1.00  0.00    -0.014 A 
BRANCH  41  42
ATOM     42  C   UNL A   1      39.887  28.676  29.066  1.00  0.00     0.031 A 
ATOM     43  C   UNL A   1      40.903  29.559  29.740  1.00  0.00     0.074 A 
ATOM     44  C   UNL A   1      40.251  27.444  28.663  1.00  0.00     0.049 A 
ATOM     45  N   UNL A   1      42.181  29.349  29.938  1.00  0.00    -0.248 NA
ATOM     46  C   UNL A   1      40.419  30.851  30.252  1.00  0.00     0.031 C 
ATOM     47  C   UNL A   1      39.378  26.472  28.007  1.00  0.00     0.029 A 
ATOM     48  N   UNL A   1      41.462  26.802  28.754  1.00  0.00    -0.354 N 
ATOM     49  C   UNL A   1      42.662  30.497  30.550  1.00  0.00     0.074 A 
ATOM     50  C   UNL A   1      41.538  31.395  30.711  1.00  0.00     0.031 C 
ATOM     51  C   UNL A   1      40.079  25.349  27.767  1.00  0.00     0.029 A 
ATOM     52  C   UNL A   1      41.451  25.534  28.233  1.00  0.00     0.049 A 
ATOM     53  H   UNL A   1      42.261  27.215  29.154  1.00  0.00     0.167 HD
ATOM     54  C   UNL A   1      43.927  30.788  30.938  1.00  0.00     0.031 A 
ATOM     55  C   UNL A   1      42.436  24.622  28.135  1.00  0.00     0.031 A 
ATOM     56  C   UNL A   1      45.048  29.896  30.833  1.00  0.00     0.049 A 
ATOM     57  C   UNL A   1      43.814  24.941  28.634  1.00  0.00     0.074 A 
ATOM     58  C   UNL A   1      46.365  30.116  31.205  1.00  0.00     0.029 A 
ATOM     59  N   UNL A   1      44.981  28.606  30.340  1.00  0.00    -0.354 N 
ATOM     60  N   UNL A   1      44.259  26.047  29.175  1.00  0.00    -0.248 NA
ATOM     61  C   UNL A   1      44.828  23.882  28.502  1.00  0.00     0.031 C 
ATOM     62  C   UNL A   1      47.095  28.950  30.938  1.00  0.00     0.029 A 
ATOM     63  C   UNL A   1      46.229  28.010  30.406  1.00  0.00     0.049 A 
ATOM     64  H   UNL A   1      44.166  28.175  29.992  1.00  0.00     0.167 HD
ATOM     65  C   UNL A   1      45.601  25.821  29.445  1.00  0.00     0.074 A 
ATOM     66  C   UNL A   1      45.898  24.468  29.021  1.00  0.00     0.031 C 
ATOM     67  C   UNL A   1      46.509  26.664  29.991  1.00  0.00     0.031 A 
BRANCH  54  68
ATOM     68  C   UNL A   1      44.166  32.157  31.495  1.00  0.00    -0.014 A 
ATOM     69  C   UNL A   1      44.076  32.401  32.873  1.00  0.00     0.009 A 
ATOM     70  C   UNL A   1      44.501  33.209  30.630  1.00  0.00     0.009 A 
ATOM     71  C   UNL A   1      44.303  33.685  33.373  1.00  0.00     0.001 A 
ATOM     72  C   UNL A   1      44.735  34.489  31.134  1.00  0.00     0.001 A 
ATOM     73  C   UNL A   1      44.632  34.726  32.504  1.00  0.00     0.000 A 
ENDBRANCH  54  68
BRANCH  55  74
ATOM     74  C   UNL A   1      42.154  23.300  27.530  1.00  0.00    -0.014 A 
ATOM     75  C   UNL A   1      41.555  22.288  28.293  1.00  0.00     0.009 A 
ATOM     76  C   UNL A   1      42.494  23.046  26.194  1.00  0.00     0.009 A 
ATOM     77  C   UNL A   1      41.311  21.035  27.729  1.00  0.00     0.001 A 
ATOM     78  C   UNL A   1      42.241  21.794  25.632  1.00  0.00     0.001 A 
ATOM     79  C   UNL A   1      41.654  20.789  26.400  1.00  0.00     0.000 A 
ENDBRANCH  55  74
BRANCH  67  80
ATOM     80  C   UNL A   1      47.901  26.144  30.166  1.00  0.00    -0.014 A 
ATOM     81  C   UNL A   1      48.768  26.050  29.067  1.00  0.00     0.009 A 
ATOM     82  C   UNL A   1      48.360  25.772  31.437  1.00  0.00     0.009 A 
ATOM     83  C   UNL A   1      50.069  25.576  29.237  1.00  0.00     0.001 A 
ATOM     84  C   UNL A   1      49.663  25.301  31.604  1.00  0.00     0.001 A 
ATOM     85  C   UNL A   1      50.515  25.201  30.505  1.00  0.00     0.000 A 
ENDBRANCH  67  80
ENDBRANCH  41  42
ENDBRANCH  33  36
ENDBRANCH  31  32
ENDBRANCH   1  31
TORSDOF 14
ENDMDL
MODEL 3
REMARK VINA RESULT:     -11.9      3.605      8.495
REMARK SMILES CC(=O)NS(=O)(=O)c1cc(-c2ccn(C(F)F)c(=O)c2)ccc1C(=O)NCCCNC(=O)c1ccc(-c2c3nc(c(-c4ccccc4)c4ccc([nH]4)c(-c4ccccc4)c4nc(c(-c5ccccc5)c5ccc2[nH]5)C=C4)C=C3)cc1
REMARK SMILES IDX 28 1 27 2 26 3 24 4 25 5 23 7 8 8 9 9 10 10 22 11 21 12 5 13
REMARK SMILES IDX 6 14 7 15 4 16 1 17 2 18 3 19 11 21 12 22 20 23 13 24 18 25
REMARK SMILES IDX 14 26 19 27 15 28 16 29 17 30 29 31 30 32 31 33 32 35 33 36
REMARK SMILES IDX 34 37 80 38 35 39 79 40 36 41 37 42 38 43 73 44 39 45 78 46
REMARK SMILES IDX 72 47 74 48 40 49 77 50 71 51 70 52 41 54 63 55 48 56 62 57
REMARK SMILES IDX 49 58 52 59 61 60 75 61 50 62 51 63 60 65 76 66 53 67 42 68
REMARK SMILES IDX 43 69 47 70 44 71 46 72 45 73 64 74 65 75 69 76 66 77 68 78
REMARK SMILES IDX 67 79 54 80 55 81 59 82 56 83 58 84 57 85
REMARK H PARENT 26 6 4 20 30 34 74 53 52 64
REMARK Flexibility Score: inf
ROOT
ATOM      1  C   UNL A   1      33.694  27.609  25.018  1.00  0.00     0.042 C 
ENDROOT
BRANCH   1   2
ATOM      2  C   UNL A   1      33.331  26.131  24.836  1.00  0.00     0.118 C 
BRANCH   2   3
ATOM      3  N   UNL A   1      33.564  25.664  23.484  1.00  0.00    -0.352 N 
ATOM      4  C   UNL A   1      33.626  24.410  22.954  1.00  0.00     0.252 C 
ATOM      5  O   UNL A   1      33.662  24.270  21.733  1.00  0.00    -0.269 OA
ATOM      6  H   UNL A   1      33.702  26.385  22.828  1.00  0.00     0.163 HD
BRANCH   4   7
ATOM      7  C   UNL A   1      33.599  23.185  23.774  1.00  0.00     0.060 A 
ATOM      8  C   UNL A   1      34.740  22.509  24.216  1.00  0.00     0.101 A 
ATOM      9  C   UNL A   1      34.629  21.198  24.706  1.00  0.00     0.031 A 
ATOM     10  C   UNL A   1      33.397  20.530  24.690  1.00  0.00    -0.017 A 
ATOM     11  C   UNL A   1      32.349  22.544  23.855  1.00  0.00     0.016 A 
ATOM     12  C   UNL A   1      32.248  21.224  24.305  1.00  0.00     0.009 A 
BRANCH   8  13
ATOM     13  S   UNL A   1      36.353  23.208  24.039  1.00  0.00     0.264 S 
ATOM     14  O   UNL A   1      36.492  24.163  25.115  1.00  0.00    -0.201 OA
ATOM     15  O   UNL A   1      36.588  23.563  22.661  1.00  0.00    -0.201 OA
BRANCH  13  16
ATOM     16  N   UNL A   1      37.400  21.975  24.415  1.00  0.00    -0.249 N 
ATOM     17  C   UNL A   1      38.771  23.074  26.200  1.00  0.00     0.115 C 
ATOM     18  C   UNL A   1      38.189  21.842  25.567  1.00  0.00     0.230 C 
ATOM     19  O   UNL A   1      38.512  20.718  25.924  1.00  0.00    -0.274 OA
ATOM     20  H   UNL A   1      37.477  21.253  23.751  1.00  0.00     0.183 HD
ENDBRANCH  13  16
ENDBRANCH   8  13
BRANCH  10  21
ATOM     21  C   UNL A   1      33.386  19.060  24.833  1.00  0.00    -0.011 A 
ATOM     22  C   UNL A   1      32.799  18.436  26.008  1.00  0.00     0.027 A 
ATOM     23  C   UNL A   1      33.788  18.283  23.814  1.00  0.00     0.080 A 
ATOM     24  C   UNL A   1      32.585  17.116  26.044  1.00  0.00     0.095 A 
ATOM     25  C   UNL A   1      33.590  16.804  23.858  1.00  0.00     0.255 A 
ATOM     26  N   UNL A   1      32.949  16.310  24.985  1.00  0.00    -0.258 N 
ATOM     27  O   UNL A   1      33.964  16.138  22.899  1.00  0.00    -0.269 OA
BRANCH  26  28
ATOM     28  C   UNL A   1      32.648  14.901  25.006  1.00  0.00     0.451 C 
ATOM     29  F   UNL A   1      33.626  14.208  25.640  1.00  0.00    -0.185 F 
ATOM     30  F   UNL A   1      31.478  14.658  25.644  1.00  0.00    -0.185 F 
ENDBRANCH  26  28
ENDBRANCH  10  21
ENDBRANCH   4   7
ENDBRANCH   2   3
ENDBRANCH   1   2
BRANCH   1  31
ATOM     31  C   UNL A   1      34.067  27.982  26.457  1.00  0.00     0.118 C 
BRANCH  31  32
ATOM     32  N   UNL A   1      33.818  29.391  26.715  1.00  0.00    -0.352 N 
ATOM     33  C   UNL A   1      34.466  30.315  27.489  1.00  0.00     0.251 C 
ATOM     34  H   UNL A   1      33.033  29.749  26.242  1.00  0.00     0.163 HD
ATOM     35  O   UNL A   1      33.908  31.392  27.698  1.00  0.00    -0.269 OA
BRANCH  33  36
ATOM     36  C   UNL A   1      35.811  30.088  28.069  1.00  0.00     0.039 A 
ATOM     37  C   UNL A   1      36.918  30.252  27.223  1.00  0.00     0.014 A 
ATOM     38  C   UNL A   1      36.002  29.556  29.347  1.00  0.00     0.014 A 
ATOM     39  C   UNL A   1      38.199  29.885  27.645  1.00  0.00     0.010 A 
ATOM     40  C   UNL A   1      37.291  29.215  29.782  1.00  0.00     0.010 A 
ATOM     41  C   UNL A   1      38.395  29.352  28.925  1.00  0.00    -0.014 A 
BRANCH  41  42
ATOM     42  C   UNL A   1      39.732  28.853  29.335  1.00  0.00     0.031 A 
ATOM     43  C   UNL A   1      40.592  29.672  30.261  1.00  0.00     0.074 A 
ATOM     44  C   UNL A   1      40.188  27.666  28.892  1.00  0.00     0.049 A 
ATOM     45  N   UNL A   1      41.818  29.449  30.664  1.00  0.00    -0.248 NA
ATOM     46  C   UNL A   1      39.997  30.908  30.794  1.00  0.00     0.031 C 
ATOM     47  C   UNL A   1      39.466  26.757  28.002  1.00  0.00     0.029 A 
ATOM     48  N   UNL A   1      41.376  27.023  29.140  1.00  0.00    -0.354 N 
ATOM     49  C   UNL A   1      42.158  30.536  31.457  1.00  0.00     0.074 A 
ATOM     50  C   UNL A   1      41.004  31.410  31.495  1.00  0.00     0.031 C 
ATOM     51  C   UNL A   1      40.222  25.665  27.789  1.00  0.00     0.029 A 
ATOM     52  C   UNL A   1      41.485  25.810  28.511  1.00  0.00     0.049 A 
ATOM     53  H   UNL A   1      42.082  27.399  29.714  1.00  0.00     0.167 HD
ATOM     54  C   UNL A   1      43.327  30.793  32.092  1.00  0.00     0.031 A 
ATOM     55  C   UNL A   1      42.489  24.915  28.508  1.00  0.00     0.031 A 
ATOM     56  C   UNL A   1      44.467  29.920  32.109  1.00  0.00     0.049 A 
ATOM     57  C   UNL A   1      43.749  25.191  29.274  1.00  0.00     0.074 A 
ATOM     58  C   UNL A   1      45.691  30.108  32.730  1.00  0.00     0.029 A 
ATOM     59  N   UNL A   1      44.516  28.682  31.494  1.00  0.00    -0.354 N 
ATOM     60  N   UNL A   1      44.067  26.242  29.986  1.00  0.00    -0.248 NA
ATOM     61  C   UNL A   1      44.792  24.153  29.229  1.00  0.00     0.031 C 
ATOM     62  C   UNL A   1      46.481  28.976  32.492  1.00  0.00     0.029 A 
ATOM     63  C   UNL A   1      45.744  28.087  31.728  1.00  0.00     0.049 A 
ATOM     64  H   UNL A   1      43.785  28.283  30.967  1.00  0.00     0.167 HD
ATOM     65  C   UNL A   1      45.344  25.996  30.472  1.00  0.00     0.074 A 
ATOM     66  C   UNL A   1      45.740  24.691  29.984  1.00  0.00     0.031 C 
ATOM     67  C   UNL A   1      46.122  26.788  31.247  1.00  0.00     0.031 A 
BRANCH  54  68
ATOM     68  C   UNL A   1      43.433  32.104  32.807  1.00  0.00    -0.014 A 
ATOM     69  C   UNL A   1      43.882  33.254  32.141  1.00  0.00     0.009 A 
ATOM     70  C   UNL A   1      43.062  32.191  34.157  1.00  0.00     0.009 A 
ATOM     71  C   UNL A   1      43.972  34.468  32.825  1.00  0.00     0.001 A 
ATOM     72  C   UNL A   1      43.147  33.407  34.835  1.00  0.00     0.001 A 
ATOM     73  C   UNL A   1      43.606  34.544  34.170  1.00  0.00     0.000 A 
ENDBRANCH  54  68
BRANCH  55  74
ATOM     74  C   UNL A   1      42.349  23.655  27.742  1.00  0.00    -0.014 A 
ATOM     75  C   UNL A   1      42.658  23.621  26.376  1.00  0.00     0.009 A 
ATOM     76  C   UNL A   1      41.895  22.489  28.375  1.00  0.00     0.009 A 
ATOM     77  C   UNL A   1      42.503  22.439  25.650  1.00  0.00     0.001 A 
ATOM     78  C   UNL A   1      41.750  21.307  27.647  1.00  0.00     0.001 A 
ATOM     79  C   UNL A   1      42.050  21.284  26.285  1.00  0.00     0.000 A 
ENDBRANCH  55  74
BRANCH  67  80
ATOM     80  C   UNL A   1      47.471  26.259  31.621  1.00  0.00    -0.014 A 
ATOM     81  C   UNL A   1      47.653  25.566  32.827  1.00  0.00     0.009 A 
ATOM     82  C   UNL A   1      48.559  26.429  30.754  1.00  0.00     0.009 A 
ATOM     83  C   UNL A   1      48.911  25.064  33.165  1.00  0.00     0.001 A 
ATOM     84  C   UNL A   1      49.815  25.923  31.094  1.00  0.00     0.001 A 
ATOM     85  C   UNL A   1      49.990  25.243  32.299  1.00  0.00     0.000 A 
ENDBRANCH  67  80
ENDBRANCH  41  42
ENDBRANCH  33  36
ENDBRANCH  31  32
ENDBRANCH   1  31
TORSDOF 14
ENDMDL
