MODEL 1
REMARK VINA RESULT:     -11.6      0.000      0.000
REMARK SMILES CC(C)c1cc(O)cc(C(C)C)c1O[C@@H]1O[C@@H](C(=O)NCCCNC(=O)c2ccc(-c3c4nc(c(-c5ccccc5)c5ccc([nH]5)c(-c5ccccc5)c5nc(c(-c6ccccc6)c6ccc3[nH]6)C=C5)C=C4)cc2)[C@@H](O)[C@H](O)[C@@H]1O
REMARK SMILES IDX 21 1 20 2 18 3 19 4 17 6 15 7 16 8 79 9 77 10 75 11 14 12
REMARK SMILES IDX 13 13 4 14 5 15 6 16 9 17 8 18 2 19 1 20 3 21 7 22 10 24
REMARK SMILES IDX 11 25 12 26 80 27 78 29 76 31 22 33 23 34 24 35 25 36 26 38
REMARK SMILES IDX 27 39 28 40 74 41 29 42 73 43 30 44 31 45 32 46 67 47 33 48
REMARK SMILES IDX 72 49 66 50 68 51 34 52 71 53 65 54 64 55 35 57 57 58 42 59
REMARK SMILES IDX 56 60 43 61 46 62 55 63 69 64 44 65 45 66 54 68 70 69 47 70
REMARK SMILES IDX 36 71 37 72 41 73 38 74 40 75 39 76 58 77 59 78 63 79 60 80
REMARK SMILES IDX 62 81 61 82 48 83 49 84 53 85 50 86 52 87 51 88
REMARK H PARENT 20 5 7 23 80 28 78 30 76 32 24 37 68 56 46 67
REMARK Flexibility Score: inf
ROOT
ATOM      1  C   UNL A   1      32.305  29.862  25.403  1.00  0.00     0.117 C 
ENDROOT
BRANCH   1   2
ATOM      2  N   UNL A   1      33.109  29.456  24.258  1.00  0.00    -0.354 N 
ATOM      3  C   UNL A   1      33.036  28.457  23.342  1.00  0.00     0.252 C 
ATOM      4  O   UNL A   1      33.794  28.601  22.372  1.00  0.00    -0.272 OA
ATOM      5  H   UNL A   1      33.886  30.043  24.115  1.00  0.00     0.163 HD
BRANCH   3   6
ATOM      6  C   UNL A   1      32.146  27.179  23.424  1.00  0.00     0.242 C 
ATOM      7  C   UNL A   1      33.849  25.621  24.122  1.00  0.00     0.339 C 
ATOM      8  O   UNL A   1      32.601  26.250  24.429  1.00  0.00    -0.324 OA
ATOM      9  C   UNL A   1      34.071  25.114  22.662  1.00  0.00     0.214 C 
ATOM     10  C   UNL A   1      33.189  25.814  21.610  1.00  0.00     0.181 C 
ATOM     11  C   UNL A   1      31.861  26.365  22.172  1.00  0.00     0.184 C 
BRANCH   7  12
ATOM     12  O   UNL A   1      34.272  24.649  25.088  1.00  0.00    -0.461 OA
BRANCH  12  13
ATOM     13  C   UNL A   1      33.936  23.345  25.292  1.00  0.00     0.130 A 
ATOM     14  C   UNL A   1      35.063  22.470  25.183  1.00  0.00     0.001 A 
ATOM     15  C   UNL A   1      34.877  21.077  25.362  1.00  0.00     0.054 A 
ATOM     16  C   UNL A   1      33.627  20.547  25.606  1.00  0.00     0.116 A 
ATOM     17  C   UNL A   1      32.655  22.780  25.553  1.00  0.00     0.001 A 
ATOM     18  C   UNL A   1      32.536  21.382  25.710  1.00  0.00     0.054 A 
BRANCH  14  19
ATOM     19  C   UNL A   1      36.515  22.880  24.872  1.00  0.00     0.017 C 
ATOM     20  C   UNL A   1      37.502  22.088  25.751  1.00  0.00     0.012 C 
ATOM     21  C   UNL A   1      37.028  22.832  23.428  1.00  0.00     0.012 C 
ENDBRANCH  14  19
BRANCH  16  22
ATOM     22  O   UNL A   1      33.420  19.209  25.743  1.00  0.00    -0.508 OA
ATOM     23  H   UNL A   1      33.317  18.671  24.983  1.00  0.00     0.293 HD
ENDBRANCH  16  22
BRANCH  17  24
ATOM     24  C   UNL A   1      31.351  23.537  25.692  1.00  0.00     0.017 C 
ATOM     25  C   UNL A   1      30.575  23.746  24.383  1.00  0.00     0.012 C 
ATOM     26  C   UNL A   1      30.449  22.953  26.779  1.00  0.00     0.012 C 
ENDBRANCH  17  24
ENDBRANCH  12  13
ENDBRANCH   7  12
BRANCH   9  27
ATOM     27  O   UNL A   1      33.919  23.695  22.478  1.00  0.00    -0.384 OA
ATOM     28  H   UNL A   1      32.995  23.445  22.635  1.00  0.00     0.211 HD
ENDBRANCH   9  27
BRANCH  10  29
ATOM     29  O   UNL A   1      32.926  24.928  20.511  1.00  0.00    -0.387 OA
ATOM     30  H   UNL A   1      33.634  25.011  19.853  1.00  0.00     0.211 HD
ENDBRANCH  10  29
BRANCH  11  31
ATOM     31  O   UNL A   1      31.028  27.074  21.251  1.00  0.00    -0.387 OA
ATOM     32  H   UNL A   1      30.307  27.507  21.735  1.00  0.00     0.211 HD
ENDBRANCH  11  31
ENDBRANCH   3   6
ENDBRANCH   1   2
BRANCH   1  33
ATOM     33  C   UNL A   1      32.317  28.868  26.546  1.00  0.00     0.042 C 
BRANCH  33  34
ATOM     34  C   UNL A   1      33.560  29.022  27.404  1.00  0.00     0.118 C 
BRANCH  34  35
ATOM     35  N   UNL A   1      33.695  30.383  27.928  1.00  0.00    -0.352 N 
ATOM     36  C   UNL A   1      34.692  30.962  28.676  1.00  0.00     0.251 C 
ATOM     37  H   UNL A   1      32.946  30.984  27.709  1.00  0.00     0.163 HD
ATOM     38  O   UNL A   1      34.474  32.002  29.288  1.00  0.00    -0.269 OA
BRANCH  36  39
ATOM     39  C   UNL A   1      36.027  30.337  28.733  1.00  0.00     0.039 A 
ATOM     40  C   UNL A   1      36.858  30.352  27.609  1.00  0.00     0.014 A 
ATOM     41  C   UNL A   1      36.444  29.703  29.902  1.00  0.00     0.014 A 
ATOM     42  C   UNL A   1      38.140  29.802  27.693  1.00  0.00     0.010 A 
ATOM     43  C   UNL A   1      37.753  29.271  30.023  1.00  0.00     0.010 A 
ATOM     44  C   UNL A   1      38.611  29.301  28.916  1.00  0.00    -0.014 A 
BRANCH  44  45
ATOM     45  C   UNL A   1      39.989  28.779  29.085  1.00  0.00     0.031 A 
ATOM     46  C   UNL A   1      41.088  29.711  29.525  1.00  0.00     0.074 A 
ATOM     47  C   UNL A   1      40.268  27.512  28.725  1.00  0.00     0.049 A 
ATOM     48  N   UNL A   1      42.377  29.502  29.572  1.00  0.00    -0.248 NA
ATOM     49  C   UNL A   1      40.688  31.076  29.915  1.00  0.00     0.031 C 
ATOM     50  C   UNL A   1      39.299  26.535  28.221  1.00  0.00     0.029 A 
ATOM     51  N   UNL A   1      41.460  26.833  28.709  1.00  0.00    -0.354 N 
ATOM     52  C   UNL A   1      42.940  30.715  29.950  1.00  0.00     0.074 A 
ATOM     53  C   UNL A   1      41.862  31.668  30.075  1.00  0.00     0.031 C 
ATOM     54  C   UNL A   1      39.931  25.375  27.974  1.00  0.00     0.029 A 
ATOM     55  C   UNL A   1      41.351  25.541  28.255  1.00  0.00     0.049 A 
ATOM     56  H   UNL A   1      42.313  27.234  28.994  1.00  0.00     0.167 HD
ATOM     57  C   UNL A   1      44.240  31.003  30.195  1.00  0.00     0.031 A 
ATOM     58  C   UNL A   1      42.296  24.600  28.076  1.00  0.00     0.031 A 
ATOM     59  C   UNL A   1      45.300  30.036  30.127  1.00  0.00     0.049 A 
ATOM     60  C   UNL A   1      43.725  24.936  28.396  1.00  0.00     0.074 A 
ATOM     61  C   UNL A   1      46.635  30.196  30.454  1.00  0.00     0.029 A 
ATOM     62  N   UNL A   1      45.140  28.724  29.711  1.00  0.00    -0.354 N 
ATOM     63  N   UNL A   1      44.230  26.066  28.829  1.00  0.00    -0.248 NA
ATOM     64  C   UNL A   1      44.714  23.866  28.205  1.00  0.00     0.031 C 
ATOM     65  C   UNL A   1      47.291  28.988  30.199  1.00  0.00     0.029 A 
ATOM     66  C   UNL A   1      46.355  28.067  29.753  1.00  0.00     0.049 A 
ATOM     67  H   UNL A   1      44.288  28.320  29.429  1.00  0.00     0.167 HD
ATOM     68  C   UNL A   1      45.590  25.836  28.983  1.00  0.00     0.074 A 
ATOM     69  C   UNL A   1      45.827  24.455  28.617  1.00  0.00     0.031 C 
ATOM     70  C   UNL A   1      46.561  26.692  29.385  1.00  0.00     0.031 A 
BRANCH  57  71
ATOM     71  C   UNL A   1      44.585  32.416  30.573  1.00  0.00    -0.014 A 
ATOM     72  C   UNL A   1      44.978  33.353  29.605  1.00  0.00     0.009 A 
ATOM     73  C   UNL A   1      44.467  32.829  31.909  1.00  0.00     0.009 A 
ATOM     74  C   UNL A   1      45.274  34.667  29.971  1.00  0.00     0.001 A 
ATOM     75  C   UNL A   1      44.740  34.150  32.269  1.00  0.00     0.001 A 
ATOM     76  C   UNL A   1      45.150  35.065  31.302  1.00  0.00     0.000 A 
ENDBRANCH  57  71
BRANCH  58  77
ATOM     77  C   UNL A   1      41.927  23.249  27.583  1.00  0.00    -0.014 A 
ATOM     78  C   UNL A   1      41.968  22.960  26.211  1.00  0.00     0.009 A 
ATOM     79  C   UNL A   1      41.516  22.246  28.475  1.00  0.00     0.009 A 
ATOM     80  C   UNL A   1      41.574  21.706  25.738  1.00  0.00     0.001 A 
ATOM     81  C   UNL A   1      41.150  20.983  28.002  1.00  0.00     0.001 A 
ATOM     82  C   UNL A   1      41.168  20.718  26.634  1.00  0.00     0.000 A 
ENDBRANCH  58  77
BRANCH  70  83
ATOM     83  C   UNL A   1      47.955  26.148  29.468  1.00  0.00    -0.014 A 
ATOM     84  C   UNL A   1      48.780  26.101  28.334  1.00  0.00     0.009 A 
ATOM     85  C   UNL A   1      48.462  25.717  30.703  1.00  0.00     0.009 A 
ATOM     86  C   UNL A   1      50.080  25.603  28.431  1.00  0.00     0.001 A 
ATOM     87  C   UNL A   1      49.771  25.245  30.802  1.00  0.00     0.001 A 
ATOM     88  C   UNL A   1      50.576  25.181  29.665  1.00  0.00     0.000 A 
ENDBRANCH  70  83
ENDBRANCH  44  45
ENDBRANCH  36  39
ENDBRANCH  34  35
ENDBRANCH  33  34
ENDBRANCH   1  33
TORSDOF 18
ENDMDL
MODEL 2
REMARK VINA RESULT:     -11.5      2.799      6.795
REMARK SMILES CC(C)c1cc(O)cc(C(C)C)c1O[C@@H]1O[C@@H](C(=O)NCCCNC(=O)c2ccc(-c3c4nc(c(-c5ccccc5)c5ccc([nH]5)c(-c5ccccc5)c5nc(c(-c6ccccc6)c6ccc3[nH]6)C=C5)C=C4)cc2)[C@@H](O)[C@H](O)[C@@H]1O
REMARK SMILES IDX 21 1 20 2 18 3 19 4 17 6 15 7 16 8 79 9 77 10 75 11 14 12
REMARK SMILES IDX 13 13 4 14 5 15 6 16 9 17 8 18 2 19 1 20 3 21 7 22 10 24
REMARK SMILES IDX 11 25 12 26 80 27 78 29 76 31 22 33 23 34 24 35 25 36 26 38
REMARK SMILES IDX 27 39 28 40 74 41 29 42 73 43 30 44 31 45 32 46 67 47 33 48
REMARK SMILES IDX 72 49 66 50 68 51 34 52 71 53 65 54 64 55 35 57 57 58 42 59
REMARK SMILES IDX 56 60 43 61 46 62 55 63 69 64 44 65 45 66 54 68 70 69 47 70
REMARK SMILES IDX 36 71 37 72 41 73 38 74 40 75 39 76 58 77 59 78 63 79 60 80
REMARK SMILES IDX 62 81 61 82 48 83 49 84 53 85 50 86 52 87 51 88
REMARK H PARENT 20 5 7 23 80 28 78 30 76 32 24 37 68 56 46 67
REMARK Flexibility Score: inf
ROOT
ATOM      1  C   UNL A   1      31.710  30.025  26.133  1.00  0.00     0.117 C 
ENDROOT
BRANCH   1   2
ATOM      2  N   UNL A   1      32.610  29.827  25.005  1.00  0.00    -0.354 N 
ATOM      3  C   UNL A   1      32.653  28.973  23.952  1.00  0.00     0.252 C 
ATOM      4  O   UNL A   1      33.467  29.290  23.073  1.00  0.00    -0.272 OA
ATOM      5  H   UNL A   1      33.363  30.461  25.008  1.00  0.00     0.163 HD
BRANCH   3   6
ATOM      6  C   UNL A   1      31.829  27.660  23.780  1.00  0.00     0.242 C 
ATOM      7  C   UNL A   1      33.592  26.083  24.250  1.00  0.00     0.339 C 
ATOM      8  O   UNL A   1      32.306  26.591  24.621  1.00  0.00    -0.324 OA
ATOM      9  C   UNL A   1      33.874  25.853  22.731  1.00  0.00     0.214 C 
ATOM     10  C   UNL A   1      32.982  26.686  21.790  1.00  0.00     0.181 C 
ATOM     11  C   UNL A   1      31.615  27.067  22.397  1.00  0.00     0.184 C 
BRANCH   7  12
ATOM     12  O   UNL A   1      34.041  24.978  25.044  1.00  0.00    -0.461 OA
BRANCH  12  13
ATOM     13  C   UNL A   1      33.704  23.658  25.062  1.00  0.00     0.130 A 
ATOM     14  C   UNL A   1      34.819  22.808  24.775  1.00  0.00     0.001 A 
ATOM     15  C   UNL A   1      34.630  21.405  24.748  1.00  0.00     0.054 A 
ATOM     16  C   UNL A   1      33.387  20.846  24.961  1.00  0.00     0.116 A 
ATOM     17  C   UNL A   1      32.430  23.062  25.287  1.00  0.00     0.001 A 
ATOM     18  C   UNL A   1      32.308  21.656  25.236  1.00  0.00     0.054 A 
BRANCH  14  19
ATOM     19  C   UNL A   1      36.260  23.259  24.469  1.00  0.00     0.017 C 
ATOM     20  C   UNL A   1      37.222  22.789  25.578  1.00  0.00     0.012 C 
ATOM     21  C   UNL A   1      36.896  22.914  23.117  1.00  0.00     0.012 C 
ENDBRANCH  14  19
BRANCH  16  22
ATOM     22  O   UNL A   1      33.176  19.502  24.903  1.00  0.00    -0.508 OA
ATOM     23  H   UNL A   1      32.650  19.140  24.217  1.00  0.00     0.293 HD
ENDBRANCH  16  22
BRANCH  17  24
ATOM     24  C   UNL A   1      31.140  23.790  25.594  1.00  0.00     0.017 C 
ATOM     25  C   UNL A   1      30.301  24.176  24.366  1.00  0.00     0.012 C 
ATOM     26  C   UNL A   1      30.288  23.061  26.633  1.00  0.00     0.012 C 
ENDBRANCH  17  24
ENDBRANCH  12  13
ENDBRANCH   7  12
BRANCH   9  27
ATOM     27  O   UNL A   1      33.799  24.483  22.297  1.00  0.00    -0.384 OA
ATOM     28  H   UNL A   1      34.618  24.022  22.538  1.00  0.00     0.211 HD
ENDBRANCH   9  27
BRANCH  10  29
ATOM     29  O   UNL A   1      32.790  25.996  20.546  1.00  0.00    -0.387 OA
ATOM     30  H   UNL A   1      32.033  25.393  20.624  1.00  0.00     0.211 HD
ENDBRANCH  10  29
BRANCH  11  31
ATOM     31  O   UNL A   1      30.768  27.887  21.588  1.00  0.00    -0.387 OA
ATOM     32  H   UNL A   1      30.004  28.178  22.111  1.00  0.00     0.211 HD
ENDBRANCH  11  31
ENDBRANCH   3   6
ENDBRANCH   1   2
BRANCH   1  33
ATOM     33  C   UNL A   1      31.501  31.478  26.505  1.00  0.00     0.042 C 
BRANCH  33  34
ATOM     34  C   UNL A   1      32.757  32.084  27.105  1.00  0.00     0.118 C 
BRANCH  34  35
ATOM     35  N   UNL A   1      32.566  33.491  27.467  1.00  0.00    -0.352 N 
ATOM     36  C   UNL A   1      33.168  34.258  28.435  1.00  0.00     0.251 C 
ATOM     37  H   UNL A   1      31.893  33.965  26.927  1.00  0.00     0.163 HD
ATOM     38  O   UNL A   1      32.647  35.308  28.796  1.00  0.00    -0.269 OA
BRANCH  36  39
ATOM     39  C   UNL A   1      34.445  33.823  29.031  1.00  0.00     0.039 A 
ATOM     40  C   UNL A   1      34.448  33.046  30.192  1.00  0.00     0.014 A 
ATOM     41  C   UNL A   1      35.649  34.216  28.450  1.00  0.00     0.014 A 
ATOM     42  C   UNL A   1      35.663  32.596  30.716  1.00  0.00     0.010 A 
ATOM     43  C   UNL A   1      36.841  33.671  28.895  1.00  0.00     0.010 A 
ATOM     44  C   UNL A   1      36.863  32.868  30.043  1.00  0.00    -0.014 A 
BRANCH  44  45
ATOM     45  C   UNL A   1      38.172  32.350  30.508  1.00  0.00     0.031 A 
ATOM     46  C   UNL A   1      38.721  31.078  29.915  1.00  0.00     0.074 A 
ATOM     47  C   UNL A   1      38.797  32.950  31.539  1.00  0.00     0.049 A 
ATOM     48  N   UNL A   1      39.754  30.371  30.293  1.00  0.00    -0.248 NA
ATOM     49  C   UNL A   1      37.982  30.498  28.779  1.00  0.00     0.031 C 
ATOM     50  C   UNL A   1      38.327  34.150  32.238  1.00  0.00     0.029 A 
ATOM     51  N   UNL A   1      39.955  32.619  32.194  1.00  0.00    -0.354 N 
ATOM     52  C   UNL A   1      39.758  29.247  29.475  1.00  0.00     0.074 A 
ATOM     53  C   UNL A   1      38.603  29.340  28.613  1.00  0.00     0.031 C 
ATOM     54  C   UNL A   1      39.206  34.468  33.203  1.00  0.00     0.029 A 
ATOM     55  C   UNL A   1      40.269  33.474  33.222  1.00  0.00     0.049 A 
ATOM     56  H   UNL A   1      40.508  31.842  31.950  1.00  0.00     0.167 HD
ATOM     57  C   UNL A   1      40.659  28.238  29.430  1.00  0.00     0.031 A 
ATOM     58  C   UNL A   1      41.297  33.447  34.090  1.00  0.00     0.031 A 
ATOM     59  C   UNL A   1      41.838  28.181  30.249  1.00  0.00     0.049 A 
ATOM     60  C   UNL A   1      42.305  32.338  33.990  1.00  0.00     0.074 A 
ATOM     61  C   UNL A   1      42.868  27.259  30.214  1.00  0.00     0.029 A 
ATOM     62  N   UNL A   1      42.145  29.094  31.245  1.00  0.00    -0.354 N 
ATOM     63  N   UNL A   1      42.337  31.325  33.158  1.00  0.00    -0.248 NA
ATOM     64  C   UNL A   1      43.420  32.370  34.947  1.00  0.00     0.031 C 
ATOM     65  C   UNL A   1      43.783  27.593  31.217  1.00  0.00     0.029 A 
ATOM     66  C   UNL A   1      43.340  28.746  31.847  1.00  0.00     0.049 A 
ATOM     67  H   UNL A   1      41.596  29.874  31.488  1.00  0.00     0.167 HD
ATOM     68  C   UNL A   1      43.484  30.612  33.476  1.00  0.00     0.074 A 
ATOM     69  C   UNL A   1      44.131  31.319  34.562  1.00  0.00     0.031 C 
ATOM     70  C   UNL A   1      43.961  29.469  32.925  1.00  0.00     0.031 A 
BRANCH  57  71
ATOM     71  C   UNL A   1      40.413  27.122  28.454  1.00  0.00    -0.014 A 
ATOM     72  C   UNL A   1      39.624  26.014  28.800  1.00  0.00     0.009 A 
ATOM     73  C   UNL A   1      40.936  27.203  27.155  1.00  0.00     0.009 A 
ATOM     74  C   UNL A   1      39.388  24.996  27.875  1.00  0.00     0.001 A 
ATOM     75  C   UNL A   1      40.677  26.197  26.223  1.00  0.00     0.001 A 
ATOM     76  C   UNL A   1      39.911  25.091  26.585  1.00  0.00     0.000 A 
ENDBRANCH  57  71
BRANCH  58  77
ATOM     77  C   UNL A   1      41.437  34.508  35.121  1.00  0.00    -0.014 A 
ATOM     78  C   UNL A   1      42.172  35.671  34.846  1.00  0.00     0.009 A 
ATOM     79  C   UNL A   1      40.851  34.359  36.388  1.00  0.00     0.009 A 
ATOM     80  C   UNL A   1      42.347  36.647  35.829  1.00  0.00     0.001 A 
ATOM     81  C   UNL A   1      41.004  35.351  37.360  1.00  0.00     0.001 A 
ATOM     82  C   UNL A   1      41.761  36.488  37.084  1.00  0.00     0.000 A 
ENDBRANCH  58  77
BRANCH  70  83
ATOM     83  C   UNL A   1      45.248  28.934  33.476  1.00  0.00    -0.014 A 
ATOM     84  C   UNL A   1      45.256  28.083  34.591  1.00  0.00     0.009 A 
ATOM     85  C   UNL A   1      46.460  29.251  32.845  1.00  0.00     0.009 A 
ATOM     86  C   UNL A   1      46.463  27.582  35.083  1.00  0.00     0.001 A 
ATOM     87  C   UNL A   1      47.661  28.728  33.324  1.00  0.00     0.001 A 
ATOM     88  C   UNL A   1      47.662  27.901  34.447  1.00  0.00     0.000 A 
ENDBRANCH  70  83
ENDBRANCH  44  45
ENDBRANCH  36  39
ENDBRANCH  34  35
ENDBRANCH  33  34
ENDBRANCH   1  33
TORSDOF 18
ENDMDL
MODEL 3
REMARK VINA RESULT:     -11.4      2.038      7.701
REMARK SMILES CC(C)c1cc(O)cc(C(C)C)c1O[C@@H]1O[C@@H](C(=O)NCCCNC(=O)c2ccc(-c3c4nc(c(-c5ccccc5)c5ccc([nH]5)c(-c5ccccc5)c5nc(c(-c6ccccc6)c6ccc3[nH]6)C=C5)C=C4)cc2)[C@@H](O)[C@H](O)[C@@H]1O
REMARK SMILES IDX 21 1 20 2 18 3 19 4 17 6 15 7 16 8 79 9 77 10 75 11 14 12
REMARK SMILES IDX 13 13 4 14 5 15 6 16 9 17 8 18 2 19 1 20 3 21 7 22 10 24
REMARK SMILES IDX 11 25 12 26 80 27 78 29 76 31 22 33 23 34 24 35 25 36 26 38
REMARK SMILES IDX 27 39 28 40 74 41 29 42 73 43 30 44 31 45 32 46 67 47 33 48
REMARK SMILES IDX 72 49 66 50 68 51 34 52 71 53 65 54 64 55 35 57 57 58 42 59
REMARK SMILES IDX 56 60 43 61 46 62 55 63 69 64 44 65 45 66 54 68 70 69 47 70
REMARK SMILES IDX 36 71 37 72 41 73 38 74 40 75 39 76 58 77 59 78 63 79 60 80
REMARK SMILES IDX 62 81 61 82 48 83 49 84 53 85 50 86 52 87 51 88
REMARK H PARENT 20 5 7 23 80 28 78 30 76 32 24 37 68 56 46 67
REMARK Flexibility Score: inf
ROOT
ATOM      1  C   UNL A   1      36.483  21.080  24.771  1.00  0.00     0.117 C 
ENDROOT
BRANCH   1   2
ATOM      2  N   UNL A   1      35.805  21.465  26.002  1.00  0.00    -0.354 N 
ATOM      3  C   UNL A   1      34.540  21.833  26.324  1.00  0.00     0.252 C 
ATOM      4  O   UNL A   1      34.311  21.853  27.542  1.00  0.00    -0.272 OA
ATOM      5  H   UNL A   1      36.406  21.457  26.782  1.00  0.00     0.163 HD
BRANCH   3   6
ATOM      6  C   UNL A   1      33.410  22.255  25.335  1.00  0.00     0.242 C 
ATOM      7  C   UNL A   1      33.288  24.589  25.928  1.00  0.00     0.339 C 
ATOM      8  O   UNL A   1      33.535  23.624  24.901  1.00  0.00    -0.324 OA
ATOM      9  C   UNL A   1      32.073  24.347  26.879  1.00  0.00     0.214 C 
ATOM     10  C   UNL A   1      31.623  22.876  26.966  1.00  0.00     0.181 C 
ATOM     11  C   UNL A   1      31.951  22.044  25.707  1.00  0.00     0.184 C 
BRANCH   7  12
ATOM     12  O   UNL A   1      33.348  25.951  25.484  1.00  0.00    -0.461 OA
BRANCH  12  13
ATOM     13  C   UNL A   1      32.523  26.703  24.705  1.00  0.00     0.130 A 
ATOM     14  C   UNL A   1      32.202  27.960  25.308  1.00  0.00     0.001 A 
ATOM     15  C   UNL A   1      31.345  28.857  24.625  1.00  0.00     0.054 A 
ATOM     16  C   UNL A   1      30.791  28.528  23.405  1.00  0.00     0.116 A 
ATOM     17  C   UNL A   1      31.947  26.385  23.442  1.00  0.00     0.001 A 
ATOM     18  C   UNL A   1      31.092  27.320  22.818  1.00  0.00     0.054 A 
BRANCH  14  19
ATOM     19  C   UNL A   1      32.691  28.472  26.677  1.00  0.00     0.017 C 
ATOM     20  C   UNL A   1      33.009  29.978  26.611  1.00  0.00     0.012 C 
ATOM     21  C   UNL A   1      31.844  28.224  27.931  1.00  0.00     0.012 C 
ENDBRANCH  14  19
BRANCH  16  22
ATOM     22  O   UNL A   1      29.935  29.360  22.749  1.00  0.00    -0.508 OA
ATOM     23  H   UNL A   1      29.394  29.027  22.061  1.00  0.00     0.293 HD
ENDBRANCH  16  22
BRANCH  17  24
ATOM     24  C   UNL A   1      32.158  25.110  22.655  1.00  0.00     0.017 C 
ATOM     25  C   UNL A   1      31.033  24.071  22.782  1.00  0.00     0.012 C 
ATOM     26  C   UNL A   1      32.497  25.376  21.188  1.00  0.00     0.012 C 
ENDBRANCH  17  24
ENDBRANCH  12  13
ENDBRANCH   7  12
BRANCH   9  27
ATOM     27  O   UNL A   1      30.906  25.140  26.594  1.00  0.00    -0.384 OA
ATOM     28  H   UNL A   1      30.846  25.868  27.232  1.00  0.00     0.211 HD
ENDBRANCH   9  27
BRANCH  10  29
ATOM     29  O   UNL A   1      30.217  22.801  27.249  1.00  0.00    -0.387 OA
ATOM     30  H   UNL A   1      29.922  21.879  27.177  1.00  0.00     0.211 HD
ENDBRANCH  10  29
BRANCH  11  31
ATOM     31  O   UNL A   1      31.605  20.658  25.755  1.00  0.00    -0.387 OA
ATOM     32  H   UNL A   1      30.646  20.560  25.648  1.00  0.00     0.211 HD
ENDBRANCH  11  31
ENDBRANCH   3   6
ENDBRANCH   1   2
BRANCH   1  33
ATOM     33  C   UNL A   1      37.551  20.022  24.962  1.00  0.00     0.042 C 
BRANCH  33  34
ATOM     34  C   UNL A   1      38.727  20.558  25.759  1.00  0.00     0.118 C 
BRANCH  34  35
ATOM     35  N   UNL A   1      39.808  19.575  25.865  1.00  0.00    -0.352 N 
ATOM     36  C   UNL A   1      41.157  19.742  26.062  1.00  0.00     0.251 C 
ATOM     37  H   UNL A   1      39.519  18.637  25.782  1.00  0.00     0.163 HD
ATOM     38  O   UNL A   1      41.933  18.830  25.797  1.00  0.00    -0.269 OA
BRANCH  36  39
ATOM     39  C   UNL A   1      41.670  21.016  26.599  1.00  0.00     0.039 A 
ATOM     40  C   UNL A   1      42.126  22.011  25.730  1.00  0.00     0.014 A 
ATOM     41  C   UNL A   1      41.728  21.212  27.978  1.00  0.00     0.014 A 
ATOM     42  C   UNL A   1      42.561  23.233  26.250  1.00  0.00     0.010 A 
ATOM     43  C   UNL A   1      42.040  22.462  28.485  1.00  0.00     0.010 A 
ATOM     44  C   UNL A   1      42.475  23.482  27.629  1.00  0.00    -0.014 A 
BRANCH  44  45
ATOM     45  C   UNL A   1      42.845  24.786  28.227  1.00  0.00     0.031 A 
ATOM     46  C   UNL A   1      41.780  25.824  28.467  1.00  0.00     0.074 A 
ATOM     47  C   UNL A   1      44.144  25.078  28.435  1.00  0.00     0.049 A 
ATOM     48  N   UNL A   1      41.912  27.075  28.820  1.00  0.00    -0.248 NA
ATOM     49  C   UNL A   1      40.384  25.413  28.228  1.00  0.00     0.031 C 
ATOM     50  C   UNL A   1      45.272  24.177  28.178  1.00  0.00     0.029 A 
ATOM     51  N   UNL A   1      44.737  26.227  28.893  1.00  0.00    -0.354 N 
ATOM     52  C   UNL A   1      40.628  27.608  28.800  1.00  0.00     0.074 A 
ATOM     53  C   UNL A   1      39.737  26.561  28.356  1.00  0.00     0.031 C 
ATOM     54  C   UNL A   1      46.415  24.799  28.511  1.00  0.00     0.029 A 
ATOM     55  C   UNL A   1      46.107  26.151  28.956  1.00  0.00     0.049 A 
ATOM     56  H   UNL A   1      44.228  27.029  29.152  1.00  0.00     0.167 HD
ATOM     57  C   UNL A   1      40.224  28.853  29.145  1.00  0.00     0.031 A 
ATOM     58  C   UNL A   1      47.012  27.077  29.323  1.00  0.00     0.031 A 
ATOM     59  C   UNL A   1      41.107  29.871  29.643  1.00  0.00     0.049 A 
ATOM     60  C   UNL A   1      46.532  28.437  29.740  1.00  0.00     0.074 A 
ATOM     61  C   UNL A   1      40.789  31.131  30.116  1.00  0.00     0.029 A 
ATOM     62  N   UNL A   1      42.483  29.737  29.738  1.00  0.00    -0.354 N 
ATOM     63  N   UNL A   1      45.306  28.900  29.792  1.00  0.00    -0.248 NA
ATOM     64  C   UNL A   1      47.559  29.403  30.153  1.00  0.00     0.031 C 
ATOM     65  C   UNL A   1      41.980  31.776  30.465  1.00  0.00     0.029 A 
ATOM     66  C   UNL A   1      43.033  30.901  30.245  1.00  0.00     0.049 A 
ATOM     67  H   UNL A   1      42.993  28.935  29.484  1.00  0.00     0.167 HD
ATOM     68  C   UNL A   1      45.413  30.201  30.262  1.00  0.00     0.074 A 
ATOM     69  C   UNL A   1      46.820  30.446  30.500  1.00  0.00     0.031 C 
ATOM     70  C   UNL A   1      44.436  31.117  30.473  1.00  0.00     0.031 A 
BRANCH  57  71
ATOM     71  C   UNL A   1      38.763  29.178  29.010  1.00  0.00    -0.014 A 
ATOM     72  C   UNL A   1      37.884  29.041  30.095  1.00  0.00     0.009 A 
ATOM     73  C   UNL A   1      38.269  29.675  27.794  1.00  0.00     0.009 A 
ATOM     74  C   UNL A   1      36.534  29.367  29.958  1.00  0.00     0.001 A 
ATOM     75  C   UNL A   1      36.923  30.025  27.667  1.00  0.00     0.001 A 
ATOM     76  C   UNL A   1      36.056  29.864  28.746  1.00  0.00     0.000 A 
ENDBRANCH  57  71
BRANCH  58  77
ATOM     77  C   UNL A   1      48.461  26.750  29.326  1.00  0.00    -0.014 A 
ATOM     78  C   UNL A   1      49.247  27.003  28.191  1.00  0.00     0.009 A 
ATOM     79  C   UNL A   1      49.064  26.170  30.453  1.00  0.00     0.009 A 
ATOM     80  C   UNL A   1      50.598  26.652  28.172  1.00  0.00     0.001 A 
ATOM     81  C   UNL A   1      50.424  25.847  30.441  1.00  0.00     0.001 A 
ATOM     82  C   UNL A   1      51.186  26.076  29.298  1.00  0.00     0.000 A 
ENDBRANCH  58  77
BRANCH  70  83
ATOM     83  C   UNL A   1      44.860  32.452  31.006  1.00  0.00    -0.014 A 
ATOM     84  C   UNL A   1      44.968  32.677  32.386  1.00  0.00     0.009 A 
ATOM     85  C   UNL A   1      45.195  33.483  30.114  1.00  0.00     0.009 A 
ATOM     86  C   UNL A   1      45.377  33.922  32.865  1.00  0.00     0.001 A 
ATOM     87  C   UNL A   1      45.628  34.718  30.596  1.00  0.00     0.001 A 
ATOM     88  C   UNL A   1      45.711  34.939  31.970  1.00  0.00     0.000 A 
ENDBRANCH  70  83
ENDBRANCH  44  45
ENDBRANCH  36  39
ENDBRANCH  34  35
ENDBRANCH  33  34
ENDBRANCH   1  33
TORSDOF 18
ENDMDL
