MODEL 1
REMARK VINA RESULT:     -12.0      0.000      0.000
REMARK SMILES CC(=O)Nc1cccc(NC(=O)N[C@H](C(=O)NCCCNC(=O)c2ccc(-c3c4nc(c(-c5ccccc5)c5ccc([nH]5)c(-c5ccccc5)c5nc(c(-c6ccccc6)c6ccc3[nH]6)C=C5)C=C4)cc2)C(C)C)c1
REMARK SMILES IDX 18 1 17 2 15 3 16 4 14 6 13 7 10 8 11 9 12 11 9 13 5 14 6 15
REMARK SMILES IDX 75 16 7 17 8 18 4 19 1 20 2 21 3 22 72 24 73 25 74 26 19 27
REMARK SMILES IDX 20 28 21 29 22 30 23 32 24 33 25 34 71 35 26 36 70 37 27 38
REMARK SMILES IDX 28 39 29 40 64 41 30 42 69 43 63 44 65 45 31 46 68 47 62 48
REMARK SMILES IDX 61 49 32 51 54 52 39 53 53 54 40 55 43 56 52 57 66 58 41 59
REMARK SMILES IDX 42 60 51 62 67 63 44 64 33 65 34 66 38 67 35 68 37 69 36 70
REMARK SMILES IDX 55 71 56 72 60 73 57 74 59 75 58 76 45 77 46 78 50 79 47 80
REMARK SMILES IDX 49 81 48 82
REMARK H PARENT 17 5 10 10 13 12 4 23 21 31 65 50 43 61
REMARK Flexibility Score: inf
ROOT
ATOM      1  C   UNL A   1      36.569  20.555  24.972  1.00  0.00     0.117 C 
ENDROOT
BRANCH   1   2
ATOM      2  N   UNL A   1      36.754  21.723  24.118  1.00  0.00    -0.354 N 
ATOM      3  C   UNL A   1      35.918  22.787  23.869  1.00  0.00     0.242 C 
ATOM      4  O   UNL A   1      36.396  23.673  23.154  1.00  0.00    -0.273 OA
ATOM      5  H   UNL A   1      37.616  21.756  23.645  1.00  0.00     0.163 HD
BRANCH   3   6
ATOM      6  C   UNL A   1      34.415  22.793  24.318  1.00  0.00     0.175 C 
BRANCH   6   7
ATOM      7  N   UNL A   1      34.198  22.821  25.772  1.00  0.00    -0.326 N 
ATOM      8  N   UNL A   1      33.284  20.773  26.612  1.00  0.00    -0.308 N 
ATOM      9  C   UNL A   1      33.736  22.027  26.738  1.00  0.00     0.319 C 
ATOM     10  H   UNL A   1      33.207  20.323  27.484  1.00  0.00     0.171 HD
ATOM     11  O   UNL A   1      33.804  22.489  27.883  1.00  0.00    -0.248 OA
ATOM     12  H   UNL A   1      34.479  23.687  26.144  1.00  0.00     0.166 HD
BRANCH   8  13
ATOM     13  C   UNL A   1      32.895  19.937  25.561  1.00  0.00     0.044 A 
ATOM     14  C   UNL A   1      32.640  17.673  24.753  1.00  0.00     0.043 A 
ATOM     15  C   UNL A   1      32.481  18.131  23.451  1.00  0.00     0.026 A 
ATOM     16  C   UNL A   1      32.871  18.566  25.805  1.00  0.00     0.052 A 
ATOM     17  C   UNL A   1      32.349  19.496  23.239  1.00  0.00     0.004 A 
ATOM     18  C   UNL A   1      32.500  20.382  24.308  1.00  0.00     0.026 A 
BRANCH  14  19
ATOM     19  N   UNL A   1      32.474  16.312  25.007  1.00  0.00    -0.326 N 
ATOM     20  C   UNL A   1      34.927  15.971  25.126  1.00  0.00     0.114 C 
ATOM     21  C   UNL A   1      33.514  15.432  25.190  1.00  0.00     0.221 C 
ATOM     22  O   UNL A   1      33.283  14.255  25.464  1.00  0.00    -0.275 OA
ATOM     23  H   UNL A   1      31.556  15.960  25.058  1.00  0.00     0.169 HD
ENDBRANCH  14  19
ENDBRANCH   8  13
ENDBRANCH   6   7
BRANCH   6  24
ATOM     24  C   UNL A   1      33.371  23.675  23.567  1.00  0.00     0.015 C 
ATOM     25  C   UNL A   1      33.596  25.187  23.607  1.00  0.00     0.010 C 
ATOM     26  C   UNL A   1      33.268  23.237  22.096  1.00  0.00     0.010 C 
ENDBRANCH   6  24
ENDBRANCH   3   6
ENDBRANCH   1   2
BRANCH   1  27
ATOM     27  C   UNL A   1      37.768  19.613  24.990  1.00  0.00     0.042 C 
BRANCH  27  28
ATOM     28  C   UNL A   1      38.989  20.198  25.692  1.00  0.00     0.118 C 
BRANCH  28  29
ATOM     29  N   UNL A   1      40.114  19.274  25.777  1.00  0.00    -0.352 N 
ATOM     30  C   UNL A   1      41.434  19.460  26.139  1.00  0.00     0.251 C 
ATOM     31  H   UNL A   1      39.891  18.346  25.532  1.00  0.00     0.163 HD
ATOM     32  O   UNL A   1      42.227  18.540  26.022  1.00  0.00    -0.269 OA
BRANCH  30  33
ATOM     33  C   UNL A   1      41.913  20.777  26.626  1.00  0.00     0.039 A 
ATOM     34  C   UNL A   1      42.322  21.737  25.694  1.00  0.00     0.014 A 
ATOM     35  C   UNL A   1      41.983  21.072  27.986  1.00  0.00     0.014 A 
ATOM     36  C   UNL A   1      42.690  23.018  26.122  1.00  0.00     0.010 A 
ATOM     37  C   UNL A   1      42.233  22.377  28.402  1.00  0.00     0.010 A 
ATOM     38  C   UNL A   1      42.588  23.368  27.477  1.00  0.00    -0.014 A 
BRANCH  38  39
ATOM     39  C   UNL A   1      42.848  24.752  27.958  1.00  0.00     0.031 A 
ATOM     40  C   UNL A   1      44.245  25.178  28.330  1.00  0.00     0.074 A 
ATOM     41  C   UNL A   1      41.820  25.602  28.151  1.00  0.00     0.049 A 
ATOM     42  N   UNL A   1      44.653  26.298  28.873  1.00  0.00    -0.248 NA
ATOM     43  C   UNL A   1      45.320  24.201  28.093  1.00  0.00     0.031 C 
ATOM     44  C   UNL A   1      40.411  25.312  27.873  1.00  0.00     0.029 A 
ATOM     45  N   UNL A   1      41.803  26.887  28.634  1.00  0.00    -0.354 N 
ATOM     46  C   UNL A   1      46.020  26.146  29.068  1.00  0.00     0.074 A 
ATOM     47  C   UNL A   1      46.361  24.805  28.644  1.00  0.00     0.031 C 
ATOM     48  C   UNL A   1      39.675  26.401  28.147  1.00  0.00     0.029 A 
ATOM     49  C   UNL A   1      40.548  27.448  28.667  1.00  0.00     0.049 A 
ATOM     50  H   UNL A   1      42.612  27.363  28.929  1.00  0.00     0.167 HD
ATOM     51  C   UNL A   1      46.921  27.045  29.532  1.00  0.00     0.031 A 
ATOM     52  C   UNL A   1      40.143  28.666  29.071  1.00  0.00     0.031 A 
ATOM     53  C   UNL A   1      46.593  28.386  29.934  1.00  0.00     0.049 A 
ATOM     54  C   UNL A   1      41.157  29.643  29.598  1.00  0.00     0.074 A 
ATOM     55  C   UNL A   1      47.443  29.391  30.366  1.00  0.00     0.029 A 
ATOM     56  N   UNL A   1      45.310  28.911  29.951  1.00  0.00    -0.354 N 
ATOM     57  N   UNL A   1      42.453  29.499  29.728  1.00  0.00    -0.248 NA
ATOM     58  C   UNL A   1      40.647  30.951  30.031  1.00  0.00     0.031 C 
ATOM     59  C   UNL A   1      46.667  30.511  30.684  1.00  0.00     0.029 A 
ATOM     60  C   UNL A   1      45.342  30.220  30.401  1.00  0.00     0.049 A 
ATOM     61  H   UNL A   1      44.498  28.425  29.680  1.00  0.00     0.167 HD
ATOM     62  C   UNL A   1      42.918  30.710  30.226  1.00  0.00     0.074 A 
ATOM     63  C   UNL A   1      41.767  31.578  30.365  1.00  0.00     0.031 C 
ATOM     64  C   UNL A   1      44.188  31.071  30.536  1.00  0.00     0.031 A 
BRANCH  51  65
ATOM     65  C   UNL A   1      48.353  26.590  29.630  1.00  0.00    -0.014 A 
ATOM     66  C   UNL A   1      48.832  25.935  30.776  1.00  0.00     0.009 A 
ATOM     67  C   UNL A   1      49.235  26.819  28.562  1.00  0.00     0.009 A 
ATOM     68  C   UNL A   1      50.177  25.569  30.874  1.00  0.00     0.001 A 
ATOM     69  C   UNL A   1      50.571  26.422  28.649  1.00  0.00     0.001 A 
ATOM     70  C   UNL A   1      51.043  25.811  29.810  1.00  0.00     0.000 A 
ENDBRANCH  51  65
BRANCH  52  71
ATOM     71  C   UNL A   1      38.712  29.052  28.956  1.00  0.00    -0.014 A 
ATOM     72  C   UNL A   1      38.209  29.529  27.735  1.00  0.00     0.009 A 
ATOM     73  C   UNL A   1      37.843  28.946  30.052  1.00  0.00     0.009 A 
ATOM     74  C   UNL A   1      36.871  29.913  27.621  1.00  0.00     0.001 A 
ATOM     75  C   UNL A   1      36.499  29.304  29.928  1.00  0.00     0.001 A 
ATOM     76  C   UNL A   1      36.017  29.796  28.716  1.00  0.00     0.000 A 
ENDBRANCH  52  71
BRANCH  64  77
ATOM     77  C   UNL A   1      44.403  32.477  31.019  1.00  0.00    -0.014 A 
ATOM     78  C   UNL A   1      44.383  32.791  32.386  1.00  0.00     0.009 A 
ATOM     79  C   UNL A   1      44.665  33.496  30.089  1.00  0.00     0.009 A 
ATOM     80  C   UNL A   1      44.591  34.104  32.811  1.00  0.00     0.001 A 
ATOM     81  C   UNL A   1      44.901  34.802  30.519  1.00  0.00     0.001 A 
ATOM     82  C   UNL A   1      44.855  35.107  31.878  1.00  0.00     0.000 A 
ENDBRANCH  64  77
ENDBRANCH  38  39
ENDBRANCH  30  33
ENDBRANCH  28  29
ENDBRANCH  27  28
ENDBRANCH   1  27
TORSDOF 14
ENDMDL
MODEL 2
REMARK VINA RESULT:     -12.0      5.759     10.591
REMARK SMILES CC(=O)Nc1cccc(NC(=O)N[C@H](C(=O)NCCCNC(=O)c2ccc(-c3c4nc(c(-c5ccccc5)c5ccc([nH]5)c(-c5ccccc5)c5nc(c(-c6ccccc6)c6ccc3[nH]6)C=C5)C=C4)cc2)C(C)C)c1
REMARK SMILES IDX 18 1 17 2 15 3 16 4 14 6 13 7 10 8 11 9 12 11 9 13 5 14 6 15
REMARK SMILES IDX 75 16 7 17 8 18 4 19 1 20 2 21 3 22 72 24 73 25 74 26 19 27
REMARK SMILES IDX 20 28 21 29 22 30 23 32 24 33 25 34 71 35 26 36 70 37 27 38
REMARK SMILES IDX 28 39 29 40 64 41 30 42 69 43 63 44 65 45 31 46 68 47 62 48
REMARK SMILES IDX 61 49 32 51 54 52 39 53 53 54 40 55 43 56 52 57 66 58 41 59
REMARK SMILES IDX 42 60 51 62 67 63 44 64 33 65 34 66 38 67 35 68 37 69 36 70
REMARK SMILES IDX 55 71 56 72 60 73 57 74 59 75 58 76 45 77 46 78 50 79 47 80
REMARK SMILES IDX 49 81 48 82
REMARK H PARENT 17 5 10 10 13 12 4 23 21 31 65 50 43 61
REMARK Flexibility Score: inf
ROOT
ATOM      1  C   UNL A   1      31.766  30.642  25.999  1.00  0.00     0.117 C 
ENDROOT
BRANCH   1   2
ATOM      2  N   UNL A   1      31.687  29.585  27.001  1.00  0.00    -0.354 N 
ATOM      3  C   UNL A   1      31.765  28.218  26.864  1.00  0.00     0.242 C 
ATOM      4  O   UNL A   1      31.744  27.583  27.922  1.00  0.00    -0.273 OA
ATOM      5  H   UNL A   1      31.560  29.900  27.924  1.00  0.00     0.163 HD
BRANCH   3   6
ATOM      6  C   UNL A   1      31.708  27.513  25.463  1.00  0.00     0.175 C 
BRANCH   6   7
ATOM      7  N   UNL A   1      32.817  27.840  24.555  1.00  0.00    -0.326 N 
ATOM      8  N   UNL A   1      32.095  29.002  22.590  1.00  0.00    -0.308 N 
ATOM      9  C   UNL A   1      33.016  28.435  23.379  1.00  0.00     0.319 C 
ATOM     10  H   UNL A   1      32.507  29.562  21.893  1.00  0.00     0.171 HD
ATOM     11  O   UNL A   1      34.198  28.529  23.024  1.00  0.00    -0.248 OA
ATOM     12  H   UNL A   1      33.671  27.523  24.928  1.00  0.00     0.166 HD
BRANCH   8  13
ATOM     13  C   UNL A   1      30.700  29.005  22.502  1.00  0.00     0.044 A 
ATOM     14  C   UNL A   1      28.705  30.233  21.907  1.00  0.00     0.043 A 
ATOM     15  C   UNL A   1      27.909  29.310  22.574  1.00  0.00     0.026 A 
ATOM     16  C   UNL A   1      30.097  30.100  21.888  1.00  0.00     0.052 A 
ATOM     17  C   UNL A   1      28.498  28.145  23.046  1.00  0.00     0.004 A 
ATOM     18  C   UNL A   1      29.882  27.980  22.952  1.00  0.00     0.026 A 
BRANCH  14  19
ATOM     19  N   UNL A   1      28.082  31.246  21.178  1.00  0.00    -0.326 N 
ATOM     20  C   UNL A   1      28.724  32.943  22.867  1.00  0.00     0.114 C 
ATOM     21  C   UNL A   1      28.042  32.562  21.571  1.00  0.00     0.221 C 
ATOM     22  O   UNL A   1      27.519  33.406  20.844  1.00  0.00    -0.275 OA
ATOM     23  H   UNL A   1      27.645  31.003  20.330  1.00  0.00     0.169 HD
ENDBRANCH  14  19
ENDBRANCH   8  13
ENDBRANCH   6   7
BRANCH   6  24
ATOM     24  C   UNL A   1      31.300  26.012  25.351  1.00  0.00     0.015 C 
ATOM     25  C   UNL A   1      32.220  24.999  26.034  1.00  0.00     0.010 C 
ATOM     26  C   UNL A   1      29.872  25.810  25.884  1.00  0.00     0.010 C 
ENDBRANCH   6  24
ENDBRANCH   3   6
ENDBRANCH   1   2
BRANCH   1  27
ATOM     27  C   UNL A   1      31.421  32.024  26.538  1.00  0.00     0.042 C 
BRANCH  27  28
ATOM     28  C   UNL A   1      32.587  32.712  27.240  1.00  0.00     0.118 C 
BRANCH  28  29
ATOM     29  N   UNL A   1      32.317  34.099  27.602  1.00  0.00    -0.352 N 
ATOM     30  C   UNL A   1      32.920  34.948  28.509  1.00  0.00     0.251 C 
ATOM     31  H   UNL A   1      31.567  34.505  27.109  1.00  0.00     0.163 HD
ATOM     32  O   UNL A   1      32.436  36.048  28.720  1.00  0.00    -0.269 OA
BRANCH  30  33
ATOM     33  C   UNL A   1      34.123  34.525  29.267  1.00  0.00     0.039 A 
ATOM     34  C   UNL A   1      33.969  34.042  30.571  1.00  0.00     0.014 A 
ATOM     35  C   UNL A   1      35.402  34.615  28.720  1.00  0.00     0.014 A 
ATOM     36  C   UNL A   1      35.076  33.550  31.273  1.00  0.00     0.010 A 
ATOM     37  C   UNL A   1      36.479  34.019  29.367  1.00  0.00     0.010 A 
ATOM     38  C   UNL A   1      36.332  33.478  30.651  1.00  0.00    -0.014 A 
BRANCH  38  39
ATOM     39  C   UNL A   1      37.507  32.848  31.314  1.00  0.00     0.031 A 
ATOM     40  C   UNL A   1      38.185  31.657  30.688  1.00  0.00     0.074 A 
ATOM     41  C   UNL A   1      37.910  33.284  32.525  1.00  0.00     0.049 A 
ATOM     42  N   UNL A   1      39.145  30.905  31.166  1.00  0.00    -0.248 NA
ATOM     43  C   UNL A   1      37.695  31.235  29.366  1.00  0.00     0.031 C 
ATOM     44  C   UNL A   1      37.322  34.400  33.268  1.00  0.00     0.029 A 
ATOM     45  N   UNL A   1      38.913  32.832  33.347  1.00  0.00    -0.354 N 
ATOM     46  C   UNL A   1      39.349  29.908  30.219  1.00  0.00     0.074 A 
ATOM     47  C   UNL A   1      38.373  30.116  29.171  1.00  0.00     0.031 C 
ATOM     48  C   UNL A   1      38.002  34.574  34.413  1.00  0.00     0.029 A 
ATOM     49  C   UNL A   1      39.039  33.553  34.510  1.00  0.00     0.049 A 
ATOM     50  H   UNL A   1      39.488  32.065  33.125  1.00  0.00     0.167 HD
ATOM     51  C   UNL A   1      40.280  28.923  30.203  1.00  0.00     0.031 A 
ATOM     52  C   UNL A   1      39.892  33.410  35.542  1.00  0.00     0.031 A 
ATOM     53  C   UNL A   1      41.266  28.726  31.229  1.00  0.00     0.049 A 
ATOM     54  C   UNL A   1      40.906  32.301  35.512  1.00  0.00     0.074 A 
ATOM     55  C   UNL A   1      42.288  27.792  31.278  1.00  0.00     0.029 A 
ATOM     56  N   UNL A   1      41.357  29.480  32.389  1.00  0.00    -0.354 N 
ATOM     57  N   UNL A   1      41.117  31.399  34.585  1.00  0.00    -0.248 NA
ATOM     58  C   UNL A   1      41.800  32.195  36.673  1.00  0.00     0.031 C 
ATOM     59  C   UNL A   1      42.970  27.954  32.489  1.00  0.00     0.029 A 
ATOM     60  C   UNL A   1      42.406  29.022  33.169  1.00  0.00     0.049 A 
ATOM     61  H   UNL A   1      40.765  30.231  32.623  1.00  0.00     0.167 HD
ATOM     62  C   UNL A   1      42.189  30.640  35.034  1.00  0.00     0.074 A 
ATOM     63  C   UNL A   1      42.590  31.193  36.312  1.00  0.00     0.031 C 
ATOM     64  C   UNL A   1      42.791  29.581  34.439  1.00  0.00     0.031 A 
BRANCH  51  65
ATOM     65  C   UNL A   1      40.261  27.983  29.027  1.00  0.00    -0.014 A 
ATOM     66  C   UNL A   1      39.556  26.770  29.077  1.00  0.00     0.009 A 
ATOM     67  C   UNL A   1      40.956  28.315  27.854  1.00  0.00     0.009 A 
ATOM     68  C   UNL A   1      39.593  25.883  27.999  1.00  0.00     0.001 A 
ATOM     69  C   UNL A   1      40.964  27.441  26.764  1.00  0.00     0.001 A 
ATOM     70  C   UNL A   1      40.294  26.220  26.844  1.00  0.00     0.000 A 
ENDBRANCH  51  65
BRANCH  52  71
ATOM     71  C   UNL A   1      39.855  34.368  36.678  1.00  0.00    -0.014 A 
ATOM     72  C   UNL A   1      39.100  34.069  37.824  1.00  0.00     0.009 A 
ATOM     73  C   UNL A   1      40.566  35.576  36.630  1.00  0.00     0.009 A 
ATOM     74  C   UNL A   1      39.041  34.971  38.889  1.00  0.00     0.001 A 
ATOM     75  C   UNL A   1      40.528  36.463  37.708  1.00  0.00     0.001 A 
ATOM     76  C   UNL A   1      39.759  36.164  38.832  1.00  0.00     0.000 A 
ENDBRANCH  52  71
BRANCH  64  77
ATOM     77  C   UNL A   1      43.972  28.976  35.145  1.00  0.00    -0.014 A 
ATOM     78  C   UNL A   1      43.811  27.960  36.098  1.00  0.00     0.009 A 
ATOM     79  C   UNL A   1      45.268  29.408  34.821  1.00  0.00     0.009 A 
ATOM     80  C   UNL A   1      44.923  27.410  36.738  1.00  0.00     0.001 A 
ATOM     81  C   UNL A   1      46.380  28.836  35.441  1.00  0.00     0.001 A 
ATOM     82  C   UNL A   1      46.206  27.845  36.405  1.00  0.00     0.000 A 
ENDBRANCH  64  77
ENDBRANCH  38  39
ENDBRANCH  30  33
ENDBRANCH  28  29
ENDBRANCH  27  28
ENDBRANCH   1  27
TORSDOF 14
ENDMDL
MODEL 3
REMARK VINA RESULT:     -12.0      4.096      5.713
REMARK SMILES CC(=O)Nc1cccc(NC(=O)N[C@H](C(=O)NCCCNC(=O)c2ccc(-c3c4nc(c(-c5ccccc5)c5ccc([nH]5)c(-c5ccccc5)c5nc(c(-c6ccccc6)c6ccc3[nH]6)C=C5)C=C4)cc2)C(C)C)c1
REMARK SMILES IDX 18 1 17 2 15 3 16 4 14 6 13 7 10 8 11 9 12 11 9 13 5 14 6 15
REMARK SMILES IDX 75 16 7 17 8 18 4 19 1 20 2 21 3 22 72 24 73 25 74 26 19 27
REMARK SMILES IDX 20 28 21 29 22 30 23 32 24 33 25 34 71 35 26 36 70 37 27 38
REMARK SMILES IDX 28 39 29 40 64 41 30 42 69 43 63 44 65 45 31 46 68 47 62 48
REMARK SMILES IDX 61 49 32 51 54 52 39 53 53 54 40 55 43 56 52 57 66 58 41 59
REMARK SMILES IDX 42 60 51 62 67 63 44 64 33 65 34 66 38 67 35 68 37 69 36 70
REMARK SMILES IDX 55 71 56 72 60 73 57 74 59 75 58 76 45 77 46 78 50 79 47 80
REMARK SMILES IDX 49 81 48 82
REMARK H PARENT 17 5 10 10 13 12 4 23 21 31 65 50 43 61
REMARK Flexibility Score: inf
ROOT
ATOM      1  C   UNL A   1      38.107  23.497  26.502  1.00  0.00     0.117 C 
ENDROOT
BRANCH   1   2
ATOM      2  N   UNL A   1      38.257  22.127  26.024  1.00  0.00    -0.354 N 
ATOM      3  C   UNL A   1      37.372  21.313  25.355  1.00  0.00     0.242 C 
ATOM      4  O   UNL A   1      37.827  20.219  25.009  1.00  0.00    -0.273 OA
ATOM      5  H   UNL A   1      39.134  21.720  26.208  1.00  0.00     0.163 HD
BRANCH   3   6
ATOM      6  C   UNL A   1      35.855  21.678  25.197  1.00  0.00     0.175 C 
BRANCH   6   7
ATOM      7  N   UNL A   1      35.167  22.042  26.446  1.00  0.00    -0.326 N 
ATOM      8  N   UNL A   1      33.222  20.707  26.854  1.00  0.00    -0.308 N 
ATOM      9  C   UNL A   1      34.095  21.678  27.149  1.00  0.00     0.319 C 
ATOM     10  H   UNL A   1      32.651  20.484  27.624  1.00  0.00     0.171 HD
ATOM     11  O   UNL A   1      33.943  22.266  28.227  1.00  0.00    -0.248 OA
ATOM     12  H   UNL A   1      35.643  22.774  26.898  1.00  0.00     0.166 HD
BRANCH   8  13
ATOM     13  C   UNL A   1      32.913  19.927  25.736  1.00  0.00     0.044 A 
ATOM     14  C   UNL A   1      32.716  17.708  24.798  1.00  0.00     0.043 A 
ATOM     15  C   UNL A   1      32.659  18.231  23.512  1.00  0.00     0.026 A 
ATOM     16  C   UNL A   1      32.867  18.546  25.908  1.00  0.00     0.052 A 
ATOM     17  C   UNL A   1      32.546  19.606  23.360  1.00  0.00     0.004 A 
ATOM     18  C   UNL A   1      32.616  20.437  24.481  1.00  0.00     0.026 A 
BRANCH  14  19
ATOM     19  N   UNL A   1      32.528  16.337  24.969  1.00  0.00    -0.326 N 
ATOM     20  C   UNL A   1      34.964  15.974  25.250  1.00  0.00     0.114 C 
ATOM     21  C   UNL A   1      33.549  15.442  25.182  1.00  0.00     0.221 C 
ATOM     22  O   UNL A   1      33.295  14.255  25.378  1.00  0.00    -0.275 OA
ATOM     23  H   UNL A   1      31.608  15.989  24.935  1.00  0.00     0.169 HD
ENDBRANCH  14  19
ENDBRANCH   8  13
ENDBRANCH   6   7
BRANCH   6  24
ATOM     24  C   UNL A   1      35.375  22.560  24.003  1.00  0.00     0.015 C 
ATOM     25  C   UNL A   1      34.700  23.885  24.358  1.00  0.00     0.010 C 
ATOM     26  C   UNL A   1      36.551  22.851  23.055  1.00  0.00     0.010 C 
ENDBRANCH   6  24
ENDBRANCH   3   6
ENDBRANCH   1   2
BRANCH   1  27
ATOM     27  C   UNL A   1      39.344  24.361  26.287  1.00  0.00     0.042 C 
BRANCH  27  28
ATOM     28  C   UNL A   1      40.403  24.186  27.370  1.00  0.00     0.118 C 
BRANCH  28  29
ATOM     29  N   UNL A   1      41.353  23.114  27.092  1.00  0.00    -0.352 N 
ATOM     30  C   UNL A   1      42.687  23.135  26.735  1.00  0.00     0.251 C 
ATOM     31  H   UNL A   1      40.972  22.209  27.175  1.00  0.00     0.163 HD
ATOM     32  O   UNL A   1      43.249  22.092  26.441  1.00  0.00    -0.269 OA
BRANCH  30  33
ATOM     33  C   UNL A   1      43.436  24.413  26.659  1.00  0.00     0.039 A 
ATOM     34  C   UNL A   1      44.015  24.930  27.823  1.00  0.00     0.014 A 
ATOM     35  C   UNL A   1      43.561  25.117  25.463  1.00  0.00     0.014 A 
ATOM     36  C   UNL A   1      44.805  26.084  27.760  1.00  0.00     0.010 A 
ATOM     37  C   UNL A   1      44.441  26.192  25.378  1.00  0.00     0.010 A 
ATOM     38  C   UNL A   1      45.076  26.690  26.523  1.00  0.00    -0.014 A 
BRANCH  38  39
ATOM     39  C   UNL A   1      46.010  27.842  26.395  1.00  0.00     0.031 A 
ATOM     40  C   UNL A   1      47.486  27.606  26.201  1.00  0.00     0.074 A 
ATOM     41  C   UNL A   1      45.551  29.101  26.544  1.00  0.00     0.049 A 
ATOM     42  N   UNL A   1      48.468  28.472  26.182  1.00  0.00    -0.248 NA
ATOM     43  C   UNL A   1      47.917  26.208  26.045  1.00  0.00     0.031 C 
ATOM     44  C   UNL A   1      44.155  29.477  26.776  1.00  0.00     0.029 A 
ATOM     45  N   UNL A   1      46.217  30.301  26.527  1.00  0.00    -0.354 N 
ATOM     46  C   UNL A   1      49.629  27.722  26.043  1.00  0.00     0.074 A 
ATOM     47  C   UNL A   1      49.235  26.330  26.045  1.00  0.00     0.031 C 
ATOM     48  C   UNL A   1      44.063  30.815  26.835  1.00  0.00     0.029 A 
ATOM     49  C   UNL A   1      45.396  31.390  26.696  1.00  0.00     0.049 A 
ATOM     50  H   UNL A   1      47.191  30.376  26.406  1.00  0.00     0.167 HD
ATOM     51  C   UNL A   1      50.908  28.147  25.899  1.00  0.00     0.031 A 
ATOM     52  C   UNL A   1      45.682  32.705  26.737  1.00  0.00     0.031 A 
ATOM     53  C   UNL A   1      51.303  29.529  25.873  1.00  0.00     0.049 A 
ATOM     54  C   UNL A   1      47.109  33.155  26.591  1.00  0.00     0.074 A 
ATOM     55  C   UNL A   1      52.565  30.064  25.676  1.00  0.00     0.029 A 
ATOM     56  N   UNL A   1      50.438  30.599  26.048  1.00  0.00    -0.354 N 
ATOM     57  N   UNL A   1      48.188  32.434  26.410  1.00  0.00    -0.248 NA
ATOM     58  C   UNL A   1      47.353  34.602  26.654  1.00  0.00     0.031 C 
ATOM     59  C   UNL A   1      52.469  31.456  25.775  1.00  0.00     0.029 A 
ATOM     60  C   UNL A   1      51.140  31.790  25.980  1.00  0.00     0.049 A 
ATOM     61  H   UNL A   1      49.467  30.522  26.196  1.00  0.00     0.167 HD
ATOM     62  C   UNL A   1      49.234  33.341  26.303  1.00  0.00     0.074 A 
ATOM     63  C   UNL A   1      48.658  34.664  26.430  1.00  0.00     0.031 C 
ATOM     64  C   UNL A   1      50.554  33.099  26.111  1.00  0.00     0.031 A 
BRANCH  51  65
ATOM     65  C   UNL A   1      51.969  27.089  25.761  1.00  0.00    -0.014 A 
ATOM     66  C   UNL A   1      52.620  26.560  26.888  1.00  0.00     0.009 A 
ATOM     67  C   UNL A   1      52.323  26.613  24.489  1.00  0.00     0.009 A 
ATOM     68  C   UNL A   1      53.641  25.619  26.740  1.00  0.00     0.001 A 
ATOM     69  C   UNL A   1      53.321  25.647  24.347  1.00  0.00     0.001 A 
ATOM     70  C   UNL A   1      53.989  25.162  25.471  1.00  0.00     0.000 A 
ENDBRANCH  51  65
BRANCH  52  71
ATOM     71  C   UNL A   1      44.588  33.701  26.883  1.00  0.00    -0.014 A 
ATOM     72  C   UNL A   1      43.955  34.222  25.742  1.00  0.00     0.009 A 
ATOM     73  C   UNL A   1      44.168  34.135  28.149  1.00  0.00     0.009 A 
ATOM     74  C   UNL A   1      42.940  35.173  25.867  1.00  0.00     0.001 A 
ATOM     75  C   UNL A   1      43.134  35.066  28.271  1.00  0.00     0.001 A 
ATOM     76  C   UNL A   1      42.528  35.591  27.131  1.00  0.00     0.000 A 
ENDBRANCH  52  71
BRANCH  64  77
ATOM     77  C   UNL A   1      51.460  34.291  25.989  1.00  0.00    -0.014 A 
ATOM     78  C   UNL A   1      52.131  34.816  27.103  1.00  0.00     0.009 A 
ATOM     79  C   UNL A   1      51.671  34.874  24.729  1.00  0.00     0.009 A 
ATOM     80  C   UNL A   1      52.972  35.922  26.964  1.00  0.00     0.001 A 
ATOM     81  C   UNL A   1      52.535  35.961  24.588  1.00  0.00     0.001 A 
ATOM     82  C   UNL A   1      53.177  36.490  25.706  1.00  0.00     0.000 A 
ENDBRANCH  64  77
ENDBRANCH  38  39
ENDBRANCH  30  33
ENDBRANCH  28  29
ENDBRANCH  27  28
ENDBRANCH   1  27
TORSDOF 14
ENDMDL
