MODEL 1
REMARK VINA RESULT:     -11.7      0.000      0.000
REMARK SMILES Cc1cscc1C(=O)N1C[C@@H](C(=O)NCCCNC(=O)c2ccc(-c3c4nc(c(-c5ccccc5)c5ccc([nH]5)c(-c5ccccc5)c5nc(c(-c6ccccc6)c6ccc3[nH]6)C=C5)C=C4)cc2)Oc2ccccc21
REMARK SMILES IDX 16 1 15 2 14 3 12 4 13 5 11 7 9 8 10 9 75 10 70 11 74 12
REMARK SMILES IDX 69 13 71 14 73 15 72 16 7 17 8 18 6 19 1 20 2 21 3 22 4 23
REMARK SMILES IDX 5 24 17 25 18 26 19 27 20 29 21 30 22 31 68 32 23 33 67 34
REMARK SMILES IDX 24 35 25 36 26 37 61 38 27 39 66 40 60 41 62 42 28 43 65 44
REMARK SMILES IDX 59 45 58 46 29 48 51 49 36 50 50 51 37 52 40 53 49 54 63 55
REMARK SMILES IDX 38 56 39 57 48 59 64 60 41 61 30 62 31 63 35 64 32 65 34 66
REMARK SMILES IDX 33 67 52 68 53 69 57 70 54 71 56 72 55 73 42 74 43 75 47 76
REMARK SMILES IDX 44 77 46 78 45 79
REMARK H PARENT 14 6 18 28 62 47 40 58
REMARK Flexibility Score: inf
ROOT
ATOM      1  C   UNL A   1      32.313  28.140  27.617  1.00  0.00     0.042 C 
ENDROOT
BRANCH   1   2
ATOM      2  C   UNL A   1      31.405  27.563  26.542  1.00  0.00     0.118 C 
BRANCH   2   3
ATOM      3  N   UNL A   1      31.156  26.144  26.691  1.00  0.00    -0.353 N 
ATOM      4  C   UNL A   1      30.693  25.236  25.791  1.00  0.00     0.262 C 
ATOM      5  O   UNL A   1      30.698  24.053  26.153  1.00  0.00    -0.271 OA
ATOM      6  H   UNL A   1      31.355  25.779  27.585  1.00  0.00     0.163 HD
BRANCH   4   7
ATOM      7  C   UNL A   1      30.123  25.616  24.403  1.00  0.00     0.281 C 
ATOM      8  N   UNL A   1      32.010  24.902  22.982  1.00  0.00    -0.301 N 
ATOM      9  C   UNL A   1      30.625  24.605  23.364  1.00  0.00     0.181 C 
ATOM     10  C   UNL A   1      32.335  26.288  22.897  1.00  0.00     0.086 A 
ATOM     11  C   UNL A   1      31.377  27.243  23.266  1.00  0.00     0.144 A 
ATOM     12  C   UNL A   1      33.564  26.737  22.397  1.00  0.00     0.030 A 
ATOM     13  O   UNL A   1      30.188  26.936  23.880  1.00  0.00    -0.477 OA
ATOM     14  C   UNL A   1      31.621  28.609  23.087  1.00  0.00     0.049 A 
ATOM     15  C   UNL A   1      33.824  28.103  22.259  1.00  0.00     0.002 A 
ATOM     16  C   UNL A   1      32.850  29.039  22.592  1.00  0.00     0.004 A 
BRANCH   8  17
ATOM     17  C   UNL A   1      32.980  23.911  22.884  1.00  0.00     0.259 C 
ATOM     18  O   UNL A   1      33.437  23.554  21.791  1.00  0.00    -0.269 OA
BRANCH  17  19
ATOM     19  C   UNL A   1      33.443  23.253  24.117  1.00  0.00     0.053 A 
ATOM     20  C   UNL A   1      34.493  25.235  25.521  1.00  0.00     0.046 C 
ATOM     21  C   UNL A   1      34.089  23.814  25.294  1.00  0.00    -0.028 A 
ATOM     22  C   UNL A   1      34.258  22.851  26.277  1.00  0.00     0.069 A 
ATOM     23  S   UNL A   1      33.647  21.324  25.840  1.00  0.00    -0.151 S 
ATOM     24  C   UNL A   1      33.140  21.915  24.327  1.00  0.00     0.079 A 
ENDBRANCH  17  19
ENDBRANCH   8  17
ENDBRANCH   4   7
ENDBRANCH   2   3
ENDBRANCH   1   2
BRANCH   1  25
ATOM     25  C   UNL A   1      33.468  28.985  27.101  1.00  0.00     0.118 C 
BRANCH  25  26
ATOM     26  N   UNL A   1      33.544  30.309  27.702  1.00  0.00    -0.352 N 
ATOM     27  C   UNL A   1      34.570  30.917  28.386  1.00  0.00     0.251 C 
ATOM     28  H   UNL A   1      32.731  30.856  27.602  1.00  0.00     0.163 HD
ATOM     29  O   UNL A   1      34.392  32.014  28.913  1.00  0.00    -0.269 OA
BRANCH  27  30
ATOM     30  C   UNL A   1      35.880  30.244  28.537  1.00  0.00     0.039 A 
ATOM     31  C   UNL A   1      36.786  30.283  27.473  1.00  0.00     0.014 A 
ATOM     32  C   UNL A   1      36.228  29.583  29.717  1.00  0.00     0.014 A 
ATOM     33  C   UNL A   1      38.068  29.747  27.627  1.00  0.00     0.010 A 
ATOM     34  C   UNL A   1      37.533  29.139  29.905  1.00  0.00     0.010 A 
ATOM     35  C   UNL A   1      38.469  29.216  28.862  1.00  0.00    -0.014 A 
BRANCH  35  36
ATOM     36  C   UNL A   1      39.854  28.728  29.092  1.00  0.00     0.031 A 
ATOM     37  C   UNL A   1      40.889  29.649  29.682  1.00  0.00     0.074 A 
ATOM     38  C   UNL A   1      40.211  27.491  28.692  1.00  0.00     0.049 A 
ATOM     39  N   UNL A   1      42.175  29.459  29.832  1.00  0.00    -0.248 NA
ATOM     40  C   UNL A   1      40.420  30.971  30.128  1.00  0.00     0.031 C 
ATOM     41  C   UNL A   1      39.324  26.508  28.064  1.00  0.00     0.029 A 
ATOM     42  N   UNL A   1      41.426  26.854  28.744  1.00  0.00    -0.354 N 
ATOM     43  C   UNL A   1      42.674  30.650  30.345  1.00  0.00     0.074 A 
ATOM     44  C   UNL A   1      41.559  31.566  30.451  1.00  0.00     0.031 C 
ATOM     45  C   UNL A   1      40.018  25.384  27.818  1.00  0.00     0.029 A 
ATOM     46  C   UNL A   1      41.404  25.580  28.230  1.00  0.00     0.049 A 
ATOM     47  H   UNL A   1      42.237  27.270  29.116  1.00  0.00     0.167 HD
ATOM     48  C   UNL A   1      43.941  30.954  30.712  1.00  0.00     0.031 A 
ATOM     49  C   UNL A   1      42.388  24.673  28.098  1.00  0.00     0.031 A 
ATOM     50  C   UNL A   1      45.044  30.034  30.658  1.00  0.00     0.049 A 
ATOM     51  C   UNL A   1      43.778  25.016  28.555  1.00  0.00     0.074 A 
ATOM     52  C   UNL A   1      46.351  30.229  31.070  1.00  0.00     0.029 A 
ATOM     53  N   UNL A   1      44.964  28.739  30.174  1.00  0.00    -0.354 N 
ATOM     54  N   UNL A   1      44.222  26.134  29.075  1.00  0.00    -0.248 NA
ATOM     55  C   UNL A   1      44.798  23.967  28.414  1.00  0.00     0.031 C 
ATOM     56  C   UNL A   1      47.069  29.056  30.815  1.00  0.00     0.029 A 
ATOM     57  C   UNL A   1      46.199  28.123  30.275  1.00  0.00     0.049 A 
ATOM     58  H   UNL A   1      44.150  28.320  29.813  1.00  0.00     0.167 HD
ATOM     59  C   UNL A   1      45.567  25.916  29.344  1.00  0.00     0.074 A 
ATOM     60  C   UNL A   1      45.864  24.557  28.940  1.00  0.00     0.031 C 
ATOM     61  C   UNL A   1      46.474  26.768  29.877  1.00  0.00     0.031 A 
BRANCH  48  62
ATOM     62  C   UNL A   1      44.197  32.347  31.210  1.00  0.00    -0.014 A 
ATOM     63  C   UNL A   1      44.096  32.660  32.575  1.00  0.00     0.009 A 
ATOM     64  C   UNL A   1      44.561  33.355  30.305  1.00  0.00     0.009 A 
ATOM     65  C   UNL A   1      44.320  33.964  33.018  1.00  0.00     0.001 A 
ATOM     66  C   UNL A   1      44.808  34.653  30.755  1.00  0.00     0.001 A 
ATOM     67  C   UNL A   1      44.678  34.959  32.109  1.00  0.00     0.000 A 
ENDBRANCH  48  62
BRANCH  49  68
ATOM     68  C   UNL A   1      42.095  23.335  27.527  1.00  0.00    -0.014 A 
ATOM     69  C   UNL A   1      41.503  22.343  28.323  1.00  0.00     0.009 A 
ATOM     70  C   UNL A   1      42.406  23.040  26.192  1.00  0.00     0.009 A 
ATOM     71  C   UNL A   1      41.250  21.072  27.800  1.00  0.00     0.001 A 
ATOM     72  C   UNL A   1      42.133  21.775  25.665  1.00  0.00     0.001 A 
ATOM     73  C   UNL A   1      41.563  20.792  26.471  1.00  0.00     0.000 A 
ENDBRANCH  49  68
BRANCH  61  74
ATOM     74  C   UNL A   1      47.862  26.243  30.090  1.00  0.00    -0.014 A 
ATOM     75  C   UNL A   1      48.803  26.238  29.050  1.00  0.00     0.009 A 
ATOM     76  C   UNL A   1      48.243  25.786  31.362  1.00  0.00     0.009 A 
ATOM     77  C   UNL A   1      50.096  25.762  29.273  1.00  0.00     0.001 A 
ATOM     78  C   UNL A   1      49.543  25.328  31.586  1.00  0.00     0.001 A 
ATOM     79  C   UNL A   1      50.465  25.310  30.541  1.00  0.00     0.000 A 
ENDBRANCH  61  74
ENDBRANCH  35  36
ENDBRANCH  27  30
ENDBRANCH  25  26
ENDBRANCH   1  25
TORSDOF 12
ENDMDL
MODEL 2
REMARK VINA RESULT:     -11.7      1.227      2.850
REMARK SMILES Cc1cscc1C(=O)N1C[C@@H](C(=O)NCCCNC(=O)c2ccc(-c3c4nc(c(-c5ccccc5)c5ccc([nH]5)c(-c5ccccc5)c5nc(c(-c6ccccc6)c6ccc3[nH]6)C=C5)C=C4)cc2)Oc2ccccc21
REMARK SMILES IDX 16 1 15 2 14 3 12 4 13 5 11 7 9 8 10 9 75 10 70 11 74 12
REMARK SMILES IDX 69 13 71 14 73 15 72 16 7 17 8 18 6 19 1 20 2 21 3 22 4 23
REMARK SMILES IDX 5 24 17 25 18 26 19 27 20 29 21 30 22 31 68 32 23 33 67 34
REMARK SMILES IDX 24 35 25 36 26 37 61 38 27 39 66 40 60 41 62 42 28 43 65 44
REMARK SMILES IDX 59 45 58 46 29 48 51 49 36 50 50 51 37 52 40 53 49 54 63 55
REMARK SMILES IDX 38 56 39 57 48 59 64 60 41 61 30 62 31 63 35 64 32 65 34 66
REMARK SMILES IDX 33 67 52 68 53 69 57 70 54 71 56 72 55 73 42 74 43 75 47 76
REMARK SMILES IDX 44 77 46 78 45 79
REMARK H PARENT 14 6 18 28 62 47 40 58
REMARK Flexibility Score: inf
ROOT
ATOM      1  C   UNL A   1      33.601  28.581  26.118  1.00  0.00     0.042 C 
ENDROOT
BRANCH   1   2
ATOM      2  C   UNL A   1      34.020  27.146  25.840  1.00  0.00     0.118 C 
BRANCH   2   3
ATOM      3  N   UNL A   1      32.992  26.171  26.140  1.00  0.00    -0.353 N 
ATOM      4  C   UNL A   1      33.038  24.812  26.115  1.00  0.00     0.262 C 
ATOM      5  O   UNL A   1      32.040  24.221  26.545  1.00  0.00    -0.271 OA
ATOM      6  H   UNL A   1      32.122  26.552  26.404  1.00  0.00     0.163 HD
BRANCH   4   7
ATOM      7  C   UNL A   1      34.224  24.003  25.535  1.00  0.00     0.281 C 
ATOM      8  N   UNL A   1      33.623  24.064  23.143  1.00  0.00    -0.301 N 
ATOM      9  C   UNL A   1      34.573  24.556  24.147  1.00  0.00     0.181 C 
ATOM     10  C   UNL A   1      33.184  22.720  23.327  1.00  0.00     0.086 A 
ATOM     11  C   UNL A   1      33.593  22.011  24.465  1.00  0.00     0.144 A 
ATOM     12  C   UNL A   1      32.403  22.053  22.373  1.00  0.00     0.030 A 
ATOM     13  O   UNL A   1      34.255  22.583  25.524  1.00  0.00    -0.477 OA
ATOM     14  C   UNL A   1      33.277  20.657  24.619  1.00  0.00     0.049 A 
ATOM     15  C   UNL A   1      32.050  20.712  22.549  1.00  0.00     0.002 A 
ATOM     16  C   UNL A   1      32.496  20.011  23.665  1.00  0.00     0.004 A 
BRANCH   8  17
ATOM     17  C   UNL A   1      33.056  24.900  22.188  1.00  0.00     0.259 C 
ATOM     18  O   UNL A   1      33.230  24.716  20.977  1.00  0.00    -0.269 OA
BRANCH  17  19
ATOM     19  C   UNL A   1      32.258  26.050  22.642  1.00  0.00     0.053 A 
ATOM     20  C   UNL A   1      33.816  28.127  22.127  1.00  0.00     0.046 C 
ATOM     21  C   UNL A   1      32.560  27.474  22.607  1.00  0.00    -0.028 A 
ATOM     22  C   UNL A   1      31.477  28.223  23.040  1.00  0.00     0.069 A 
ATOM     23  S   UNL A   1      30.123  27.280  23.454  1.00  0.00    -0.151 S 
ATOM     24  C   UNL A   1      30.951  25.846  23.062  1.00  0.00     0.079 A 
ENDBRANCH  17  19
ENDBRANCH   8  17
ENDBRANCH   4   7
ENDBRANCH   2   3
ENDBRANCH   1   2
BRANCH   1  25
ATOM     25  C   UNL A   1      33.333  28.903  27.581  1.00  0.00     0.118 C 
BRANCH  25  26
ATOM     26  N   UNL A   1      33.493  30.311  27.913  1.00  0.00    -0.352 N 
ATOM     27  C   UNL A   1      34.593  30.994  28.376  1.00  0.00     0.251 C 
ATOM     28  H   UNL A   1      32.686  30.861  27.785  1.00  0.00     0.163 HD
ATOM     29  O   UNL A   1      34.489  32.176  28.701  1.00  0.00    -0.269 OA
BRANCH  27  30
ATOM     30  C   UNL A   1      35.896  30.311  28.533  1.00  0.00     0.039 A 
ATOM     31  C   UNL A   1      36.777  30.280  27.447  1.00  0.00     0.014 A 
ATOM     32  C   UNL A   1      36.264  29.709  29.738  1.00  0.00     0.014 A 
ATOM     33  C   UNL A   1      38.055  29.733  27.600  1.00  0.00     0.010 A 
ATOM     34  C   UNL A   1      37.567  29.256  29.919  1.00  0.00     0.010 A 
ATOM     35  C   UNL A   1      38.478  29.263  28.853  1.00  0.00    -0.014 A 
BRANCH  35  36
ATOM     36  C   UNL A   1      39.861  28.767  29.076  1.00  0.00     0.031 A 
ATOM     37  C   UNL A   1      40.909  29.689  29.643  1.00  0.00     0.074 A 
ATOM     38  C   UNL A   1      40.205  27.523  28.691  1.00  0.00     0.049 A 
ATOM     39  N   UNL A   1      42.195  29.491  29.784  1.00  0.00    -0.248 NA
ATOM     40  C   UNL A   1      40.455  31.020  30.075  1.00  0.00     0.031 C 
ATOM     41  C   UNL A   1      39.304  26.538  28.086  1.00  0.00     0.029 A 
ATOM     42  N   UNL A   1      41.415  26.876  28.740  1.00  0.00    -0.354 N 
ATOM     43  C   UNL A   1      42.708  30.685  30.275  1.00  0.00     0.074 A 
ATOM     44  C   UNL A   1      41.601  31.611  30.378  1.00  0.00     0.031 C 
ATOM     45  C   UNL A   1      39.987  25.405  27.849  1.00  0.00     0.029 A 
ATOM     46  C   UNL A   1      41.378  25.596  28.244  1.00  0.00     0.049 A 
ATOM     47  H   UNL A   1      42.233  27.292  29.099  1.00  0.00     0.167 HD
ATOM     48  C   UNL A   1      43.981  30.983  30.626  1.00  0.00     0.031 A 
ATOM     49  C   UNL A   1      42.354  24.679  28.117  1.00  0.00     0.031 A 
ATOM     50  C   UNL A   1      45.076  30.055  30.574  1.00  0.00     0.049 A 
ATOM     51  C   UNL A   1      43.750  25.017  28.556  1.00  0.00     0.074 A 
ATOM     52  C   UNL A   1      46.388  30.245  30.971  1.00  0.00     0.029 A 
ATOM     53  N   UNL A   1      44.981  28.753  30.110  1.00  0.00    -0.354 N 
ATOM     54  N   UNL A   1      44.208  26.138  29.055  1.00  0.00    -0.248 NA
ATOM     55  C   UNL A   1      44.761  23.958  28.419  1.00  0.00     0.031 C 
ATOM     56  C   UNL A   1      47.095  29.063  30.726  1.00  0.00     0.029 A 
ATOM     57  C   UNL A   1      46.212  28.128  30.207  1.00  0.00     0.049 A 
ATOM     58  H   UNL A   1      44.161  28.335  29.762  1.00  0.00     0.167 HD
ATOM     59  C   UNL A   1      45.554  25.914  29.314  1.00  0.00     0.074 A 
ATOM     60  C   UNL A   1      45.836  24.547  28.927  1.00  0.00     0.031 C 
ATOM     61  C   UNL A   1      46.473  26.766  29.827  1.00  0.00     0.031 A 
BRANCH  48  62
ATOM     62  C   UNL A   1      44.253  32.381  31.101  1.00  0.00    -0.014 A 
ATOM     63  C   UNL A   1      44.605  33.399  30.199  1.00  0.00     0.009 A 
ATOM     64  C   UNL A   1      44.137  32.689  32.465  1.00  0.00     0.009 A 
ATOM     65  C   UNL A   1      44.870  34.689  30.661  1.00  0.00     0.001 A 
ATOM     66  C   UNL A   1      44.380  33.986  32.920  1.00  0.00     0.001 A 
ATOM     67  C   UNL A   1      44.755  34.982  32.019  1.00  0.00     0.000 A 
ENDBRANCH  48  62
BRANCH  49  68
ATOM     68  C   UNL A   1      42.045  23.335  27.567  1.00  0.00    -0.014 A 
ATOM     69  C   UNL A   1      42.286  23.054  26.214  1.00  0.00     0.009 A 
ATOM     70  C   UNL A   1      41.504  22.331  28.385  1.00  0.00     0.009 A 
ATOM     71  C   UNL A   1      41.970  21.801  25.684  1.00  0.00     0.001 A 
ATOM     72  C   UNL A   1      41.210  21.072  27.857  1.00  0.00     0.001 A 
ATOM     73  C   UNL A   1      41.436  20.811  26.507  1.00  0.00     0.000 A 
ENDBRANCH  49  68
BRANCH  61  74
ATOM     74  C   UNL A   1      47.859  26.233  30.034  1.00  0.00    -0.014 A 
ATOM     75  C   UNL A   1      48.783  26.190  28.980  1.00  0.00     0.009 A 
ATOM     76  C   UNL A   1      48.255  25.808  31.312  1.00  0.00     0.009 A 
ATOM     77  C   UNL A   1      50.075  25.706  29.198  1.00  0.00     0.001 A 
ATOM     78  C   UNL A   1      49.553  25.344  31.530  1.00  0.00     0.001 A 
ATOM     79  C   UNL A   1      50.459  25.287  30.473  1.00  0.00     0.000 A 
ENDBRANCH  61  74
ENDBRANCH  35  36
ENDBRANCH  27  30
ENDBRANCH  25  26
ENDBRANCH   1  25
TORSDOF 12
ENDMDL
MODEL 3
REMARK VINA RESULT:     -11.5      2.503      7.406
REMARK SMILES Cc1cscc1C(=O)N1C[C@@H](C(=O)NCCCNC(=O)c2ccc(-c3c4nc(c(-c5ccccc5)c5ccc([nH]5)c(-c5ccccc5)c5nc(c(-c6ccccc6)c6ccc3[nH]6)C=C5)C=C4)cc2)Oc2ccccc21
REMARK SMILES IDX 16 1 15 2 14 3 12 4 13 5 11 7 9 8 10 9 75 10 70 11 74 12
REMARK SMILES IDX 69 13 71 14 73 15 72 16 7 17 8 18 6 19 1 20 2 21 3 22 4 23
REMARK SMILES IDX 5 24 17 25 18 26 19 27 20 29 21 30 22 31 68 32 23 33 67 34
REMARK SMILES IDX 24 35 25 36 26 37 61 38 27 39 66 40 60 41 62 42 28 43 65 44
REMARK SMILES IDX 59 45 58 46 29 48 51 49 36 50 50 51 37 52 40 53 49 54 63 55
REMARK SMILES IDX 38 56 39 57 48 59 64 60 41 61 30 62 31 63 35 64 32 65 34 66
REMARK SMILES IDX 33 67 52 68 53 69 57 70 54 71 56 72 55 73 42 74 43 75 47 76
REMARK SMILES IDX 44 77 46 78 45 79
REMARK H PARENT 14 6 18 28 62 47 40 58
REMARK Flexibility Score: inf
ROOT
ATOM      1  C   UNL A   1      36.108  23.338  25.896  1.00  0.00     0.042 C 
ENDROOT
BRANCH   1   2
ATOM      2  C   UNL A   1      35.147  24.515  25.835  1.00  0.00     0.118 C 
BRANCH   2   3
ATOM      3  N   UNL A   1      34.565  24.723  24.524  1.00  0.00    -0.353 N 
ATOM      4  C   UNL A   1      33.825  25.760  24.048  1.00  0.00     0.262 C 
ATOM      5  O   UNL A   1      33.562  25.738  22.839  1.00  0.00    -0.271 OA
ATOM      6  H   UNL A   1      34.733  24.001  23.875  1.00  0.00     0.163 HD
BRANCH   4   7
ATOM      7  C   UNL A   1      33.265  26.896  24.939  1.00  0.00     0.281 C 
ATOM      8  N   UNL A   1      31.212  25.796  25.754  1.00  0.00    -0.301 N 
ATOM      9  C   UNL A   1      32.543  26.275  26.142  1.00  0.00     0.181 C 
ATOM     10  C   UNL A   1      30.525  26.608  24.803  1.00  0.00     0.086 A 
ATOM     11  C   UNL A   1      31.177  27.717  24.246  1.00  0.00     0.144 A 
ATOM     12  C   UNL A   1      29.190  26.374  24.449  1.00  0.00     0.030 A 
ATOM     13  O   UNL A   1      32.514  27.983  24.418  1.00  0.00    -0.477 OA
ATOM     14  C   UNL A   1      30.496  28.599  23.401  1.00  0.00     0.049 A 
ATOM     15  C   UNL A   1      28.523  27.231  23.569  1.00  0.00     0.002 A 
ATOM     16  C   UNL A   1      29.171  28.349  23.054  1.00  0.00     0.004 A 
BRANCH   8  17
ATOM     17  C   UNL A   1      30.729  24.552  26.144  1.00  0.00     0.259 C 
ATOM     18  O   UNL A   1      29.779  24.440  26.929  1.00  0.00    -0.269 OA
BRANCH  17  19
ATOM     19  C   UNL A   1      31.396  23.344  25.631  1.00  0.00     0.053 A 
ATOM     20  C   UNL A   1      30.947  23.448  23.025  1.00  0.00     0.046 C 
ATOM     21  C   UNL A   1      31.523  22.850  24.268  1.00  0.00    -0.028 A 
ATOM     22  C   UNL A   1      32.329  21.723  24.219  1.00  0.00     0.069 A 
ATOM     23  S   UNL A   1      32.948  21.269  25.737  1.00  0.00    -0.151 S 
ATOM     24  C   UNL A   1      32.154  22.568  26.496  1.00  0.00     0.079 A 
ENDBRANCH  17  19
ENDBRANCH   8  17
ENDBRANCH   4   7
ENDBRANCH   2   3
ENDBRANCH   1   2
BRANCH   1  25
ATOM     25  C   UNL A   1      37.306  23.434  24.963  1.00  0.00     0.118 C 
BRANCH  25  26
ATOM     26  N   UNL A   1      38.432  22.604  25.364  1.00  0.00    -0.352 N 
ATOM     27  C   UNL A   1      39.529  22.908  26.135  1.00  0.00     0.251 C 
ATOM     28  H   UNL A   1      38.404  21.678  25.029  1.00  0.00     0.163 HD
ATOM     29  O   UNL A   1      40.433  22.084  26.268  1.00  0.00    -0.269 OA
BRANCH  27  30
ATOM     30  C   UNL A   1      39.660  24.237  26.774  1.00  0.00     0.039 A 
ATOM     31  C   UNL A   1      39.124  24.428  28.051  1.00  0.00     0.014 A 
ATOM     32  C   UNL A   1      40.310  25.293  26.132  1.00  0.00     0.014 A 
ATOM     33  C   UNL A   1      39.324  25.640  28.719  1.00  0.00     0.010 A 
ATOM     34  C   UNL A   1      40.594  26.461  26.833  1.00  0.00     0.010 A 
ATOM     35  C   UNL A   1      40.105  26.649  28.135  1.00  0.00    -0.014 A 
BRANCH  35  36
ATOM     36  C   UNL A   1      40.422  27.910  28.855  1.00  0.00     0.031 A 
ATOM     37  C   UNL A   1      41.734  28.054  29.578  1.00  0.00     0.074 A 
ATOM     38  C   UNL A   1      39.502  28.891  28.938  1.00  0.00     0.049 A 
ATOM     39  N   UNL A   1      42.139  29.013  30.373  1.00  0.00    -0.248 NA
ATOM     40  C   UNL A   1      42.704  26.960  29.414  1.00  0.00     0.031 C 
ATOM     41  C   UNL A   1      38.171  28.867  28.325  1.00  0.00     0.029 A 
ATOM     42  N   UNL A   1      39.544  30.100  29.587  1.00  0.00    -0.354 N 
ATOM     43  C   UNL A   1      43.387  28.615  30.837  1.00  0.00     0.074 A 
ATOM     44  C   UNL A   1      43.658  27.315  30.262  1.00  0.00     0.031 C 
ATOM     45  C   UNL A   1      37.538  30.019  28.603  1.00  0.00     0.029 A 
ATOM     46  C   UNL A   1      38.397  30.843  29.446  1.00  0.00     0.049 A 
ATOM     47  H   UNL A   1      40.324  30.406  30.105  1.00  0.00     0.167 HD
ATOM     48  C   UNL A   1      44.239  29.275  31.656  1.00  0.00     0.031 A 
ATOM     49  C   UNL A   1      38.070  32.049  29.943  1.00  0.00     0.031 A 
ATOM     50  C   UNL A   1      44.000  30.586  32.190  1.00  0.00     0.049 A 
ATOM     51  C   UNL A   1      39.052  32.783  30.812  1.00  0.00     0.074 A 
ATOM     52  C   UNL A   1      44.833  31.364  32.975  1.00  0.00     0.029 A 
ATOM     53  N   UNL A   1      42.844  31.321  31.982  1.00  0.00    -0.354 N 
ATOM     54  N   UNL A   1      40.243  32.408  31.208  1.00  0.00    -0.248 NA
ATOM     55  C   UNL A   1      38.644  34.111  31.294  1.00  0.00     0.031 C 
ATOM     56  C   UNL A   1      44.172  32.563  33.260  1.00  0.00     0.029 A 
ATOM     57  C   UNL A   1      42.941  32.543  32.624  1.00  0.00     0.049 A 
ATOM     58  H   UNL A   1      42.070  31.019  31.455  1.00  0.00     0.167 HD
ATOM     59  C   UNL A   1      40.737  33.461  31.966  1.00  0.00     0.074 A 
ATOM     60  C   UNL A   1      39.722  34.494  31.966  1.00  0.00     0.031 C 
ATOM     61  C   UNL A   1      41.926  33.562  32.606  1.00  0.00     0.031 A 
BRANCH  48  62
ATOM     62  C   UNL A   1      45.519  28.579  32.019  1.00  0.00    -0.014 A 
ATOM     63  C   UNL A   1      45.593  27.732  33.136  1.00  0.00     0.009 A 
ATOM     64  C   UNL A   1      46.661  28.758  31.222  1.00  0.00     0.009 A 
ATOM     65  C   UNL A   1      46.796  27.106  33.469  1.00  0.00     0.001 A 
ATOM     66  C   UNL A   1      47.855  28.112  31.545  1.00  0.00     0.001 A 
ATOM     67  C   UNL A   1      47.924  27.295  32.672  1.00  0.00     0.000 A 
ENDBRANCH  48  62
BRANCH  49  68
ATOM     68  C   UNL A   1      36.757  32.658  29.614  1.00  0.00    -0.014 A 
ATOM     69  C   UNL A   1      35.698  32.589  30.533  1.00  0.00     0.009 A 
ATOM     70  C   UNL A   1      36.552  33.304  28.386  1.00  0.00     0.009 A 
ATOM     71  C   UNL A   1      34.451  33.134  30.218  1.00  0.00     0.001 A 
ATOM     72  C   UNL A   1      35.310  33.868  28.083  1.00  0.00     0.001 A 
ATOM     73  C   UNL A   1      34.260  33.775  28.995  1.00  0.00     0.000 A 
ENDBRANCH  49  68
BRANCH  61  74
ATOM     74  C   UNL A   1      42.209  34.846  33.326  1.00  0.00    -0.014 A 
ATOM     75  C   UNL A   1      42.980  35.855  32.731  1.00  0.00     0.009 A 
ATOM     76  C   UNL A   1      41.660  35.063  34.599  1.00  0.00     0.009 A 
ATOM     77  C   UNL A   1      43.218  37.051  33.411  1.00  0.00     0.001 A 
ATOM     78  C   UNL A   1      41.884  36.267  35.268  1.00  0.00     0.001 A 
ATOM     79  C   UNL A   1      42.667  37.257  34.677  1.00  0.00     0.000 A 
ENDBRANCH  61  74
ENDBRANCH  35  36
ENDBRANCH  27  30
ENDBRANCH  25  26
ENDBRANCH   1  25
TORSDOF 12
ENDMDL
