MODEL 1
REMARK VINA RESULT:     -11.0      0.000      0.000
REMARK SMILES CC(C)C[C@H](NS(=O)(=O)N1C[C@@H](C)C[C@H](C)C1)C(=O)NCCCNC(=O)c1ccc(-c2c3nc(c(-c4ccccc4)c4ccc([nH]4)c(-c4ccccc4)c4nc(c(-c5ccccc5)c5ccc2[nH]5)C=C4)C=C3)cc1
REMARK SMILES IDX 21 1 20 2 18 3 19 4 5 6 4 7 2 8 1 9 3 10 6 11 7 13 8 14 9 15
REMARK SMILES IDX 10 16 11 17 17 18 12 19 15 20 13 21 14 22 16 23 22 24 23 25
REMARK SMILES IDX 24 26 25 27 26 29 27 30 28 31 74 32 29 33 73 34 30 35 31 36
REMARK SMILES IDX 32 37 67 38 33 39 72 40 66 41 68 42 34 43 71 44 65 45 64 46
REMARK SMILES IDX 35 48 57 49 42 50 56 51 43 52 46 53 55 54 69 55 44 56 45 57
REMARK SMILES IDX 54 59 70 60 47 61 36 62 37 63 41 64 38 65 40 66 39 67 58 68
REMARK SMILES IDX 59 69 63 70 60 71 62 72 61 73 48 74 49 75 53 76 50 77 52 78
REMARK SMILES IDX 51 79
REMARK H PARENT 20 5 6 12 24 28 68 47 46 58
REMARK Flexibility Score: inf
ROOT
ATOM      1  C   UNL A   1      36.101  21.067  25.374  1.00  0.00     0.117 C 
ENDROOT
BRANCH   1   2
ATOM      2  N   UNL A   1      35.560  22.041  24.444  1.00  0.00    -0.355 N 
ATOM      3  C   UNL A   1      34.292  22.218  23.987  1.00  0.00     0.238 C 
ATOM      4  O   UNL A   1      34.148  22.900  22.970  1.00  0.00    -0.273 OA
ATOM      5  H   UNL A   1      36.220  22.678  24.086  1.00  0.00     0.163 HD
BRANCH   3   6
ATOM      6  C   UNL A   1      33.097  21.648  24.755  1.00  0.00     0.160 C 
BRANCH   6   7
ATOM      7  C   UNL A   1      32.391  20.569  23.906  1.00  0.00     0.033 C 
BRANCH   7   8
ATOM      8  C   UNL A   1      32.980  19.137  23.977  1.00  0.00    -0.015 C 
ATOM      9  C   UNL A   1      32.758  18.445  25.321  1.00  0.00     0.007 C 
ATOM     10  C   UNL A   1      32.354  18.288  22.867  1.00  0.00     0.007 C 
ENDBRANCH   7   8
ENDBRANCH   6   7
BRANCH   6  11
ATOM     11  N   UNL A   1      32.233  22.754  25.234  1.00  0.00    -0.190 NA
ATOM     12  H   UNL A   1      31.381  22.305  25.571  1.00  0.00     0.143 HD
BRANCH  11  13
ATOM     13  S   UNL A   1      32.639  23.861  26.409  1.00  0.00     0.280 S 
ATOM     14  O   UNL A   1      31.477  23.882  27.273  1.00  0.00    -0.195 OA
ATOM     15  O   UNL A   1      33.936  23.536  26.935  1.00  0.00    -0.195 OA
BRANCH  13  16
ATOM     16  N   UNL A   1      32.691  25.293  25.587  1.00  0.00    -0.188 NA
ATOM     17  C   UNL A   1      32.046  25.537  24.293  1.00  0.00     0.106 C 
ATOM     18  C   UNL A   1      33.389  26.458  26.120  1.00  0.00     0.106 C 
ATOM     19  C   UNL A   1      30.995  26.653  24.418  1.00  0.00     0.001 C 
ATOM     20  C   UNL A   1      32.320  27.453  26.556  1.00  0.00     0.001 C 
ATOM     21  C   UNL A   1      29.637  26.041  24.727  1.00  0.00     0.009 C 
ATOM     22  C   UNL A   1      31.381  27.804  25.383  1.00  0.00     0.009 C 
ATOM     23  C   UNL A   1      32.963  28.707  27.155  1.00  0.00     0.009 C 
ENDBRANCH  13  16
ENDBRANCH  11  13
ENDBRANCH   6  11
ENDBRANCH   3   6
ENDBRANCH   1   2
BRANCH   1  24
ATOM     24  C   UNL A   1      37.373  20.463  24.801  1.00  0.00     0.042 C 
BRANCH  24  25
ATOM     25  C   UNL A   1      38.608  20.841  25.604  1.00  0.00     0.118 C 
BRANCH  25  26
ATOM     26  N   UNL A   1      39.545  19.728  25.726  1.00  0.00    -0.352 N 
ATOM     27  C   UNL A   1      40.889  19.760  26.004  1.00  0.00     0.251 C 
ATOM     28  H   UNL A   1      39.160  18.832  25.590  1.00  0.00     0.163 HD
ATOM     29  O   UNL A   1      41.598  18.782  25.798  1.00  0.00    -0.269 OA
BRANCH  27  30
ATOM     30  C   UNL A   1      41.461  21.006  26.539  1.00  0.00     0.039 A 
ATOM     31  C   UNL A   1      42.044  21.928  25.670  1.00  0.00     0.014 A 
ATOM     32  C   UNL A   1      41.345  21.280  27.903  1.00  0.00     0.014 A 
ATOM     33  C   UNL A   1      42.436  23.171  26.165  1.00  0.00     0.010 A 
ATOM     34  C   UNL A   1      41.624  22.554  28.366  1.00  0.00     0.010 A 
ATOM     35  C   UNL A   1      42.181  23.509  27.504  1.00  0.00    -0.014 A 
BRANCH  35  36
ATOM     36  C   UNL A   1      42.491  24.855  28.039  1.00  0.00     0.031 A 
ATOM     37  C   UNL A   1      43.890  25.168  28.493  1.00  0.00     0.074 A 
ATOM     38  C   UNL A   1      41.503  25.756  28.192  1.00  0.00     0.049 A 
ATOM     39  N   UNL A   1      44.347  26.251  29.068  1.00  0.00    -0.248 NA
ATOM     40  C   UNL A   1      44.902  24.114  28.308  1.00  0.00     0.031 C 
ATOM     41  C   UNL A   1      40.098  25.549  27.832  1.00  0.00     0.029 A 
ATOM     42  N   UNL A   1      41.529  27.030  28.700  1.00  0.00    -0.354 N 
ATOM     43  C   UNL A   1      45.687  25.999  29.328  1.00  0.00     0.074 A 
ATOM     44  C   UNL A   1      45.956  24.642  28.910  1.00  0.00     0.031 C 
ATOM     45  C   UNL A   1      39.406  26.669  28.097  1.00  0.00     0.029 A 
ATOM     46  C   UNL A   1      40.304  27.651  28.693  1.00  0.00     0.049 A 
ATOM     47  H   UNL A   1      42.349  27.458  29.038  1.00  0.00     0.167 HD
ATOM     48  C   UNL A   1      46.619  26.833  29.844  1.00  0.00     0.031 A 
ATOM     49  C   UNL A   1      39.944  28.873  29.129  1.00  0.00     0.031 A 
ATOM     50  C   UNL A   1      46.348  28.183  30.251  1.00  0.00     0.049 A 
ATOM     51  C   UNL A   1      40.993  29.769  29.728  1.00  0.00     0.074 A 
ATOM     52  C   UNL A   1      47.232  29.131  30.734  1.00  0.00     0.029 A 
ATOM     53  N   UNL A   1      45.094  28.776  30.228  1.00  0.00    -0.354 N 
ATOM     54  N   UNL A   1      42.274  29.545  29.895  1.00  0.00    -0.248 NA
ATOM     55  C   UNL A   1      40.546  31.088  30.193  1.00  0.00     0.031 C 
ATOM     56  C   UNL A   1      46.501  30.277  31.065  1.00  0.00     0.029 A 
ATOM     57  C   UNL A   1      45.174  30.066  30.722  1.00  0.00     0.049 A 
ATOM     58  H   UNL A   1      44.270  28.342  29.909  1.00  0.00     0.167 HD
ATOM     59  C   UNL A   1      42.791  30.704  30.460  1.00  0.00     0.074 A 
ATOM     60  C   UNL A   1      41.688  31.635  30.585  1.00  0.00     0.031 C 
ATOM     61  C   UNL A   1      44.063  30.974  30.843  1.00  0.00     0.031 A 
BRANCH  48  62
ATOM     62  C   UNL A   1      48.015  26.295  30.006  1.00  0.00    -0.014 A 
ATOM     63  C   UNL A   1      48.453  25.752  31.225  1.00  0.00     0.009 A 
ATOM     64  C   UNL A   1      48.899  26.309  28.915  1.00  0.00     0.009 A 
ATOM     65  C   UNL A   1      49.756  25.271  31.360  1.00  0.00     0.001 A 
ATOM     66  C   UNL A   1      50.190  25.796  29.043  1.00  0.00     0.001 A 
ATOM     67  C   UNL A   1      50.622  25.288  30.268  1.00  0.00     0.000 A 
ENDBRANCH  48  62
BRANCH  49  68
ATOM     68  C   UNL A   1      38.532  29.324  29.012  1.00  0.00    -0.014 A 
ATOM     69  C   UNL A   1      37.658  29.225  30.106  1.00  0.00     0.009 A 
ATOM     70  C   UNL A   1      38.044  29.845  27.804  1.00  0.00     0.009 A 
ATOM     71  C   UNL A   1      36.321  29.609  29.984  1.00  0.00     0.001 A 
ATOM     72  C   UNL A   1      36.716  30.261  27.693  1.00  0.00     0.001 A 
ATOM     73  C   UNL A   1      35.852  30.132  28.779  1.00  0.00     0.000 A 
ENDBRANCH  49  68
BRANCH  61  74
ATOM     74  C   UNL A   1      44.335  32.341  31.407  1.00  0.00    -0.014 A 
ATOM     75  C   UNL A   1      44.233  32.596  32.783  1.00  0.00     0.009 A 
ATOM     76  C   UNL A   1      44.745  33.375  30.551  1.00  0.00     0.009 A 
ATOM     77  C   UNL A   1      44.503  33.870  33.285  1.00  0.00     0.001 A 
ATOM     78  C   UNL A   1      45.048  34.637  31.061  1.00  0.00     0.001 A 
ATOM     79  C   UNL A   1      44.917  34.887  32.425  1.00  0.00     0.000 A 
ENDBRANCH  61  74
ENDBRANCH  35  36
ENDBRANCH  27  30
ENDBRANCH  25  26
ENDBRANCH  24  25
ENDBRANCH   1  24
TORSDOF 15
ENDMDL
MODEL 2
REMARK VINA RESULT:     -10.8      3.076      8.692
REMARK SMILES CC(C)C[C@H](NS(=O)(=O)N1C[C@@H](C)C[C@H](C)C1)C(=O)NCCCNC(=O)c1ccc(-c2c3nc(c(-c4ccccc4)c4ccc([nH]4)c(-c4ccccc4)c4nc(c(-c5ccccc5)c5ccc2[nH]5)C=C4)C=C3)cc1
REMARK SMILES IDX 21 1 20 2 18 3 19 4 5 6 4 7 2 8 1 9 3 10 6 11 7 13 8 14 9 15
REMARK SMILES IDX 10 16 11 17 17 18 12 19 15 20 13 21 14 22 16 23 22 24 23 25
REMARK SMILES IDX 24 26 25 27 26 29 27 30 28 31 74 32 29 33 73 34 30 35 31 36
REMARK SMILES IDX 32 37 67 38 33 39 72 40 66 41 68 42 34 43 71 44 65 45 64 46
REMARK SMILES IDX 35 48 57 49 42 50 56 51 43 52 46 53 55 54 69 55 44 56 45 57
REMARK SMILES IDX 54 59 70 60 47 61 36 62 37 63 41 64 38 65 40 66 39 67 58 68
REMARK SMILES IDX 59 69 63 70 60 71 62 72 61 73 48 74 49 75 53 76 50 77 52 78
REMARK SMILES IDX 51 79
REMARK H PARENT 20 5 6 12 24 28 68 47 46 58
REMARK Flexibility Score: inf
ROOT
ATOM      1  C   UNL A   1      32.366  29.911  25.368  1.00  0.00     0.117 C 
ENDROOT
BRANCH   1   2
ATOM      2  N   UNL A   1      31.990  28.571  25.778  1.00  0.00    -0.355 N 
ATOM      3  C   UNL A   1      31.232  27.633  25.149  1.00  0.00     0.238 C 
ATOM      4  O   UNL A   1      30.796  26.706  25.834  1.00  0.00    -0.273 OA
ATOM      5  H   UNL A   1      32.342  28.295  26.656  1.00  0.00     0.163 HD
BRANCH   3   6
ATOM      6  C   UNL A   1      30.999  27.701  23.637  1.00  0.00     0.160 C 
BRANCH   6   7
ATOM      7  C   UNL A   1      29.492  27.847  23.343  1.00  0.00     0.033 C 
BRANCH   7   8
ATOM      8  C   UNL A   1      28.964  29.288  23.125  1.00  0.00    -0.015 C 
ATOM      9  C   UNL A   1      29.689  30.050  22.017  1.00  0.00     0.007 C 
ATOM     10  C   UNL A   1      27.470  29.224  22.795  1.00  0.00     0.007 C 
ENDBRANCH   7   8
ENDBRANCH   6   7
BRANCH   6  11
ATOM     11  N   UNL A   1      31.676  26.561  22.973  1.00  0.00    -0.190 NA
ATOM     12  H   UNL A   1      31.402  26.619  21.992  1.00  0.00     0.143 HD
BRANCH  11  13
ATOM     13  S   UNL A   1      33.317  26.287  22.953  1.00  0.00     0.280 S 
ATOM     14  O   UNL A   1      33.566  25.804  21.610  1.00  0.00    -0.195 OA
ATOM     15  O   UNL A   1      33.996  27.451  23.449  1.00  0.00    -0.195 OA
BRANCH  13  16
ATOM     16  N   UNL A   1      33.508  25.019  23.995  1.00  0.00    -0.188 NA
ATOM     17  C   UNL A   1      32.506  23.977  24.234  1.00  0.00     0.106 C 
ATOM     18  C   UNL A   1      34.736  24.835  24.761  1.00  0.00     0.106 C 
ATOM     19  C   UNL A   1      33.061  22.597  23.838  1.00  0.00     0.001 C 
ATOM     20  C   UNL A   1      35.464  23.643  24.150  1.00  0.00     0.001 C 
ATOM     21  C   UNL A   1      32.700  22.299  22.391  1.00  0.00     0.009 C 
ATOM     22  C   UNL A   1      34.565  22.389  24.149  1.00  0.00     0.009 C 
ATOM     23  C   UNL A   1      36.786  23.387  24.879  1.00  0.00     0.009 C 
ENDBRANCH  13  16
ENDBRANCH  11  13
ENDBRANCH   6  11
ENDBRANCH   3   6
ENDBRANCH   1   2
BRANCH   1  24
ATOM     24  C   UNL A   1      31.695  30.931  26.273  1.00  0.00     0.042 C 
BRANCH  24  25
ATOM     25  C   UNL A   1      32.673  31.580  27.242  1.00  0.00     0.118 C 
BRANCH  25  26
ATOM     26  N   UNL A   1      32.401  33.002  27.424  1.00  0.00    -0.352 N 
ATOM     27  C   UNL A   1      33.051  33.907  28.226  1.00  0.00     0.251 C 
ATOM     28  H   UNL A   1      31.650  33.362  26.899  1.00  0.00     0.163 HD
ATOM     29  O   UNL A   1      32.544  34.991  28.491  1.00  0.00    -0.269 OA
BRANCH  27  30
ATOM     30  C   UNL A   1      34.363  33.535  28.777  1.00  0.00     0.039 A 
ATOM     31  C   UNL A   1      34.439  32.905  30.018  1.00  0.00     0.014 A 
ATOM     32  C   UNL A   1      35.512  33.753  28.012  1.00  0.00     0.014 A 
ATOM     33  C   UNL A   1      35.669  32.413  30.455  1.00  0.00     0.010 A 
ATOM     34  C   UNL A   1      36.703  33.162  28.392  1.00  0.00     0.010 A 
ATOM     35  C   UNL A   1      36.797  32.495  29.621  1.00  0.00    -0.014 A 
BRANCH  35  36
ATOM     36  C   UNL A   1      38.094  31.895  30.009  1.00  0.00     0.031 A 
ATOM     37  C   UNL A   1      39.032  32.666  30.896  1.00  0.00     0.074 A 
ATOM     38  C   UNL A   1      38.459  30.705  29.496  1.00  0.00     0.049 A 
ATOM     39  N   UNL A   1      40.245  32.358  31.278  1.00  0.00    -0.248 NA
ATOM     40  C   UNL A   1      38.559  33.970  31.391  1.00  0.00     0.031 C 
ATOM     41  C   UNL A   1      37.653  29.886  28.587  1.00  0.00     0.029 A 
ATOM     42  N   UNL A   1      39.610  29.977  29.663  1.00  0.00    -0.354 N 
ATOM     43  C   UNL A   1      40.681  33.434  32.039  1.00  0.00     0.074 A 
ATOM     44  C   UNL A   1      39.634  34.430  32.012  1.00  0.00     0.031 C 
ATOM     45  C   UNL A   1      38.320  28.755  28.306  1.00  0.00     0.029 A 
ATOM     46  C   UNL A   1      39.618  28.791  28.970  1.00  0.00     0.049 A 
ATOM     47  H   UNL A   1      40.360  30.278  30.226  1.00  0.00     0.167 HD
ATOM     48  C   UNL A   1      41.841  33.571  32.722  1.00  0.00     0.031 A 
ATOM     49  C   UNL A   1      40.570  27.845  28.873  1.00  0.00     0.031 A 
ATOM     50  C   UNL A   1      42.875  32.575  32.752  1.00  0.00     0.049 A 
ATOM     51  C   UNL A   1      41.862  28.036  29.618  1.00  0.00     0.074 A 
ATOM     52  C   UNL A   1      44.064  32.589  33.459  1.00  0.00     0.029 A 
ATOM     53  N   UNL A   1      42.845  31.387  32.037  1.00  0.00    -0.354 N 
ATOM     54  N   UNL A   1      42.229  29.024  30.397  1.00  0.00    -0.248 NA
ATOM     55  C   UNL A   1      42.869  26.976  29.473  1.00  0.00     0.031 C 
ATOM     56  C   UNL A   1      44.783  31.438  33.121  1.00  0.00     0.029 A 
ATOM     57  C   UNL A   1      44.010  30.675  32.258  1.00  0.00     0.049 A 
ATOM     58  H   UNL A   1      42.104  31.094  31.459  1.00  0.00     0.167 HD
ATOM     59  C   UNL A   1      43.498  28.693  30.856  1.00  0.00     0.074 A 
ATOM     60  C   UNL A   1      43.825  27.403  30.285  1.00  0.00     0.031 C 
ATOM     61  C   UNL A   1      44.319  29.395  31.675  1.00  0.00     0.031 A 
BRANCH  48  62
ATOM     62  C   UNL A   1      42.049  34.853  33.483  1.00  0.00    -0.014 A 
ATOM     63  C   UNL A   1      42.909  35.856  33.004  1.00  0.00     0.009 A 
ATOM     64  C   UNL A   1      41.355  35.073  34.683  1.00  0.00     0.009 A 
ATOM     65  C   UNL A   1      43.100  37.032  33.730  1.00  0.00     0.001 A 
ATOM     66  C   UNL A   1      41.522  36.264  35.390  1.00  0.00     0.001 A 
ATOM     67  C   UNL A   1      42.403  37.238  34.919  1.00  0.00     0.000 A 
ENDBRANCH  48  62
BRANCH  49  68
ATOM     68  C   UNL A   1      40.338  26.631  28.045  1.00  0.00    -0.014 A 
ATOM     69  C   UNL A   1      39.621  25.541  28.563  1.00  0.00     0.009 A 
ATOM     70  C   UNL A   1      40.840  26.549  26.738  1.00  0.00     0.009 A 
ATOM     71  C   UNL A   1      39.439  24.385  27.802  1.00  0.00     0.001 A 
ATOM     72  C   UNL A   1      40.627  25.405  25.965  1.00  0.00     0.001 A 
ATOM     73  C   UNL A   1      39.938  24.319  26.501  1.00  0.00     0.000 A 
ENDBRANCH  49  68
BRANCH  61  74
ATOM     74  C   UNL A   1      45.640  28.767  32.024  1.00  0.00    -0.014 A 
ATOM     75  C   UNL A   1      46.793  29.025  31.267  1.00  0.00     0.009 A 
ATOM     76  C   UNL A   1      45.738  27.944  33.157  1.00  0.00     0.009 A 
ATOM     77  C   UNL A   1      48.011  28.441  31.618  1.00  0.00     0.001 A 
ATOM     78  C   UNL A   1      46.965  27.391  33.525  1.00  0.00     0.001 A 
ATOM     79  C   UNL A   1      48.098  27.631  32.750  1.00  0.00     0.000 A 
ENDBRANCH  61  74
ENDBRANCH  35  36
ENDBRANCH  27  30
ENDBRANCH  25  26
ENDBRANCH  24  25
ENDBRANCH   1  24
TORSDOF 15
ENDMDL
MODEL 3
REMARK VINA RESULT:     -10.5      2.190      7.696
REMARK SMILES CC(C)C[C@H](NS(=O)(=O)N1C[C@@H](C)C[C@H](C)C1)C(=O)NCCCNC(=O)c1ccc(-c2c3nc(c(-c4ccccc4)c4ccc([nH]4)c(-c4ccccc4)c4nc(c(-c5ccccc5)c5ccc2[nH]5)C=C4)C=C3)cc1
REMARK SMILES IDX 21 1 20 2 18 3 19 4 5 6 4 7 2 8 1 9 3 10 6 11 7 13 8 14 9 15
REMARK SMILES IDX 10 16 11 17 17 18 12 19 15 20 13 21 14 22 16 23 22 24 23 25
REMARK SMILES IDX 24 26 25 27 26 29 27 30 28 31 74 32 29 33 73 34 30 35 31 36
REMARK SMILES IDX 32 37 67 38 33 39 72 40 66 41 68 42 34 43 71 44 65 45 64 46
REMARK SMILES IDX 35 48 57 49 42 50 56 51 43 52 46 53 55 54 69 55 44 56 45 57
REMARK SMILES IDX 54 59 70 60 47 61 36 62 37 63 41 64 38 65 40 66 39 67 58 68
REMARK SMILES IDX 59 69 63 70 60 71 62 72 61 73 48 74 49 75 53 76 50 77 52 78
REMARK SMILES IDX 51 79
REMARK H PARENT 20 5 6 12 24 28 68 47 46 58
REMARK Flexibility Score: inf
ROOT
ATOM      1  C   UNL A   1      31.569  28.181  26.862  1.00  0.00     0.117 C 
ENDROOT
BRANCH   1   2
ATOM      2  N   UNL A   1      31.133  26.804  26.717  1.00  0.00    -0.355 N 
ATOM      3  C   UNL A   1      30.632  26.144  25.639  1.00  0.00     0.238 C 
ATOM      4  O   UNL A   1      30.042  25.082  25.850  1.00  0.00    -0.273 OA
ATOM      5  H   UNL A   1      31.214  26.259  27.533  1.00  0.00     0.163 HD
BRANCH   3   6
ATOM      6  C   UNL A   1      30.863  26.672  24.221  1.00  0.00     0.160 C 
BRANCH   6   7
ATOM      7  C   UNL A   1      29.517  27.074  23.583  1.00  0.00     0.033 C 
BRANCH   7   8
ATOM      8  C   UNL A   1      29.498  28.398  22.777  1.00  0.00    -0.015 C 
ATOM      9  C   UNL A   1      28.168  29.146  22.849  1.00  0.00     0.007 C 
ATOM     10  C   UNL A   1      30.615  29.309  23.295  1.00  0.00     0.007 C 
ENDBRANCH   7   8
ENDBRANCH   6   7
BRANCH   6  11
ATOM     11  N   UNL A   1      31.676  25.702  23.448  1.00  0.00    -0.190 NA
ATOM     12  H   UNL A   1      31.174  25.568  22.570  1.00  0.00     0.143 HD
BRANCH  11  13
ATOM     13  S   UNL A   1      33.270  25.902  23.016  1.00  0.00     0.280 S 
ATOM     14  O   UNL A   1      33.201  26.250  21.611  1.00  0.00    -0.195 OA
ATOM     15  O   UNL A   1      33.908  26.781  23.956  1.00  0.00    -0.195 OA
BRANCH  13  16
ATOM     16  N   UNL A   1      33.895  24.377  23.134  1.00  0.00    -0.188 NA
ATOM     17  C   UNL A   1      34.924  23.968  24.094  1.00  0.00     0.106 C 
ATOM     18  C   UNL A   1      33.433  23.292  22.275  1.00  0.00     0.106 C 
ATOM     19  C   UNL A   1      34.383  22.873  25.029  1.00  0.00     0.001 C 
ATOM     20  C   UNL A   1      32.606  22.356  23.148  1.00  0.00     0.001 C 
ATOM     21  C   UNL A   1      33.793  23.516  26.276  1.00  0.00     0.009 C 
ATOM     22  C   UNL A   1      33.427  21.857  24.354  1.00  0.00     0.009 C 
ATOM     23  C   UNL A   1      32.056  21.192  22.320  1.00  0.00     0.009 C 
ENDBRANCH  13  16
ENDBRANCH  11  13
ENDBRANCH   6  11
ENDBRANCH   3   6
ENDBRANCH   1   2
BRANCH   1  24
ATOM     24  C   UNL A   1      33.041  28.215  27.238  1.00  0.00     0.042 C 
BRANCH  24  25
ATOM     25  C   UNL A   1      33.795  29.332  26.531  1.00  0.00     0.118 C 
BRANCH  25  26
ATOM     26  N   UNL A   1      33.776  30.575  27.295  1.00  0.00    -0.352 N 
ATOM     27  C   UNL A   1      34.635  30.994  28.280  1.00  0.00     0.251 C 
ATOM     28  H   UNL A   1      33.047  31.199  27.073  1.00  0.00     0.163 HD
ATOM     29  O   UNL A   1      34.337  31.923  29.022  1.00  0.00    -0.269 OA
BRANCH  27  30
ATOM     30  C   UNL A   1      35.916  30.287  28.435  1.00  0.00     0.039 A 
ATOM     31  C   UNL A   1      36.829  30.271  27.382  1.00  0.00     0.014 A 
ATOM     32  C   UNL A   1      36.229  29.702  29.665  1.00  0.00     0.014 A 
ATOM     33  C   UNL A   1      38.100  29.738  27.595  1.00  0.00     0.010 A 
ATOM     34  C   UNL A   1      37.525  29.285  29.908  1.00  0.00     0.010 A 
ATOM     35  C   UNL A   1      38.471  29.289  28.873  1.00  0.00    -0.014 A 
BRANCH  35  36
ATOM     36  C   UNL A   1      39.843  28.811  29.160  1.00  0.00     0.031 A 
ATOM     37  C   UNL A   1      40.831  29.739  29.812  1.00  0.00     0.074 A 
ATOM     38  C   UNL A   1      40.219  27.582  28.760  1.00  0.00     0.049 A 
ATOM     39  N   UNL A   1      42.099  29.545  30.069  1.00  0.00    -0.248 NA
ATOM     40  C   UNL A   1      40.337  31.073  30.196  1.00  0.00     0.031 C 
ATOM     41  C   UNL A   1      39.363  26.610  28.075  1.00  0.00     0.029 A 
ATOM     42  N   UNL A   1      41.428  26.941  28.866  1.00  0.00    -0.354 N 
ATOM     43  C   UNL A   1      42.553  30.734  30.624  1.00  0.00     0.074 A 
ATOM     44  C   UNL A   1      41.448  31.665  30.607  1.00  0.00     0.031 C 
ATOM     45  C   UNL A   1      40.063  25.485  27.856  1.00  0.00     0.029 A 
ATOM     46  C   UNL A   1      41.428  25.674  28.334  1.00  0.00     0.049 A 
ATOM     47  H   UNL A   1      42.219  27.350  29.284  1.00  0.00     0.167 HD
ATOM     48  C   UNL A   1      43.777  31.018  31.127  1.00  0.00     0.031 A 
ATOM     49  C   UNL A   1      42.421  24.771  28.235  1.00  0.00     0.031 A 
ATOM     50  C   UNL A   1      44.870  30.087  31.148  1.00  0.00     0.049 A 
ATOM     51  C   UNL A   1      43.779  25.123  28.775  1.00  0.00     0.074 A 
ATOM     52  C   UNL A   1      46.133  30.254  31.686  1.00  0.00     0.029 A 
ATOM     53  N   UNL A   1      44.830  28.813  30.600  1.00  0.00    -0.354 N 
ATOM     54  N   UNL A   1      44.173  26.224  29.368  1.00  0.00    -0.248 NA
ATOM     55  C   UNL A   1      44.828  24.105  28.635  1.00  0.00     0.031 C 
ATOM     56  C   UNL A   1      46.879  29.105  31.406  1.00  0.00     0.029 A 
ATOM     57  C   UNL A   1      46.058  28.196  30.755  1.00  0.00     0.049 A 
ATOM     58  H   UNL A   1      44.045  28.410  30.165  1.00  0.00     0.167 HD
ATOM     59  C   UNL A   1      45.508  26.020  29.696  1.00  0.00     0.074 A 
ATOM     60  C   UNL A   1      45.847  24.683  29.255  1.00  0.00     0.031 C 
ATOM     61  C   UNL A   1      46.376  26.866  30.305  1.00  0.00     0.031 A 
BRANCH  48  62
ATOM     62  C   UNL A   1      43.992  32.399  31.685  1.00  0.00    -0.014 A 
ATOM     63  C   UNL A   1      43.754  32.686  33.039  1.00  0.00     0.009 A 
ATOM     64  C   UNL A   1      44.466  33.423  30.849  1.00  0.00     0.009 A 
ATOM     65  C   UNL A   1      43.946  33.976  33.535  1.00  0.00     0.001 A 
ATOM     66  C   UNL A   1      44.690  34.704  31.355  1.00  0.00     0.001 A 
ATOM     67  C   UNL A   1      44.420  34.983  32.695  1.00  0.00     0.000 A 
ENDBRANCH  48  62
BRANCH  49  68
ATOM     68  C   UNL A   1      42.169  23.447  27.606  1.00  0.00    -0.014 A 
ATOM     69  C   UNL A   1      42.499  23.223  26.260  1.00  0.00     0.009 A 
ATOM     70  C   UNL A   1      41.587  22.403  28.342  1.00  0.00     0.009 A 
ATOM     71  C   UNL A   1      42.224  21.993  25.658  1.00  0.00     0.001 A 
ATOM     72  C   UNL A   1      41.345  21.164  27.747  1.00  0.00     0.001 A 
ATOM     73  C   UNL A   1      41.651  20.962  26.403  1.00  0.00     0.000 A 
ENDBRANCH  49  68
BRANCH  61  74
ATOM     74  C   UNL A   1      47.769  26.356  30.555  1.00  0.00    -0.014 A 
ATOM     75  C   UNL A   1      48.120  25.767  31.779  1.00  0.00     0.009 A 
ATOM     76  C   UNL A   1      48.727  26.426  29.531  1.00  0.00     0.009 A 
ATOM     77  C   UNL A   1      49.416  25.289  31.984  1.00  0.00     0.001 A 
ATOM     78  C   UNL A   1      50.010  25.915  29.727  1.00  0.00     0.001 A 
ATOM     79  C   UNL A   1      50.356  25.356  30.956  1.00  0.00     0.000 A 
ENDBRANCH  61  74
ENDBRANCH  35  36
ENDBRANCH  27  30
ENDBRANCH  25  26
ENDBRANCH  24  25
ENDBRANCH   1  24
TORSDOF 15
ENDMDL
