MODEL 1
REMARK VINA RESULT:     -11.4      0.000      0.000
REMARK SMILES O=C(NCCCNC(=O)[C@H](c1cnn(Cc2ccccc2)c1)[NH+]1CCOCC1)c1ccc(-c2c3nc(c(-c4ccccc4)c4ccc([nH]4)c(-c4ccccc4)c4nc(c(-c5ccccc5)c5ccc2[nH]5)C=C4)C=C3)cc1
REMARK SMILES IDX 5 1 4 2 3 3 1 4 2 5 29 7 30 8 76 9 31 10 75 11 32 12 33 13
REMARK SMILES IDX 34 14 69 15 35 16 74 17 68 18 70 19 36 20 73 21 67 22 66 23
REMARK SMILES IDX 37 25 59 26 44 27 58 28 45 29 48 30 57 31 71 32 46 33 47 34
REMARK SMILES IDX 56 36 72 37 49 38 38 39 39 40 43 41 40 42 42 43 41 44 60 45
REMARK SMILES IDX 61 46 65 47 62 48 64 49 63 50 50 51 51 52 55 53 52 54 54 55
REMARK SMILES IDX 53 56 6 57 7 58 8 59 9 61 10 62 23 63 24 64 28 65 25 67
REMARK SMILES IDX 27 68 26 69 11 70 12 71 22 72 13 73 14 74 15 75 16 76 17 77
REMARK SMILES IDX 21 78 18 79 20 80 19 81
REMARK H PARENT 3 6 70 24 48 35 7 60 23 66
REMARK Flexibility Score: inf
ROOT
ATOM      1  C   UNL A   1      33.188  30.648  27.147  1.00  0.00     0.042 C 
ENDROOT
BRANCH   1   2
ATOM      2  C   UNL A   1      34.552  31.104  27.658  1.00  0.00     0.118 C 
BRANCH   2   3
ATOM      3  N   UNL A   1      34.513  31.616  29.011  1.00  0.00    -0.352 N 
ATOM      4  O   UNL A   1      34.966  32.159  31.095  1.00  0.00    -0.269 OA
ATOM      5  C   UNL A   1      35.368  31.605  30.076  1.00  0.00     0.251 C 
ATOM      6  H   UNL A   1      33.670  32.082  29.212  1.00  0.00     0.163 HD
BRANCH   5   7
ATOM      7  C   UNL A   1      36.695  30.929  30.104  1.00  0.00     0.039 A 
ATOM      8  C   UNL A   1      37.941  31.534  29.925  1.00  0.00     0.014 A 
ATOM      9  C   UNL A   1      36.649  29.540  30.329  1.00  0.00     0.014 A 
ATOM     10  C   UNL A   1      39.102  30.764  29.882  1.00  0.00     0.010 A 
ATOM     11  C   UNL A   1      37.803  28.770  30.308  1.00  0.00     0.010 A 
ATOM     12  C   UNL A   1      39.026  29.380  30.046  1.00  0.00    -0.014 A 
BRANCH  12  13
ATOM     13  C   UNL A   1      40.263  28.607  30.119  1.00  0.00     0.031 A 
ATOM     14  C   UNL A   1      40.873  28.539  31.481  1.00  0.00     0.074 A 
ATOM     15  C   UNL A   1      40.707  27.848  29.094  1.00  0.00     0.049 A 
ATOM     16  N   UNL A   1      42.077  28.849  31.838  1.00  0.00    -0.248 NA
ATOM     17  C   UNL A   1      39.996  28.164  32.605  1.00  0.00     0.031 C 
ATOM     18  C   UNL A   1      40.038  27.594  27.814  1.00  0.00     0.029 A 
ATOM     19  N   UNL A   1      41.795  27.030  29.034  1.00  0.00    -0.354 N 
ATOM     20  C   UNL A   1      42.166  28.548  33.199  1.00  0.00     0.074 A 
ATOM     21  C   UNL A   1      40.827  28.260  33.642  1.00  0.00     0.031 C 
ATOM     22  C   UNL A   1      40.595  26.511  27.226  1.00  0.00     0.029 A 
ATOM     23  C   UNL A   1      41.736  26.082  28.018  1.00  0.00     0.049 A 
ATOM     24  H   UNL A   1      42.556  27.103  29.655  1.00  0.00     0.167 HD
ATOM     25  C   UNL A   1      43.362  28.335  33.815  1.00  0.00     0.031 A 
ATOM     26  C   UNL A   1      42.518  24.981  27.876  1.00  0.00     0.031 A 
ATOM     27  C   UNL A   1      44.457  28.889  33.065  1.00  0.00     0.049 A 
ATOM     28  C   UNL A   1      43.722  25.172  28.715  1.00  0.00     0.074 A 
ATOM     29  C   UNL A   1      44.816  30.154  32.648  1.00  0.00     0.029 A 
ATOM     30  N   UNL A   1      45.212  28.020  32.316  1.00  0.00    -0.354 N 
ATOM     31  N   UNL A   1      44.637  26.061  28.466  1.00  0.00    -0.248 NA
ATOM     32  C   UNL A   1      43.684  24.674  30.081  1.00  0.00     0.031 C 
ATOM     33  C   UNL A   1      45.376  29.965  31.351  1.00  0.00     0.029 A 
ATOM     34  C   UNL A   1      45.385  28.596  31.086  1.00  0.00     0.049 A 
ATOM     35  H   UNL A   1      45.563  27.149  32.608  1.00  0.00     0.167 HD
ATOM     36  C   UNL A   1      44.983  26.563  29.712  1.00  0.00     0.074 A 
ATOM     37  C   UNL A   1      44.438  25.605  30.673  1.00  0.00     0.031 C 
ATOM     38  C   UNL A   1      45.429  27.846  29.853  1.00  0.00     0.031 A 
BRANCH  25  39
ATOM     39  C   UNL A   1      43.576  27.246  34.845  1.00  0.00    -0.014 A 
ATOM     40  C   UNL A   1      43.364  25.907  34.461  1.00  0.00     0.009 A 
ATOM     41  C   UNL A   1      43.662  27.495  36.228  1.00  0.00     0.009 A 
ATOM     42  C   UNL A   1      43.130  24.904  35.409  1.00  0.00     0.001 A 
ATOM     43  C   UNL A   1      43.470  26.488  37.177  1.00  0.00     0.001 A 
ATOM     44  C   UNL A   1      43.167  25.199  36.767  1.00  0.00     0.000 A 
ENDBRANCH  25  39
BRANCH  26  45
ATOM     45  C   UNL A   1      42.164  23.657  27.315  1.00  0.00    -0.014 A 
ATOM     46  C   UNL A   1      42.476  23.323  25.988  1.00  0.00     0.009 A 
ATOM     47  C   UNL A   1      41.764  22.615  28.172  1.00  0.00     0.009 A 
ATOM     48  C   UNL A   1      42.421  21.993  25.546  1.00  0.00     0.001 A 
ATOM     49  C   UNL A   1      41.706  21.289  27.732  1.00  0.00     0.001 A 
ATOM     50  C   UNL A   1      42.049  20.975  26.421  1.00  0.00     0.000 A 
ENDBRANCH  26  45
BRANCH  38  51
ATOM     51  C   UNL A   1      45.742  28.629  28.604  1.00  0.00    -0.014 A 
ATOM     52  C   UNL A   1      44.772  29.356  27.889  1.00  0.00     0.009 A 
ATOM     53  C   UNL A   1      47.086  28.766  28.229  1.00  0.00     0.009 A 
ATOM     54  C   UNL A   1      45.138  30.171  26.811  1.00  0.00     0.001 A 
ATOM     55  C   UNL A   1      47.453  29.596  27.167  1.00  0.00     0.001 A 
ATOM     56  C   UNL A   1      46.480  30.293  26.456  1.00  0.00     0.000 A 
ENDBRANCH  38  51
ENDBRANCH  12  13
ENDBRANCH   5   7
ENDBRANCH   2   3
ENDBRANCH   1   2
BRANCH   1  57
ATOM     57  C   UNL A   1      33.245  29.312  26.401  1.00  0.00     0.118 C 
BRANCH  57  58
ATOM     58  N   UNL A   1      33.479  29.511  24.982  1.00  0.00    -0.351 N 
ATOM     59  C   UNL A   1      33.273  28.630  23.949  1.00  0.00     0.283 C 
ATOM     60  H   UNL A   1      33.831  30.394  24.726  1.00  0.00     0.163 HD
ATOM     61  O   UNL A   1      33.903  28.856  22.914  1.00  0.00    -0.268 OA
BRANCH  59  62
ATOM     62  C   UNL A   1      32.310  27.423  24.175  1.00  0.00     0.308 C 
BRANCH  62  63
ATOM     63  N   UNL A   1      31.470  26.959  23.039  1.00  0.00    -0.317 N 
ATOM     64  C   UNL A   1      30.625  27.957  22.351  1.00  0.00     0.292 C 
ATOM     65  C   UNL A   1      30.583  25.842  23.450  1.00  0.00     0.292 C 
ATOM     66  H   UNL A   1      32.182  26.681  22.363  1.00  0.00     0.349 HD
ATOM     67  C   UNL A   1      29.355  28.375  23.126  1.00  0.00     0.221 C 
ATOM     68  C   UNL A   1      29.374  26.315  24.274  1.00  0.00     0.221 C 
ATOM     69  O   UNL A   1      28.577  27.235  23.521  1.00  0.00    -0.370 OA
ENDBRANCH  62  63
BRANCH  62  70
ATOM     70  C   UNL A   1      33.125  26.281  24.707  1.00  0.00     0.057 A 
ATOM     71  C   UNL A   1      32.975  25.610  25.942  1.00  0.00     0.145 A 
ATOM     72  C   UNL A   1      34.065  25.524  24.028  1.00  0.00     0.119 A 
ATOM     73  N   UNL A   1      33.628  24.445  25.971  1.00  0.00    -0.181 NA
ATOM     74  N   UNL A   1      34.267  24.400  24.783  1.00  0.00    -0.268 N 
BRANCH  74  75
ATOM     75  C   UNL A   1      34.845  23.147  24.309  1.00  0.00     0.179 C 
BRANCH  75  76
ATOM     76  C   UNL A   1      36.204  22.892  24.898  1.00  0.00    -0.027 A 
ATOM     77  C   UNL A   1      36.875  23.891  25.616  1.00  0.00     0.005 A 
ATOM     78  C   UNL A   1      36.817  21.642  24.731  1.00  0.00     0.005 A 
ATOM     79  C   UNL A   1      38.127  23.631  26.176  1.00  0.00     0.000 A 
ATOM     80  C   UNL A   1      38.062  21.383  25.297  1.00  0.00     0.000 A 
ATOM     81  C   UNL A   1      38.715  22.377  26.022  1.00  0.00     0.000 A 
ENDBRANCH  75  76
ENDBRANCH  74  75
ENDBRANCH  62  70
ENDBRANCH  59  62
ENDBRANCH  57  58
ENDBRANCH   1  57
TORSDOF 14
ENDMDL
MODEL 2
REMARK VINA RESULT:     -11.2      3.294      8.227
REMARK SMILES O=C(NCCCNC(=O)[C@H](c1cnn(Cc2ccccc2)c1)[NH+]1CCOCC1)c1ccc(-c2c3nc(c(-c4ccccc4)c4ccc([nH]4)c(-c4ccccc4)c4nc(c(-c5ccccc5)c5ccc2[nH]5)C=C4)C=C3)cc1
REMARK SMILES IDX 5 1 4 2 3 3 1 4 2 5 29 7 30 8 76 9 31 10 75 11 32 12 33 13
REMARK SMILES IDX 34 14 69 15 35 16 74 17 68 18 70 19 36 20 73 21 67 22 66 23
REMARK SMILES IDX 37 25 59 26 44 27 58 28 45 29 48 30 57 31 71 32 46 33 47 34
REMARK SMILES IDX 56 36 72 37 49 38 38 39 39 40 43 41 40 42 42 43 41 44 60 45
REMARK SMILES IDX 61 46 65 47 62 48 64 49 63 50 50 51 51 52 55 53 52 54 54 55
REMARK SMILES IDX 53 56 6 57 7 58 8 59 9 61 10 62 23 63 24 64 28 65 25 67
REMARK SMILES IDX 27 68 26 69 11 70 12 71 22 72 13 73 14 74 15 75 16 76 17 77
REMARK SMILES IDX 21 78 18 79 20 80 19 81
REMARK H PARENT 3 6 70 24 48 35 7 60 23 66
REMARK Flexibility Score: inf
ROOT
ATOM      1  C   UNL A   1      37.395  21.621  24.557  1.00  0.00     0.042 C 
ENDROOT
BRANCH   1   2
ATOM      2  C   UNL A   1      38.024  22.317  25.761  1.00  0.00     0.118 C 
BRANCH   2   3
ATOM      3  N   UNL A   1      39.410  21.960  25.966  1.00  0.00    -0.352 N 
ATOM      4  O   UNL A   1      41.539  21.924  26.526  1.00  0.00    -0.269 OA
ATOM      5  C   UNL A   1      40.488  22.560  26.554  1.00  0.00     0.251 C 
ATOM      6  H   UNL A   1      39.630  21.075  25.595  1.00  0.00     0.163 HD
BRANCH   5   7
ATOM      7  C   UNL A   1      40.491  23.923  27.154  1.00  0.00     0.039 A 
ATOM      8  C   UNL A   1      39.533  24.921  26.954  1.00  0.00     0.014 A 
ATOM      9  C   UNL A   1      41.586  24.201  27.993  1.00  0.00     0.014 A 
ATOM     10  C   UNL A   1      39.709  26.189  27.504  1.00  0.00     0.010 A 
ATOM     11  C   UNL A   1      41.757  25.456  28.560  1.00  0.00     0.010 A 
ATOM     12  C   UNL A   1      40.836  26.461  28.283  1.00  0.00    -0.014 A 
BRANCH  12  13
ATOM     13  C   UNL A   1      40.940  27.757  28.949  1.00  0.00     0.031 A 
ATOM     14  C   UNL A   1      41.960  28.677  28.360  1.00  0.00     0.074 A 
ATOM     15  C   UNL A   1      40.055  28.168  29.881  1.00  0.00     0.049 A 
ATOM     16  N   UNL A   1      42.940  29.277  28.954  1.00  0.00    -0.248 NA
ATOM     17  C   UNL A   1      41.936  28.878  26.899  1.00  0.00     0.031 C 
ATOM     18  C   UNL A   1      38.838  27.479  30.324  1.00  0.00     0.029 A 
ATOM     19  N   UNL A   1      39.983  29.361  30.537  1.00  0.00    -0.354 N 
ATOM     20  C   UNL A   1      43.556  30.068  27.982  1.00  0.00     0.074 A 
ATOM     21  C   UNL A   1      42.984  29.681  26.719  1.00  0.00     0.031 C 
ATOM     22  C   UNL A   1      38.037  28.358  30.968  1.00  0.00     0.029 A 
ATOM     23  C   UNL A   1      38.737  29.625  31.097  1.00  0.00     0.049 A 
ATOM     24  H   UNL A   1      40.745  29.980  30.608  1.00  0.00     0.167 HD
ATOM     25  C   UNL A   1      44.327  31.142  28.308  1.00  0.00     0.031 A 
ATOM     26  C   UNL A   1      38.285  30.816  31.565  1.00  0.00     0.031 A 
ATOM     27  C   UNL A   1      44.788  31.078  29.668  1.00  0.00     0.049 A 
ATOM     28  C   UNL A   1      39.459  31.687  31.792  1.00  0.00     0.074 A 
ATOM     29  C   UNL A   1      45.570  30.205  30.396  1.00  0.00     0.029 A 
ATOM     30  N   UNL A   1      44.132  31.852  30.594  1.00  0.00    -0.354 N 
ATOM     31  N   UNL A   1      40.347  31.469  32.718  1.00  0.00    -0.248 NA
ATOM     32  C   UNL A   1      39.886  32.551  30.703  1.00  0.00     0.031 C 
ATOM     33  C   UNL A   1      44.967  30.165  31.687  1.00  0.00     0.029 A 
ATOM     34  C   UNL A   1      43.898  31.062  31.686  1.00  0.00     0.049 A 
ATOM     35  H   UNL A   1      43.878  32.797  30.490  1.00  0.00     0.167 HD
ATOM     36  C   UNL A   1      41.558  31.781  32.119  1.00  0.00     0.074 A 
ATOM     37  C   UNL A   1      41.205  32.533  30.915  1.00  0.00     0.031 C 
ATOM     38  C   UNL A   1      42.712  31.159  32.503  1.00  0.00     0.031 A 
BRANCH  25  39
ATOM     39  C   UNL A   1      44.283  32.449  27.545  1.00  0.00    -0.014 A 
ATOM     40  C   UNL A   1      43.723  33.577  28.177  1.00  0.00     0.009 A 
ATOM     41  C   UNL A   1      44.470  32.539  26.153  1.00  0.00     0.009 A 
ATOM     42  C   UNL A   1      43.266  34.676  27.439  1.00  0.00     0.001 A 
ATOM     43  C   UNL A   1      44.053  33.652  25.418  1.00  0.00     0.001 A 
ATOM     44  C   UNL A   1      43.417  34.705  26.057  1.00  0.00     0.000 A 
ENDBRANCH  25  39
BRANCH  26  45
ATOM     45  C   UNL A   1      36.908  31.360  31.542  1.00  0.00    -0.014 A 
ATOM     46  C   UNL A   1      36.272  31.779  32.723  1.00  0.00     0.009 A 
ATOM     47  C   UNL A   1      36.317  31.726  30.319  1.00  0.00     0.009 A 
ATOM     48  C   UNL A   1      35.109  32.561  32.677  1.00  0.00     0.001 A 
ATOM     49  C   UNL A   1      35.156  32.505  30.273  1.00  0.00     0.001 A 
ATOM     50  C   UNL A   1      34.559  32.935  31.453  1.00  0.00     0.000 A 
ENDBRANCH  26  45
BRANCH  38  51
ATOM     51  C   UNL A   1      42.673  30.290  33.734  1.00  0.00    -0.014 A 
ATOM     52  C   UNL A   1      42.953  30.774  35.025  1.00  0.00     0.009 A 
ATOM     53  C   UNL A   1      42.184  28.983  33.605  1.00  0.00     0.009 A 
ATOM     54  C   UNL A   1      42.777  29.959  36.149  1.00  0.00     0.001 A 
ATOM     55  C   UNL A   1      41.987  28.177  34.728  1.00  0.00     0.001 A 
ATOM     56  C   UNL A   1      42.288  28.663  35.999  1.00  0.00     0.000 A 
ENDBRANCH  38  51
ENDBRANCH  12  13
ENDBRANCH   5   7
ENDBRANCH   2   3
ENDBRANCH   1   2
BRANCH   1  57
ATOM     57  C   UNL A   1      36.543  20.409  24.945  1.00  0.00     0.118 C 
BRANCH  57  58
ATOM     58  N   UNL A   1      35.559  20.758  25.954  1.00  0.00    -0.351 N 
ATOM     59  C   UNL A   1      34.231  21.066  25.783  1.00  0.00     0.283 C 
ATOM     60  H   UNL A   1      35.886  20.777  26.882  1.00  0.00     0.163 HD
ATOM     61  O   UNL A   1      33.705  21.708  26.694  1.00  0.00    -0.268 OA
BRANCH  59  62
ATOM     62  C   UNL A   1      33.523  20.621  24.466  1.00  0.00     0.308 C 
BRANCH  62  63
ATOM     63  N   UNL A   1      32.423  19.623  24.550  1.00  0.00    -0.317 N 
ATOM     64  C   UNL A   1      32.564  18.519  25.522  1.00  0.00     0.292 C 
ATOM     65  C   UNL A   1      32.153  19.010  23.226  1.00  0.00     0.292 C 
ATOM     66  H   UNL A   1      31.654  20.200  24.892  1.00  0.00     0.349 HD
ATOM     67  C   UNL A   1      33.549  17.405  25.098  1.00  0.00     0.221 C 
ATOM     68  C   UNL A   1      33.204  17.959  22.831  1.00  0.00     0.221 C 
ATOM     69  O   UNL A   1      33.242  16.897  23.790  1.00  0.00    -0.370 OA
ENDBRANCH  62  63
BRANCH  62  70
ATOM     70  C   UNL A   1      33.038  21.857  23.766  1.00  0.00     0.057 A 
ATOM     71  C   UNL A   1      31.740  22.416  23.793  1.00  0.00     0.145 A 
ATOM     72  C   UNL A   1      33.798  22.809  23.108  1.00  0.00     0.119 A 
ATOM     73  N   UNL A   1      31.719  23.675  23.348  1.00  0.00    -0.181 NA
ATOM     74  N   UNL A   1      32.991  23.904  22.959  1.00  0.00    -0.268 N 
BRANCH  74  75
ATOM     75  C   UNL A   1      33.442  25.267  22.694  1.00  0.00     0.179 C 
BRANCH  75  76
ATOM     76  C   UNL A   1      33.127  26.198  23.831  1.00  0.00    -0.027 A 
ATOM     77  C   UNL A   1      33.854  26.142  25.028  1.00  0.00     0.005 A 
ATOM     78  C   UNL A   1      32.094  27.137  23.701  1.00  0.00     0.005 A 
ATOM     79  C   UNL A   1      33.563  27.030  26.065  1.00  0.00     0.000 A 
ATOM     80  C   UNL A   1      31.811  28.025  24.735  1.00  0.00     0.000 A 
ATOM     81  C   UNL A   1      32.549  27.974  25.915  1.00  0.00     0.000 A 
ENDBRANCH  75  76
ENDBRANCH  74  75
ENDBRANCH  62  70
ENDBRANCH  59  62
ENDBRANCH  57  58
ENDBRANCH   1  57
TORSDOF 14
ENDMDL
MODEL 3
REMARK VINA RESULT:     -11.2      3.116      8.272
REMARK SMILES O=C(NCCCNC(=O)[C@H](c1cnn(Cc2ccccc2)c1)[NH+]1CCOCC1)c1ccc(-c2c3nc(c(-c4ccccc4)c4ccc([nH]4)c(-c4ccccc4)c4nc(c(-c5ccccc5)c5ccc2[nH]5)C=C4)C=C3)cc1
REMARK SMILES IDX 5 1 4 2 3 3 1 4 2 5 29 7 30 8 76 9 31 10 75 11 32 12 33 13
REMARK SMILES IDX 34 14 69 15 35 16 74 17 68 18 70 19 36 20 73 21 67 22 66 23
REMARK SMILES IDX 37 25 59 26 44 27 58 28 45 29 48 30 57 31 71 32 46 33 47 34
REMARK SMILES IDX 56 36 72 37 49 38 38 39 39 40 43 41 40 42 42 43 41 44 60 45
REMARK SMILES IDX 61 46 65 47 62 48 64 49 63 50 50 51 51 52 55 53 52 54 54 55
REMARK SMILES IDX 53 56 6 57 7 58 8 59 9 61 10 62 23 63 24 64 28 65 25 67
REMARK SMILES IDX 27 68 26 69 11 70 12 71 22 72 13 73 14 74 15 75 16 76 17 77
REMARK SMILES IDX 21 78 18 79 20 80 19 81
REMARK H PARENT 3 6 70 24 48 35 7 60 23 66
REMARK Flexibility Score: inf
ROOT
ATOM      1  C   UNL A   1      38.196  21.817  25.435  1.00  0.00     0.042 C 
ENDROOT
BRANCH   1   2
ATOM      2  C   UNL A   1      39.090  22.446  26.500  1.00  0.00     0.118 C 
BRANCH   2   3
ATOM      3  N   UNL A   1      40.488  22.473  26.129  1.00  0.00    -0.352 N 
ATOM      4  O   UNL A   1      42.584  23.039  25.768  1.00  0.00    -0.269 OA
ATOM      5  C   UNL A   1      41.494  23.394  26.208  1.00  0.00     0.251 C 
ATOM      6  H   UNL A   1      40.785  21.627  25.722  1.00  0.00     0.163 HD
BRANCH   5   7
ATOM      7  C   UNL A   1      41.346  24.785  26.719  1.00  0.00     0.039 A 
ATOM      8  C   UNL A   1      40.776  25.865  26.038  1.00  0.00     0.014 A 
ATOM      9  C   UNL A   1      41.848  24.999  28.016  1.00  0.00     0.014 A 
ATOM     10  C   UNL A   1      40.787  27.139  26.600  1.00  0.00     0.010 A 
ATOM     11  C   UNL A   1      41.844  26.262  28.590  1.00  0.00     0.010 A 
ATOM     12  C   UNL A   1      41.346  27.339  27.864  1.00  0.00    -0.014 A 
BRANCH  12  13
ATOM     13  C   UNL A   1      41.239  28.657  28.485  1.00  0.00     0.031 A 
ATOM     14  C   UNL A   1      42.387  29.572  28.201  1.00  0.00     0.074 A 
ATOM     15  C   UNL A   1      40.112  29.085  29.091  1.00  0.00     0.049 A 
ATOM     16  N   UNL A   1      43.138  30.204  29.044  1.00  0.00    -0.248 NA
ATOM     17  C   UNL A   1      42.806  29.727  26.796  1.00  0.00     0.031 C 
ATOM     18  C   UNL A   1      38.820  28.394  29.168  1.00  0.00     0.029 A 
ATOM     19  N   UNL A   1      39.840  30.297  29.653  1.00  0.00    -0.354 N 
ATOM     20  C   UNL A   1      44.017  30.972  28.277  1.00  0.00     0.074 A 
ATOM     21  C   UNL A   1      43.856  30.538  26.914  1.00  0.00     0.031 C 
ATOM     22  C   UNL A   1      37.858  29.282  29.508  1.00  0.00     0.029 A 
ATOM     23  C   UNL A   1      38.482  30.561  29.800  1.00  0.00     0.049 A 
ATOM     24  H   UNL A   1      40.542  30.929  29.930  1.00  0.00     0.167 HD
ATOM     25  C   UNL A   1      44.649  32.067  28.784  1.00  0.00     0.031 A 
ATOM     26  C   UNL A   1      37.905  31.761  30.068  1.00  0.00     0.031 A 
ATOM     27  C   UNL A   1      44.676  32.052  30.222  1.00  0.00     0.049 A 
ATOM     28  C   UNL A   1      38.952  32.655  30.610  1.00  0.00     0.074 A 
ATOM     29  C   UNL A   1      45.204  31.214  31.182  1.00  0.00     0.029 A 
ATOM     30  N   UNL A   1      43.767  32.846  30.878  1.00  0.00    -0.354 N 
ATOM     31  N   UNL A   1      39.518  32.478  31.767  1.00  0.00    -0.248 NA
ATOM     32  C   UNL A   1      39.686  33.489  29.672  1.00  0.00     0.031 C 
ATOM     33  C   UNL A   1      44.238  31.206  32.230  1.00  0.00     0.029 A 
ATOM     34  C   UNL A   1      43.216  32.088  31.875  1.00  0.00     0.049 A 
ATOM     35  H   UNL A   1      43.553  33.784  30.670  1.00  0.00     0.167 HD
ATOM     36  C   UNL A   1      40.853  32.788  31.553  1.00  0.00     0.074 A 
ATOM     37  C   UNL A   1      40.878  33.496  30.274  1.00  0.00     0.031 C 
ATOM     38  C   UNL A   1      41.838  32.194  32.289  1.00  0.00     0.031 A 
BRANCH  25  39
ATOM     39  C   UNL A   1      44.834  33.349  28.000  1.00  0.00    -0.014 A 
ATOM     40  C   UNL A   1      43.717  34.185  27.807  1.00  0.00     0.009 A 
ATOM     41  C   UNL A   1      45.956  33.604  27.189  1.00  0.00     0.009 A 
ATOM     42  C   UNL A   1      43.686  35.136  26.779  1.00  0.00     0.001 A 
ATOM     43  C   UNL A   1      45.943  34.581  26.190  1.00  0.00     0.001 A 
ATOM     44  C   UNL A   1      44.794  35.322  25.961  1.00  0.00     0.000 A 
ENDBRANCH  25  39
BRANCH  26  45
ATOM     45  C   UNL A   1      36.597  32.284  29.609  1.00  0.00    -0.014 A 
ATOM     46  C   UNL A   1      35.524  32.439  30.502  1.00  0.00     0.009 A 
ATOM     47  C   UNL A   1      36.488  32.895  28.347  1.00  0.00     0.009 A 
ATOM     48  C   UNL A   1      34.400  33.203  30.153  1.00  0.00     0.001 A 
ATOM     49  C   UNL A   1      35.367  33.654  27.998  1.00  0.00     0.001 A 
ATOM     50  C   UNL A   1      34.328  33.821  28.907  1.00  0.00     0.000 A 
ENDBRANCH  26  45
BRANCH  38  51
ATOM     51  C   UNL A   1      41.431  31.364  33.480  1.00  0.00    -0.014 A 
ATOM     52  C   UNL A   1      41.083  30.004  33.387  1.00  0.00     0.009 A 
ATOM     53  C   UNL A   1      41.555  31.933  34.755  1.00  0.00     0.009 A 
ATOM     54  C   UNL A   1      40.839  29.247  34.538  1.00  0.00     0.001 A 
ATOM     55  C   UNL A   1      41.333  31.172  35.905  1.00  0.00     0.001 A 
ATOM     56  C   UNL A   1      40.970  29.832  35.796  1.00  0.00     0.000 A 
ENDBRANCH  38  51
ENDBRANCH  12  13
ENDBRANCH   5   7
ENDBRANCH   2   3
ENDBRANCH   1   2
BRANCH   1  57
ATOM     57  C   UNL A   1      36.807  22.460  25.364  1.00  0.00     0.118 C 
BRANCH  57  58
ATOM     58  N   UNL A   1      35.940  21.955  26.414  1.00  0.00    -0.351 N 
ATOM     59  C   UNL A   1      34.583  22.116  26.553  1.00  0.00     0.283 C 
ATOM     60  H   UNL A   1      36.382  21.428  27.118  1.00  0.00     0.163 HD
ATOM     61  O   UNL A   1      34.135  21.959  27.690  1.00  0.00    -0.268 OA
BRANCH  59  62
ATOM     62  C   UNL A   1      33.743  22.511  25.299  1.00  0.00     0.308 C 
BRANCH  62  63
ATOM     63  N   UNL A   1      32.394  21.909  25.125  1.00  0.00    -0.317 N 
ATOM     64  C   UNL A   1      32.282  20.437  25.176  1.00  0.00     0.292 C 
ATOM     65  C   UNL A   1      31.768  22.354  23.856  1.00  0.00     0.292 C 
ATOM     66  H   UNL A   1      31.912  22.255  25.956  1.00  0.00     0.349 HD
ATOM     67  C   UNL A   1      32.776  19.706  23.906  1.00  0.00     0.221 C 
ATOM     68  C   UNL A   1      32.348  21.639  22.624  1.00  0.00     0.221 C 
ATOM     69  O   UNL A   1      32.152  20.225  22.721  1.00  0.00    -0.370 OA
ENDBRANCH  62  63
BRANCH  62  70
ATOM     70  C   UNL A   1      33.642  24.008  25.268  1.00  0.00     0.057 A 
ATOM     71  C   UNL A   1      34.118  24.889  24.270  1.00  0.00     0.145 A 
ATOM     72  C   UNL A   1      32.902  24.823  26.108  1.00  0.00     0.119 A 
ATOM     73  N   UNL A   1      33.586  26.109  24.374  1.00  0.00    -0.181 NA
ATOM     74  N   UNL A   1      32.827  26.041  25.487  1.00  0.00    -0.268 N 
BRANCH  74  75
ATOM     75  C   UNL A   1      31.846  27.083  25.770  1.00  0.00     0.179 C 
BRANCH  75  76
ATOM     76  C   UNL A   1      32.484  28.326  26.323  1.00  0.00    -0.027 A 
ATOM     77  C   UNL A   1      31.807  29.553  26.303  1.00  0.00     0.005 A 
ATOM     78  C   UNL A   1      33.777  28.268  26.866  1.00  0.00     0.005 A 
ATOM     79  C   UNL A   1      32.405  30.693  26.841  1.00  0.00     0.000 A 
ATOM     80  C   UNL A   1      34.368  29.406  27.407  1.00  0.00     0.000 A 
ATOM     81  C   UNL A   1      33.681  30.617  27.398  1.00  0.00     0.000 A 
ENDBRANCH  75  76
ENDBRANCH  74  75
ENDBRANCH  62  70
ENDBRANCH  59  62
ENDBRANCH  57  58
ENDBRANCH   1  57
TORSDOF 14
ENDMDL
