MODEL 1
REMARK VINA RESULT:     -10.5      0.000      0.000
REMARK SMILES CC(C)(C)[N@H+](CCC(=O)NCCCNC(=O)c1ccc(-c2c3nc(c(-c4ccccc4)c4ccc([nH]4)c(-c4ccccc4)c4nc(c(-c5ccccc5)c5ccc2[nH]5)C=C4)C=C3)cc1)Cc1ccccc1C1CC1
REMARK SMILES IDX 8 1 9 2 10 3 7 5 6 6 5 7 2 9 1 10 3 11 4 12 65 13 66 14
REMARK SMILES IDX 67 15 71 16 68 17 70 18 69 19 72 20 73 21 74 22 11 23 12 24
REMARK SMILES IDX 13 25 14 26 15 27 16 29 17 30 18 31 64 32 19 33 63 34 20 35
REMARK SMILES IDX 21 36 22 37 57 38 23 39 62 40 56 41 58 42 24 43 61 44 55 45
REMARK SMILES IDX 54 46 25 48 47 49 32 50 46 51 33 52 36 53 45 54 59 55 34 56
REMARK SMILES IDX 35 57 44 59 60 60 37 61 26 62 27 63 31 64 28 65 30 66 29 67
REMARK SMILES IDX 48 68 49 69 53 70 50 71 52 72 51 73 38 74 39 75 43 76 40 77
REMARK SMILES IDX 42 78 41 79
REMARK H PARENT 10 4 5 8 14 28 58 47 36 58
REMARK Flexibility Score: inf
ROOT
ATOM      1  C   UNL A   1      34.911  23.906  23.893  1.00  0.00     0.225 C 
ATOM      2  O   UNL A   1      34.732  23.651  22.702  1.00  0.00    -0.275 OA
ATOM      3  N   UNL A   1      35.543  22.971  24.674  1.00  0.00    -0.356 N 
ATOM      4  H   UNL A   1      35.007  22.258  25.089  1.00  0.00     0.163 HD
ENDROOT
BRANCH   1   5
ATOM      5  C   UNL A   1      34.367  25.183  24.509  1.00  0.00     0.161 C 
BRANCH   5   6
ATOM      6  C   UNL A   1      33.488  25.020  25.746  1.00  0.00     0.272 C 
BRANCH   6   7
ATOM      7  N   UNL A   1      32.058  24.663  25.590  1.00  0.00    -0.327 N 
ATOM      8  H   UNL A   1      31.869  24.624  24.589  1.00  0.00     0.348 HD
BRANCH   7   9
ATOM      9  C   UNL A   1      31.769  23.268  26.086  1.00  0.00     0.089 C 
ATOM     10  C   UNL A   1      30.367  23.140  26.757  1.00  0.00     0.078 C 
ATOM     11  C   UNL A   1      32.779  22.872  27.186  1.00  0.00     0.078 C 
ATOM     12  C   UNL A   1      31.814  22.205  24.969  1.00  0.00     0.078 C 
ENDBRANCH   7   9
BRANCH   7  13
ATOM     13  C   UNL A   1      31.112  25.727  26.041  1.00  0.00     0.299 C 
BRANCH  13  14
ATOM     14  C   UNL A   1      30.917  26.903  25.074  1.00  0.00     0.010 A 
ATOM     15  C   UNL A   1      30.000  26.631  24.021  1.00  0.00     0.010 A 
ATOM     16  C   UNL A   1      31.405  28.240  25.223  1.00  0.00    -0.036 A 
ATOM     17  C   UNL A   1      29.519  27.614  23.163  1.00  0.00     0.001 A 
ATOM     18  C   UNL A   1      30.855  29.207  24.329  1.00  0.00     0.004 A 
ATOM     19  C   UNL A   1      29.937  28.916  23.327  1.00  0.00     0.000 A 
BRANCH  16  20
ATOM     20  C   UNL A   1      32.323  28.882  26.283  1.00  0.00     0.020 C 
ATOM     21  C   UNL A   1      33.315  28.324  27.276  1.00  0.00     0.009 C 
ATOM     22  C   UNL A   1      33.827  28.673  25.945  1.00  0.00     0.009 C 
ENDBRANCH  16  20
ENDBRANCH  13  14
ENDBRANCH   7  13
ENDBRANCH   6   7
ENDBRANCH   5   6
ENDBRANCH   1   5
BRANCH   3  23
ATOM     23  C   UNL A   1      36.980  22.999  24.910  1.00  0.00     0.117 C 
BRANCH  23  24
ATOM     24  C   UNL A   1      37.457  21.924  25.873  1.00  0.00     0.042 C 
BRANCH  24  25
ATOM     25  C   UNL A   1      38.963  21.730  25.800  1.00  0.00     0.118 C 
BRANCH  25  26
ATOM     26  N   UNL A   1      39.443  20.350  25.737  1.00  0.00    -0.352 N 
ATOM     27  C   UNL A   1      40.755  19.959  25.993  1.00  0.00     0.251 C 
ATOM     28  H   UNL A   1      38.793  19.651  25.498  1.00  0.00     0.163 HD
ATOM     29  O   UNL A   1      41.175  18.847  25.744  1.00  0.00    -0.269 OA
BRANCH  27  30
ATOM     30  C   UNL A   1      41.636  21.006  26.557  1.00  0.00     0.039 A 
ATOM     31  C   UNL A   1      42.178  21.975  25.711  1.00  0.00     0.014 A 
ATOM     32  C   UNL A   1      41.625  21.178  27.941  1.00  0.00     0.014 A 
ATOM     33  C   UNL A   1      42.595  23.191  26.259  1.00  0.00     0.010 A 
ATOM     34  C   UNL A   1      41.931  22.429  28.461  1.00  0.00     0.010 A 
ATOM     35  C   UNL A   1      42.402  23.455  27.627  1.00  0.00    -0.014 A 
BRANCH  35  36
ATOM     36  C   UNL A   1      42.657  24.806  28.198  1.00  0.00     0.031 A 
ATOM     37  C   UNL A   1      44.046  25.186  28.634  1.00  0.00     0.074 A 
ATOM     38  C   UNL A   1      41.635  25.665  28.400  1.00  0.00     0.049 A 
ATOM     39  N   UNL A   1      44.465  26.304  29.172  1.00  0.00    -0.248 NA
ATOM     40  C   UNL A   1      45.093  24.162  28.488  1.00  0.00     0.031 C 
ATOM     41  C   UNL A   1      40.222  25.397  28.118  1.00  0.00     0.029 A 
ATOM     42  N   UNL A   1      41.631  26.948  28.893  1.00  0.00    -0.354 N 
ATOM     43  C   UNL A   1      45.813  26.105  29.444  1.00  0.00     0.074 A 
ATOM     44  C   UNL A   1      46.121  24.737  29.091  1.00  0.00     0.031 C 
ATOM     45  C   UNL A   1      39.499  26.497  28.391  1.00  0.00     0.029 A 
ATOM     46  C   UNL A   1      40.389  27.539  28.890  1.00  0.00     0.049 A 
ATOM     47  H   UNL A   1      42.442  27.402  29.216  1.00  0.00     0.167 HD
ATOM     48  C   UNL A   1      46.730  26.988  29.904  1.00  0.00     0.031 A 
ATOM     49  C   UNL A   1      40.014  28.788  29.230  1.00  0.00     0.031 A 
ATOM     50  C   UNL A   1      46.442  28.358  30.221  1.00  0.00     0.049 A 
ATOM     51  C   UNL A   1      41.057  29.771  29.687  1.00  0.00     0.074 A 
ATOM     52  C   UNL A   1      47.314  29.351  30.629  1.00  0.00     0.029 A 
ATOM     53  N   UNL A   1      45.182  28.928  30.155  1.00  0.00    -0.354 N 
ATOM     54  N   UNL A   1      42.346  29.593  29.845  1.00  0.00    -0.248 NA
ATOM     55  C   UNL A   1      40.596  31.133  29.991  1.00  0.00     0.031 C 
ATOM     56  C   UNL A   1      46.574  30.520  30.835  1.00  0.00     0.029 A 
ATOM     57  C   UNL A   1      45.251  30.261  30.518  1.00  0.00     0.049 A 
ATOM     58  H   UNL A   1      44.360  28.456  29.888  1.00  0.00     0.167 HD
ATOM     59  C   UNL A   1      42.853  30.824  30.238  1.00  0.00     0.074 A 
ATOM     60  C   UNL A   1      41.736  31.745  30.279  1.00  0.00     0.031 C 
ATOM     61  C   UNL A   1      44.130  31.163  30.542  1.00  0.00     0.031 A 
BRANCH  48  62
ATOM     62  C   UNL A   1      48.137  26.485  30.056  1.00  0.00    -0.014 A 
ATOM     63  C   UNL A   1      49.056  26.583  28.998  1.00  0.00     0.009 A 
ATOM     64  C   UNL A   1      48.550  25.899  31.262  1.00  0.00     0.009 A 
ATOM     65  C   UNL A   1      50.342  26.059  29.125  1.00  0.00     0.001 A 
ATOM     66  C   UNL A   1      49.848  25.404  31.398  1.00  0.00     0.001 A 
ATOM     67  C   UNL A   1      50.737  25.472  30.326  1.00  0.00     0.000 A 
ENDBRANCH  48  62
BRANCH  49  68
ATOM     68  C   UNL A   1      38.594  29.210  29.098  1.00  0.00    -0.014 A 
ATOM     69  C   UNL A   1      38.111  29.701  27.873  1.00  0.00     0.009 A 
ATOM     70  C   UNL A   1      37.722  29.151  30.195  1.00  0.00     0.009 A 
ATOM     71  C   UNL A   1      36.795  30.155  27.760  1.00  0.00     0.001 A 
ATOM     72  C   UNL A   1      36.397  29.581  30.070  1.00  0.00     0.001 A 
ATOM     73  C   UNL A   1      35.938  30.092  28.857  1.00  0.00     0.000 A 
ENDBRANCH  49  68
BRANCH  61  74
ATOM     74  C   UNL A   1      44.393  32.593  30.911  1.00  0.00    -0.014 A 
ATOM     75  C   UNL A   1      44.353  33.017  32.247  1.00  0.00     0.009 A 
ATOM     76  C   UNL A   1      44.735  33.516  29.910  1.00  0.00     0.009 A 
ATOM     77  C   UNL A   1      44.623  34.348  32.572  1.00  0.00     0.001 A 
ATOM     78  C   UNL A   1      45.029  34.840  30.241  1.00  0.00     0.001 A 
ATOM     79  C   UNL A   1      44.966  35.256  31.570  1.00  0.00     0.000 A 
ENDBRANCH  61  74
ENDBRANCH  35  36
ENDBRANCH  27  30
ENDBRANCH  25  26
ENDBRANCH  24  25
ENDBRANCH  23  24
ENDBRANCH   3  23
TORSDOF 16
ENDMDL
MODEL 2
REMARK VINA RESULT:     -10.4      1.046      2.121
REMARK SMILES CC(C)(C)[N@H+](CCC(=O)NCCCNC(=O)c1ccc(-c2c3nc(c(-c4ccccc4)c4ccc([nH]4)c(-c4ccccc4)c4nc(c(-c5ccccc5)c5ccc2[nH]5)C=C4)C=C3)cc1)Cc1ccccc1C1CC1
REMARK SMILES IDX 8 1 9 2 10 3 7 5 6 6 5 7 2 9 1 10 3 11 4 12 65 13 66 14
REMARK SMILES IDX 67 15 71 16 68 17 70 18 69 19 72 20 73 21 74 22 11 23 12 24
REMARK SMILES IDX 13 25 14 26 15 27 16 29 17 30 18 31 64 32 19 33 63 34 20 35
REMARK SMILES IDX 21 36 22 37 57 38 23 39 62 40 56 41 58 42 24 43 61 44 55 45
REMARK SMILES IDX 54 46 25 48 47 49 32 50 46 51 33 52 36 53 45 54 59 55 34 56
REMARK SMILES IDX 35 57 44 59 60 60 37 61 26 62 27 63 31 64 28 65 30 66 29 67
REMARK SMILES IDX 48 68 49 69 53 70 50 71 52 72 51 73 38 74 39 75 43 76 40 77
REMARK SMILES IDX 42 78 41 79
REMARK H PARENT 10 4 5 8 14 28 58 47 36 58
REMARK Flexibility Score: inf
ROOT
ATOM      1  C   UNL A   1      34.688  22.106  25.797  1.00  0.00     0.225 C 
ATOM      2  O   UNL A   1      33.681  21.477  25.469  1.00  0.00    -0.275 OA
ATOM      3  N   UNL A   1      35.779  21.406  26.246  1.00  0.00    -0.356 N 
ATOM      4  H   UNL A   1      35.831  21.168  27.199  1.00  0.00     0.163 HD
ENDROOT
BRANCH   1   5
ATOM      5  C   UNL A   1      34.696  23.624  25.793  1.00  0.00     0.161 C 
BRANCH   5   6
ATOM      6  C   UNL A   1      34.652  24.302  24.425  1.00  0.00     0.272 C 
BRANCH   6   7
ATOM      7  N   UNL A   1      33.444  25.055  24.017  1.00  0.00    -0.327 N 
ATOM      8  H   UNL A   1      33.761  25.958  23.663  1.00  0.00     0.348 HD
BRANCH   7   9
ATOM      9  C   UNL A   1      32.749  24.411  22.843  1.00  0.00     0.089 C 
ATOM     10  C   UNL A   1      32.649  25.354  21.605  1.00  0.00     0.078 C 
ATOM     11  C   UNL A   1      31.287  24.072  23.209  1.00  0.00     0.078 C 
ATOM     12  C   UNL A   1      33.447  23.126  22.355  1.00  0.00     0.078 C 
ENDBRANCH   7   9
BRANCH   7  13
ATOM     13  C   UNL A   1      32.567  25.463  25.155  1.00  0.00     0.299 C 
BRANCH  13  14
ATOM     14  C   UNL A   1      32.428  26.974  25.386  1.00  0.00     0.010 A 
ATOM     15  C   UNL A   1      33.516  27.543  26.104  1.00  0.00     0.010 A 
ATOM     16  C   UNL A   1      31.451  27.852  24.822  1.00  0.00    -0.036 A 
ATOM     17  C   UNL A   1      33.698  28.915  26.240  1.00  0.00     0.001 A 
ATOM     18  C   UNL A   1      31.707  29.248  24.974  1.00  0.00     0.004 A 
ATOM     19  C   UNL A   1      32.795  29.776  25.658  1.00  0.00     0.000 A 
BRANCH  16  20
ATOM     20  C   UNL A   1      30.219  27.579  23.935  1.00  0.00     0.020 C 
ATOM     21  C   UNL A   1      29.258  28.471  23.186  1.00  0.00     0.009 C 
ATOM     22  C   UNL A   1      30.458  28.028  22.464  1.00  0.00     0.009 C 
ENDBRANCH  16  20
ENDBRANCH  13  14
ENDBRANCH   7  13
ENDBRANCH   6   7
ENDBRANCH   5   6
ENDBRANCH   1   5
BRANCH   3  23
ATOM     23  C   UNL A   1      36.862  21.001  25.359  1.00  0.00     0.117 C 
BRANCH  23  24
ATOM     24  C   UNL A   1      37.982  22.024  25.265  1.00  0.00     0.042 C 
BRANCH  24  25
ATOM     25  C   UNL A   1      39.159  21.654  26.154  1.00  0.00     0.118 C 
BRANCH  25  26
ATOM     26  N   UNL A   1      39.719  20.316  25.976  1.00  0.00    -0.352 N 
ATOM     27  C   UNL A   1      41.076  20.013  26.041  1.00  0.00     0.251 C 
ATOM     28  H   UNL A   1      39.091  19.578  25.797  1.00  0.00     0.163 HD
ATOM     29  O   UNL A   1      41.534  18.943  25.697  1.00  0.00    -0.269 OA
BRANCH  27  30
ATOM     30  C   UNL A   1      41.952  21.105  26.526  1.00  0.00     0.039 A 
ATOM     31  C   UNL A   1      42.327  22.123  25.648  1.00  0.00     0.014 A 
ATOM     32  C   UNL A   1      42.095  21.249  27.905  1.00  0.00     0.014 A 
ATOM     33  C   UNL A   1      42.730  23.352  26.175  1.00  0.00     0.010 A 
ATOM     34  C   UNL A   1      42.382  22.507  28.419  1.00  0.00     0.010 A 
ATOM     35  C   UNL A   1      42.686  23.577  27.563  1.00  0.00    -0.014 A 
BRANCH  35  36
ATOM     36  C   UNL A   1      42.923  24.930  28.135  1.00  0.00     0.031 A 
ATOM     37  C   UNL A   1      44.311  25.337  28.551  1.00  0.00     0.074 A 
ATOM     38  C   UNL A   1      41.887  25.768  28.358  1.00  0.00     0.049 A 
ATOM     39  N   UNL A   1      44.716  26.461  29.087  1.00  0.00    -0.248 NA
ATOM     40  C   UNL A   1      45.376  24.335  28.383  1.00  0.00     0.031 C 
ATOM     41  C   UNL A   1      40.474  25.472  28.098  1.00  0.00     0.029 A 
ATOM     42  N   UNL A   1      41.864  27.048  28.856  1.00  0.00    -0.354 N 
ATOM     43  C   UNL A   1      46.071  26.288  29.336  1.00  0.00     0.074 A 
ATOM     44  C   UNL A   1      46.402  24.929  28.971  1.00  0.00     0.031 C 
ATOM     45  C   UNL A   1      39.735  26.556  28.387  1.00  0.00     0.029 A 
ATOM     46  C   UNL A   1      40.611  27.614  28.876  1.00  0.00     0.049 A 
ATOM     47  H   UNL A   1      42.671  27.518  29.169  1.00  0.00     0.167 HD
ATOM     48  C   UNL A   1      46.977  27.188  29.784  1.00  0.00     0.031 A 
ATOM     49  C   UNL A   1      40.217  28.853  29.228  1.00  0.00     0.031 A 
ATOM     50  C   UNL A   1      46.667  28.551  30.112  1.00  0.00     0.049 A 
ATOM     51  C   UNL A   1      41.246  29.856  29.672  1.00  0.00     0.074 A 
ATOM     52  C   UNL A   1      47.525  29.560  30.510  1.00  0.00     0.029 A 
ATOM     53  N   UNL A   1      45.395  29.095  30.069  1.00  0.00    -0.354 N 
ATOM     54  N   UNL A   1      42.541  29.703  29.808  1.00  0.00    -0.248 NA
ATOM     55  C   UNL A   1      40.763  31.207  29.990  1.00  0.00     0.031 C 
ATOM     56  C   UNL A   1      46.765  30.713  30.733  1.00  0.00     0.029 A 
ATOM     57  C   UNL A   1      45.442  30.428  30.436  1.00  0.00     0.049 A 
ATOM     58  H   UNL A   1      44.578  28.608  29.814  1.00  0.00     0.167 HD
ATOM     59  C   UNL A   1      43.029  30.943  30.199  1.00  0.00     0.074 A 
ATOM     60  C   UNL A   1      41.895  31.841  30.261  1.00  0.00     0.031 C 
ATOM     61  C   UNL A   1      44.304  31.307  30.483  1.00  0.00     0.031 A 
BRANCH  48  62
ATOM     62  C   UNL A   1      48.397  26.714  29.912  1.00  0.00    -0.014 A 
ATOM     63  C   UNL A   1      48.849  26.103  31.093  1.00  0.00     0.009 A 
ATOM     64  C   UNL A   1      49.296  26.885  28.849  1.00  0.00     0.009 A 
ATOM     65  C   UNL A   1      50.184  25.721  31.228  1.00  0.00     0.001 A 
ATOM     66  C   UNL A   1      50.624  26.473  28.974  1.00  0.00     0.001 A 
ATOM     67  C   UNL A   1      51.069  25.905  30.167  1.00  0.00     0.000 A 
ENDBRANCH  48  62
BRANCH  49  68
ATOM     68  C   UNL A   1      38.785  29.247  29.121  1.00  0.00    -0.014 A 
ATOM     69  C   UNL A   1      37.947  29.188  30.246  1.00  0.00     0.009 A 
ATOM     70  C   UNL A   1      38.243  29.658  27.894  1.00  0.00     0.009 A 
ATOM     71  C   UNL A   1      36.590  29.498  30.138  1.00  0.00     0.001 A 
ATOM     72  C   UNL A   1      36.890  29.994  27.795  1.00  0.00     0.001 A 
ATOM     73  C   UNL A   1      36.063  29.904  28.914  1.00  0.00     0.000 A 
ENDBRANCH  49  68
BRANCH  61  74
ATOM     74  C   UNL A   1      44.544  32.741  30.854  1.00  0.00    -0.014 A 
ATOM     75  C   UNL A   1      44.807  33.709  29.874  1.00  0.00     0.009 A 
ATOM     76  C   UNL A   1      44.454  33.135  32.198  1.00  0.00     0.009 A 
ATOM     77  C   UNL A   1      45.005  35.043  30.237  1.00  0.00     0.001 A 
ATOM     78  C   UNL A   1      44.627  34.473  32.555  1.00  0.00     0.001 A 
ATOM     79  C   UNL A   1      44.910  35.424  31.576  1.00  0.00     0.000 A 
ENDBRANCH  61  74
ENDBRANCH  35  36
ENDBRANCH  27  30
ENDBRANCH  25  26
ENDBRANCH  24  25
ENDBRANCH  23  24
ENDBRANCH   3  23
TORSDOF 16
ENDMDL
MODEL 3
REMARK VINA RESULT:     -10.3      1.339      6.197
REMARK SMILES CC(C)(C)[N@H+](CCC(=O)NCCCNC(=O)c1ccc(-c2c3nc(c(-c4ccccc4)c4ccc([nH]4)c(-c4ccccc4)c4nc(c(-c5ccccc5)c5ccc2[nH]5)C=C4)C=C3)cc1)Cc1ccccc1C1CC1
REMARK SMILES IDX 8 1 9 2 10 3 7 5 6 6 5 7 2 9 1 10 3 11 4 12 65 13 66 14
REMARK SMILES IDX 67 15 71 16 68 17 70 18 69 19 72 20 73 21 74 22 11 23 12 24
REMARK SMILES IDX 13 25 14 26 15 27 16 29 17 30 18 31 64 32 19 33 63 34 20 35
REMARK SMILES IDX 21 36 22 37 57 38 23 39 62 40 56 41 58 42 24 43 61 44 55 45
REMARK SMILES IDX 54 46 25 48 47 49 32 50 46 51 33 52 36 53 45 54 59 55 34 56
REMARK SMILES IDX 35 57 44 59 60 60 37 61 26 62 27 63 31 64 28 65 30 66 29 67
REMARK SMILES IDX 48 68 49 69 53 70 50 71 52 72 51 73 38 74 39 75 43 76 40 77
REMARK SMILES IDX 42 78 41 79
REMARK H PARENT 10 4 5 8 14 28 58 47 36 58
REMARK Flexibility Score: inf
ROOT
ATOM      1  C   UNL A   1      34.730  20.545  24.861  1.00  0.00     0.225 C 
ATOM      2  O   UNL A   1      34.459  19.366  24.631  1.00  0.00    -0.275 OA
ATOM      3  N   UNL A   1      35.843  20.826  25.612  1.00  0.00    -0.356 N 
ATOM      4  H   UNL A   1      35.765  20.835  26.593  1.00  0.00     0.163 HD
ENDROOT
BRANCH   1   5
ATOM      5  C   UNL A   1      33.807  21.661  24.406  1.00  0.00     0.161 C 
BRANCH   5   6
ATOM      6  C   UNL A   1      33.267  22.585  25.496  1.00  0.00     0.272 C 
BRANCH   6   7
ATOM      7  N   UNL A   1      32.707  23.906  25.127  1.00  0.00    -0.327 N 
ATOM      8  H   UNL A   1      32.952  24.072  24.151  1.00  0.00     0.348 HD
BRANCH   7   9
ATOM      9  C   UNL A   1      31.199  23.904  25.145  1.00  0.00     0.089 C 
ATOM     10  C   UNL A   1      30.598  25.127  25.904  1.00  0.00     0.078 C 
ATOM     11  C   UNL A   1      30.676  22.665  25.905  1.00  0.00     0.078 C 
ATOM     12  C   UNL A   1      30.575  23.919  23.735  1.00  0.00     0.078 C 
ENDBRANCH   7   9
BRANCH   7  13
ATOM     13  C   UNL A   1      33.369  25.059  25.809  1.00  0.00     0.299 C 
BRANCH  13  14
ATOM     14  C   UNL A   1      33.627  26.295  24.936  1.00  0.00     0.010 A 
ATOM     15  C   UNL A   1      33.636  26.017  23.542  1.00  0.00     0.010 A 
ATOM     16  C   UNL A   1      33.677  27.661  25.359  1.00  0.00    -0.036 A 
ATOM     17  C   UNL A   1      33.641  27.013  22.571  1.00  0.00     0.001 A 
ATOM     18  C   UNL A   1      33.655  28.636  24.316  1.00  0.00     0.004 A 
ATOM     19  C   UNL A   1      33.636  28.334  22.960  1.00  0.00     0.000 A 
BRANCH  16  20
ATOM     20  C   UNL A   1      33.601  28.303  26.759  1.00  0.00     0.020 C 
ATOM     21  C   UNL A   1      32.931  29.543  27.300  1.00  0.00     0.009 C 
ATOM     22  C   UNL A   1      32.149  28.300  27.317  1.00  0.00     0.009 C 
ENDBRANCH  16  20
ENDBRANCH  13  14
ENDBRANCH   7  13
ENDBRANCH   6   7
ENDBRANCH   5   6
ENDBRANCH   1   5
BRANCH   3  23
ATOM     23  C   UNL A   1      37.138  21.109  25.007  1.00  0.00     0.117 C 
BRANCH  23  24
ATOM     24  C   UNL A   1      37.834  22.321  25.604  1.00  0.00     0.042 C 
BRANCH  24  25
ATOM     25  C   UNL A   1      39.182  21.956  26.205  1.00  0.00     0.118 C 
BRANCH  25  26
ATOM     26  N   UNL A   1      39.613  20.568  26.052  1.00  0.00    -0.352 N 
ATOM     27  C   UNL A   1      40.937  20.140  26.116  1.00  0.00     0.251 C 
ATOM     28  H   UNL A   1      38.919  19.888  25.891  1.00  0.00     0.163 HD
ATOM     29  O   UNL A   1      41.290  19.026  25.792  1.00  0.00    -0.269 OA
BRANCH  27  30
ATOM     30  C   UNL A   1      41.914  21.155  26.574  1.00  0.00     0.039 A 
ATOM     31  C   UNL A   1      42.395  22.101  25.668  1.00  0.00     0.014 A 
ATOM     32  C   UNL A   1      42.063  21.329  27.949  1.00  0.00     0.014 A 
ATOM     33  C   UNL A   1      42.915  23.301  26.158  1.00  0.00     0.010 A 
ATOM     34  C   UNL A   1      42.471  22.568  28.425  1.00  0.00     0.010 A 
ATOM     35  C   UNL A   1      42.885  23.575  27.538  1.00  0.00    -0.014 A 
BRANCH  35  36
ATOM     36  C   UNL A   1      43.253  24.915  28.069  1.00  0.00     0.031 A 
ATOM     37  C   UNL A   1      42.182  25.945  28.314  1.00  0.00     0.074 A 
ATOM     38  C   UNL A   1      44.549  25.242  28.259  1.00  0.00     0.049 A 
ATOM     39  N   UNL A   1      42.304  27.173  28.753  1.00  0.00    -0.248 NA
ATOM     40  C   UNL A   1      40.801  25.561  27.981  1.00  0.00     0.031 C 
ATOM     41  C   UNL A   1      45.701  24.381  27.971  1.00  0.00     0.029 A 
ATOM     42  N   UNL A   1      45.118  26.395  28.744  1.00  0.00    -0.354 N 
ATOM     43  C   UNL A   1      41.021  27.706  28.727  1.00  0.00     0.074 A 
ATOM     44  C   UNL A   1      40.153  26.701  28.154  1.00  0.00     0.031 C 
ATOM     45  C   UNL A   1      46.829  25.015  28.335  1.00  0.00     0.029 A 
ATOM     46  C   UNL A   1      46.488  26.333  28.857  1.00  0.00     0.049 A 
ATOM     47  H   UNL A   1      44.594  27.191  28.990  1.00  0.00     0.167 HD
ATOM     48  C   UNL A   1      40.587  28.905  29.179  1.00  0.00     0.031 A 
ATOM     49  C   UNL A   1      47.366  27.229  29.347  1.00  0.00     0.031 A 
ATOM     50  C   UNL A   1      41.433  29.894  29.785  1.00  0.00     0.049 A 
ATOM     51  C   UNL A   1      46.858  28.535  29.895  1.00  0.00     0.074 A 
ATOM     52  C   UNL A   1      41.080  31.112  30.337  1.00  0.00     0.029 A 
ATOM     53  N   UNL A   1      42.805  29.768  29.925  1.00  0.00    -0.354 N 
ATOM     54  N   UNL A   1      45.627  28.982  29.952  1.00  0.00    -0.248 NA
ATOM     55  C   UNL A   1      47.857  29.449  30.467  1.00  0.00     0.031 C 
ATOM     56  C   UNL A   1      42.247  31.738  30.790  1.00  0.00     0.029 A 
ATOM     57  C   UNL A   1      43.317  30.890  30.553  1.00  0.00     0.049 A 
ATOM     58  H   UNL A   1      43.337  28.996  29.624  1.00  0.00     0.167 HD
ATOM     59  C   UNL A   1      45.701  30.214  30.589  1.00  0.00     0.074 A 
ATOM     60  C   UNL A   1      47.095  30.435  30.915  1.00  0.00     0.031 C 
ATOM     61  C   UNL A   1      44.705  31.087  30.877  1.00  0.00     0.031 A 
BRANCH  48  62
ATOM     62  C   UNL A   1      39.116  29.185  29.053  1.00  0.00    -0.014 A 
ATOM     63  C   UNL A   1      38.254  29.009  30.148  1.00  0.00     0.009 A 
ATOM     64  C   UNL A   1      38.583  29.617  27.831  1.00  0.00     0.009 A 
ATOM     65  C   UNL A   1      36.881  29.211  30.008  1.00  0.00     0.001 A 
ATOM     66  C   UNL A   1      37.212  29.849  27.702  1.00  0.00     0.001 A 
ATOM     67  C   UNL A   1      36.362  29.632  28.785  1.00  0.00     0.000 A 
ENDBRANCH  48  62
BRANCH  49  68
ATOM     68  C   UNL A   1      48.818  26.908  29.403  1.00  0.00    -0.014 A 
ATOM     69  C   UNL A   1      49.367  26.304  30.545  1.00  0.00     0.009 A 
ATOM     70  C   UNL A   1      49.665  27.226  28.331  1.00  0.00     0.009 A 
ATOM     71  C   UNL A   1      50.739  26.055  30.627  1.00  0.00     0.001 A 
ATOM     72  C   UNL A   1      51.034  26.951  28.405  1.00  0.00     0.001 A 
ATOM     73  C   UNL A   1      51.571  26.376  29.556  1.00  0.00     0.000 A 
ENDBRANCH  49  68
BRANCH  61  74
ATOM     74  C   UNL A   1      45.080  32.342  31.608  1.00  0.00    -0.014 A 
ATOM     75  C   UNL A   1      45.418  33.513  30.913  1.00  0.00     0.009 A 
ATOM     76  C   UNL A   1      45.043  32.365  33.011  1.00  0.00     0.009 A 
ATOM     77  C   UNL A   1      45.742  34.678  31.612  1.00  0.00     0.001 A 
ATOM     78  C   UNL A   1      45.343  33.538  33.706  1.00  0.00     0.001 A 
ATOM     79  C   UNL A   1      45.699  34.690  33.007  1.00  0.00     0.000 A 
ENDBRANCH  61  74
ENDBRANCH  35  36
ENDBRANCH  27  30
ENDBRANCH  25  26
ENDBRANCH  24  25
ENDBRANCH  23  24
ENDBRANCH   3  23
TORSDOF 16
ENDMDL
