MODEL 1
REMARK VINA RESULT:     -12.5      0.000      0.000
REMARK SMILES Cc1cc(C(=O)N[C@@H]2C(=O)N3C(C(=O)NCCCNC(=O)c4ccc(-c5c6nc(c(-c7ccccc7)c7ccc([nH]7)c(-c7ccccc7)c7nc(c(-c8ccccc8)c8ccc5[nH]8)C=C7)C=C6)cc4)=C(CSc4nnc(C)s4)CS[C@H]23)n(C)n1
REMARK SMILES IDX 16 1 15 2 13 3 14 4 12 6 8 7 9 8 81 9 10 10 11 11 80 12
REMARK SMILES IDX 79 13 70 14 7 15 5 16 6 17 4 19 1 20 2 21 3 22 84 23 82 24
REMARK SMILES IDX 83 25 71 26 72 27 73 28 74 29 78 30 75 31 76 32 77 33 17 34
REMARK SMILES IDX 18 35 19 36 20 37 21 39 22 40 23 41 69 42 24 43 68 44 25 45
REMARK SMILES IDX 26 46 27 47 62 48 28 49 67 50 61 51 63 52 29 53 66 54 60 55
REMARK SMILES IDX 59 56 30 58 52 59 37 60 51 61 38 62 41 63 50 64 64 65 39 66
REMARK SMILES IDX 40 67 49 69 65 70 42 71 31 72 32 73 36 74 33 75 35 76 34 77
REMARK SMILES IDX 53 78 54 79 58 80 55 81 57 82 56 83 43 84 44 85 48 86 45 87
REMARK SMILES IDX 47 88 46 89
REMARK H PARENT 15 5 7 18 19 38 63 57 41 68
REMARK Flexibility Score: inf
ROOT
ATOM      1  C   UNL A   1      35.859  20.561  24.903  1.00  0.00     0.118 C 
ENDROOT
BRANCH   1   2
ATOM      2  N   UNL A   1      35.522  21.114  26.203  1.00  0.00    -0.351 N 
ATOM      3  C   UNL A   1      34.549  21.910  26.721  1.00  0.00     0.268 C 
ATOM      4  O   UNL A   1      34.567  21.941  27.958  1.00  0.00    -0.268 OA
ATOM      5  H   UNL A   1      36.171  20.841  26.892  1.00  0.00     0.163 HD
BRANCH   3   6
ATOM      6  C   UNL A   1      33.387  22.565  25.952  1.00  0.00     0.111 C 
ATOM      7  C   UNL A   1      33.980  25.560  24.339  1.00  0.00     0.206 C 
ATOM      8  C   UNL A   1      34.750  24.253  24.691  1.00  0.00     0.253 C 
ATOM      9  C   UNL A   1      32.760  24.763  24.882  1.00  0.00     0.181 C 
ATOM     10  O   UNL A   1      35.787  23.756  24.303  1.00  0.00    -0.272 OA
ATOM     11  N   UNL A   1      33.706  23.836  25.480  1.00  0.00    -0.290 N 
ATOM     12  S   UNL A   1      31.748  23.879  23.653  1.00  0.00    -0.129 SA
ATOM     13  C   UNL A   1      31.077  22.848  24.954  1.00  0.00     0.106 C 
ATOM     14  C   UNL A   1      32.199  22.016  25.549  1.00  0.00    -0.020 C 
BRANCH   7  15
ATOM     15  N   UNL A   1      34.002  26.026  22.925  1.00  0.00    -0.336 N 
ATOM     16  C   UNL A   1      33.529  27.203  22.372  1.00  0.00     0.270 C 
ATOM     17  O   UNL A   1      33.690  27.371  21.165  1.00  0.00    -0.268 OA
ATOM     18  H   UNL A   1      34.416  25.402  22.286  1.00  0.00     0.164 HD
BRANCH  16  19
ATOM     19  C   UNL A   1      32.806  28.132  23.213  1.00  0.00     0.126 A 
ATOM     20  C   UNL A   1      32.334  29.988  26.307  1.00  0.00     0.069 C 
ATOM     21  C   UNL A   1      32.232  29.351  24.972  1.00  0.00     0.060 A 
ATOM     22  C   UNL A   1      33.250  29.177  24.010  1.00  0.00     0.059 A 
ATOM     23  N   UNL A   1      31.107  28.746  24.594  1.00  0.00    -0.178 NA
ATOM     24  N   UNL A   1      31.450  28.096  23.457  1.00  0.00    -0.263 N 
ATOM     25  C   UNL A   1      30.401  27.412  22.738  1.00  0.00     0.174 C 
ENDBRANCH  16  19
ENDBRANCH   7  15
BRANCH  14  26
ATOM     26  C   UNL A   1      31.933  20.546  25.307  1.00  0.00     0.111 C 
BRANCH  26  27
ATOM     27  S   UNL A   1      32.564  20.124  23.678  1.00  0.00    -0.089 SA
BRANCH  27  28
ATOM     28  C   UNL A   1      32.727  18.413  23.670  1.00  0.00     0.174 A 
ATOM     29  N   UNL A   1      33.115  17.720  22.625  1.00  0.00    -0.132 NA
ATOM     30  S   UNL A   1      32.862  17.583  25.160  1.00  0.00    -0.091 S 
ATOM     31  N   UNL A   1      33.881  16.635  23.026  1.00  0.00    -0.143 NA
ATOM     32  C   UNL A   1      33.994  16.591  24.340  1.00  0.00     0.115 A 
ATOM     33  C   UNL A   1      35.064  15.912  25.103  1.00  0.00     0.081 C 
ENDBRANCH  27  28
ENDBRANCH  26  27
ENDBRANCH  14  26
ENDBRANCH   3   6
ENDBRANCH   1   2
BRANCH   1  34
ATOM     34  C   UNL A   1      37.117  19.693  24.976  1.00  0.00     0.042 C 
BRANCH  34  35
ATOM     35  C   UNL A   1      38.408  20.406  25.334  1.00  0.00     0.118 C 
BRANCH  35  36
ATOM     36  N   UNL A   1      39.486  19.476  25.601  1.00  0.00    -0.352 N 
ATOM     37  C   UNL A   1      40.774  19.694  26.026  1.00  0.00     0.251 C 
ATOM     38  H   UNL A   1      39.259  18.530  25.451  1.00  0.00     0.163 HD
ATOM     39  O   UNL A   1      41.581  18.770  25.948  1.00  0.00    -0.269 OA
BRANCH  37  40
ATOM     40  C   UNL A   1      41.223  21.009  26.558  1.00  0.00     0.039 A 
ATOM     41  C   UNL A   1      41.135  21.233  27.938  1.00  0.00     0.014 A 
ATOM     42  C   UNL A   1      41.657  22.047  25.731  1.00  0.00     0.014 A 
ATOM     43  C   UNL A   1      41.513  22.467  28.479  1.00  0.00     0.010 A 
ATOM     44  C   UNL A   1      42.136  23.237  26.280  1.00  0.00     0.010 A 
ATOM     45  C   UNL A   1      42.045  23.474  27.658  1.00  0.00    -0.014 A 
BRANCH  45  46
ATOM     46  C   UNL A   1      42.462  24.789  28.214  1.00  0.00     0.031 A 
ATOM     47  C   UNL A   1      41.449  25.890  28.401  1.00  0.00     0.074 A 
ATOM     48  C   UNL A   1      43.755  25.011  28.524  1.00  0.00     0.049 A 
ATOM     49  N   UNL A   1      41.627  27.116  28.829  1.00  0.00    -0.248 NA
ATOM     50  C   UNL A   1      40.056  25.583  28.036  1.00  0.00     0.031 C 
ATOM     51  C   UNL A   1      44.843  24.042  28.368  1.00  0.00     0.029 A 
ATOM     52  N   UNL A   1      44.373  26.123  29.040  1.00  0.00    -0.354 N 
ATOM     53  C   UNL A   1      40.379  27.724  28.767  1.00  0.00     0.074 A 
ATOM     54  C   UNL A   1      39.464  26.756  28.206  1.00  0.00     0.031 C 
ATOM     55  C   UNL A   1      45.983  24.586  28.822  1.00  0.00     0.029 A 
ATOM     56  C   UNL A   1      45.720  25.955  29.255  1.00  0.00     0.049 A 
ATOM     57  H   UNL A   1      43.896  26.962  29.236  1.00  0.00     0.167 HD
ATOM     58  C   UNL A   1      40.016  28.966  29.167  1.00  0.00     0.031 A 
ATOM     59  C   UNL A   1      46.640  26.805  29.748  1.00  0.00     0.031 A 
ATOM     60  C   UNL A   1      40.918  29.928  29.739  1.00  0.00     0.049 A 
ATOM     61  C   UNL A   1      46.219  28.187  30.163  1.00  0.00     0.074 A 
ATOM     62  C   UNL A   1      40.641  31.201  30.207  1.00  0.00     0.029 A 
ATOM     63  N   UNL A   1      42.276  29.720  29.926  1.00  0.00    -0.354 N 
ATOM     64  N   UNL A   1      45.027  28.731  30.131  1.00  0.00    -0.248 NA
ATOM     65  C   UNL A   1      47.271  29.067  30.691  1.00  0.00     0.031 C 
ATOM     66  C   UNL A   1      41.840  31.780  30.633  1.00  0.00     0.029 A 
ATOM     67  C   UNL A   1      42.853  30.846  30.487  1.00  0.00     0.049 A 
ATOM     68  H   UNL A   1      42.758  28.893  29.695  1.00  0.00     0.167 HD
ATOM     69  C   UNL A   1      45.179  30.005  30.660  1.00  0.00     0.074 A 
ATOM     70  C   UNL A   1      46.575  30.147  31.019  1.00  0.00     0.031 C 
ATOM     71  C   UNL A   1      44.245  30.973  30.835  1.00  0.00     0.031 A 
BRANCH  58  72
ATOM     72  C   UNL A   1      38.571  29.354  28.999  1.00  0.00    -0.014 A 
ATOM     73  C   UNL A   1      38.069  29.762  27.752  1.00  0.00     0.009 A 
ATOM     74  C   UNL A   1      37.691  29.279  30.090  1.00  0.00     0.009 A 
ATOM     75  C   UNL A   1      36.727  30.123  27.611  1.00  0.00     0.001 A 
ATOM     76  C   UNL A   1      36.342  29.609  29.939  1.00  0.00     0.001 A 
ATOM     77  C   UNL A   1      35.864  30.041  28.702  1.00  0.00     0.000 A 
ENDBRANCH  58  72
BRANCH  59  78
ATOM     78  C   UNL A   1      48.052  26.362  29.903  1.00  0.00    -0.014 A 
ATOM     79  C   UNL A   1      48.487  25.786  31.106  1.00  0.00     0.009 A 
ATOM     80  C   UNL A   1      48.968  26.506  28.850  1.00  0.00     0.009 A 
ATOM     81  C   UNL A   1      49.816  25.381  31.258  1.00  0.00     0.001 A 
ATOM     82  C   UNL A   1      50.289  26.074  28.994  1.00  0.00     0.001 A 
ATOM     83  C   UNL A   1      50.714  25.520  30.200  1.00  0.00     0.000 A 
ENDBRANCH  59  78
BRANCH  71  84
ATOM     84  C   UNL A   1      44.693  32.257  31.475  1.00  0.00    -0.014 A 
ATOM     85  C   UNL A   1      45.223  33.308  30.710  1.00  0.00     0.009 A 
ATOM     86  C   UNL A   1      44.537  32.432  32.859  1.00  0.00     0.009 A 
ATOM     87  C   UNL A   1      45.621  34.496  31.326  1.00  0.00     0.001 A 
ATOM     88  C   UNL A   1      44.907  33.633  33.467  1.00  0.00     0.001 A 
ATOM     89  C   UNL A   1      45.457  34.660  32.702  1.00  0.00     0.000 A 
ENDBRANCH  71  84
ENDBRANCH  45  46
ENDBRANCH  37  40
ENDBRANCH  35  36
ENDBRANCH  34  35
ENDBRANCH   1  34
TORSDOF 15
ENDMDL
MODEL 2
REMARK VINA RESULT:     -12.4      0.679      5.664
REMARK SMILES Cc1cc(C(=O)N[C@@H]2C(=O)N3C(C(=O)NCCCNC(=O)c4ccc(-c5c6nc(c(-c7ccccc7)c7ccc([nH]7)c(-c7ccccc7)c7nc(c(-c8ccccc8)c8ccc5[nH]8)C=C7)C=C6)cc4)=C(CSc4nnc(C)s4)CS[C@H]23)n(C)n1
REMARK SMILES IDX 16 1 15 2 13 3 14 4 12 6 8 7 9 8 81 9 10 10 11 11 80 12
REMARK SMILES IDX 79 13 70 14 7 15 5 16 6 17 4 19 1 20 2 21 3 22 84 23 82 24
REMARK SMILES IDX 83 25 71 26 72 27 73 28 74 29 78 30 75 31 76 32 77 33 17 34
REMARK SMILES IDX 18 35 19 36 20 37 21 39 22 40 23 41 69 42 24 43 68 44 25 45
REMARK SMILES IDX 26 46 27 47 62 48 28 49 67 50 61 51 63 52 29 53 66 54 60 55
REMARK SMILES IDX 59 56 30 58 52 59 37 60 51 61 38 62 41 63 50 64 64 65 39 66
REMARK SMILES IDX 40 67 49 69 65 70 42 71 31 72 32 73 36 74 33 75 35 76 34 77
REMARK SMILES IDX 53 78 54 79 58 80 55 81 57 82 56 83 43 84 44 85 48 86 45 87
REMARK SMILES IDX 47 88 46 89
REMARK H PARENT 15 5 7 18 19 38 63 57 41 68
REMARK Flexibility Score: inf
ROOT
ATOM      1  C   UNL A   1      36.023  20.137  24.813  1.00  0.00     0.118 C 
ENDROOT
BRANCH   1   2
ATOM      2  N   UNL A   1      35.778  20.906  26.020  1.00  0.00    -0.351 N 
ATOM      3  C   UNL A   1      34.827  21.765  26.474  1.00  0.00     0.268 C 
ATOM      4  O   UNL A   1      34.947  22.014  27.680  1.00  0.00    -0.268 OA
ATOM      5  H   UNL A   1      36.490  20.769  26.687  1.00  0.00     0.163 HD
BRANCH   3   6
ATOM      6  C   UNL A   1      33.586  22.256  25.707  1.00  0.00     0.111 C 
ATOM      7  C   UNL A   1      33.892  25.074  23.737  1.00  0.00     0.206 C 
ATOM      8  C   UNL A   1      34.765  23.866  24.187  1.00  0.00     0.253 C 
ATOM      9  C   UNL A   1      32.758  24.274  24.437  1.00  0.00     0.181 C 
ATOM     10  O   UNL A   1      35.812  23.391  23.796  1.00  0.00    -0.272 OA
ATOM     11  N   UNL A   1      33.793  23.480  25.078  1.00  0.00    -0.290 N 
ATOM     12  S   UNL A   1      31.745  23.194  23.377  1.00  0.00    -0.129 SA
ATOM     13  C   UNL A   1      31.213  22.280  24.823  1.00  0.00     0.106 C 
ATOM     14  C   UNL A   1      32.417  21.592  25.439  1.00  0.00    -0.020 C 
BRANCH   7  15
ATOM     15  N   UNL A   1      33.809  25.375  22.281  1.00  0.00    -0.336 N 
ATOM     16  C   UNL A   1      33.058  26.327  21.613  1.00  0.00     0.270 C 
ATOM     17  O   UNL A   1      33.184  26.398  20.392  1.00  0.00    -0.268 OA
ATOM     18  H   UNL A   1      34.375  24.811  21.706  1.00  0.00     0.164 HD
BRANCH  16  19
ATOM     19  C   UNL A   1      32.115  27.128  22.363  1.00  0.00     0.126 A 
ATOM     20  C   UNL A   1      28.897  28.773  22.783  1.00  0.00     0.069 C 
ATOM     21  C   UNL A   1      30.284  28.260  22.887  1.00  0.00     0.060 A 
ATOM     22  C   UNL A   1      30.758  26.963  22.593  1.00  0.00     0.059 A 
ATOM     23  N   UNL A   1      31.291  29.081  23.185  1.00  0.00    -0.178 NA
ATOM     24  N   UNL A   1      32.399  28.336  22.964  1.00  0.00    -0.263 N 
ATOM     25  C   UNL A   1      33.675  28.924  23.296  1.00  0.00     0.174 C 
ENDBRANCH  16  19
ENDBRANCH   7  15
BRANCH  14  26
ATOM     26  C   UNL A   1      32.238  20.091  25.379  1.00  0.00     0.111 C 
BRANCH  26  27
ATOM     27  S   UNL A   1      32.451  19.570  23.672  1.00  0.00    -0.089 SA
BRANCH  27  28
ATOM     28  C   UNL A   1      32.819  17.892  23.740  1.00  0.00     0.174 A 
ATOM     29  N   UNL A   1      33.289  17.205  22.725  1.00  0.00    -0.132 NA
ATOM     30  S   UNL A   1      33.051  17.152  25.264  1.00  0.00    -0.091 S 
ATOM     31  N   UNL A   1      34.180  16.239  23.170  1.00  0.00    -0.143 NA
ATOM     32  C   UNL A   1      34.296  16.267  24.484  1.00  0.00     0.115 A 
ATOM     33  C   UNL A   1      35.439  15.757  25.272  1.00  0.00     0.081 C 
ENDBRANCH  27  28
ENDBRANCH  26  27
ENDBRANCH  14  26
ENDBRANCH   3   6
ENDBRANCH   1   2
BRANCH   1  34
ATOM     34  C   UNL A   1      37.352  19.384  24.891  1.00  0.00     0.042 C 
BRANCH  34  35
ATOM     35  C   UNL A   1      38.531  20.155  25.454  1.00  0.00     0.118 C 
BRANCH  35  36
ATOM     36  N   UNL A   1      39.676  19.299  25.692  1.00  0.00    -0.352 N 
ATOM     37  C   UNL A   1      40.960  19.605  26.073  1.00  0.00     0.251 C 
ATOM     38  H   UNL A   1      39.506  18.339  25.557  1.00  0.00     0.163 HD
ATOM     39  O   UNL A   1      41.823  18.734  25.976  1.00  0.00    -0.269 OA
BRANCH  37  40
ATOM     40  C   UNL A   1      41.339  20.951  26.580  1.00  0.00     0.039 A 
ATOM     41  C   UNL A   1      41.342  21.164  27.965  1.00  0.00     0.014 A 
ATOM     42  C   UNL A   1      41.619  22.024  25.731  1.00  0.00     0.014 A 
ATOM     43  C   UNL A   1      41.659  22.423  28.486  1.00  0.00     0.010 A 
ATOM     44  C   UNL A   1      42.040  23.248  26.251  1.00  0.00     0.010 A 
ATOM     45  C   UNL A   1      42.039  23.473  27.634  1.00  0.00    -0.014 A 
BRANCH  45  46
ATOM     46  C   UNL A   1      42.387  24.817  28.168  1.00  0.00     0.031 A 
ATOM     47  C   UNL A   1      43.814  25.146  28.525  1.00  0.00     0.074 A 
ATOM     48  C   UNL A   1      41.420  25.736  28.364  1.00  0.00     0.049 A 
ATOM     49  N   UNL A   1      44.307  26.244  29.044  1.00  0.00    -0.248 NA
ATOM     50  C   UNL A   1      44.819  24.094  28.293  1.00  0.00     0.031 C 
ATOM     51  C   UNL A   1      39.996  25.541  28.086  1.00  0.00     0.029 A 
ATOM     52  N   UNL A   1      41.492  27.023  28.839  1.00  0.00    -0.354 N 
ATOM     53  C   UNL A   1      45.666  26.007  29.213  1.00  0.00     0.074 A 
ATOM     54  C   UNL A   1      45.913  24.644  28.800  1.00  0.00     0.031 C 
ATOM     55  C   UNL A   1      39.336  26.680  28.352  1.00  0.00     0.029 A 
ATOM     56  C   UNL A   1      40.280  27.669  28.863  1.00  0.00     0.049 A 
ATOM     57  H   UNL A   1      42.333  27.441  29.135  1.00  0.00     0.167 HD
ATOM     58  C   UNL A   1      46.631  26.853  29.645  1.00  0.00     0.031 A 
ATOM     59  C   UNL A   1      39.962  28.918  29.251  1.00  0.00     0.031 A 
ATOM     60  C   UNL A   1      46.394  28.214  30.044  1.00  0.00     0.049 A 
ATOM     61  C   UNL A   1      41.046  29.833  29.751  1.00  0.00     0.074 A 
ATOM     62  C   UNL A   1      47.310  29.162  30.465  1.00  0.00     0.029 A 
ATOM     63  N   UNL A   1      45.149  28.823  30.065  1.00  0.00    -0.354 N 
ATOM     64  N   UNL A   1      42.331  29.602  29.869  1.00  0.00    -0.248 NA
ATOM     65  C   UNL A   1      40.634  31.183  30.160  1.00  0.00     0.031 C 
ATOM     66  C   UNL A   1      46.612  30.331  30.787  1.00  0.00     0.029 A 
ATOM     67  C   UNL A   1      45.270  30.129  30.507  1.00  0.00     0.049 A 
ATOM     68  H   UNL A   1      44.304  28.391  29.803  1.00  0.00     0.167 HD
ATOM     69  C   UNL A   1      42.885  30.785  30.339  1.00  0.00     0.074 A 
ATOM     70  C   UNL A   1      41.800  31.735  30.469  1.00  0.00     0.031 C 
ATOM     71  C   UNL A   1      44.179  31.062  30.635  1.00  0.00     0.031 A 
BRANCH  58  72
ATOM     72  C   UNL A   1      48.039  26.326  29.708  1.00  0.00    -0.014 A 
ATOM     73  C   UNL A   1      48.899  26.417  28.600  1.00  0.00     0.009 A 
ATOM     74  C   UNL A   1      48.528  25.763  30.897  1.00  0.00     0.009 A 
ATOM     75  C   UNL A   1      50.202  25.921  28.670  1.00  0.00     0.001 A 
ATOM     76  C   UNL A   1      49.842  25.298  30.975  1.00  0.00     0.001 A 
ATOM     77  C   UNL A   1      50.674  25.367  29.858  1.00  0.00     0.000 A 
ENDBRANCH  58  72
BRANCH  59  78
ATOM     78  C   UNL A   1      38.554  29.390  29.156  1.00  0.00    -0.014 A 
ATOM     79  C   UNL A   1      38.078  29.968  27.969  1.00  0.00     0.009 A 
ATOM     80  C   UNL A   1      37.679  29.258  30.245  1.00  0.00     0.009 A 
ATOM     81  C   UNL A   1      36.760  30.423  27.882  1.00  0.00     0.001 A 
ATOM     82  C   UNL A   1      36.353  29.688  30.145  1.00  0.00     0.001 A 
ATOM     83  C   UNL A   1      35.897  30.277  28.968  1.00  0.00     0.000 A 
ENDBRANCH  59  78
BRANCH  71  84
ATOM     84  C   UNL A   1      44.499  32.456  31.094  1.00  0.00    -0.014 A 
ATOM     85  C   UNL A   1      44.794  33.478  30.177  1.00  0.00     0.009 A 
ATOM     86  C   UNL A   1      44.458  32.761  32.464  1.00  0.00     0.009 A 
ATOM     87  C   UNL A   1      45.075  34.768  30.628  1.00  0.00     0.001 A 
ATOM     88  C   UNL A   1      44.710  34.060  32.908  1.00  0.00     0.001 A 
ATOM     89  C   UNL A   1      45.028  35.060  31.991  1.00  0.00     0.000 A 
ENDBRANCH  71  84
ENDBRANCH  45  46
ENDBRANCH  37  40
ENDBRANCH  35  36
ENDBRANCH  34  35
ENDBRANCH   1  34
TORSDOF 15
ENDMDL
MODEL 3
REMARK VINA RESULT:     -12.1      3.133      9.344
REMARK SMILES Cc1cc(C(=O)N[C@@H]2C(=O)N3C(C(=O)NCCCNC(=O)c4ccc(-c5c6nc(c(-c7ccccc7)c7ccc([nH]7)c(-c7ccccc7)c7nc(c(-c8ccccc8)c8ccc5[nH]8)C=C7)C=C6)cc4)=C(CSc4nnc(C)s4)CS[C@H]23)n(C)n1
REMARK SMILES IDX 16 1 15 2 13 3 14 4 12 6 8 7 9 8 81 9 10 10 11 11 80 12
REMARK SMILES IDX 79 13 70 14 7 15 5 16 6 17 4 19 1 20 2 21 3 22 84 23 82 24
REMARK SMILES IDX 83 25 71 26 72 27 73 28 74 29 78 30 75 31 76 32 77 33 17 34
REMARK SMILES IDX 18 35 19 36 20 37 21 39 22 40 23 41 69 42 24 43 68 44 25 45
REMARK SMILES IDX 26 46 27 47 62 48 28 49 67 50 61 51 63 52 29 53 66 54 60 55
REMARK SMILES IDX 59 56 30 58 52 59 37 60 51 61 38 62 41 63 50 64 64 65 39 66
REMARK SMILES IDX 40 67 49 69 65 70 42 71 31 72 32 73 36 74 33 75 35 76 34 77
REMARK SMILES IDX 53 78 54 79 58 80 55 81 57 82 56 83 43 84 44 85 48 86 45 87
REMARK SMILES IDX 47 88 46 89
REMARK H PARENT 15 5 7 18 19 38 63 57 41 68
REMARK Flexibility Score: inf
ROOT
ATOM      1  C   UNL A   1      33.299  29.717  25.815  1.00  0.00     0.118 C 
ENDROOT
BRANCH   1   2
ATOM      2  N   UNL A   1      33.629  29.383  24.442  1.00  0.00    -0.351 N 
ATOM      3  C   UNL A   1      33.268  28.435  23.536  1.00  0.00     0.268 C 
ATOM      4  O   UNL A   1      33.675  28.686  22.395  1.00  0.00    -0.268 OA
ATOM      5  H   UNL A   1      34.291  30.008  24.066  1.00  0.00     0.163 HD
BRANCH   3   6
ATOM      6  C   UNL A   1      32.291  27.267  23.764  1.00  0.00     0.111 C 
ATOM      7  C   UNL A   1      33.478  24.429  25.330  1.00  0.00     0.206 C 
ATOM      8  C   UNL A   1      33.717  25.967  25.367  1.00  0.00     0.253 C 
ATOM      9  C   UNL A   1      32.298  24.824  24.400  1.00  0.00     0.181 C 
ATOM     10  O   UNL A   1      34.267  26.715  26.149  1.00  0.00    -0.272 OA
ATOM     11  N   UNL A   1      32.923  26.129  24.258  1.00  0.00    -0.290 N 
ATOM     12  S   UNL A   1      30.667  25.021  25.185  1.00  0.00    -0.129 SA
ATOM     13  C   UNL A   1      30.110  25.980  23.779  1.00  0.00     0.106 C 
ATOM     14  C   UNL A   1      30.923  27.260  23.704  1.00  0.00    -0.020 C 
BRANCH   7  15
ATOM     15  N   UNL A   1      33.216  23.729  26.618  1.00  0.00    -0.336 N 
ATOM     16  C   UNL A   1      33.194  22.375  26.904  1.00  0.00     0.270 C 
ATOM     17  O   UNL A   1      32.976  22.042  28.067  1.00  0.00    -0.268 OA
ATOM     18  H   UNL A   1      33.030  24.320  27.384  1.00  0.00     0.164 HD
BRANCH  16  19
ATOM     19  C   UNL A   1      33.347  21.428  25.821  1.00  0.00     0.126 A 
ATOM     20  C   UNL A   1      32.458  18.370  24.059  1.00  0.00     0.069 C 
ATOM     21  C   UNL A   1      33.064  19.628  24.561  1.00  0.00     0.060 A 
ATOM     22  C   UNL A   1      32.406  20.785  25.031  1.00  0.00     0.059 A 
ATOM     23  N   UNL A   1      34.383  19.728  24.722  1.00  0.00    -0.178 NA
ATOM     24  N   UNL A   1      34.544  20.889  25.399  1.00  0.00    -0.263 N 
ATOM     25  C   UNL A   1      35.894  21.336  25.645  1.00  0.00     0.174 C 
ENDBRANCH  16  19
ENDBRANCH   7  15
BRANCH  14  26
ATOM     26  C   UNL A   1      30.016  28.456  23.898  1.00  0.00     0.111 C 
BRANCH  26  27
ATOM     27  S   UNL A   1      28.554  28.221  22.881  1.00  0.00    -0.089 SA
BRANCH  27  28
ATOM     28  C   UNL A   1      27.853  29.781  22.705  1.00  0.00     0.174 A 
ATOM     29  N   UNL A   1      27.009  30.305  23.564  1.00  0.00    -0.132 NA
ATOM     30  S   UNL A   1      28.596  30.915  21.662  1.00  0.00    -0.091 S 
ATOM     31  N   UNL A   1      27.210  31.674  23.661  1.00  0.00    -0.143 NA
ATOM     32  C   UNL A   1      28.176  32.072  22.856  1.00  0.00     0.115 A 
ATOM     33  C   UNL A   1      28.983  33.304  23.000  1.00  0.00     0.081 C 
ENDBRANCH  27  28
ENDBRANCH  26  27
ENDBRANCH  14  26
ENDBRANCH   3   6
ENDBRANCH   1   2
BRANCH   1  34
ATOM     34  C   UNL A   1      32.290  30.865  25.882  1.00  0.00     0.042 C 
BRANCH  34  35
ATOM     35  C   UNL A   1      31.979  31.410  27.264  1.00  0.00     0.118 C 
BRANCH  35  36
ATOM     36  N   UNL A   1      32.045  32.857  27.305  1.00  0.00    -0.352 N 
ATOM     37  C   UNL A   1      32.931  33.697  27.934  1.00  0.00     0.251 C 
ATOM     38  H   UNL A   1      31.335  33.314  26.799  1.00  0.00     0.163 HD
ATOM     39  O   UNL A   1      32.643  34.889  28.027  1.00  0.00    -0.269 OA
BRANCH  37  40
ATOM     40  C   UNL A   1      34.210  33.210  28.518  1.00  0.00     0.039 A 
ATOM     41  C   UNL A   1      35.405  33.535  27.864  1.00  0.00     0.014 A 
ATOM     42  C   UNL A   1      34.258  32.386  29.644  1.00  0.00     0.014 A 
ATOM     43  C   UNL A   1      36.629  33.070  28.357  1.00  0.00     0.010 A 
ATOM     44  C   UNL A   1      35.483  32.013  30.197  1.00  0.00     0.010 A 
ATOM     45  C   UNL A   1      36.684  32.326  29.546  1.00  0.00    -0.014 A 
BRANCH  45  46
ATOM     46  C   UNL A   1      37.976  31.830  30.092  1.00  0.00     0.031 A 
ATOM     47  C   UNL A   1      38.580  30.552  29.570  1.00  0.00     0.074 A 
ATOM     48  C   UNL A   1      38.594  32.507  31.081  1.00  0.00     0.049 A 
ATOM     49  N   UNL A   1      39.673  29.936  29.950  1.00  0.00    -0.248 NA
ATOM     50  C   UNL A   1      37.850  29.859  28.495  1.00  0.00     0.031 C 
ATOM     51  C   UNL A   1      38.106  33.743  31.697  1.00  0.00     0.029 A 
ATOM     52  N   UNL A   1      39.773  32.252  31.738  1.00  0.00    -0.354 N 
ATOM     53  C   UNL A   1      39.748  28.784  29.176  1.00  0.00     0.074 A 
ATOM     54  C   UNL A   1      38.563  28.752  28.349  1.00  0.00     0.031 C 
ATOM     55  C   UNL A   1      38.999  34.162  32.608  1.00  0.00     0.029 A 
ATOM     56  C   UNL A   1      40.097  33.203  32.676  1.00  0.00     0.049 A 
ATOM     57  H   UNL A   1      40.332  31.463  31.555  1.00  0.00     0.167 HD
ATOM     58  C   UNL A   1      40.726  27.848  29.134  1.00  0.00     0.031 A 
ATOM     59  C   UNL A   1      41.159  33.295  33.498  1.00  0.00     0.031 A 
ATOM     60  C   UNL A   1      41.913  27.882  29.944  1.00  0.00     0.049 A 
ATOM     61  C   UNL A   1      42.221  32.231  33.450  1.00  0.00     0.074 A 
ATOM     62  C   UNL A   1      42.979  26.999  29.950  1.00  0.00     0.029 A 
ATOM     63  N   UNL A   1      42.194  28.856  30.889  1.00  0.00    -0.354 N 
ATOM     64  N   UNL A   1      42.291  31.168  32.686  1.00  0.00    -0.248 NA
ATOM     65  C   UNL A   1      43.354  32.388  34.373  1.00  0.00     0.031 C 
ATOM     66  C   UNL A   1      43.882  27.413  30.935  1.00  0.00     0.029 A 
ATOM     67  C   UNL A   1      43.408  28.587  31.497  1.00  0.00     0.049 A 
ATOM     68  H   UNL A   1      41.616  29.625  31.097  1.00  0.00     0.167 HD
ATOM     69  C   UNL A   1      43.488  30.545  33.015  1.00  0.00     0.074 A 
ATOM     70  C   UNL A   1      44.117  31.358  34.036  1.00  0.00     0.031 C 
ATOM     71  C   UNL A   1      44.020  29.403  32.515  1.00  0.00     0.031 A 
BRANCH  58  72
ATOM     72  C   UNL A   1      40.550  26.704  28.172  1.00  0.00    -0.014 A 
ATOM     73  C   UNL A   1      41.095  26.753  26.877  1.00  0.00     0.009 A 
ATOM     74  C   UNL A   1      39.863  25.547  28.572  1.00  0.00     0.009 A 
ATOM     75  C   UNL A   1      40.922  25.685  25.994  1.00  0.00     0.001 A 
ATOM     76  C   UNL A   1      39.720  24.467  27.698  1.00  0.00     0.001 A 
ATOM     77  C   UNL A   1      40.240  24.542  26.406  1.00  0.00     0.000 A 
ENDBRANCH  58  72
BRANCH  59  78
ATOM     78  C   UNL A   1      41.286  34.455  34.419  1.00  0.00    -0.014 A 
ATOM     79  C   UNL A   1      40.742  34.399  35.711  1.00  0.00     0.009 A 
ATOM     80  C   UNL A   1      41.958  35.620  34.017  1.00  0.00     0.009 A 
ATOM     81  C   UNL A   1      40.849  35.492  36.574  1.00  0.00     0.001 A 
ATOM     82  C   UNL A   1      42.089  36.701  34.893  1.00  0.00     0.001 A 
ATOM     83  C   UNL A   1      41.528  36.640  36.166  1.00  0.00     0.000 A 
ENDBRANCH  59  78
BRANCH  71  84
ATOM     84  C   UNL A   1      45.364  28.981  33.037  1.00  0.00    -0.014 A 
ATOM     85  C   UNL A   1      45.484  28.033  34.065  1.00  0.00     0.009 A 
ATOM     86  C   UNL A   1      46.529  29.508  32.456  1.00  0.00     0.009 A 
ATOM     87  C   UNL A   1      46.745  27.648  34.525  1.00  0.00     0.001 A 
ATOM     88  C   UNL A   1      47.788  29.097  32.897  1.00  0.00     0.001 A 
ATOM     89  C   UNL A   1      47.894  28.175  33.937  1.00  0.00     0.000 A 
ENDBRANCH  71  84
ENDBRANCH  45  46
ENDBRANCH  37  40
ENDBRANCH  35  36
ENDBRANCH  34  35
ENDBRANCH   1  34
TORSDOF 15
ENDMDL
