MODEL 1
REMARK VINA RESULT:     -11.9      0.000      0.000
REMARK SMILES O=C(NCCCNC(=O)c1ccc(-c2c3nc(c(-c4ccccc4)c4ccc([nH]4)c(-c4ccccc4)c4nc(c(-c5ccccc5)c5ccc2[nH]5)C=C4)C=C3)cc1)c1ccc(NC(=O)[C@@H]2CC=CC[C@@H]2C(=O)Nc2ccc(Br)cc2)cc1
REMARK SMILES IDX 4 1 3 2 1 3 2 4 58 6 59 7 82 8 60 9 81 10 61 11 62 12 63 13
REMARK SMILES IDX 64 15 65 16 66 17 70 18 67 19 69 20 68 21 71 22 72 23 73 24
REMARK SMILES IDX 74 26 75 27 80 28 76 29 79 30 77 31 78 32 5 33 6 34 7 35
REMARK SMILES IDX 8 36 9 38 10 39 11 40 57 41 12 42 56 43 13 44 14 45 15 46
REMARK SMILES IDX 50 47 16 48 55 49 49 50 51 51 17 52 54 53 48 54 47 55 18 57
REMARK SMILES IDX 40 58 25 59 39 60 26 61 29 62 38 63 52 64 27 65 28 66 37 68
REMARK SMILES IDX 53 69 30 70 19 71 20 72 24 73 21 74 23 75 22 76 41 77 42 78
REMARK SMILES IDX 46 79 43 80 45 81 44 82 31 83 32 84 36 85 33 86 35 87 34 88
REMARK H PARENT 3 5 62 14 73 25 7 37 51 56 29 67
REMARK Flexibility Score: inf
ROOT
ATOM      1  C   UNL A   1      38.610  23.882  26.791  1.00  0.00     0.118 C 
ENDROOT
BRANCH   1   2
ATOM      2  N   UNL A   1      38.548  22.797  25.813  1.00  0.00    -0.352 N 
ATOM      3  O   UNL A   1      37.550  21.223  24.522  1.00  0.00    -0.269 OA
ATOM      4  C   UNL A   1      37.448  22.228  25.204  1.00  0.00     0.251 C 
ATOM      5  H   UNL A   1      39.418  22.416  25.553  1.00  0.00     0.163 HD
BRANCH   4   6
ATOM      6  C   UNL A   1      36.131  22.857  25.423  1.00  0.00     0.039 A 
ATOM      7  C   UNL A   1      35.806  23.997  24.702  1.00  0.00     0.016 A 
ATOM      8  C   UNL A   1      35.281  22.399  26.425  1.00  0.00     0.016 A 
ATOM      9  C   UNL A   1      34.764  24.803  25.139  1.00  0.00     0.027 A 
ATOM     10  C   UNL A   1      34.163  23.168  26.778  1.00  0.00     0.027 A 
ATOM     11  C   UNL A   1      33.910  24.405  26.161  1.00  0.00     0.041 A 
BRANCH  11  12
ATOM     12  N   UNL A   1      32.809  25.148  26.633  1.00  0.00    -0.326 N 
ATOM     13  C   UNL A   1      32.183  26.308  26.258  1.00  0.00     0.228 C 
ATOM     14  H   UNL A   1      32.390  24.735  27.423  1.00  0.00     0.169 HD
ATOM     15  O   UNL A   1      31.205  26.651  26.931  1.00  0.00    -0.274 OA
BRANCH  13  16
ATOM     16  C   UNL A   1      32.641  27.141  25.081  1.00  0.00     0.095 C 
ATOM     17  C   UNL A   1      31.849  28.440  24.885  1.00  0.00     0.041 C 
ATOM     18  C   UNL A   1      32.791  26.380  23.745  1.00  0.00     0.095 C 
ATOM     19  C   UNL A   1      32.492  29.266  23.799  1.00  0.00    -0.030 C 
ATOM     20  C   UNL A   1      33.657  27.272  22.806  1.00  0.00     0.041 C 
ATOM     21  C   UNL A   1      33.333  28.745  22.889  1.00  0.00    -0.030 C 
BRANCH  18  22
ATOM     22  C   UNL A   1      31.510  26.015  22.967  1.00  0.00     0.228 C 
ATOM     23  O   UNL A   1      30.703  26.856  22.577  1.00  0.00    -0.274 OA
ATOM     24  N   UNL A   1      31.429  24.739  22.455  1.00  0.00    -0.326 N 
ATOM     25  H   UNL A   1      31.120  24.673  21.523  1.00  0.00     0.169 HD
BRANCH  24  26
ATOM     26  C   UNL A   1      31.729  23.520  23.080  1.00  0.00     0.041 A 
ATOM     27  C   UNL A   1      31.036  23.156  24.236  1.00  0.00     0.027 A 
ATOM     28  C   UNL A   1      32.793  22.731  22.651  1.00  0.00     0.027 A 
ATOM     29  C   UNL A   1      31.346  21.961  24.897  1.00  0.00     0.018 A 
ATOM     30  C   UNL A   1      33.115  21.542  23.309  1.00  0.00     0.018 A 
ATOM     31  C   UNL A   1      32.378  21.153  24.422  1.00  0.00     0.018 A 
ATOM     32  Br  UNL A   1      32.806  19.540  25.309  1.00  0.00    -0.051 Br
ENDBRANCH  24  26
ENDBRANCH  18  22
ENDBRANCH  13  16
ENDBRANCH  11  12
ENDBRANCH   4   6
ENDBRANCH   1   2
BRANCH   1  33
ATOM     33  C   UNL A   1      39.721  24.874  26.502  1.00  0.00     0.042 C 
BRANCH  33  34
ATOM     34  C   UNL A   1      40.892  24.756  27.460  1.00  0.00     0.118 C 
BRANCH  34  35
ATOM     35  N   UNL A   1      41.743  23.611  27.160  1.00  0.00    -0.352 N 
ATOM     36  C   UNL A   1      43.030  23.544  26.696  1.00  0.00     0.251 C 
ATOM     37  H   UNL A   1      41.319  22.736  27.318  1.00  0.00     0.163 HD
ATOM     38  O   UNL A   1      43.480  22.461  26.334  1.00  0.00    -0.269 OA
BRANCH  36  39
ATOM     39  C   UNL A   1      43.875  24.753  26.618  1.00  0.00     0.039 A 
ATOM     40  C   UNL A   1      44.501  25.209  27.782  1.00  0.00     0.014 A 
ATOM     41  C   UNL A   1      44.021  25.469  25.426  1.00  0.00     0.014 A 
ATOM     42  C   UNL A   1      45.305  26.347  27.738  1.00  0.00     0.010 A 
ATOM     43  C   UNL A   1      44.902  26.541  25.360  1.00  0.00     0.010 A 
ATOM     44  C   UNL A   1      45.534  27.007  26.519  1.00  0.00    -0.014 A 
BRANCH  44  45
ATOM     45  C   UNL A   1      46.407  28.202  26.450  1.00  0.00     0.031 A 
ATOM     46  C   UNL A   1      47.892  28.045  26.271  1.00  0.00     0.074 A 
ATOM     47  C   UNL A   1      45.866  29.427  26.595  1.00  0.00     0.049 A 
ATOM     48  N   UNL A   1      48.815  28.971  26.197  1.00  0.00    -0.248 NA
ATOM     49  C   UNL A   1      48.415  26.670  26.199  1.00  0.00     0.031 C 
ATOM     50  C   UNL A   1      44.450  29.707  26.841  1.00  0.00     0.029 A 
ATOM     51  N   UNL A   1      46.449  30.666  26.553  1.00  0.00    -0.354 N 
ATOM     52  C   UNL A   1      50.023  28.291  26.100  1.00  0.00     0.074 A 
ATOM     53  C   UNL A   1      49.723  26.879  26.171  1.00  0.00     0.031 C 
ATOM     54  C   UNL A   1      44.269  31.038  26.888  1.00  0.00     0.029 A 
ATOM     55  C   UNL A   1      45.556  31.698  26.701  1.00  0.00     0.049 A 
ATOM     56  H   UNL A   1      47.417  30.804  26.428  1.00  0.00     0.167 HD
ATOM     57  C   UNL A   1      51.269  28.795  25.940  1.00  0.00     0.031 A 
ATOM     58  C   UNL A   1      45.751  33.028  26.672  1.00  0.00     0.031 A 
ATOM     59  C   UNL A   1      51.565  30.197  25.831  1.00  0.00     0.049 A 
ATOM     60  C   UNL A   1      47.133  33.562  26.429  1.00  0.00     0.074 A 
ATOM     61  C   UNL A   1      52.786  30.806  25.597  1.00  0.00     0.029 A 
ATOM     62  N   UNL A   1      50.625  31.209  25.940  1.00  0.00    -0.354 N 
ATOM     63  N   UNL A   1      48.254  32.904  26.263  1.00  0.00    -0.248 NA
ATOM     64  C   UNL A   1      47.269  35.023  26.348  1.00  0.00     0.031 C 
ATOM     65  C   UNL A   1      52.586  32.192  25.593  1.00  0.00     0.029 A 
ATOM     66  C   UNL A   1      51.237  32.440  25.786  1.00  0.00     0.049 A 
ATOM     67  H   UNL A   1      49.664  31.072  26.103  1.00  0.00     0.167 HD
ATOM     68  C   UNL A   1      49.227  33.868  26.037  1.00  0.00     0.074 A 
ATOM     69  C   UNL A   1      48.559  35.154  26.068  1.00  0.00     0.031 C 
ATOM     70  C   UNL A   1      50.555  33.706  25.824  1.00  0.00     0.031 A 
BRANCH  57  71
ATOM     71  C   UNL A   1      52.404  27.813  25.871  1.00  0.00    -0.014 A 
ATOM     72  C   UNL A   1      53.081  27.403  27.030  1.00  0.00     0.009 A 
ATOM     73  C   UNL A   1      52.787  27.274  24.633  1.00  0.00     0.009 A 
ATOM     74  C   UNL A   1      54.144  26.502  26.947  1.00  0.00     0.001 A 
ATOM     75  C   UNL A   1      53.834  26.354  24.556  1.00  0.00     0.001 A 
ATOM     76  C   UNL A   1      54.517  25.976  25.712  1.00  0.00     0.000 A 
ENDBRANCH  57  71
BRANCH  58  77
ATOM     77  C   UNL A   1      44.598  33.950  26.831  1.00  0.00    -0.014 A 
ATOM     78  C   UNL A   1      43.894  34.402  25.704  1.00  0.00     0.009 A 
ATOM     79  C   UNL A   1      44.195  34.378  28.104  1.00  0.00     0.009 A 
ATOM     80  C   UNL A   1      42.824  35.287  25.849  1.00  0.00     0.001 A 
ATOM     81  C   UNL A   1      43.110  35.244  28.247  1.00  0.00     0.001 A 
ATOM     82  C   UNL A   1      42.431  35.704  27.120  1.00  0.00     0.000 A 
ENDBRANCH  58  77
BRANCH  70  83
ATOM     83  C   UNL A   1      51.360  34.949  25.587  1.00  0.00    -0.014 A 
ATOM     84  C   UNL A   1      51.931  35.657  26.655  1.00  0.00     0.009 A 
ATOM     85  C   UNL A   1      51.561  35.407  24.276  1.00  0.00     0.009 A 
ATOM     86  C   UNL A   1      52.659  36.824  26.416  1.00  0.00     0.001 A 
ATOM     87  C   UNL A   1      52.309  36.560  24.039  1.00  0.00     0.001 A 
ATOM     88  C   UNL A   1      52.849  37.273  25.109  1.00  0.00     0.000 A 
ENDBRANCH  70  83
ENDBRANCH  44  45
ENDBRANCH  36  39
ENDBRANCH  34  35
ENDBRANCH  33  34
ENDBRANCH   1  33
TORSDOF 14
ENDMDL
MODEL 2
REMARK VINA RESULT:     -11.7      5.519     10.799
REMARK SMILES O=C(NCCCNC(=O)c1ccc(-c2c3nc(c(-c4ccccc4)c4ccc([nH]4)c(-c4ccccc4)c4nc(c(-c5ccccc5)c5ccc2[nH]5)C=C4)C=C3)cc1)c1ccc(NC(=O)[C@@H]2CC=CC[C@@H]2C(=O)Nc2ccc(Br)cc2)cc1
REMARK SMILES IDX 4 1 3 2 1 3 2 4 58 6 59 7 82 8 60 9 81 10 61 11 62 12 63 13
REMARK SMILES IDX 64 15 65 16 66 17 70 18 67 19 69 20 68 21 71 22 72 23 73 24
REMARK SMILES IDX 74 26 75 27 80 28 76 29 79 30 77 31 78 32 5 33 6 34 7 35
REMARK SMILES IDX 8 36 9 38 10 39 11 40 57 41 12 42 56 43 13 44 14 45 15 46
REMARK SMILES IDX 50 47 16 48 55 49 49 50 51 51 17 52 54 53 48 54 47 55 18 57
REMARK SMILES IDX 40 58 25 59 39 60 26 61 29 62 38 63 52 64 27 65 28 66 37 68
REMARK SMILES IDX 53 69 30 70 19 71 20 72 24 73 21 74 23 75 22 76 41 77 42 78
REMARK SMILES IDX 46 79 43 80 45 81 44 82 31 83 32 84 36 85 33 86 35 87 34 88
REMARK H PARENT 3 5 62 14 73 25 7 37 51 56 29 67
REMARK Flexibility Score: inf
ROOT
ATOM      1  C   UNL A   1      42.576  21.244  25.744  1.00  0.00     0.118 C 
ENDROOT
BRANCH   1   2
ATOM      2  N   UNL A   1      43.653  20.440  25.171  1.00  0.00    -0.352 N 
ATOM      3  O   UNL A   1      45.685  20.055  24.240  1.00  0.00    -0.269 OA
ATOM      4  C   UNL A   1      44.947  20.804  24.857  1.00  0.00     0.251 C 
ATOM      5  H   UNL A   1      43.422  19.502  24.980  1.00  0.00     0.163 HD
BRANCH   4   6
ATOM      6  C   UNL A   1      45.410  22.144  25.268  1.00  0.00     0.039 A 
ATOM      7  C   UNL A   1      46.027  22.956  24.328  1.00  0.00     0.016 A 
ATOM      8  C   UNL A   1      45.353  22.538  26.601  1.00  0.00     0.016 A 
ATOM      9  C   UNL A   1      46.786  24.036  24.756  1.00  0.00     0.027 A 
ATOM     10  C   UNL A   1      46.029  23.701  27.000  1.00  0.00     0.027 A 
ATOM     11  C   UNL A   1      46.789  24.447  26.084  1.00  0.00     0.041 A 
BRANCH  11  12
ATOM     12  N   UNL A   1      47.500  25.555  26.588  1.00  0.00    -0.326 N 
ATOM     13  C   UNL A   1      47.190  26.854  26.896  1.00  0.00     0.228 C 
ATOM     14  H   UNL A   1      48.447  25.346  26.758  1.00  0.00     0.169 HD
ATOM     15  O   UNL A   1      48.107  27.550  27.343  1.00  0.00    -0.274 OA
BRANCH  13  16
ATOM     16  C   UNL A   1      45.802  27.430  26.713  1.00  0.00     0.095 C 
ATOM     17  C   UNL A   1      45.095  26.968  25.433  1.00  0.00     0.041 C 
ATOM     18  C   UNL A   1      45.687  28.961  26.885  1.00  0.00     0.095 C 
ATOM     19  C   UNL A   1      43.670  27.461  25.436  1.00  0.00    -0.030 C 
ATOM     20  C   UNL A   1      44.177  29.285  27.089  1.00  0.00     0.041 C 
ATOM     21  C   UNL A   1      43.252  28.478  26.209  1.00  0.00    -0.030 C 
BRANCH  18  22
ATOM     22  C   UNL A   1      46.194  29.862  25.740  1.00  0.00     0.228 C 
ATOM     23  O   UNL A   1      46.494  29.426  24.630  1.00  0.00    -0.274 OA
ATOM     24  N   UNL A   1      46.025  31.220  25.890  1.00  0.00    -0.326 N 
ATOM     25  H   UNL A   1      45.668  31.694  25.104  1.00  0.00     0.169 HD
BRANCH  24  26
ATOM     26  C   UNL A   1      46.293  32.021  27.009  1.00  0.00     0.041 A 
ATOM     27  C   UNL A   1      47.580  32.032  27.550  1.00  0.00     0.027 A 
ATOM     28  C   UNL A   1      45.272  32.699  27.672  1.00  0.00     0.027 A 
ATOM     29  C   UNL A   1      47.858  32.796  28.690  1.00  0.00     0.018 A 
ATOM     30  C   UNL A   1      45.539  33.456  28.815  1.00  0.00     0.018 A 
ATOM     31  C   UNL A   1      46.837  33.515  29.310  1.00  0.00     0.018 A 
ATOM     32  Br  UNL A   1      47.202  34.546  30.852  1.00  0.00    -0.051 Br
ENDBRANCH  24  26
ENDBRANCH  18  22
ENDBRANCH  13  16
ENDBRANCH  11  12
ENDBRANCH   4   6
ENDBRANCH   1   2
BRANCH   1  33
ATOM     33  C   UNL A   1      41.844  20.536  26.869  1.00  0.00     0.042 C 
BRANCH  33  34
ATOM     34  C   UNL A   1      40.686  21.341  27.429  1.00  0.00     0.118 C 
BRANCH  34  35
ATOM     35  N   UNL A   1      39.682  21.649  26.418  1.00  0.00    -0.352 N 
ATOM     36  C   UNL A   1      38.986  22.801  26.162  1.00  0.00     0.251 C 
ATOM     37  H   UNL A   1      39.468  20.900  25.815  1.00  0.00     0.163 HD
ATOM     38  O   UNL A   1      38.046  22.770  25.374  1.00  0.00    -0.269 OA
BRANCH  36  39
ATOM     39  C   UNL A   1      39.345  24.071  26.827  1.00  0.00     0.039 A 
ATOM     40  C   UNL A   1      38.931  24.276  28.146  1.00  0.00     0.014 A 
ATOM     41  C   UNL A   1      40.042  25.079  26.154  1.00  0.00     0.014 A 
ATOM     42  C   UNL A   1      39.256  25.465  28.799  1.00  0.00     0.010 A 
ATOM     43  C   UNL A   1      40.453  26.217  26.836  1.00  0.00     0.010 A 
ATOM     44  C   UNL A   1      40.044  26.433  28.157  1.00  0.00    -0.014 A 
BRANCH  44  45
ATOM     45  C   UNL A   1      40.421  27.690  28.846  1.00  0.00     0.031 A 
ATOM     46  C   UNL A   1      41.789  27.840  29.452  1.00  0.00     0.074 A 
ATOM     47  C   UNL A   1      39.513  28.678  28.966  1.00  0.00     0.049 A 
ATOM     48  N   UNL A   1      42.297  28.859  30.099  1.00  0.00    -0.248 NA
ATOM     49  C   UNL A   1      42.698  26.685  29.346  1.00  0.00     0.031 C 
ATOM     50  C   UNL A   1      38.133  28.627  28.481  1.00  0.00     0.029 A 
ATOM     51  N   UNL A   1      39.622  29.920  29.534  1.00  0.00    -0.354 N 
ATOM     52  C   UNL A   1      43.564  28.457  30.500  1.00  0.00     0.074 A 
ATOM     53  C   UNL A   1      43.734  27.088  30.067  1.00  0.00     0.031 C 
ATOM     54  C   UNL A   1      37.535  29.803  28.737  1.00  0.00     0.029 A 
ATOM     55  C   UNL A   1      38.481  30.676  29.423  1.00  0.00     0.049 A 
ATOM     56  H   UNL A   1      40.441  30.241  29.978  1.00  0.00     0.167 HD
ATOM     57  C   UNL A   1      44.514  29.169  31.151  1.00  0.00     0.031 A 
ATOM     58  C   UNL A   1      38.232  31.937  29.817  1.00  0.00     0.031 A 
ATOM     59  C   UNL A   1      44.362  30.541  31.550  1.00  0.00     0.049 A 
ATOM     60  C   UNL A   1      39.322  32.728  30.478  1.00  0.00     0.074 A 
ATOM     61  C   UNL A   1      45.290  31.374  32.151  1.00  0.00     0.029 A 
ATOM     62  N   UNL A   1      43.206  31.285  31.379  1.00  0.00    -0.354 N 
ATOM     63  N   UNL A   1      40.542  32.358  30.783  1.00  0.00    -0.248 NA
ATOM     64  C   UNL A   1      39.006  34.120  30.829  1.00  0.00     0.031 C 
ATOM     65  C   UNL A   1      44.683  32.616  32.368  1.00  0.00     0.029 A 
ATOM     66  C   UNL A   1      43.392  32.566  31.868  1.00  0.00     0.049 A 
ATOM     67  H   UNL A   1      42.375  30.952  30.968  1.00  0.00     0.167 HD
ATOM     68  C   UNL A   1      41.146  33.475  31.343  1.00  0.00     0.074 A 
ATOM     69  C   UNL A   1      40.165  34.541  31.316  1.00  0.00     0.031 C 
ATOM     70  C   UNL A   1      42.401  33.609  31.835  1.00  0.00     0.031 A 
BRANCH  57  71
ATOM     71  C   UNL A   1      45.804  28.468  31.465  1.00  0.00    -0.014 A 
ATOM     72  C   UNL A   1      45.976  27.767  32.670  1.00  0.00     0.009 A 
ATOM     73  C   UNL A   1      46.856  28.489  30.536  1.00  0.00     0.009 A 
ATOM     74  C   UNL A   1      47.188  27.135  32.953  1.00  0.00     0.001 A 
ATOM     75  C   UNL A   1      48.058  27.834  30.812  1.00  0.00     0.001 A 
ATOM     76  C   UNL A   1      48.225  27.165  32.024  1.00  0.00     0.000 A 
ENDBRANCH  57  71
BRANCH  58  77
ATOM     77  C   UNL A   1      36.905  32.547  29.551  1.00  0.00    -0.014 A 
ATOM     78  C   UNL A   1      35.885  32.466  30.512  1.00  0.00     0.009 A 
ATOM     79  C   UNL A   1      36.653  33.213  28.343  1.00  0.00     0.009 A 
ATOM     80  C   UNL A   1      34.629  33.019  30.255  1.00  0.00     0.001 A 
ATOM     81  C   UNL A   1      35.403  33.785  28.099  1.00  0.00     0.001 A 
ATOM     82  C   UNL A   1      34.390  33.681  29.051  1.00  0.00     0.000 A 
ENDBRANCH  58  77
BRANCH  70  83
ATOM     83  C   UNL A   1      42.782  34.960  32.362  1.00  0.00    -0.014 A 
ATOM     84  C   UNL A   1      42.451  35.347  33.670  1.00  0.00     0.009 A 
ATOM     85  C   UNL A   1      43.494  35.850  31.545  1.00  0.00     0.009 A 
ATOM     86  C   UNL A   1      42.795  36.617  34.136  1.00  0.00     0.001 A 
ATOM     87  C   UNL A   1      43.857  37.110  32.021  1.00  0.00     0.001 A 
ATOM     88  C   UNL A   1      43.499  37.496  33.312  1.00  0.00     0.000 A 
ENDBRANCH  70  83
ENDBRANCH  44  45
ENDBRANCH  36  39
ENDBRANCH  34  35
ENDBRANCH  33  34
ENDBRANCH   1  33
TORSDOF 14
ENDMDL
MODEL 3
REMARK VINA RESULT:     -11.7      5.767      9.497
REMARK SMILES O=C(NCCCNC(=O)c1ccc(-c2c3nc(c(-c4ccccc4)c4ccc([nH]4)c(-c4ccccc4)c4nc(c(-c5ccccc5)c5ccc2[nH]5)C=C4)C=C3)cc1)c1ccc(NC(=O)[C@@H]2CC=CC[C@@H]2C(=O)Nc2ccc(Br)cc2)cc1
REMARK SMILES IDX 4 1 3 2 1 3 2 4 58 6 59 7 82 8 60 9 81 10 61 11 62 12 63 13
REMARK SMILES IDX 64 15 65 16 66 17 70 18 67 19 69 20 68 21 71 22 72 23 73 24
REMARK SMILES IDX 74 26 75 27 80 28 76 29 79 30 77 31 78 32 5 33 6 34 7 35
REMARK SMILES IDX 8 36 9 38 10 39 11 40 57 41 12 42 56 43 13 44 14 45 15 46
REMARK SMILES IDX 50 47 16 48 55 49 49 50 51 51 17 52 54 53 48 54 47 55 18 57
REMARK SMILES IDX 40 58 25 59 39 60 26 61 29 62 38 63 52 64 27 65 28 66 37 68
REMARK SMILES IDX 53 69 30 70 19 71 20 72 24 73 21 74 23 75 22 76 41 77 42 78
REMARK SMILES IDX 46 79 43 80 45 81 44 82 31 83 32 84 36 85 33 86 35 87 34 88
REMARK H PARENT 3 5 62 14 73 25 7 37 51 56 29 67
REMARK Flexibility Score: inf
ROOT
ATOM      1  C   UNL A   1      31.310  30.247  25.066  1.00  0.00     0.118 C 
ENDROOT
BRANCH   1   2
ATOM      2  N   UNL A   1      30.249  30.409  24.074  1.00  0.00    -0.352 N 
ATOM      3  O   UNL A   1      28.987  29.846  22.276  1.00  0.00    -0.269 OA
ATOM      4  C   UNL A   1      29.779  29.508  23.139  1.00  0.00     0.251 C 
ATOM      5  H   UNL A   1      29.806  31.288  24.072  1.00  0.00     0.163 HD
BRANCH   4   6
ATOM      6  C   UNL A   1      30.282  28.122  23.195  1.00  0.00     0.039 A 
ATOM      7  C   UNL A   1      31.334  27.759  22.369  1.00  0.00     0.016 A 
ATOM      8  C   UNL A   1      29.633  27.160  23.963  1.00  0.00     0.016 A 
ATOM      9  C   UNL A   1      31.578  26.413  22.131  1.00  0.00     0.027 A 
ATOM     10  C   UNL A   1      29.973  25.810  23.799  1.00  0.00     0.027 A 
ATOM     11  C   UNL A   1      30.929  25.414  22.848  1.00  0.00     0.041 A 
BRANCH  11  12
ATOM     12  N   UNL A   1      31.151  24.031  22.694  1.00  0.00    -0.326 N 
ATOM     13  C   UNL A   1      31.924  23.091  23.324  1.00  0.00     0.228 C 
ATOM     14  H   UNL A   1      30.625  23.648  21.954  1.00  0.00     0.169 HD
ATOM     15  O   UNL A   1      31.842  21.934  22.901  1.00  0.00    -0.274 OA
BRANCH  13  16
ATOM     16  C   UNL A   1      32.833  23.426  24.487  1.00  0.00     0.095 C 
ATOM     17  C   UNL A   1      33.737  24.642  24.246  1.00  0.00     0.041 C 
ATOM     18  C   UNL A   1      33.643  22.243  25.062  1.00  0.00     0.095 C 
ATOM     19  C   UNL A   1      34.471  24.986  25.518  1.00  0.00    -0.030 C 
ATOM     20  C   UNL A   1      34.155  22.680  26.467  1.00  0.00     0.041 C 
ATOM     21  C   UNL A   1      34.625  24.114  26.529  1.00  0.00    -0.030 C 
BRANCH  18  22
ATOM     22  C   UNL A   1      34.868  21.745  24.268  1.00  0.00     0.228 C 
ATOM     23  O   UNL A   1      35.537  22.479  23.543  1.00  0.00    -0.274 OA
ATOM     24  N   UNL A   1      35.384  20.516  24.616  1.00  0.00    -0.326 N 
ATOM     25  H   UNL A   1      36.363  20.476  24.709  1.00  0.00     0.169 HD
BRANCH  24  26
ATOM     26  C   UNL A   1      34.704  19.314  24.856  1.00  0.00     0.041 A 
ATOM     27  C   UNL A   1      35.362  18.101  24.643  1.00  0.00     0.027 A 
ATOM     28  C   UNL A   1      33.347  19.303  25.171  1.00  0.00     0.027 A 
ATOM     29  C   UNL A   1      34.689  16.890  24.840  1.00  0.00     0.018 A 
ATOM     30  C   UNL A   1      32.666  18.099  25.362  1.00  0.00     0.018 A 
ATOM     31  C   UNL A   1      33.345  16.895  25.211  1.00  0.00     0.018 A 
ATOM     32  Br  UNL A   1      32.427  15.265  25.477  1.00  0.00    -0.051 Br
ENDBRANCH  24  26
ENDBRANCH  18  22
ENDBRANCH  13  16
ENDBRANCH  11  12
ENDBRANCH   4   6
ENDBRANCH   1   2
BRANCH   1  33
ATOM     33  C   UNL A   1      31.112  31.120  26.292  1.00  0.00     0.042 C 
BRANCH  33  34
ATOM     34  C   UNL A   1      32.413  31.640  26.872  1.00  0.00     0.118 C 
BRANCH  34  35
ATOM     35  N   UNL A   1      32.310  33.025  27.317  1.00  0.00    -0.352 N 
ATOM     36  C   UNL A   1      33.099  33.759  28.163  1.00  0.00     0.251 C 
ATOM     37  H   UNL A   1      31.541  33.515  26.947  1.00  0.00     0.163 HD
ATOM     38  O   UNL A   1      32.707  34.859  28.543  1.00  0.00    -0.269 OA
BRANCH  36  39
ATOM     39  C   UNL A   1      34.404  33.243  28.627  1.00  0.00     0.039 A 
ATOM     40  C   UNL A   1      35.549  33.564  27.894  1.00  0.00     0.014 A 
ATOM     41  C   UNL A   1      34.506  32.412  29.746  1.00  0.00     0.014 A 
ATOM     42  C   UNL A   1      36.794  33.092  28.309  1.00  0.00     0.010 A 
ATOM     43  C   UNL A   1      35.754  32.027  30.217  1.00  0.00     0.010 A 
ATOM     44  C   UNL A   1      36.909  32.342  29.491  1.00  0.00    -0.014 A 
BRANCH  44  45
ATOM     45  C   UNL A   1      38.227  31.855  29.961  1.00  0.00     0.031 A 
ATOM     46  C   UNL A   1      38.791  30.566  29.428  1.00  0.00     0.074 A 
ATOM     47  C   UNL A   1      38.893  32.549  30.903  1.00  0.00     0.049 A 
ATOM     48  N   UNL A   1      39.922  29.976  29.726  1.00  0.00    -0.248 NA
ATOM     49  C   UNL A   1      37.967  29.825  28.459  1.00  0.00     0.031 C 
ATOM     50  C   UNL A   1      38.421  33.777  31.547  1.00  0.00     0.029 A 
ATOM     51  N   UNL A   1      40.115  32.319  31.479  1.00  0.00    -0.354 N 
ATOM     52  C   UNL A   1      39.928  28.788  29.007  1.00  0.00     0.074 A 
ATOM     53  C   UNL A   1      38.672  28.715  28.295  1.00  0.00     0.031 C 
ATOM     54  C   UNL A   1      39.362  34.213  32.402  1.00  0.00     0.029 A 
ATOM     55  C   UNL A   1      40.487  33.285  32.382  1.00  0.00     0.049 A 
ATOM     56  H   UNL A   1      40.673  31.536  31.266  1.00  0.00     0.167 HD
ATOM     57  C   UNL A   1      40.901  27.850  28.925  1.00  0.00     0.031 A 
ATOM     58  C   UNL A   1      41.616  33.415  33.100  1.00  0.00     0.031 A 
ATOM     59  C   UNL A   1      42.166  27.938  29.602  1.00  0.00     0.049 A 
ATOM     60  C   UNL A   1      42.707  32.397  32.943  1.00  0.00     0.074 A 
ATOM     61  C   UNL A   1      43.246  27.077  29.529  1.00  0.00     0.029 A 
ATOM     62  N   UNL A   1      42.521  28.957  30.472  1.00  0.00    -0.354 N 
ATOM     63  N   UNL A   1      42.728  31.318  32.200  1.00  0.00    -0.248 NA
ATOM     64  C   UNL A   1      43.940  32.629  33.709  1.00  0.00     0.031 C 
ATOM     65  C   UNL A   1      44.247  27.562  30.379  1.00  0.00     0.029 A 
ATOM     66  C   UNL A   1      43.802  28.743  30.949  1.00  0.00     0.049 A 
ATOM     67  H   UNL A   1      41.948  29.720  30.713  1.00  0.00     0.167 HD
ATOM     68  C   UNL A   1      43.981  30.752  32.392  1.00  0.00     0.074 A 
ATOM     69  C   UNL A   1      44.698  31.618  33.305  1.00  0.00     0.031 C 
ATOM     70  C   UNL A   1      44.494  29.616  31.860  1.00  0.00     0.031 A 
BRANCH  57  71
ATOM     71  C   UNL A   1      40.628  26.650  28.065  1.00  0.00    -0.014 A 
ATOM     72  C   UNL A   1      39.944  25.533  28.572  1.00  0.00     0.009 A 
ATOM     73  C   UNL A   1      41.041  26.642  26.723  1.00  0.00     0.009 A 
ATOM     74  C   UNL A   1      39.714  24.419  27.764  1.00  0.00     0.001 A 
ATOM     75  C   UNL A   1      40.786  25.536  25.911  1.00  0.00     0.001 A 
ATOM     76  C   UNL A   1      40.131  24.422  26.434  1.00  0.00     0.000 A 
ENDBRANCH  57  71
BRANCH  58  77
ATOM     77  C   UNL A   1      41.791  34.584  33.999  1.00  0.00    -0.014 A 
ATOM     78  C   UNL A   1      41.371  34.516  35.336  1.00  0.00     0.009 A 
ATOM     79  C   UNL A   1      42.379  35.766  33.527  1.00  0.00     0.009 A 
ATOM     80  C   UNL A   1      41.514  35.622  36.177  1.00  0.00     0.001 A 
ATOM     81  C   UNL A   1      42.542  36.862  34.377  1.00  0.00     0.001 A 
ATOM     82  C   UNL A   1      42.102  36.792  35.697  1.00  0.00     0.000 A 
ENDBRANCH  58  77
BRANCH  70  83
ATOM     83  C   UNL A   1      45.902  29.266  32.241  1.00  0.00    -0.014 A 
ATOM     84  C   UNL A   1      46.173  28.479  33.371  1.00  0.00     0.009 A 
ATOM     85  C   UNL A   1      46.968  29.716  31.449  1.00  0.00     0.009 A 
ATOM     86  C   UNL A   1      47.491  28.182  33.721  1.00  0.00     0.001 A 
ATOM     87  C   UNL A   1      48.283  29.397  31.788  1.00  0.00     0.001 A 
ATOM     88  C   UNL A   1      48.544  28.639  32.929  1.00  0.00     0.000 A 
ENDBRANCH  70  83
ENDBRANCH  44  45
ENDBRANCH  36  39
ENDBRANCH  34  35
ENDBRANCH  33  34
ENDBRANCH   1  33
TORSDOF 14
ENDMDL
