MODEL 1
REMARK VINA RESULT:     -10.6      0.000      0.000
REMARK SMILES CC[C@H](C(=O)NCCCNC(=O)c1ccc(-c2c3nc(c(-c4ccccc4)c4ccc([nH]4)c(-c4ccccc4)c4nc(c(-c5ccccc5)c5ccc2[nH]5)C=C4)C=C3)cc1)C(=O)c1ccc(OC)cc1
REMARK SMILES IDX 7 1 6 2 4 3 5 4 3 6 2 7 1 8 61 9 62 10 63 11 64 12 70 13
REMARK SMILES IDX 65 14 69 15 66 16 67 17 68 18 8 19 9 20 10 21 11 22 12 24
REMARK SMILES IDX 13 25 14 26 60 27 15 28 59 29 16 30 17 31 18 32 53 33 19 34
REMARK SMILES IDX 58 35 52 36 54 37 20 38 57 39 51 40 50 41 21 43 43 44 28 45
REMARK SMILES IDX 42 46 29 47 32 48 41 49 55 50 30 51 31 52 40 54 56 55 33 56
REMARK SMILES IDX 22 57 23 58 27 59 24 60 26 61 25 62 44 63 45 64 49 65 46 66
REMARK SMILES IDX 48 67 47 68 34 69 35 70 39 71 36 72 38 73 37 74
REMARK H PARENT 6 5 10 23 54 42 32 53
REMARK Flexibility Score: inf
ROOT
ATOM      1  C   UNL A   1      36.130  21.687  25.154  1.00  0.00     0.117 C 
ENDROOT
BRANCH   1   2
ATOM      2  N   UNL A   1      35.614  22.428  24.027  1.00  0.00    -0.355 N 
ATOM      3  C   UNL A   1      34.363  22.717  23.618  1.00  0.00     0.230 C 
ATOM      4  O   UNL A   1      34.316  23.410  22.592  1.00  0.00    -0.274 OA
ATOM      5  H   UNL A   1      36.316  22.795  23.441  1.00  0.00     0.163 HD
BRANCH   3   6
ATOM      6  C   UNL A   1      33.079  22.188  24.244  1.00  0.00     0.150 C 
BRANCH   6   7
ATOM      7  C   UNL A   1      31.927  23.051  24.797  1.00  0.00     0.018 C 
ATOM      8  C   UNL A   1      31.227  22.634  26.079  1.00  0.00     0.005 C 
ENDBRANCH   6   7
BRANCH   6   9
ATOM      9  C   UNL A   1      32.465  21.055  23.413  1.00  0.00     0.175 C 
ATOM     10  O   UNL A   1      31.924  21.283  22.329  1.00  0.00    -0.293 OA
BRANCH   9  11
ATOM     11  C   UNL A   1      32.678  19.631  23.807  1.00  0.00     0.019 A 
ATOM     12  C   UNL A   1      32.708  18.680  22.782  1.00  0.00     0.015 A 
ATOM     13  C   UNL A   1      32.838  19.211  25.129  1.00  0.00     0.015 A 
ATOM     14  C   UNL A   1      32.932  17.333  23.080  1.00  0.00     0.047 A 
ATOM     15  C   UNL A   1      33.051  17.859  25.424  1.00  0.00     0.047 A 
ATOM     16  C   UNL A   1      33.111  16.915  24.401  1.00  0.00     0.118 A 
BRANCH  16  17
ATOM     17  O   UNL A   1      33.327  15.575  24.558  1.00  0.00    -0.497 OA
ATOM     18  C   UNL A   1      32.594  14.925  25.590  1.00  0.00     0.278 C 
ENDBRANCH  16  17
ENDBRANCH   9  11
ENDBRANCH   6   9
ENDBRANCH   3   6
ENDBRANCH   1   2
BRANCH   1  19
ATOM     19  C   UNL A   1      37.324  20.815  24.792  1.00  0.00     0.042 C 
BRANCH  19  20
ATOM     20  C   UNL A   1      38.552  21.040  25.671  1.00  0.00     0.118 C 
BRANCH  20  21
ATOM     21  N   UNL A   1      39.504  19.935  25.660  1.00  0.00    -0.352 N 
ATOM     22  C   UNL A   1      40.832  19.865  26.022  1.00  0.00     0.251 C 
ATOM     23  H   UNL A   1      39.129  19.084  25.336  1.00  0.00     0.163 HD
ATOM     24  O   UNL A   1      41.457  18.833  25.820  1.00  0.00    -0.269 OA
BRANCH  22  25
ATOM     25  C   UNL A   1      41.524  21.041  26.597  1.00  0.00     0.039 A 
ATOM     26  C   UNL A   1      42.029  22.015  25.732  1.00  0.00     0.014 A 
ATOM     27  C   UNL A   1      41.663  21.205  27.973  1.00  0.00     0.014 A 
ATOM     28  C   UNL A   1      42.548  23.205  26.251  1.00  0.00     0.010 A 
ATOM     29  C   UNL A   1      42.060  22.434  28.486  1.00  0.00     0.010 A 
ATOM     30  C   UNL A   1      42.494  23.457  27.631  1.00  0.00    -0.014 A 
BRANCH  30  31
ATOM     31  C   UNL A   1      42.845  24.783  28.203  1.00  0.00     0.031 A 
ATOM     32  C   UNL A   1      41.784  25.827  28.419  1.00  0.00     0.074 A 
ATOM     33  C   UNL A   1      44.139  25.089  28.428  1.00  0.00     0.049 A 
ATOM     34  N   UNL A   1      41.916  27.077  28.788  1.00  0.00    -0.248 NA
ATOM     35  C   UNL A   1      40.394  25.428  28.147  1.00  0.00     0.031 C 
ATOM     36  C   UNL A   1      45.278  24.193  28.208  1.00  0.00     0.029 A 
ATOM     37  N   UNL A   1      44.718  26.249  28.882  1.00  0.00    -0.354 N 
ATOM     38  C   UNL A   1      40.637  27.617  28.757  1.00  0.00     0.074 A 
ATOM     39  C   UNL A   1      39.751  26.576  28.283  1.00  0.00     0.031 C 
ATOM     40  C   UNL A   1      46.408  24.819  28.568  1.00  0.00     0.029 A 
ATOM     41  C   UNL A   1      46.085  26.177  28.991  1.00  0.00     0.049 A 
ATOM     42  H   UNL A   1      44.200  27.056  29.107  1.00  0.00     0.167 HD
ATOM     43  C   UNL A   1      40.229  28.859  29.111  1.00  0.00     0.031 A 
ATOM     44  C   UNL A   1      46.984  27.100  29.379  1.00  0.00     0.031 A 
ATOM     45  C   UNL A   1      41.103  29.886  29.611  1.00  0.00     0.049 A 
ATOM     46  C   UNL A   1      46.510  28.472  29.764  1.00  0.00     0.074 A 
ATOM     47  C   UNL A   1      40.773  31.148  30.077  1.00  0.00     0.029 A 
ATOM     48  N   UNL A   1      42.479  29.769  29.710  1.00  0.00    -0.354 N 
ATOM     49  N   UNL A   1      45.288  28.944  29.795  1.00  0.00    -0.248 NA
ATOM     50  C   UNL A   1      47.542  29.438  30.168  1.00  0.00     0.031 C 
ATOM     51  C   UNL A   1      41.958  31.811  30.412  1.00  0.00     0.029 A 
ATOM     52  C   UNL A   1      43.021  30.946  30.201  1.00  0.00     0.049 A 
ATOM     53  H   UNL A   1      42.998  28.967  29.467  1.00  0.00     0.167 HD
ATOM     54  C   UNL A   1      45.400  30.255  30.235  1.00  0.00     0.074 A 
ATOM     55  C   UNL A   1      46.809  30.498  30.477  1.00  0.00     0.031 C 
ATOM     56  C   UNL A   1      44.424  31.175  30.422  1.00  0.00     0.031 A 
BRANCH  43  57
ATOM     57  C   UNL A   1      38.765  29.170  28.961  1.00  0.00    -0.014 A 
ATOM     58  C   UNL A   1      38.229  29.579  27.728  1.00  0.00     0.009 A 
ATOM     59  C   UNL A   1      37.906  29.044  30.064  1.00  0.00     0.009 A 
ATOM     60  C   UNL A   1      36.877  29.906  27.617  1.00  0.00     0.001 A 
ATOM     61  C   UNL A   1      36.548  29.341  29.942  1.00  0.00     0.001 A 
ATOM     62  C   UNL A   1      36.036  29.784  28.723  1.00  0.00     0.000 A 
ENDBRANCH  43  57
BRANCH  44  63
ATOM     63  C   UNL A   1      48.426  26.748  29.444  1.00  0.00    -0.014 A 
ATOM     64  C   UNL A   1      49.261  26.997  28.343  1.00  0.00     0.009 A 
ATOM     65  C   UNL A   1      48.979  26.183  30.603  1.00  0.00     0.009 A 
ATOM     66  C   UNL A   1      50.617  26.670  28.397  1.00  0.00     0.001 A 
ATOM     67  C   UNL A   1      50.341  25.881  30.662  1.00  0.00     0.001 A 
ATOM     68  C   UNL A   1      51.157  26.119  29.558  1.00  0.00     0.000 A 
ENDBRANCH  44  63
BRANCH  56  69
ATOM     69  C   UNL A   1      44.845  32.527  30.922  1.00  0.00    -0.014 A 
ATOM     70  C   UNL A   1      45.143  33.569  30.029  1.00  0.00     0.009 A 
ATOM     71  C   UNL A   1      44.904  32.774  32.302  1.00  0.00     0.009 A 
ATOM     72  C   UNL A   1      45.518  34.824  30.511  1.00  0.00     0.001 A 
ATOM     73  C   UNL A   1      45.254  34.037  32.780  1.00  0.00     0.001 A 
ATOM     74  C   UNL A   1      45.568  35.059  31.884  1.00  0.00     0.000 A 
ENDBRANCH  56  69
ENDBRANCH  30  31
ENDBRANCH  22  25
ENDBRANCH  20  21
ENDBRANCH  19  20
ENDBRANCH   1  19
TORSDOF 14
ENDMDL
MODEL 2
REMARK VINA RESULT:     -10.4      2.803      7.613
REMARK SMILES CC[C@H](C(=O)NCCCNC(=O)c1ccc(-c2c3nc(c(-c4ccccc4)c4ccc([nH]4)c(-c4ccccc4)c4nc(c(-c5ccccc5)c5ccc2[nH]5)C=C4)C=C3)cc1)C(=O)c1ccc(OC)cc1
REMARK SMILES IDX 7 1 6 2 4 3 5 4 3 6 2 7 1 8 61 9 62 10 63 11 64 12 70 13
REMARK SMILES IDX 65 14 69 15 66 16 67 17 68 18 8 19 9 20 10 21 11 22 12 24
REMARK SMILES IDX 13 25 14 26 60 27 15 28 59 29 16 30 17 31 18 32 53 33 19 34
REMARK SMILES IDX 58 35 52 36 54 37 20 38 57 39 51 40 50 41 21 43 43 44 28 45
REMARK SMILES IDX 42 46 29 47 32 48 41 49 55 50 30 51 31 52 40 54 56 55 33 56
REMARK SMILES IDX 22 57 23 58 27 59 24 60 26 61 25 62 44 63 45 64 49 65 46 66
REMARK SMILES IDX 48 67 47 68 34 69 35 70 39 71 36 72 38 73 37 74
REMARK H PARENT 6 5 10 23 54 42 32 53
REMARK Flexibility Score: inf
ROOT
ATOM      1  C   UNL A   1      31.937  29.822  25.308  1.00  0.00     0.117 C 
ENDROOT
BRANCH   1   2
ATOM      2  N   UNL A   1      33.009  29.621  24.361  1.00  0.00    -0.355 N 
ATOM      3  C   UNL A   1      33.263  28.651  23.459  1.00  0.00     0.230 C 
ATOM      4  O   UNL A   1      34.294  28.837  22.798  1.00  0.00    -0.274 OA
ATOM      5  H   UNL A   1      33.691  30.332  24.379  1.00  0.00     0.163 HD
BRANCH   3   6
ATOM      6  C   UNL A   1      32.463  27.366  23.287  1.00  0.00     0.150 C 
BRANCH   6   7
ATOM      7  C   UNL A   1      31.066  27.258  22.643  1.00  0.00     0.018 C 
ATOM      8  C   UNL A   1      29.834  27.204  23.529  1.00  0.00     0.005 C 
ENDBRANCH   6   7
BRANCH   6   9
ATOM      9  C   UNL A   1      33.328  26.226  22.739  1.00  0.00     0.175 C 
ATOM     10  O   UNL A   1      33.731  26.239  21.574  1.00  0.00    -0.293 OA
BRANCH   9  11
ATOM     11  C   UNL A   1      33.857  25.174  23.655  1.00  0.00     0.019 A 
ATOM     12  C   UNL A   1      33.817  25.439  25.028  1.00  0.00     0.015 A 
ATOM     13  C   UNL A   1      34.390  23.961  23.212  1.00  0.00     0.015 A 
ATOM     14  C   UNL A   1      34.271  24.485  25.942  1.00  0.00     0.047 A 
ATOM     15  C   UNL A   1      34.855  23.012  24.131  1.00  0.00     0.047 A 
ATOM     16  C   UNL A   1      34.787  23.265  25.500  1.00  0.00     0.118 A 
BRANCH  16  17
ATOM     17  O   UNL A   1      35.191  22.417  26.493  1.00  0.00    -0.497 OA
ATOM     18  C   UNL A   1      34.168  21.720  27.195  1.00  0.00     0.278 C 
ENDBRANCH  16  17
ENDBRANCH   9  11
ENDBRANCH   6   9
ENDBRANCH   3   6
ENDBRANCH   1   2
BRANCH   1  19
ATOM     19  C   UNL A   1      32.119  29.018  26.587  1.00  0.00     0.042 C 
BRANCH  19  20
ATOM     20  C   UNL A   1      33.488  29.187  27.243  1.00  0.00     0.118 C 
BRANCH  20  21
ATOM     21  N   UNL A   1      33.669  30.462  27.926  1.00  0.00    -0.352 N 
ATOM     22  C   UNL A   1      34.750  31.004  28.587  1.00  0.00     0.251 C 
ATOM     23  H   UNL A   1      32.873  31.042  27.912  1.00  0.00     0.163 HD
ATOM     24  O   UNL A   1      34.623  32.066  29.181  1.00  0.00    -0.269 OA
BRANCH  22  25
ATOM     25  C   UNL A   1      36.045  30.288  28.635  1.00  0.00     0.039 A 
ATOM     26  C   UNL A   1      36.881  30.330  27.516  1.00  0.00     0.014 A 
ATOM     27  C   UNL A   1      36.454  29.596  29.773  1.00  0.00     0.014 A 
ATOM     28  C   UNL A   1      38.170  29.795  27.590  1.00  0.00     0.010 A 
ATOM     29  C   UNL A   1      37.775  29.177  29.889  1.00  0.00     0.010 A 
ATOM     30  C   UNL A   1      38.655  29.285  28.804  1.00  0.00    -0.014 A 
BRANCH  30  31
ATOM     31  C   UNL A   1      40.079  28.894  28.981  1.00  0.00     0.031 A 
ATOM     32  C   UNL A   1      40.554  27.529  28.564  1.00  0.00     0.074 A 
ATOM     33  C   UNL A   1      40.924  29.730  29.618  1.00  0.00     0.049 A 
ATOM     34  N   UNL A   1      41.722  26.967  28.753  1.00  0.00    -0.248 NA
ATOM     35  C   UNL A   1      39.578  26.666  27.880  1.00  0.00     0.031 C 
ATOM     36  C   UNL A   1      40.582  31.062  30.127  1.00  0.00     0.029 A 
ATOM     37  N   UNL A   1      42.245  29.577  29.958  1.00  0.00    -0.354 N 
ATOM     38  C   UNL A   1      41.607  25.679  28.245  1.00  0.00     0.074 A 
ATOM     39  C   UNL A   1      40.243  25.525  27.790  1.00  0.00     0.031 C 
ATOM     40  C   UNL A   1      41.675  31.618  30.673  1.00  0.00     0.029 A 
ATOM     41  C   UNL A   1      42.778  30.666  30.604  1.00  0.00     0.049 A 
ATOM     42  H   UNL A   1      42.762  28.763  29.758  1.00  0.00     0.167 HD
ATOM     43  C   UNL A   1      42.555  24.716  28.145  1.00  0.00     0.031 A 
ATOM     44  C   UNL A   1      44.013  30.878  31.095  1.00  0.00     0.031 A 
ATOM     45  C   UNL A   1      43.919  24.877  28.570  1.00  0.00     0.049 A 
ATOM     46  C   UNL A   1      45.047  29.795  30.977  1.00  0.00     0.074 A 
ATOM     47  C   UNL A   1      44.974  23.991  28.434  1.00  0.00     0.029 A 
ATOM     48  N   UNL A   1      44.416  25.997  29.214  1.00  0.00    -0.354 N 
ATOM     49  N   UNL A   1      44.939  28.609  30.431  1.00  0.00    -0.248 NA
ATOM     50  C   UNL A   1      46.372  30.084  31.543  1.00  0.00     0.031 C 
ATOM     51  C   UNL A   1      46.100  24.559  29.040  1.00  0.00     0.029 A 
ATOM     52  C   UNL A   1      45.757  25.817  29.511  1.00  0.00     0.049 A 
ATOM     53  H   UNL A   1      43.894  26.804  29.430  1.00  0.00     0.167 HD
ATOM     54  C   UNL A   1      46.185  28.014  30.574  1.00  0.00     0.074 A 
ATOM     55  C   UNL A   1      47.038  28.978  31.241  1.00  0.00     0.031 C 
ATOM     56  C   UNL A   1      46.587  26.779  30.187  1.00  0.00     0.031 A 
BRANCH  43  57
ATOM     57  C   UNL A   1      42.135  23.398  27.554  1.00  0.00    -0.014 A 
ATOM     58  C   UNL A   1      41.513  22.413  28.339  1.00  0.00     0.009 A 
ATOM     59  C   UNL A   1      42.356  23.140  26.193  1.00  0.00     0.009 A 
ATOM     60  C   UNL A   1      41.169  21.178  27.785  1.00  0.00     0.001 A 
ATOM     61  C   UNL A   1      41.983  21.916  25.634  1.00  0.00     0.001 A 
ATOM     62  C   UNL A   1      41.401  20.932  26.432  1.00  0.00     0.000 A 
ENDBRANCH  43  57
BRANCH  44  63
ATOM     63  C   UNL A   1      44.345  32.181  31.727  1.00  0.00    -0.014 A 
ATOM     64  C   UNL A   1      44.202  32.348  33.113  1.00  0.00     0.009 A 
ATOM     65  C   UNL A   1      44.822  33.253  30.959  1.00  0.00     0.009 A 
ATOM     66  C   UNL A   1      44.514  33.569  33.714  1.00  0.00     0.001 A 
ATOM     67  C   UNL A   1      45.157  34.465  31.566  1.00  0.00     0.001 A 
ATOM     68  C   UNL A   1      44.997  34.624  32.942  1.00  0.00     0.000 A 
ENDBRANCH  44  63
BRANCH  56  69
ATOM     69  C   UNL A   1      48.014  26.405  30.466  1.00  0.00    -0.014 A 
ATOM     70  C   UNL A   1      48.372  25.758  31.660  1.00  0.00     0.009 A 
ATOM     71  C   UNL A   1      49.004  26.666  29.508  1.00  0.00     0.009 A 
ATOM     72  C   UNL A   1      49.701  25.403  31.897  1.00  0.00     0.001 A 
ATOM     73  C   UNL A   1      50.327  26.287  29.737  1.00  0.00     0.001 A 
ATOM     74  C   UNL A   1      50.676  25.662  30.934  1.00  0.00     0.000 A 
ENDBRANCH  56  69
ENDBRANCH  30  31
ENDBRANCH  22  25
ENDBRANCH  20  21
ENDBRANCH  19  20
ENDBRANCH   1  19
TORSDOF 14
ENDMDL
MODEL 3
REMARK VINA RESULT:     -10.4      0.867      6.160
REMARK SMILES CC[C@H](C(=O)NCCCNC(=O)c1ccc(-c2c3nc(c(-c4ccccc4)c4ccc([nH]4)c(-c4ccccc4)c4nc(c(-c5ccccc5)c5ccc2[nH]5)C=C4)C=C3)cc1)C(=O)c1ccc(OC)cc1
REMARK SMILES IDX 7 1 6 2 4 3 5 4 3 6 2 7 1 8 61 9 62 10 63 11 64 12 70 13
REMARK SMILES IDX 65 14 69 15 66 16 67 17 68 18 8 19 9 20 10 21 11 22 12 24
REMARK SMILES IDX 13 25 14 26 60 27 15 28 59 29 16 30 17 31 18 32 53 33 19 34
REMARK SMILES IDX 58 35 52 36 54 37 20 38 57 39 51 40 50 41 21 43 43 44 28 45
REMARK SMILES IDX 42 46 29 47 32 48 41 49 55 50 30 51 31 52 40 54 56 55 33 56
REMARK SMILES IDX 22 57 23 58 27 59 24 60 26 61 25 62 44 63 45 64 49 65 46 66
REMARK SMILES IDX 48 67 47 68 34 69 35 70 39 71 36 72 38 73 37 74
REMARK H PARENT 6 5 10 23 54 42 32 53
REMARK Flexibility Score: inf
ROOT
ATOM      1  C   UNL A   1      36.950  22.675  24.300  1.00  0.00     0.117 C 
ENDROOT
BRANCH   1   2
ATOM      2  N   UNL A   1      35.735  22.742  23.522  1.00  0.00    -0.355 N 
ATOM      3  C   UNL A   1      34.437  22.563  23.837  1.00  0.00     0.230 C 
ATOM      4  O   UNL A   1      33.661  22.727  22.885  1.00  0.00    -0.274 OA
ATOM      5  H   UNL A   1      35.886  22.961  22.573  1.00  0.00     0.163 HD
BRANCH   3   6
ATOM      6  C   UNL A   1      33.905  22.096  25.186  1.00  0.00     0.150 C 
BRANCH   6   7
ATOM      7  C   UNL A   1      33.726  22.982  26.435  1.00  0.00     0.018 C 
ATOM      8  C   UNL A   1      33.504  22.331  27.790  1.00  0.00     0.005 C 
ENDBRANCH   6   7
BRANCH   6   9
ATOM      9  C   UNL A   1      32.650  21.230  25.036  1.00  0.00     0.175 C 
ATOM     10  O   UNL A   1      31.528  21.741  24.988  1.00  0.00    -0.293 OA
BRANCH   9  11
ATOM     11  C   UNL A   1      32.771  19.770  24.751  1.00  0.00     0.019 A 
ATOM     12  C   UNL A   1      32.972  18.919  25.843  1.00  0.00     0.015 A 
ATOM     13  C   UNL A   1      32.700  19.225  23.468  1.00  0.00     0.015 A 
ATOM     14  C   UNL A   1      33.066  17.538  25.649  1.00  0.00     0.047 A 
ATOM     15  C   UNL A   1      32.806  17.842  23.277  1.00  0.00     0.047 A 
ATOM     16  C   UNL A   1      32.978  16.991  24.367  1.00  0.00     0.118 A 
BRANCH  16  17
ATOM     17  O   UNL A   1      33.078  15.629  24.313  1.00  0.00    -0.497 OA
ATOM     18  C   UNL A   1      32.630  14.909  25.455  1.00  0.00     0.278 C 
ENDBRANCH  16  17
ENDBRANCH   9  11
ENDBRANCH   6   9
ENDBRANCH   3   6
ENDBRANCH   1   2
BRANCH   1  19
ATOM     19  C   UNL A   1      37.417  21.247  24.545  1.00  0.00     0.042 C 
BRANCH  19  20
ATOM     20  C   UNL A   1      38.276  21.076  25.796  1.00  0.00     0.118 C 
BRANCH  20  21
ATOM     21  N   UNL A   1      39.272  20.017  25.696  1.00  0.00    -0.352 N 
ATOM     22  C   UNL A   1      40.617  19.990  25.995  1.00  0.00     0.251 C 
ATOM     23  H   UNL A   1      38.919  19.164  25.352  1.00  0.00     0.163 HD
ATOM     24  O   UNL A   1      41.276  18.997  25.721  1.00  0.00    -0.269 OA
BRANCH  22  25
ATOM     25  C   UNL A   1      41.284  21.171  26.590  1.00  0.00     0.039 A 
ATOM     26  C   UNL A   1      41.914  22.087  25.743  1.00  0.00     0.014 A 
ATOM     27  C   UNL A   1      41.279  21.396  27.964  1.00  0.00     0.014 A 
ATOM     28  C   UNL A   1      42.415  23.284  26.263  1.00  0.00     0.010 A 
ATOM     29  C   UNL A   1      41.662  22.636  28.463  1.00  0.00     0.010 A 
ATOM     30  C   UNL A   1      42.222  23.603  27.616  1.00  0.00    -0.014 A 
BRANCH  30  31
ATOM     31  C   UNL A   1      42.556  24.944  28.164  1.00  0.00     0.031 A 
ATOM     32  C   UNL A   1      43.957  25.259  28.612  1.00  0.00     0.074 A 
ATOM     33  C   UNL A   1      41.573  25.846  28.361  1.00  0.00     0.049 A 
ATOM     34  N   UNL A   1      44.409  26.323  29.228  1.00  0.00    -0.248 NA
ATOM     35  C   UNL A   1      44.979  24.226  28.374  1.00  0.00     0.031 C 
ATOM     36  C   UNL A   1      40.159  25.652  28.026  1.00  0.00     0.029 A 
ATOM     37  N   UNL A   1      41.612  27.106  28.903  1.00  0.00    -0.354 N 
ATOM     38  C   UNL A   1      45.751  26.072  29.479  1.00  0.00     0.074 A 
ATOM     39  C   UNL A   1      46.028  24.736  28.999  1.00  0.00     0.031 C 
ATOM     40  C   UNL A   1      39.477  26.767  28.330  1.00  0.00     0.029 A 
ATOM     41  C   UNL A   1      40.390  27.733  28.930  1.00  0.00     0.049 A 
ATOM     42  H   UNL A   1      42.438  27.521  29.243  1.00  0.00     0.167 HD
ATOM     43  C   UNL A   1      46.679  26.885  30.039  1.00  0.00     0.031 A 
ATOM     44  C   UNL A   1      40.036  28.947  29.392  1.00  0.00     0.031 A 
ATOM     45  C   UNL A   1      46.413  28.224  30.491  1.00  0.00     0.049 A 
ATOM     46  C   UNL A   1      41.079  29.830  30.013  1.00  0.00     0.074 A 
ATOM     47  C   UNL A   1      47.304  29.157  30.994  1.00  0.00     0.029 A 
ATOM     48  N   UNL A   1      45.163  28.821  30.494  1.00  0.00    -0.354 N 
ATOM     49  N   UNL A   1      42.359  29.603  30.179  1.00  0.00    -0.248 NA
ATOM     50  C   UNL A   1      40.627  31.138  30.509  1.00  0.00     0.031 C 
ATOM     51  C   UNL A   1      46.583  30.303  31.347  1.00  0.00     0.029 A 
ATOM     52  C   UNL A   1      45.251  30.100  31.019  1.00  0.00     0.049 A 
ATOM     53  H   UNL A   1      44.334  28.399  30.172  1.00  0.00     0.167 HD
ATOM     54  C   UNL A   1      42.869  30.744  30.785  1.00  0.00     0.074 A 
ATOM     55  C   UNL A   1      41.764  31.668  30.939  1.00  0.00     0.031 C 
ATOM     56  C   UNL A   1      44.140  31.001  31.178  1.00  0.00     0.031 A 
BRANCH  43  57
ATOM     57  C   UNL A   1      48.070  26.334  30.197  1.00  0.00    -0.014 A 
ATOM     58  C   UNL A   1      48.993  26.374  29.139  1.00  0.00     0.009 A 
ATOM     59  C   UNL A   1      48.466  25.774  31.421  1.00  0.00     0.009 A 
ATOM     60  C   UNL A   1      50.266  25.818  29.288  1.00  0.00     0.001 A 
ATOM     61  C   UNL A   1      49.749  25.248  31.577  1.00  0.00     0.001 A 
ATOM     62  C   UNL A   1      50.644  25.259  30.508  1.00  0.00     0.000 A 
ENDBRANCH  43  57
BRANCH  44  63
ATOM     63  C   UNL A   1      38.629  29.406  29.265  1.00  0.00    -0.014 A 
ATOM     64  C   UNL A   1      38.183  29.985  28.067  1.00  0.00     0.009 A 
ATOM     65  C   UNL A   1      37.722  29.253  30.325  1.00  0.00     0.009 A 
ATOM     66  C   UNL A   1      36.861  30.417  27.941  1.00  0.00     0.001 A 
ATOM     67  C   UNL A   1      36.395  29.664  30.186  1.00  0.00     0.001 A 
ATOM     68  C   UNL A   1      35.967  30.251  28.997  1.00  0.00     0.000 A 
ENDBRANCH  44  63
BRANCH  56  69
ATOM     69  C   UNL A   1      44.404  32.340  31.803  1.00  0.00    -0.014 A 
ATOM     70  C   UNL A   1      44.732  33.454  31.015  1.00  0.00     0.009 A 
ATOM     71  C   UNL A   1      44.283  32.499  33.192  1.00  0.00     0.009 A 
ATOM     72  C   UNL A   1      44.959  34.696  31.610  1.00  0.00     0.001 A 
ATOM     73  C   UNL A   1      44.485  33.747  33.781  1.00  0.00     0.001 A 
ATOM     74  C   UNL A   1      44.830  34.844  32.991  1.00  0.00     0.000 A 
ENDBRANCH  56  69
ENDBRANCH  30  31
ENDBRANCH  22  25
ENDBRANCH  20  21
ENDBRANCH  19  20
ENDBRANCH   1  19
TORSDOF 14
ENDMDL
