MODEL 1
REMARK VINA RESULT:     -12.0      0.000      0.000
REMARK SMILES COC(=O)c1c(-c2ccccc2Cl)csc1NC(=O)[C@@H]1[C@@H]2CC[C@@H](C2)[C@@H]1C(=O)NCCCNC(=O)c1ccc(-c2c3nc(c(-c4ccccc4)c4ccc([nH]4)c(-c4ccccc4)c4nc(c(-c5ccccc5)c5ccc2[nH]5)C=C4)C=C3)cc1
REMARK SMILES IDX 30 1 29 2 27 3 28 4 26 6 20 7 21 8 22 9 25 10 24 11 23 12
REMARK SMILES IDX 18 13 17 14 19 16 16 17 5 18 6 19 14 20 15 21 3 22 4 23 2 24
REMARK SMILES IDX 1 25 7 26 8 27 12 28 9 29 11 30 13 31 10 32 31 33 32 34
REMARK SMILES IDX 33 35 34 36 35 38 36 39 37 40 83 41 38 42 82 43 39 44 40 45
REMARK SMILES IDX 41 46 76 47 42 48 81 49 75 50 77 51 43 52 80 53 74 54 73 55
REMARK SMILES IDX 44 57 66 58 51 59 65 60 52 61 55 62 64 63 78 64 53 65 54 66
REMARK SMILES IDX 63 68 79 69 56 70 45 71 46 72 50 73 47 74 49 75 48 76 67 77
REMARK SMILES IDX 68 78 72 79 69 80 71 81 70 82 57 83 58 84 62 85 59 86 61 87
REMARK SMILES IDX 60 88
REMARK H PARENT 29 5 17 15 33 37 77 56 55 67
REMARK Flexibility Score: inf
ROOT
ATOM      1  C   UNL A   1      39.400  22.129  26.509  1.00  0.00     0.117 C 
ENDROOT
BRANCH   1   2
ATOM      2  N   UNL A   1      37.977  22.410  26.475  1.00  0.00    -0.356 N 
ATOM      3  C   UNL A   1      37.585  23.671  26.124  1.00  0.00     0.224 C 
ATOM      4  O   UNL A   1      38.173  24.671  26.540  1.00  0.00    -0.275 OA
ATOM      5  H   UNL A   1      37.317  21.715  26.698  1.00  0.00     0.163 HD
BRANCH   3   6
ATOM      6  C   UNL A   1      36.601  23.783  24.977  1.00  0.00     0.094 C 
ATOM      7  C   UNL A   1      35.062  23.911  25.026  1.00  0.00     0.094 C 
ATOM      8  C   UNL A   1      34.640  22.894  23.891  1.00  0.00     0.002 C 
ATOM      9  C   UNL A   1      34.769  21.431  24.358  1.00  0.00     0.005 C 
ATOM     10  C   UNL A   1      35.818  22.952  22.911  1.00  0.00     0.009 C 
ATOM     11  C   UNL A   1      36.838  22.603  23.990  1.00  0.00     0.002 C 
ATOM     12  C   UNL A   1      36.276  21.262  24.512  1.00  0.00     0.005 C 
BRANCH   7  13
ATOM     13  C   UNL A   1      34.200  23.727  26.276  1.00  0.00     0.229 C 
ATOM     14  N   UNL A   1      32.899  24.062  26.421  1.00  0.00    -0.317 N 
ATOM     15  H   UNL A   1      32.592  23.988  27.354  1.00  0.00     0.170 HD
ATOM     16  O   UNL A   1      34.692  23.187  27.279  1.00  0.00    -0.274 OA
BRANCH  14  17
ATOM     17  C   UNL A   1      31.903  24.483  25.572  1.00  0.00     0.110 A 
ATOM     18  C   UNL A   1      31.406  25.779  25.474  1.00  0.00     0.102 A 
ATOM     19  C   UNL A   1      30.580  25.917  24.282  1.00  0.00     0.011 A 
ATOM     20  C   UNL A   1      30.360  24.674  23.711  1.00  0.00     0.076 A 
ATOM     21  S   UNL A   1      31.031  23.396  24.619  1.00  0.00    -0.125 S 
BRANCH  18  22
ATOM     22  C   UNL A   1      31.813  26.826  26.412  1.00  0.00     0.341 C 
ATOM     23  O   UNL A   1      31.026  27.348  27.202  1.00  0.00    -0.246 OA
BRANCH  22  24
ATOM     24  O   UNL A   1      33.119  27.185  26.291  1.00  0.00    -0.465 OA
ATOM     25  C   UNL A   1      33.418  28.498  26.768  1.00  0.00     0.282 C 
ENDBRANCH  22  24
ENDBRANCH  18  22
BRANCH  19  26
ATOM     26  C   UNL A   1      30.170  27.153  23.584  1.00  0.00     0.002 A 
ATOM     27  C   UNL A   1      28.793  27.453  23.521  1.00  0.00     0.010 A 
ATOM     28  C   UNL A   1      31.061  28.096  23.039  1.00  0.00     0.048 A 
ATOM     29  C   UNL A   1      28.320  28.648  22.974  1.00  0.00     0.001 A 
ATOM     30  C   UNL A   1      30.584  29.310  22.519  1.00  0.00     0.021 A 
ATOM     31  Cl  UNL A   1      32.770  27.836  22.918  1.00  0.00    -0.084 Cl
ATOM     32  C   UNL A   1      29.219  29.588  22.491  1.00  0.00     0.002 A 
ENDBRANCH  19  26
ENDBRANCH  14  17
ENDBRANCH   7  13
ENDBRANCH   3   6
ENDBRANCH   1   2
BRANCH   1  33
ATOM     33  C   UNL A   1      39.817  20.841  25.828  1.00  0.00     0.042 C 
BRANCH  33  34
ATOM     34  C   UNL A   1      40.757  20.033  26.701  1.00  0.00     0.118 C 
BRANCH  34  35
ATOM     35  N   UNL A   1      42.019  19.730  26.036  1.00  0.00    -0.352 N 
ATOM     36  C   UNL A   1      43.045  20.551  25.637  1.00  0.00     0.251 C 
ATOM     37  H   UNL A   1      42.161  18.775  25.841  1.00  0.00     0.163 HD
ATOM     38  O   UNL A   1      43.885  20.130  24.846  1.00  0.00    -0.269 OA
BRANCH  36  39
ATOM     39  C   UNL A   1      43.141  21.938  26.137  1.00  0.00     0.039 A 
ATOM     40  C   UNL A   1      43.108  22.998  25.225  1.00  0.00     0.014 A 
ATOM     41  C   UNL A   1      43.329  22.199  27.493  1.00  0.00     0.014 A 
ATOM     42  C   UNL A   1      43.206  24.313  25.684  1.00  0.00     0.010 A 
ATOM     43  C   UNL A   1      43.319  23.507  27.962  1.00  0.00     0.010 A 
ATOM     44  C   UNL A   1      43.283  24.579  27.062  1.00  0.00    -0.014 A 
BRANCH  44  45
ATOM     45  C   UNL A   1      43.366  25.965  27.583  1.00  0.00     0.031 A 
ATOM     46  C   UNL A   1      44.708  26.616  27.786  1.00  0.00     0.074 A 
ATOM     47  C   UNL A   1      42.241  26.614  27.939  1.00  0.00     0.049 A 
ATOM     48  N   UNL A   1      44.990  27.792  28.289  1.00  0.00    -0.248 NA
ATOM     49  C   UNL A   1      45.893  25.828  27.407  1.00  0.00     0.031 C 
ATOM     50  C   UNL A   1      40.882  26.075  27.843  1.00  0.00     0.029 A 
ATOM     51  N   UNL A   1      42.065  27.871  28.457  1.00  0.00    -0.354 N 
ATOM     52  C   UNL A   1      46.377  27.867  28.316  1.00  0.00     0.074 A 
ATOM     53  C   UNL A   1      46.880  26.601  27.832  1.00  0.00     0.031 C 
ATOM     54  C   UNL A   1      40.010  27.013  28.246  1.00  0.00     0.029 A 
ATOM     55  C   UNL A   1      40.748  28.200  28.662  1.00  0.00     0.049 A 
ATOM     56  H   UNL A   1      42.811  28.480  28.661  1.00  0.00     0.167 HD
ATOM     57  C   UNL A   1      47.165  28.904  28.688  1.00  0.00     0.031 A 
ATOM     58  C   UNL A   1      40.196  29.337  29.125  1.00  0.00     0.031 A 
ATOM     59  C   UNL A   1      46.666  30.175  29.136  1.00  0.00     0.049 A 
ATOM     60  C   UNL A   1      41.087  30.485  29.501  1.00  0.00     0.074 A 
ATOM     61  C   UNL A   1      47.378  31.314  29.471  1.00  0.00     0.029 A 
ATOM     62  N   UNL A   1      45.323  30.476  29.306  1.00  0.00    -0.354 N 
ATOM     63  N   UNL A   1      42.395  30.563  29.464  1.00  0.00    -0.248 NA
ATOM     64  C   UNL A   1      40.421  31.709  29.968  1.00  0.00     0.031 C 
ATOM     65  C   UNL A   1      46.465  32.295  29.877  1.00  0.00     0.029 A 
ATOM     66  C   UNL A   1      45.184  31.779  29.752  1.00  0.00     0.049 A 
ATOM     67  H   UNL A   1      44.579  29.856  29.133  1.00  0.00     0.167 HD
ATOM     68  C   UNL A   1      42.709  31.851  29.877  1.00  0.00     0.074 A 
ATOM     69  C   UNL A   1      41.453  32.522  30.147  1.00  0.00     0.031 C 
ATOM     70  C   UNL A   1      43.927  32.428  30.017  1.00  0.00     0.031 A 
BRANCH  57  71
ATOM     71  C   UNL A   1      48.652  28.692  28.620  1.00  0.00    -0.014 A 
ATOM     72  C   UNL A   1      49.377  28.977  27.451  1.00  0.00     0.009 A 
ATOM     73  C   UNL A   1      49.338  28.197  29.739  1.00  0.00     0.009 A 
ATOM     74  C   UNL A   1      50.748  28.725  27.388  1.00  0.00     0.001 A 
ATOM     75  C   UNL A   1      50.715  27.974  29.683  1.00  0.00     0.001 A 
ATOM     76  C   UNL A   1      51.417  28.225  28.504  1.00  0.00     0.000 A 
ENDBRANCH  57  71
BRANCH  58  77
ATOM     77  C   UNL A   1      38.719  29.458  29.207  1.00  0.00    -0.014 A 
ATOM     78  C   UNL A   1      38.060  29.215  30.422  1.00  0.00     0.009 A 
ATOM     79  C   UNL A   1      37.964  29.833  28.086  1.00  0.00     0.009 A 
ATOM     80  C   UNL A   1      36.671  29.327  30.508  1.00  0.00     0.001 A 
ATOM     81  C   UNL A   1      36.577  29.967  28.182  1.00  0.00     0.001 A 
ATOM     82  C   UNL A   1      35.932  29.707  29.390  1.00  0.00     0.000 A 
ENDBRANCH  58  77
BRANCH  70  83
ATOM     83  C   UNL A   1      43.954  33.865  30.450  1.00  0.00    -0.014 A 
ATOM     84  C   UNL A   1      43.898  34.909  29.513  1.00  0.00     0.009 A 
ATOM     85  C   UNL A   1      44.010  34.177  31.817  1.00  0.00     0.009 A 
ATOM     86  C   UNL A   1      43.931  36.238  29.939  1.00  0.00     0.001 A 
ATOM     87  C   UNL A   1      44.017  35.506  32.240  1.00  0.00     0.001 A 
ATOM     88  C   UNL A   1      43.986  36.535  31.300  1.00  0.00     0.000 A 
ENDBRANCH  70  83
ENDBRANCH  44  45
ENDBRANCH  36  39
ENDBRANCH  34  35
ENDBRANCH  33  34
ENDBRANCH   1  33
TORSDOF 15
ENDMDL
MODEL 2
REMARK VINA RESULT:     -12.0      1.682      2.224
REMARK SMILES COC(=O)c1c(-c2ccccc2Cl)csc1NC(=O)[C@@H]1[C@@H]2CC[C@@H](C2)[C@@H]1C(=O)NCCCNC(=O)c1ccc(-c2c3nc(c(-c4ccccc4)c4ccc([nH]4)c(-c4ccccc4)c4nc(c(-c5ccccc5)c5ccc2[nH]5)C=C4)C=C3)cc1
REMARK SMILES IDX 30 1 29 2 27 3 28 4 26 6 20 7 21 8 22 9 25 10 24 11 23 12
REMARK SMILES IDX 18 13 17 14 19 16 16 17 5 18 6 19 14 20 15 21 3 22 4 23 2 24
REMARK SMILES IDX 1 25 7 26 8 27 12 28 9 29 11 30 13 31 10 32 31 33 32 34
REMARK SMILES IDX 33 35 34 36 35 38 36 39 37 40 83 41 38 42 82 43 39 44 40 45
REMARK SMILES IDX 41 46 76 47 42 48 81 49 75 50 77 51 43 52 80 53 74 54 73 55
REMARK SMILES IDX 44 57 66 58 51 59 65 60 52 61 55 62 64 63 78 64 53 65 54 66
REMARK SMILES IDX 63 68 79 69 56 70 45 71 46 72 50 73 47 74 49 75 48 76 67 77
REMARK SMILES IDX 68 78 72 79 69 80 71 81 70 82 57 83 58 84 62 85 59 86 61 87
REMARK SMILES IDX 60 88
REMARK H PARENT 29 5 17 15 33 37 77 56 55 67
REMARK Flexibility Score: inf
ROOT
ATOM      1  C   UNL A   1      37.249  19.648  24.623  1.00  0.00     0.117 C 
ENDROOT
BRANCH   1   2
ATOM      2  N   UNL A   1      36.309  20.455  25.378  1.00  0.00    -0.356 N 
ATOM      3  C   UNL A   1      35.903  21.639  24.829  1.00  0.00     0.224 C 
ATOM      4  O   UNL A   1      36.693  22.391  24.255  1.00  0.00    -0.275 OA
ATOM      5  H   UNL A   1      35.974  20.159  26.254  1.00  0.00     0.163 HD
BRANCH   3   6
ATOM      6  C   UNL A   1      34.408  21.849  24.691  1.00  0.00     0.094 C 
ATOM      7  C   UNL A   1      33.619  23.174  24.599  1.00  0.00     0.094 C 
ATOM      8  C   UNL A   1      32.413  22.872  25.577  1.00  0.00     0.002 C 
ATOM      9  C   UNL A   1      32.842  22.957  27.055  1.00  0.00     0.005 C 
ATOM     10  C   UNL A   1      32.231  21.355  25.452  1.00  0.00     0.009 C 
ATOM     11  C   UNL A   1      33.682  21.068  25.824  1.00  0.00     0.002 C 
ATOM     12  C   UNL A   1      33.785  21.767  27.197  1.00  0.00     0.005 C 
BRANCH   7  13
ATOM     13  C   UNL A   1      34.197  24.566  24.853  1.00  0.00     0.229 C 
ATOM     14  N   UNL A   1      33.786  25.729  24.301  1.00  0.00    -0.317 N 
ATOM     15  H   UNL A   1      34.395  26.477  24.498  1.00  0.00     0.170 HD
ATOM     16  O   UNL A   1      35.121  24.701  25.670  1.00  0.00    -0.274 OA
BRANCH  14  17
ATOM     17  C   UNL A   1      32.715  26.113  23.528  1.00  0.00     0.110 A 
ATOM     18  C   UNL A   1      31.546  26.712  23.991  1.00  0.00     0.102 A 
ATOM     19  C   UNL A   1      30.772  27.241  22.877  1.00  0.00     0.011 A 
ATOM     20  C   UNL A   1      31.314  26.812  21.676  1.00  0.00     0.076 A 
ATOM     21  S   UNL A   1      32.630  25.747  21.883  1.00  0.00    -0.125 S 
BRANCH  18  22
ATOM     22  C   UNL A   1      31.279  26.858  25.422  1.00  0.00     0.341 C 
ATOM     23  O   UNL A   1      30.341  26.290  25.980  1.00  0.00    -0.246 OA
BRANCH  22  24
ATOM     24  O   UNL A   1      32.135  27.708  26.050  1.00  0.00    -0.465 OA
ATOM     25  C   UNL A   1      31.921  29.089  25.753  1.00  0.00     0.282 C 
ENDBRANCH  22  24
ENDBRANCH  18  22
BRANCH  19  26
ATOM     26  C   UNL A   1      29.697  28.254  22.901  1.00  0.00     0.002 A 
ATOM     27  C   UNL A   1      30.000  29.554  22.446  1.00  0.00     0.010 A 
ATOM     28  C   UNL A   1      28.365  27.996  23.277  1.00  0.00     0.048 A 
ATOM     29  C   UNL A   1      29.023  30.546  22.335  1.00  0.00     0.001 A 
ATOM     30  C   UNL A   1      27.380  28.987  23.135  1.00  0.00     0.021 A 
ATOM     31  Cl  UNL A   1      27.843  26.499  23.975  1.00  0.00    -0.084 Cl
ATOM     32  C   UNL A   1      27.707  30.256  22.660  1.00  0.00     0.002 A 
ENDBRANCH  19  26
ENDBRANCH  14  17
ENDBRANCH   7  13
ENDBRANCH   3   6
ENDBRANCH   1   2
BRANCH   1  33
ATOM     33  C   UNL A   1      38.294  18.933  25.457  1.00  0.00     0.042 C 
BRANCH  33  34
ATOM     34  C   UNL A   1      39.470  19.838  25.766  1.00  0.00     0.118 C 
BRANCH  34  35
ATOM     35  N   UNL A   1      40.730  19.109  25.859  1.00  0.00    -0.352 N 
ATOM     36  C   UNL A   1      42.010  19.552  26.084  1.00  0.00     0.251 C 
ATOM     37  H   UNL A   1      40.649  18.135  25.742  1.00  0.00     0.163 HD
ATOM     38  O   UNL A   1      42.959  18.810  25.844  1.00  0.00    -0.269 OA
BRANCH  36  39
ATOM     39  C   UNL A   1      42.259  20.915  26.598  1.00  0.00     0.039 A 
ATOM     40  C   UNL A   1      42.590  21.935  25.700  1.00  0.00     0.014 A 
ATOM     41  C   UNL A   1      42.232  21.181  27.966  1.00  0.00     0.014 A 
ATOM     42  C   UNL A   1      42.836  23.225  26.175  1.00  0.00     0.010 A 
ATOM     43  C   UNL A   1      42.370  22.483  28.429  1.00  0.00     0.010 A 
ATOM     44  C   UNL A   1      42.698  23.516  27.542  1.00  0.00    -0.014 A 
BRANCH  44  45
ATOM     45  C   UNL A   1      42.931  24.881  28.075  1.00  0.00     0.031 A 
ATOM     46  C   UNL A   1      44.317  25.308  28.478  1.00  0.00     0.074 A 
ATOM     47  C   UNL A   1      41.888  25.712  28.261  1.00  0.00     0.049 A 
ATOM     48  N   UNL A   1      44.711  26.432  29.021  1.00  0.00    -0.248 NA
ATOM     49  C   UNL A   1      45.398  24.329  28.277  1.00  0.00     0.031 C 
ATOM     50  C   UNL A   1      40.488  25.400  27.962  1.00  0.00     0.029 A 
ATOM     51  N   UNL A   1      41.847  26.992  28.751  1.00  0.00    -0.354 N 
ATOM     52  C   UNL A   1      46.072  26.281  29.256  1.00  0.00     0.074 A 
ATOM     53  C   UNL A   1      46.426  24.939  28.848  1.00  0.00     0.031 C 
ATOM     54  C   UNL A   1      39.732  26.476  28.232  1.00  0.00     0.029 A 
ATOM     55  C   UNL A   1      40.586  27.536  28.758  1.00  0.00     0.049 A 
ATOM     56  H   UNL A   1      42.645  27.475  29.066  1.00  0.00     0.167 HD
ATOM     57  C   UNL A   1      46.956  27.182  29.744  1.00  0.00     0.031 A 
ATOM     58  C   UNL A   1      40.167  28.757  29.137  1.00  0.00     0.031 A 
ATOM     59  C   UNL A   1      46.613  28.527  30.117  1.00  0.00     0.049 A 
ATOM     60  C   UNL A   1      41.169  29.752  29.646  1.00  0.00     0.074 A 
ATOM     61  C   UNL A   1      47.445  29.541  30.558  1.00  0.00     0.029 A 
ATOM     62  N   UNL A   1      45.328  29.047  30.085  1.00  0.00    -0.354 N 
ATOM     63  N   UNL A   1      42.463  29.614  29.805  1.00  0.00    -0.248 NA
ATOM     64  C   UNL A   1      40.652  31.078  30.012  1.00  0.00     0.031 C 
ATOM     65  C   UNL A   1      46.657  30.666  30.827  1.00  0.00     0.029 A 
ATOM     66  C   UNL A   1      45.341  30.364  30.510  1.00  0.00     0.049 A 
ATOM     67  H   UNL A   1      44.526  28.553  29.802  1.00  0.00     0.167 HD
ATOM     68  C   UNL A   1      42.920  30.842  30.265  1.00  0.00     0.074 A 
ATOM     69  C   UNL A   1      41.766  31.715  30.346  1.00  0.00     0.031 C 
ATOM     70  C   UNL A   1      44.182  31.215  30.587  1.00  0.00     0.031 A 
BRANCH  57  71
ATOM     71  C   UNL A   1      48.382  26.729  29.899  1.00  0.00    -0.014 A 
ATOM     72  C   UNL A   1      49.321  26.912  28.870  1.00  0.00     0.009 A 
ATOM     73  C   UNL A   1      48.791  26.107  31.088  1.00  0.00     0.009 A 
ATOM     74  C   UNL A   1      50.626  26.437  29.009  1.00  0.00     0.001 A 
ATOM     75  C   UNL A   1      50.106  25.660  31.236  1.00  0.00     0.001 A 
ATOM     76  C   UNL A   1      51.018  25.814  30.193  1.00  0.00     0.000 A 
ENDBRANCH  57  71
BRANCH  58  77
ATOM     77  C   UNL A   1      38.735  29.120  28.998  1.00  0.00    -0.014 A 
ATOM     78  C   UNL A   1      37.868  28.995  30.095  1.00  0.00     0.009 A 
ATOM     79  C   UNL A   1      38.230  29.608  27.784  1.00  0.00     0.009 A 
ATOM     80  C   UNL A   1      36.519  29.333  29.973  1.00  0.00     0.001 A 
ATOM     81  C   UNL A   1      36.885  29.968  27.672  1.00  0.00     0.001 A 
ATOM     82  C   UNL A   1      36.030  29.824  28.764  1.00  0.00     0.000 A 
ENDBRANCH  58  77
BRANCH  70  83
ATOM     83  C   UNL A   1      44.382  32.638  31.024  1.00  0.00    -0.014 A 
ATOM     84  C   UNL A   1      44.321  32.999  32.378  1.00  0.00     0.009 A 
ATOM     85  C   UNL A   1      44.663  33.624  30.066  1.00  0.00     0.009 A 
ATOM     86  C   UNL A   1      44.504  34.329  32.760  1.00  0.00     0.001 A 
ATOM     87  C   UNL A   1      44.871  34.948  30.454  1.00  0.00     0.001 A 
ATOM     88  C   UNL A   1      44.783  35.301  31.800  1.00  0.00     0.000 A 
ENDBRANCH  70  83
ENDBRANCH  44  45
ENDBRANCH  36  39
ENDBRANCH  34  35
ENDBRANCH  33  34
ENDBRANCH   1  33
TORSDOF 15
ENDMDL
MODEL 3
REMARK VINA RESULT:     -11.9      3.951      8.982
REMARK SMILES COC(=O)c1c(-c2ccccc2Cl)csc1NC(=O)[C@@H]1[C@@H]2CC[C@@H](C2)[C@@H]1C(=O)NCCCNC(=O)c1ccc(-c2c3nc(c(-c4ccccc4)c4ccc([nH]4)c(-c4ccccc4)c4nc(c(-c5ccccc5)c5ccc2[nH]5)C=C4)C=C3)cc1
REMARK SMILES IDX 30 1 29 2 27 3 28 4 26 6 20 7 21 8 22 9 25 10 24 11 23 12
REMARK SMILES IDX 18 13 17 14 19 16 16 17 5 18 6 19 14 20 15 21 3 22 4 23 2 24
REMARK SMILES IDX 1 25 7 26 8 27 12 28 9 29 11 30 13 31 10 32 31 33 32 34
REMARK SMILES IDX 33 35 34 36 35 38 36 39 37 40 83 41 38 42 82 43 39 44 40 45
REMARK SMILES IDX 41 46 76 47 42 48 81 49 75 50 77 51 43 52 80 53 74 54 73 55
REMARK SMILES IDX 44 57 66 58 51 59 65 60 52 61 55 62 64 63 78 64 53 65 54 66
REMARK SMILES IDX 63 68 79 69 56 70 45 71 46 72 50 73 47 74 49 75 48 76 67 77
REMARK SMILES IDX 68 78 72 79 69 80 71 81 70 82 57 83 58 84 62 85 59 86 61 87
REMARK SMILES IDX 60 88
REMARK H PARENT 29 5 17 15 33 37 77 56 55 67
REMARK Flexibility Score: inf
ROOT
ATOM      1  C   UNL A   1      34.422  31.613  27.728  1.00  0.00     0.117 C 
ENDROOT
BRANCH   1   2
ATOM      2  N   UNL A   1      34.145  30.576  26.752  1.00  0.00    -0.356 N 
ATOM      3  C   UNL A   1      34.586  29.311  27.025  1.00  0.00     0.224 C 
ATOM      4  O   UNL A   1      35.699  29.105  27.512  1.00  0.00    -0.275 OA
ATOM      5  H   UNL A   1      33.656  30.776  25.923  1.00  0.00     0.163 HD
BRANCH   3   6
ATOM      6  C   UNL A   1      33.550  28.205  26.987  1.00  0.00     0.094 C 
ATOM      7  C   UNL A   1      33.264  27.182  25.866  1.00  0.00     0.094 C 
ATOM      8  C   UNL A   1      31.683  27.214  25.827  1.00  0.00     0.002 C 
ATOM      9  C   UNL A   1      31.154  28.481  25.128  1.00  0.00     0.005 C 
ATOM     10  C   UNL A   1      31.303  27.546  27.276  1.00  0.00     0.009 C 
ATOM     11  C   UNL A   1      32.151  28.813  27.293  1.00  0.00     0.002 C 
ATOM     12  C   UNL A   1      31.558  29.588  26.095  1.00  0.00     0.005 C 
BRANCH   7  13
ATOM     13  C   UNL A   1      33.848  27.231  24.454  1.00  0.00     0.229 C 
ATOM     14  N   UNL A   1      33.755  26.276  23.503  1.00  0.00    -0.317 N 
ATOM     15  H   UNL A   1      34.329  26.460  22.724  1.00  0.00     0.170 HD
ATOM     16  O   UNL A   1      34.453  28.248  24.082  1.00  0.00    -0.274 OA
BRANCH  14  17
ATOM     17  C   UNL A   1      33.045  25.106  23.367  1.00  0.00     0.110 A 
ATOM     18  C   UNL A   1      33.565  23.818  23.468  1.00  0.00     0.102 A 
ATOM     19  C   UNL A   1      32.487  22.843  23.563  1.00  0.00     0.011 A 
ATOM     20  C   UNL A   1      31.269  23.454  23.314  1.00  0.00     0.076 A 
ATOM     21  S   UNL A   1      31.426  25.099  22.891  1.00  0.00    -0.125 S 
BRANCH  18  22
ATOM     22  C   UNL A   1      35.004  23.583  23.587  1.00  0.00     0.341 C 
ATOM     23  O   UNL A   1      35.674  23.110  22.670  1.00  0.00    -0.246 OA
BRANCH  22  24
ATOM     24  O   UNL A   1      35.506  23.896  24.811  1.00  0.00    -0.465 OA
ATOM     25  C   UNL A   1      36.908  23.660  24.954  1.00  0.00     0.282 C 
ENDBRANCH  22  24
ENDBRANCH  18  22
BRANCH  19  26
ATOM     26  C   UNL A   1      32.547  21.449  24.051  1.00  0.00     0.002 A 
ATOM     27  C   UNL A   1      32.304  20.412  23.126  1.00  0.00     0.010 A 
ATOM     28  C   UNL A   1      32.905  21.076  25.360  1.00  0.00     0.048 A 
ATOM     29  C   UNL A   1      32.441  19.066  23.471  1.00  0.00     0.001 A 
ATOM     30  C   UNL A   1      33.071  19.722  25.695  1.00  0.00     0.021 A 
ATOM     31  Cl  UNL A   1      33.117  22.210  26.652  1.00  0.00    -0.084 Cl
ATOM     32  C   UNL A   1      32.846  18.721  24.752  1.00  0.00     0.002 A 
ENDBRANCH  19  26
ENDBRANCH  14  17
ENDBRANCH   7  13
ENDBRANCH   3   6
ENDBRANCH   1   2
BRANCH   1  33
ATOM     33  C   UNL A   1      33.303  32.615  27.935  1.00  0.00     0.042 C 
BRANCH  33  34
ATOM     34  C   UNL A   1      33.840  34.028  28.046  1.00  0.00     0.118 C 
BRANCH  34  35
ATOM     35  N   UNL A   1      33.452  34.679  29.292  1.00  0.00    -0.352 N 
ATOM     36  C   UNL A   1      33.869  34.471  30.583  1.00  0.00     0.251 C 
ATOM     37  H   UNL A   1      32.778  35.390  29.190  1.00  0.00     0.163 HD
ATOM     38  O   UNL A   1      33.213  34.931  31.514  1.00  0.00    -0.269 OA
BRANCH  36  39
ATOM     39  C   UNL A   1      35.090  33.688  30.867  1.00  0.00     0.039 A 
ATOM     40  C   UNL A   1      34.987  32.502  31.600  1.00  0.00     0.014 A 
ATOM     41  C   UNL A   1      36.344  34.148  30.468  1.00  0.00     0.014 A 
ATOM     42  C   UNL A   1      36.135  31.757  31.882  1.00  0.00     0.010 A 
ATOM     43  C   UNL A   1      37.471  33.356  30.653  1.00  0.00     0.010 A 
ATOM     44  C   UNL A   1      37.384  32.164  31.384  1.00  0.00    -0.014 A 
BRANCH  44  45
ATOM     45  C   UNL A   1      38.618  31.384  31.645  1.00  0.00     0.031 A 
ATOM     46  C   UNL A   1      39.488  31.721  32.827  1.00  0.00     0.074 A 
ATOM     47  C   UNL A   1      38.994  30.420  30.785  1.00  0.00     0.049 A 
ATOM     48  N   UNL A   1      40.633  31.199  33.187  1.00  0.00    -0.248 NA
ATOM     49  C   UNL A   1      39.027  32.813  33.701  1.00  0.00     0.031 C 
ATOM     50  C   UNL A   1      38.268  30.032  29.573  1.00  0.00     0.029 A 
ATOM     51  N   UNL A   1      40.086  29.591  30.799  1.00  0.00    -0.354 N 
ATOM     52  C   UNL A   1      41.042  31.920  34.302  1.00  0.00     0.074 A 
ATOM     53  C   UNL A   1      40.052  32.950  34.528  1.00  0.00     0.031 C 
ATOM     54  C   UNL A   1      38.912  29.010  28.985  1.00  0.00     0.029 A 
ATOM     55  C   UNL A   1      40.110  28.698  29.756  1.00  0.00     0.049 A 
ATOM     56  H   UNL A   1      40.784  29.630  31.492  1.00  0.00     0.167 HD
ATOM     57  C   UNL A   1      42.130  31.730  35.085  1.00  0.00     0.031 A 
ATOM     58  C   UNL A   1      40.996  27.730  29.460  1.00  0.00     0.031 A 
ATOM     59  C   UNL A   1      43.096  30.686  34.883  1.00  0.00     0.049 A 
ATOM     60  C   UNL A   1      42.179  27.516  30.359  1.00  0.00     0.074 A 
ATOM     61  C   UNL A   1      44.197  30.364  35.657  1.00  0.00     0.029 A 
ATOM     62  N   UNL A   1      43.071  29.787  33.828  1.00  0.00    -0.354 N 
ATOM     63  N   UNL A   1      42.520  28.166  31.445  1.00  0.00    -0.248 NA
ATOM     64  C   UNL A   1      43.091  26.422  29.998  1.00  0.00     0.031 C 
ATOM     65  C   UNL A   1      44.859  29.290  35.051  1.00  0.00     0.029 A 
ATOM     66  C   UNL A   1      44.144  28.917  33.923  1.00  0.00     0.049 A 
ATOM     67  H   UNL A   1      42.391  29.769  33.117  1.00  0.00     0.167 HD
ATOM     68  C   UNL A   1      43.670  27.544  31.912  1.00  0.00     0.074 A 
ATOM     69  C   UNL A   1      43.960  26.458  30.999  1.00  0.00     0.031 C 
ATOM     70  C   UNL A   1      44.417  27.844  33.003  1.00  0.00     0.031 A 
BRANCH  57  71
ATOM     71  C   UNL A   1      42.322  32.682  36.233  1.00  0.00    -0.014 A 
ATOM     72  C   UNL A   1      43.055  33.871  36.080  1.00  0.00     0.009 A 
ATOM     73  C   UNL A   1      41.764  32.387  37.486  1.00  0.00     0.009 A 
ATOM     74  C   UNL A   1      43.269  34.717  37.169  1.00  0.00     0.001 A 
ATOM     75  C   UNL A   1      41.954  33.251  38.567  1.00  0.00     0.001 A 
ATOM     76  C   UNL A   1      42.716  34.408  38.411  1.00  0.00     0.000 A 
ENDBRANCH  57  71
BRANCH  58  77
ATOM     77  C   UNL A   1      40.765  26.856  28.282  1.00  0.00    -0.014 A 
ATOM     78  C   UNL A   1      41.352  27.171  27.046  1.00  0.00     0.009 A 
ATOM     79  C   UNL A   1      39.978  25.699  28.387  1.00  0.00     0.009 A 
ATOM     80  C   UNL A   1      41.140  26.355  25.934  1.00  0.00     0.001 A 
ATOM     81  C   UNL A   1      39.788  24.873  27.278  1.00  0.00     0.001 A 
ATOM     82  C   UNL A   1      40.362  25.204  26.052  1.00  0.00     0.000 A 
ENDBRANCH  58  77
BRANCH  70  83
ATOM     83  C   UNL A   1      45.598  26.961  33.282  1.00  0.00    -0.014 A 
ATOM     84  C   UNL A   1      46.878  27.286  32.808  1.00  0.00     0.009 A 
ATOM     85  C   UNL A   1      45.430  25.802  34.056  1.00  0.00     0.009 A 
ATOM     86  C   UNL A   1      47.961  26.447  33.075  1.00  0.00     0.001 A 
ATOM     87  C   UNL A   1      46.520  24.980  34.343  1.00  0.00     0.001 A 
ATOM     88  C   UNL A   1      47.783  25.298  33.845  1.00  0.00     0.000 A 
ENDBRANCH  70  83
ENDBRANCH  44  45
ENDBRANCH  36  39
ENDBRANCH  34  35
ENDBRANCH  33  34
ENDBRANCH   1  33
TORSDOF 15
ENDMDL
