MODEL 1
REMARK VINA RESULT:     -10.4      0.000      0.000
REMARK SMILES O=C(NCCCNC(=O)c1cc(-c2ccoc2)n[nH]1)c1ccc(-c2c3nc(c(-c4ccccc4)c4ccc([nH]4)c(-c4ccccc4)c4nc(c(-c5ccccc5)c5ccc2[nH]5)C=C4)C=C3)cc1
REMARK SMILES IDX 4 1 3 2 1 3 2 4 20 6 21 7 67 8 22 9 66 10 23 11 24 12 25 13
REMARK SMILES IDX 60 14 26 15 65 16 59 17 61 18 27 19 64 20 58 21 57 22 28 24
REMARK SMILES IDX 50 25 35 26 49 27 36 28 39 29 48 30 62 31 37 32 38 33 47 35
REMARK SMILES IDX 63 36 40 37 29 38 30 39 34 40 31 41 33 42 32 43 51 44 52 45
REMARK SMILES IDX 56 46 53 47 55 48 54 49 41 50 42 51 46 52 43 53 45 54 44 55
REMARK SMILES IDX 5 56 6 57 7 58 8 59 9 61 10 62 11 63 19 64 12 65 18 66 13 68
REMARK SMILES IDX 14 69 17 70 15 71 16 72
REMARK H PARENT 3 5 61 23 39 34 7 60 19 67
REMARK Flexibility Score: inf
ROOT
ATOM      1  C   UNL A   1      41.414  21.547  26.748  1.00  0.00     0.118 C 
ENDROOT
BRANCH   1   2
ATOM      2  N   UNL A   1      40.131  21.716  26.082  1.00  0.00    -0.352 N 
ATOM      3  O   UNL A   1      38.089  22.546  25.680  1.00  0.00    -0.269 OA
ATOM      4  C   UNL A   1      39.209  22.729  26.151  1.00  0.00     0.251 C 
ATOM      5  H   UNL A   1      39.883  20.978  25.479  1.00  0.00     0.163 HD
BRANCH   4   6
ATOM      6  C   UNL A   1      39.531  24.031  26.776  1.00  0.00     0.039 A 
ATOM      7  C   UNL A   1      39.233  24.298  28.115  1.00  0.00     0.014 A 
ATOM      8  C   UNL A   1      40.248  24.970  26.024  1.00  0.00     0.014 A 
ATOM      9  C   UNL A   1      39.569  25.532  28.673  1.00  0.00     0.010 A 
ATOM     10  C   UNL A   1      40.628  26.187  26.597  1.00  0.00     0.010 A 
ATOM     11  C   UNL A   1      40.275  26.485  27.921  1.00  0.00    -0.014 A 
BRANCH  11  12
ATOM     12  C   UNL A   1      40.675  27.775  28.535  1.00  0.00     0.031 A 
ATOM     13  C   UNL A   1      42.093  28.007  28.974  1.00  0.00     0.074 A 
ATOM     14  C   UNL A   1      39.754  28.740  28.711  1.00  0.00     0.049 A 
ATOM     15  N   UNL A   1      42.613  29.062  29.550  1.00  0.00    -0.248 NA
ATOM     16  C   UNL A   1      43.048  26.913  28.741  1.00  0.00     0.031 C 
ATOM     17  C   UNL A   1      38.341  28.638  28.343  1.00  0.00     0.029 A 
ATOM     18  N   UNL A   1      39.872  29.999  29.243  1.00  0.00    -0.354 N 
ATOM     19  C   UNL A   1      43.948  28.751  29.769  1.00  0.00     0.074 A 
ATOM     20  C   UNL A   1      44.157  27.407  29.274  1.00  0.00     0.031 C 
ATOM     21  C   UNL A   1      37.728  29.795  28.638  1.00  0.00     0.029 A 
ATOM     22  C   UNL A   1      38.695  30.704  29.245  1.00  0.00     0.049 A 
ATOM     23  H   UNL A   1      40.719  30.361  29.589  1.00  0.00     0.167 HD
ATOM     24  C   UNL A   1      44.915  29.516  30.330  1.00  0.00     0.031 A 
ATOM     25  C   UNL A   1      38.419  31.942  29.694  1.00  0.00     0.031 A 
ATOM     26  C   UNL A   1      44.724  30.857  30.812  1.00  0.00     0.049 A 
ATOM     27  C   UNL A   1      39.506  32.769  30.312  1.00  0.00     0.074 A 
ATOM     28  C   UNL A   1      45.658  31.718  31.362  1.00  0.00     0.029 A 
ATOM     29  N   UNL A   1      43.514  31.532  30.801  1.00  0.00    -0.354 N 
ATOM     30  N   UNL A   1      40.768  32.468  30.489  1.00  0.00    -0.248 NA
ATOM     31  C   UNL A   1      39.128  34.106  30.793  1.00  0.00     0.031 C 
ATOM     32  C   UNL A   1      45.006  32.909  31.707  1.00  0.00     0.029 A 
ATOM     33  C   UNL A   1      43.674  32.794  31.347  1.00  0.00     0.049 A 
ATOM     34  H   UNL A   1      42.667  31.168  30.457  1.00  0.00     0.167 HD
ATOM     35  C   UNL A   1      41.339  33.578  31.096  1.00  0.00     0.074 A 
ATOM     36  C   UNL A   1      40.288  34.564  31.246  1.00  0.00     0.031 C 
ATOM     37  C   UNL A   1      42.619  33.761  31.495  1.00  0.00     0.031 A 
BRANCH  24  38
ATOM     38  C   UNL A   1      46.276  28.902  30.469  1.00  0.00    -0.014 A 
ATOM     39  C   UNL A   1      46.625  28.173  31.614  1.00  0.00     0.009 A 
ATOM     40  C   UNL A   1      47.208  29.032  29.429  1.00  0.00     0.009 A 
ATOM     41  C   UNL A   1      47.896  27.606  31.728  1.00  0.00     0.001 A 
ATOM     42  C   UNL A   1      48.473  28.453  29.538  1.00  0.00     0.001 A 
ATOM     43  C   UNL A   1      48.818  27.745  30.690  1.00  0.00     0.000 A 
ENDBRANCH  24  38
BRANCH  25  44
ATOM     44  C   UNL A   1      37.039  32.469  29.574  1.00  0.00    -0.014 A 
ATOM     45  C   UNL A   1      36.116  32.277  30.612  1.00  0.00     0.009 A 
ATOM     46  C   UNL A   1      36.652  33.192  28.437  1.00  0.00     0.009 A 
ATOM     47  C   UNL A   1      34.824  32.796  30.508  1.00  0.00     0.001 A 
ATOM     48  C   UNL A   1      35.364  33.722  28.343  1.00  0.00     0.001 A 
ATOM     49  C   UNL A   1      34.450  33.520  29.376  1.00  0.00     0.000 A 
ENDBRANCH  25  44
BRANCH  37  50
ATOM     50  C   UNL A   1      42.956  35.080  32.120  1.00  0.00    -0.014 A 
ATOM     51  C   UNL A   1      43.522  36.111  31.356  1.00  0.00     0.009 A 
ATOM     52  C   UNL A   1      42.674  35.304  33.475  1.00  0.00     0.009 A 
ATOM     53  C   UNL A   1      43.818  37.342  31.947  1.00  0.00     0.001 A 
ATOM     54  C   UNL A   1      42.960  36.539  34.059  1.00  0.00     0.001 A 
ATOM     55  C   UNL A   1      43.535  37.555  33.296  1.00  0.00     0.000 A 
ENDBRANCH  37  50
ENDBRANCH  11  12
ENDBRANCH   4   6
ENDBRANCH   1   2
BRANCH   1  56
ATOM     56  C   UNL A   1      41.708  20.082  27.071  1.00  0.00     0.042 C 
BRANCH  56  57
ATOM     57  C   UNL A   1      41.978  19.213  25.842  1.00  0.00     0.118 C 
BRANCH  57  58
ATOM     58  N   UNL A   1      43.292  18.590  25.890  1.00  0.00    -0.351 N 
ATOM     59  C   UNL A   1      44.475  19.007  25.341  1.00  0.00     0.269 C 
ATOM     60  H   UNL A   1      43.337  17.743  26.391  1.00  0.00     0.163 HD
ATOM     61  O   UNL A   1      45.375  18.177  25.196  1.00  0.00    -0.268 OA
BRANCH  59  62
ATOM     62  C   UNL A   1      44.620  20.365  24.909  1.00  0.00     0.123 A 
ATOM     63  C   UNL A   1      44.910  21.537  25.582  1.00  0.00     0.064 A 
ATOM     64  N   UNL A   1      44.566  20.727  23.590  1.00  0.00    -0.272 N 
ATOM     65  C   UNL A   1      44.845  22.551  24.605  1.00  0.00     0.096 A 
ATOM     66  N   UNL A   1      44.597  22.056  23.389  1.00  0.00    -0.175 NA
ATOM     67  H   UNL A   1      44.508  20.074  22.856  1.00  0.00     0.190 HD
BRANCH  65  68
ATOM     68  C   UNL A   1      44.969  23.973  24.884  1.00  0.00     0.040 A 
ATOM     69  C   UNL A   1      43.904  24.884  25.099  1.00  0.00     0.052 A 
ATOM     70  C   UNL A   1      46.129  24.705  24.974  1.00  0.00     0.205 A 
ATOM     71  C   UNL A   1      44.493  26.114  25.294  1.00  0.00     0.195 A 
ATOM     72  O   UNL A   1      45.846  26.014  25.212  1.00  0.00    -0.472 OA
ENDBRANCH  65  68
ENDBRANCH  59  62
ENDBRANCH  57  58
ENDBRANCH  56  57
ENDBRANCH   1  56
TORSDOF 11
ENDMDL
MODEL 2
REMARK VINA RESULT:     -10.4      4.139     11.375
REMARK SMILES O=C(NCCCNC(=O)c1cc(-c2ccoc2)n[nH]1)c1ccc(-c2c3nc(c(-c4ccccc4)c4ccc([nH]4)c(-c4ccccc4)c4nc(c(-c5ccccc5)c5ccc2[nH]5)C=C4)C=C3)cc1
REMARK SMILES IDX 4 1 3 2 1 3 2 4 20 6 21 7 67 8 22 9 66 10 23 11 24 12 25 13
REMARK SMILES IDX 60 14 26 15 65 16 59 17 61 18 27 19 64 20 58 21 57 22 28 24
REMARK SMILES IDX 50 25 35 26 49 27 36 28 39 29 48 30 62 31 37 32 38 33 47 35
REMARK SMILES IDX 63 36 40 37 29 38 30 39 34 40 31 41 33 42 32 43 51 44 52 45
REMARK SMILES IDX 56 46 53 47 55 48 54 49 41 50 42 51 46 52 43 53 45 54 44 55
REMARK SMILES IDX 5 56 6 57 7 58 8 59 9 61 10 62 11 63 19 64 12 65 18 66 13 68
REMARK SMILES IDX 14 69 17 70 15 71 16 72
REMARK H PARENT 3 5 61 23 39 34 7 60 19 67
REMARK Flexibility Score: inf
ROOT
ATOM      1  C   UNL A   1      34.714  33.358  29.276  1.00  0.00     0.118 C 
ENDROOT
BRANCH   1   2
ATOM      2  N   UNL A   1      33.998  32.321  28.548  1.00  0.00    -0.352 N 
ATOM      3  O   UNL A   1      33.699  30.521  27.248  1.00  0.00    -0.269 OA
ATOM      4  C   UNL A   1      34.429  31.127  28.028  1.00  0.00     0.251 C 
ATOM      5  H   UNL A   1      33.042  32.508  28.404  1.00  0.00     0.163 HD
BRANCH   4   6
ATOM      6  C   UNL A   1      35.747  30.555  28.385  1.00  0.00     0.039 A 
ATOM      7  C   UNL A   1      36.884  30.792  27.609  1.00  0.00     0.014 A 
ATOM      8  C   UNL A   1      35.861  29.850  29.589  1.00  0.00     0.014 A 
ATOM      9  C   UNL A   1      38.113  30.249  27.989  1.00  0.00     0.010 A 
ATOM     10  C   UNL A   1      37.101  29.348  29.994  1.00  0.00     0.010 A 
ATOM     11  C   UNL A   1      38.233  29.528  29.187  1.00  0.00    -0.014 A 
BRANCH  11  12
ATOM     12  C   UNL A   1      39.553  28.998  29.612  1.00  0.00     0.031 A 
ATOM     13  C   UNL A   1      40.408  29.760  30.583  1.00  0.00     0.074 A 
ATOM     14  C   UNL A   1      39.990  27.829  29.109  1.00  0.00     0.049 A 
ATOM     15  N   UNL A   1      41.596  29.459  31.046  1.00  0.00    -0.248 NA
ATOM     16  C   UNL A   1      39.862  31.025  31.099  1.00  0.00     0.031 C 
ATOM     17  C   UNL A   1      39.265  26.996  28.148  1.00  0.00     0.029 A 
ATOM     18  N   UNL A   1      41.151  27.137  29.343  1.00  0.00    -0.354 N 
ATOM     19  C   UNL A   1      41.949  30.505  31.886  1.00  0.00     0.074 A 
ATOM     20  C   UNL A   1      40.856  31.455  31.864  1.00  0.00     0.031 C 
ATOM     21  C   UNL A   1      39.988  25.894  27.892  1.00  0.00     0.029 A 
ATOM     22  C   UNL A   1      41.237  25.960  28.643  1.00  0.00     0.049 A 
ATOM     23  H   UNL A   1      41.855  27.455  29.954  1.00  0.00     0.167 HD
ATOM     24  C   UNL A   1      43.081  30.663  32.613  1.00  0.00     0.031 A 
ATOM     25  C   UNL A   1      42.216  25.038  28.600  1.00  0.00     0.031 A 
ATOM     26  C   UNL A   1      44.167  29.722  32.655  1.00  0.00     0.049 A 
ATOM     27  C   UNL A   1      43.460  25.235  29.414  1.00  0.00     0.074 A 
ATOM     28  C   UNL A   1      45.336  29.784  33.394  1.00  0.00     0.029 A 
ATOM     29  N   UNL A   1      44.216  28.545  31.926  1.00  0.00    -0.354 N 
ATOM     30  N   UNL A   1      43.767  26.219  30.222  1.00  0.00    -0.248 NA
ATOM     31  C   UNL A   1      44.492  24.193  29.307  1.00  0.00     0.031 C 
ATOM     32  C   UNL A   1      46.106  28.654  33.093  1.00  0.00     0.029 A 
ATOM     33  C   UNL A   1      45.402  27.879  32.186  1.00  0.00     0.049 A 
ATOM     34  H   UNL A   1      43.513  28.229  31.313  1.00  0.00     0.167 HD
ATOM     35  C   UNL A   1      45.024  25.915  30.726  1.00  0.00     0.074 A 
ATOM     36  C   UNL A   1      45.418  24.649  30.142  1.00  0.00     0.031 C 
ATOM     37  C   UNL A   1      45.782  26.625  31.594  1.00  0.00     0.031 A 
BRANCH  24  38
ATOM     38  C   UNL A   1      43.206  31.923  33.416  1.00  0.00    -0.014 A 
ATOM     39  C   UNL A   1      42.875  31.947  34.778  1.00  0.00     0.009 A 
ATOM     40  C   UNL A   1      43.685  33.092  32.807  1.00  0.00     0.009 A 
ATOM     41  C   UNL A   1      42.998  33.129  35.512  1.00  0.00     0.001 A 
ATOM     42  C   UNL A   1      43.821  34.268  33.546  1.00  0.00     0.001 A 
ATOM     43  C   UNL A   1      43.471  34.287  34.896  1.00  0.00     0.000 A 
ENDBRANCH  24  38
BRANCH  25  44
ATOM     44  C   UNL A   1      42.051  23.839  27.744  1.00  0.00    -0.014 A 
ATOM     45  C   UNL A   1      42.513  23.847  26.420  1.00  0.00     0.009 A 
ATOM     46  C   UNL A   1      41.461  22.676  28.258  1.00  0.00     0.009 A 
ATOM     47  C   UNL A   1      42.379  22.709  25.623  1.00  0.00     0.001 A 
ATOM     48  C   UNL A   1      41.342  21.535  27.462  1.00  0.00     0.001 A 
ATOM     49  C   UNL A   1      41.797  21.554  26.145  1.00  0.00     0.000 A 
ENDBRANCH  25  44
BRANCH  37  50
ATOM     50  C   UNL A   1      47.110  26.041  31.972  1.00  0.00    -0.014 A 
ATOM     51  C   UNL A   1      48.237  26.242  31.161  1.00  0.00     0.009 A 
ATOM     52  C   UNL A   1      47.240  25.312  33.162  1.00  0.00     0.009 A 
ATOM     53  C   UNL A   1      49.472  25.704  31.531  1.00  0.00     0.001 A 
ATOM     54  C   UNL A   1      48.478  24.788  33.534  1.00  0.00     0.001 A 
ATOM     55  C   UNL A   1      49.592  24.981  32.717  1.00  0.00     0.000 A 
ENDBRANCH  37  50
ENDBRANCH  11  12
ENDBRANCH   4   6
ENDBRANCH   1   2
BRANCH   1  56
ATOM     56  C   UNL A   1      34.313  34.762  28.824  1.00  0.00     0.042 C 
BRANCH  56  57
ATOM     57  C   UNL A   1      32.923  35.196  29.292  1.00  0.00     0.118 C 
BRANCH  57  58
ATOM     58  N   UNL A   1      32.973  36.395  30.115  1.00  0.00    -0.351 N 
ATOM     59  C   UNL A   1      33.158  36.517  31.467  1.00  0.00     0.269 C 
ATOM     60  H   UNL A   1      32.856  37.244  29.629  1.00  0.00     0.163 HD
ATOM     61  O   UNL A   1      32.819  37.571  32.008  1.00  0.00    -0.268 OA
BRANCH  59  62
ATOM     62  C   UNL A   1      33.688  35.417  32.215  1.00  0.00     0.123 A 
ATOM     63  C   UNL A   1      34.965  35.095  32.631  1.00  0.00     0.064 A 
ATOM     64  N   UNL A   1      32.890  34.450  32.764  1.00  0.00    -0.272 N 
ATOM     65  C   UNL A   1      34.842  33.846  33.274  1.00  0.00     0.096 A 
ATOM     66  N   UNL A   1      33.572  33.434  33.321  1.00  0.00    -0.175 NA
ATOM     67  H   UNL A   1      31.906  34.493  32.751  1.00  0.00     0.190 HD
BRANCH  65  68
ATOM     68  C   UNL A   1      35.961  33.061  33.772  1.00  0.00     0.040 A 
ATOM     69  C   UNL A   1      36.510  31.901  33.170  1.00  0.00     0.052 A 
ATOM     70  C   UNL A   1      36.683  33.280  34.922  1.00  0.00     0.205 A 
ATOM     71  C   UNL A   1      37.524  31.487  34.004  1.00  0.00     0.195 A 
ATOM     72  O   UNL A   1      37.630  32.316  35.076  1.00  0.00    -0.472 OA
ENDBRANCH  65  68
ENDBRANCH  59  62
ENDBRANCH  57  58
ENDBRANCH  56  57
ENDBRANCH   1  56
TORSDOF 11
ENDMDL
MODEL 3
REMARK VINA RESULT:     -10.2      4.106     11.154
REMARK SMILES O=C(NCCCNC(=O)c1cc(-c2ccoc2)n[nH]1)c1ccc(-c2c3nc(c(-c4ccccc4)c4ccc([nH]4)c(-c4ccccc4)c4nc(c(-c5ccccc5)c5ccc2[nH]5)C=C4)C=C3)cc1
REMARK SMILES IDX 4 1 3 2 1 3 2 4 20 6 21 7 67 8 22 9 66 10 23 11 24 12 25 13
REMARK SMILES IDX 60 14 26 15 65 16 59 17 61 18 27 19 64 20 58 21 57 22 28 24
REMARK SMILES IDX 50 25 35 26 49 27 36 28 39 29 48 30 62 31 37 32 38 33 47 35
REMARK SMILES IDX 63 36 40 37 29 38 30 39 34 40 31 41 33 42 32 43 51 44 52 45
REMARK SMILES IDX 56 46 53 47 55 48 54 49 41 50 42 51 46 52 43 53 45 54 44 55
REMARK SMILES IDX 5 56 6 57 7 58 8 59 9 61 10 62 11 63 19 64 12 65 18 66 13 68
REMARK SMILES IDX 14 69 17 70 15 71 16 72
REMARK H PARENT 3 5 61 23 39 34 7 60 19 67
REMARK Flexibility Score: inf
ROOT
ATOM      1  C   UNL A   1      34.716  33.199  29.171  1.00  0.00     0.118 C 
ENDROOT
BRANCH   1   2
ATOM      2  N   UNL A   1      34.004  32.130  28.486  1.00  0.00    -0.352 N 
ATOM      3  O   UNL A   1      33.714  30.288  27.244  1.00  0.00    -0.269 OA
ATOM      4  C   UNL A   1      34.447  30.929  27.993  1.00  0.00     0.251 C 
ATOM      5  H   UNL A   1      33.043  32.297  28.354  1.00  0.00     0.163 HD
BRANCH   4   6
ATOM      6  C   UNL A   1      35.780  30.389  28.342  1.00  0.00     0.039 A 
ATOM      7  C   UNL A   1      36.889  30.580  27.515  1.00  0.00     0.014 A 
ATOM      8  C   UNL A   1      35.940  29.766  29.586  1.00  0.00     0.014 A 
ATOM      9  C   UNL A   1      38.135  30.071  27.888  1.00  0.00     0.010 A 
ATOM     10  C   UNL A   1      37.196  29.300  29.982  1.00  0.00     0.010 A 
ATOM     11  C   UNL A   1      38.300  29.432  29.128  1.00  0.00    -0.014 A 
BRANCH  11  12
ATOM     12  C   UNL A   1      39.636  28.939  29.542  1.00  0.00     0.031 A 
ATOM     13  C   UNL A   1      40.159  27.625  29.037  1.00  0.00     0.074 A 
ATOM     14  C   UNL A   1      40.381  29.674  30.389  1.00  0.00     0.049 A 
ATOM     15  N   UNL A   1      41.293  27.029  29.313  1.00  0.00    -0.248 NA
ATOM     16  C   UNL A   1      39.297  26.880  28.107  1.00  0.00     0.031 C 
ATOM     17  C   UNL A   1      39.985  30.961  30.965  1.00  0.00     0.029 A 
ATOM     18  N   UNL A   1      41.628  29.443  30.910  1.00  0.00    -0.354 N 
ATOM     19  C   UNL A   1      41.270  25.832  28.612  1.00  0.00     0.074 A 
ATOM     20  C   UNL A   1      40.008  25.779  27.904  1.00  0.00     0.031 C 
ATOM     21  C   UNL A   1      40.982  31.417  31.741  1.00  0.00     0.029 A 
ATOM     22  C   UNL A   1      42.067  30.441  31.743  1.00  0.00     0.049 A 
ATOM     23  H   UNL A   1      42.158  28.638  30.706  1.00  0.00     0.167 HD
ATOM     24  C   UNL A   1      42.215  24.863  28.558  1.00  0.00     0.031 A 
ATOM     25  C   UNL A   1      43.211  30.557  32.441  1.00  0.00     0.031 A 
ATOM     26  C   UNL A   1      43.478  24.910  29.244  1.00  0.00     0.049 A 
ATOM     27  C   UNL A   1      44.242  29.471  32.366  1.00  0.00     0.074 A 
ATOM     28  C   UNL A   1      44.511  23.988  29.216  1.00  0.00     0.029 A 
ATOM     29  N   UNL A   1      43.880  25.937  30.083  1.00  0.00    -0.354 N 
ATOM     30  N   UNL A   1      44.214  28.357  31.678  1.00  0.00    -0.248 NA
ATOM     31  C   UNL A   1      45.461  29.660  33.166  1.00  0.00     0.031 C 
ATOM     32  C   UNL A   1      45.530  24.448  30.059  1.00  0.00     0.029 A 
ATOM     33  C   UNL A   1      45.140  25.666  30.590  1.00  0.00     0.049 A 
ATOM     34  H   UNL A   1      43.349  26.740  30.288  1.00  0.00     0.167 HD
ATOM     35  C   UNL A   1      45.411  27.713  31.955  1.00  0.00     0.074 A 
ATOM     36  C   UNL A   1      46.149  28.566  32.865  1.00  0.00     0.031 C 
ATOM     37  C   UNL A   1      45.857  26.520  31.497  1.00  0.00     0.031 A 
BRANCH  24  38
ATOM     38  C   UNL A   1      41.903  23.651  27.733  1.00  0.00    -0.014 A 
ATOM     39  C   UNL A   1      41.116  22.611  28.248  1.00  0.00     0.009 A 
ATOM     40  C   UNL A   1      42.380  23.562  26.417  1.00  0.00     0.009 A 
ATOM     41  C   UNL A   1      40.833  21.489  27.467  1.00  0.00     0.001 A 
ATOM     42  C   UNL A   1      42.084  22.446  25.633  1.00  0.00     0.001 A 
ATOM     43  C   UNL A   1      41.316  21.408  26.161  1.00  0.00     0.000 A 
ENDBRANCH  24  38
BRANCH  25  44
ATOM     44  C   UNL A   1      43.434  31.759  33.280  1.00  0.00    -0.014 A 
ATOM     45  C   UNL A   1      43.035  31.768  34.624  1.00  0.00     0.009 A 
ATOM     46  C   UNL A   1      44.074  32.887  32.747  1.00  0.00     0.009 A 
ATOM     47  C   UNL A   1      43.268  32.892  35.419  1.00  0.00     0.001 A 
ATOM     48  C   UNL A   1      44.320  34.003  33.549  1.00  0.00     0.001 A 
ATOM     49  C   UNL A   1      43.913  34.006  34.882  1.00  0.00     0.000 A 
ENDBRANCH  25  44
BRANCH  37  50
ATOM     50  C   UNL A   1      47.209  26.073  31.964  1.00  0.00    -0.014 A 
ATOM     51  C   UNL A   1      47.350  25.339  33.151  1.00  0.00     0.009 A 
ATOM     52  C   UNL A   1      48.345  26.361  31.195  1.00  0.00     0.009 A 
ATOM     53  C   UNL A   1      48.614  24.917  33.569  1.00  0.00     0.001 A 
ATOM     54  C   UNL A   1      49.605  25.927  31.609  1.00  0.00     0.001 A 
ATOM     55  C   UNL A   1      49.739  25.209  32.798  1.00  0.00     0.000 A 
ENDBRANCH  37  50
ENDBRANCH  11  12
ENDBRANCH   4   6
ENDBRANCH   1   2
BRANCH   1  56
ATOM     56  C   UNL A   1      34.355  34.578  28.618  1.00  0.00     0.042 C 
BRANCH  56  57
ATOM     57  C   UNL A   1      32.951  35.055  28.994  1.00  0.00     0.118 C 
BRANCH  57  58
ATOM     58  N   UNL A   1      32.979  36.301  29.746  1.00  0.00    -0.351 N 
ATOM     59  C   UNL A   1      33.135  36.503  31.092  1.00  0.00     0.269 C 
ATOM     60  H   UNL A   1      32.871  37.119  29.208  1.00  0.00     0.163 HD
ATOM     61  O   UNL A   1      32.781  37.585  31.563  1.00  0.00    -0.268 OA
BRANCH  59  62
ATOM     62  C   UNL A   1      33.651  35.451  31.915  1.00  0.00     0.123 A 
ATOM     63  C   UNL A   1      34.930  35.118  32.320  1.00  0.00     0.064 A 
ATOM     64  N   UNL A   1      32.838  34.562  32.567  1.00  0.00    -0.272 N 
ATOM     65  C   UNL A   1      34.784  33.932  33.069  1.00  0.00     0.096 A 
ATOM     66  N   UNL A   1      33.504  33.572  33.188  1.00  0.00    -0.175 NA
ATOM     67  H   UNL A   1      31.858  34.640  32.579  1.00  0.00     0.190 HD
BRANCH  65  68
ATOM     68  C   UNL A   1      35.892  33.152  33.599  1.00  0.00     0.040 A 
ATOM     69  C   UNL A   1      36.480  32.009  33.000  1.00  0.00     0.052 A 
ATOM     70  C   UNL A   1      36.564  33.358  34.781  1.00  0.00     0.205 A 
ATOM     71  C   UNL A   1      37.464  31.592  33.867  1.00  0.00     0.195 A 
ATOM     72  O   UNL A   1      37.516  32.403  34.957  1.00  0.00    -0.472 OA
ENDBRANCH  65  68
ENDBRANCH  59  62
ENDBRANCH  57  58
ENDBRANCH  56  57
ENDBRANCH   1  56
TORSDOF 11
ENDMDL
