MODEL 1
REMARK VINA RESULT:     -11.5      0.000      0.000
REMARK SMILES Cc1cc(F)c([C@@H](C)[N@@H+]2C[C@H](C)[C@H](C(=O)NCCCNC(=O)c3ccc(-c4c5nc(c(-c6ccccc6)c6ccc([nH]6)c(-c6ccccc6)c6nc(c(-c7ccccc7)c7ccc4[nH]7)C=C6)C=C5)cc3)C2)cc1F
REMARK SMILES IDX 18 1 17 2 16 3 14 4 15 5 13 7 9 8 10 9 71 10 11 12 12 13
REMARK SMILES IDX 7 14 8 15 6 16 1 17 2 18 3 19 73 20 4 21 72 22 74 23 5 24
REMARK SMILES IDX 19 25 20 26 21 27 22 29 23 30 24 31 70 32 25 33 69 34 26 35
REMARK SMILES IDX 27 36 28 37 63 38 29 39 68 40 62 41 64 42 30 43 67 44 61 45
REMARK SMILES IDX 60 46 31 48 53 49 38 50 52 51 39 52 42 53 51 54 65 55 40 56
REMARK SMILES IDX 41 57 50 59 66 60 43 61 32 62 33 63 37 64 34 65 36 66 35 67
REMARK SMILES IDX 54 68 55 69 59 70 56 71 58 72 57 73 44 74 45 75 49 76 46 77
REMARK SMILES IDX 48 78 47 79
REMARK H PARENT 16 6 9 11 20 28 64 47 42 58
REMARK Flexibility Score: inf
ROOT
ATOM      1  C   UNL A   1      37.741  19.732  24.942  1.00  0.00     0.042 C 
ENDROOT
BRANCH   1   2
ATOM      2  C   UNL A   1      36.531  20.648  25.056  1.00  0.00     0.117 C 
BRANCH   2   3
ATOM      3  N   UNL A   1      36.556  21.717  24.078  1.00  0.00    -0.356 N 
ATOM      4  C   UNL A   1      35.581  22.557  23.643  1.00  0.00     0.229 C 
ATOM      5  O   UNL A   1      35.899  23.334  22.734  1.00  0.00    -0.275 OA
ATOM      6  H   UNL A   1      37.433  21.858  23.654  1.00  0.00     0.163 HD
BRANCH   4   7
ATOM      7  C   UNL A   1      34.152  22.570  24.176  1.00  0.00     0.142 C 
ATOM      8  N   UNL A   1      32.119  23.788  24.342  1.00  0.00    -0.328 N 
ATOM      9  C   UNL A   1      32.459  23.352  25.687  1.00  0.00     0.266 C 
ATOM     10  C   UNL A   1      33.109  23.342  23.373  1.00  0.00     0.276 C 
ATOM     11  H   UNL A   1      31.272  23.279  24.087  1.00  0.00     0.348 HD
ATOM     12  C   UNL A   1      33.929  22.923  25.651  1.00  0.00     0.059 C 
ATOM     13  C   UNL A   1      34.830  23.978  26.277  1.00  0.00     0.015 C 
BRANCH   8  14
ATOM     14  C   UNL A   1      31.418  25.059  24.154  1.00  0.00     0.215 C 
ATOM     15  C   UNL A   1      31.231  25.355  22.657  1.00  0.00     0.081 C 
BRANCH  14  16
ATOM     16  C   UNL A   1      31.986  26.226  24.954  1.00  0.00     0.048 A 
ATOM     17  C   UNL A   1      33.613  29.307  27.542  1.00  0.00     0.047 C 
ATOM     18  C   UNL A   1      33.042  28.274  26.623  1.00  0.00    -0.012 A 
ATOM     19  C   UNL A   1      33.768  27.805  25.524  1.00  0.00     0.046 A 
ATOM     20  C   UNL A   1      31.763  27.762  26.834  1.00  0.00     0.126 A 
ATOM     21  C   UNL A   1      33.244  26.795  24.711  1.00  0.00     0.132 A 
ATOM     22  C   UNL A   1      31.237  26.761  26.017  1.00  0.00     0.052 A 
ATOM     23  F   UNL A   1      31.026  28.212  27.860  1.00  0.00    -0.207 F 
ATOM     24  F   UNL A   1      34.027  26.334  23.726  1.00  0.00    -0.206 F 
ENDBRANCH  14  16
ENDBRANCH   8  14
ENDBRANCH   4   7
ENDBRANCH   2   3
ENDBRANCH   1   2
BRANCH   1  25
ATOM     25  C   UNL A   1      38.925  20.199  25.770  1.00  0.00     0.118 C 
BRANCH  25  26
ATOM     26  N   UNL A   1      40.009  19.223  25.815  1.00  0.00    -0.352 N 
ATOM     27  C   UNL A   1      41.361  19.338  26.059  1.00  0.00     0.251 C 
ATOM     28  H   UNL A   1      39.717  18.300  25.637  1.00  0.00     0.163 HD
ATOM     29  O   UNL A   1      42.077  18.363  25.866  1.00  0.00    -0.269 OA
BRANCH  27  30
ATOM     30  C   UNL A   1      41.979  20.618  26.489  1.00  0.00     0.039 A 
ATOM     31  C   UNL A   1      42.192  20.928  27.828  1.00  0.00     0.014 A 
ATOM     32  C   UNL A   1      42.383  21.538  25.512  1.00  0.00     0.014 A 
ATOM     33  C   UNL A   1      42.555  22.218  28.198  1.00  0.00     0.010 A 
ATOM     34  C   UNL A   1      42.879  22.796  25.883  1.00  0.00     0.010 A 
ATOM     35  C   UNL A   1      42.906  23.173  27.231  1.00  0.00    -0.014 A 
BRANCH  35  36
ATOM     36  C   UNL A   1      43.301  24.539  27.671  1.00  0.00     0.031 A 
ATOM     37  C   UNL A   1      44.740  24.988  27.615  1.00  0.00     0.074 A 
ATOM     38  C   UNL A   1      42.347  25.411  28.054  1.00  0.00     0.049 A 
ATOM     39  N   UNL A   1      45.247  26.160  27.910  1.00  0.00    -0.248 NA
ATOM     40  C   UNL A   1      45.741  23.999  27.183  1.00  0.00     0.031 C 
ATOM     41  C   UNL A   1      40.916  25.105  28.148  1.00  0.00     0.029 A 
ATOM     42  N   UNL A   1      42.423  26.738  28.396  1.00  0.00    -0.354 N 
ATOM     43  C   UNL A   1      46.619  26.041  27.726  1.00  0.00     0.074 A 
ATOM     44  C   UNL A   1      46.872  24.677  27.319  1.00  0.00     0.031 C 
ATOM     45  C   UNL A   1      40.245  26.227  28.442  1.00  0.00     0.029 A 
ATOM     46  C   UNL A   1      41.199  27.313  28.639  1.00  0.00     0.049 A 
ATOM     47  H   UNL A   1      43.273  27.231  28.460  1.00  0.00     0.167 HD
ATOM     48  C   UNL A   1      47.579  26.985  27.873  1.00  0.00     0.031 A 
ATOM     49  C   UNL A   1      40.868  28.569  28.993  1.00  0.00     0.031 A 
ATOM     50  C   UNL A   1      47.326  28.350  28.252  1.00  0.00     0.049 A 
ATOM     51  C   UNL A   1      41.952  29.590  29.172  1.00  0.00     0.074 A 
ATOM     52  C   UNL A   1      48.234  29.385  28.389  1.00  0.00     0.029 A 
ATOM     53  N   UNL A   1      46.076  28.871  28.549  1.00  0.00    -0.354 N 
ATOM     54  N   UNL A   1      43.242  29.460  28.980  1.00  0.00    -0.248 NA
ATOM     55  C   UNL A   1      41.542  30.927  29.625  1.00  0.00     0.031 C 
ATOM     56  C   UNL A   1      47.544  30.517  28.825  1.00  0.00     0.029 A 
ATOM     57  C   UNL A   1      46.195  30.205  28.899  1.00  0.00     0.049 A 
ATOM     58  H   UNL A   1      45.231  28.367  28.516  1.00  0.00     0.167 HD
ATOM     59  C   UNL A   1      43.797  30.693  29.286  1.00  0.00     0.074 A 
ATOM     60  C   UNL A   1      42.702  31.569  29.650  1.00  0.00     0.031 C 
ATOM     61  C   UNL A   1      45.101  31.063  29.272  1.00  0.00     0.031 A 
BRANCH  48  62
ATOM     62  C   UNL A   1      49.008  26.579  27.640  1.00  0.00    -0.014 A 
ATOM     63  C   UNL A   1      49.539  26.620  26.340  1.00  0.00     0.009 A 
ATOM     64  C   UNL A   1      49.804  26.076  28.681  1.00  0.00     0.009 A 
ATOM     65  C   UNL A   1      50.832  26.161  26.085  1.00  0.00     0.001 A 
ATOM     66  C   UNL A   1      51.109  25.643  28.427  1.00  0.00     0.001 A 
ATOM     67  C   UNL A   1      51.619  25.679  27.130  1.00  0.00     0.000 A 
ENDBRANCH  48  62
BRANCH  49  68
ATOM     68  C   UNL A   1      39.438  28.911  29.209  1.00  0.00    -0.014 A 
ATOM     69  C   UNL A   1      38.848  28.732  30.472  1.00  0.00     0.009 A 
ATOM     70  C   UNL A   1      38.638  29.354  28.146  1.00  0.00     0.009 A 
ATOM     71  C   UNL A   1      37.484  28.956  30.659  1.00  0.00     0.001 A 
ATOM     72  C   UNL A   1      37.278  29.608  28.343  1.00  0.00     0.001 A 
ATOM     73  C   UNL A   1      36.700  29.397  29.595  1.00  0.00     0.000 A 
ENDBRANCH  49  68
BRANCH  61  74
ATOM     74  C   UNL A   1      45.428  32.475  29.662  1.00  0.00    -0.014 A 
ATOM     75  C   UNL A   1      45.495  33.475  28.680  1.00  0.00     0.009 A 
ATOM     76  C   UNL A   1      45.763  32.796  30.986  1.00  0.00     0.009 A 
ATOM     77  C   UNL A   1      45.902  34.768  29.012  1.00  0.00     0.001 A 
ATOM     78  C   UNL A   1      46.146  34.096  31.320  1.00  0.00     0.001 A 
ATOM     79  C   UNL A   1      46.224  35.078  30.332  1.00  0.00     0.000 A 
ENDBRANCH  61  74
ENDBRANCH  35  36
ENDBRANCH  27  30
ENDBRANCH  25  26
ENDBRANCH   1  25
TORSDOF 12
ENDMDL
MODEL 2
REMARK VINA RESULT:     -11.5      1.515      2.005
REMARK SMILES Cc1cc(F)c([C@@H](C)[N@@H+]2C[C@H](C)[C@H](C(=O)NCCCNC(=O)c3ccc(-c4c5nc(c(-c6ccccc6)c6ccc([nH]6)c(-c6ccccc6)c6nc(c(-c7ccccc7)c7ccc4[nH]7)C=C6)C=C5)cc3)C2)cc1F
REMARK SMILES IDX 18 1 17 2 16 3 14 4 15 5 13 7 9 8 10 9 71 10 11 12 12 13
REMARK SMILES IDX 7 14 8 15 6 16 1 17 2 18 3 19 73 20 4 21 72 22 74 23 5 24
REMARK SMILES IDX 19 25 20 26 21 27 22 29 23 30 24 31 70 32 25 33 69 34 26 35
REMARK SMILES IDX 27 36 28 37 63 38 29 39 68 40 62 41 64 42 30 43 67 44 61 45
REMARK SMILES IDX 60 46 31 48 53 49 38 50 52 51 39 52 42 53 51 54 65 55 40 56
REMARK SMILES IDX 41 57 50 59 66 60 43 61 32 62 33 63 37 64 34 65 36 66 35 67
REMARK SMILES IDX 54 68 55 69 59 70 56 71 58 72 57 73 44 74 45 75 49 76 46 77
REMARK SMILES IDX 48 78 47 79
REMARK H PARENT 16 6 9 11 20 28 64 47 42 58
REMARK Flexibility Score: inf
ROOT
ATOM      1  C   UNL A   1      37.640  19.979  24.773  1.00  0.00     0.042 C 
ENDROOT
BRANCH   1   2
ATOM      2  C   UNL A   1      36.276  20.563  25.113  1.00  0.00     0.117 C 
BRANCH   2   3
ATOM      3  N   UNL A   1      35.213  19.585  24.991  1.00  0.00    -0.356 N 
ATOM      4  C   UNL A   1      33.869  19.732  24.863  1.00  0.00     0.229 C 
ATOM      5  O   UNL A   1      33.206  18.687  24.849  1.00  0.00    -0.275 OA
ATOM      6  H   UNL A   1      35.519  18.649  25.004  1.00  0.00     0.163 HD
BRANCH   4   7
ATOM      7  C   UNL A   1      33.154  21.076  24.772  1.00  0.00     0.142 C 
ATOM      8  N   UNL A   1      33.392  23.424  24.499  1.00  0.00    -0.328 N 
ATOM      9  C   UNL A   1      32.546  23.220  25.664  1.00  0.00     0.266 C 
ATOM     10  C   UNL A   1      33.795  22.157  23.907  1.00  0.00     0.276 C 
ATOM     11  H   UNL A   1      32.796  23.854  23.790  1.00  0.00     0.348 HD
ATOM     12  C   UNL A   1      32.708  21.753  26.073  1.00  0.00     0.059 C 
ATOM     13  C   UNL A   1      33.607  21.615  27.294  1.00  0.00     0.015 C 
BRANCH   8  14
ATOM     14  C   UNL A   1      34.287  24.581  24.456  1.00  0.00     0.215 C 
ATOM     15  C   UNL A   1      35.547  24.320  25.297  1.00  0.00     0.081 C 
BRANCH  14  16
ATOM     16  C   UNL A   1      33.615  25.920  24.740  1.00  0.00     0.048 A 
ATOM     17  C   UNL A   1      32.063  29.890  25.554  1.00  0.00     0.047 C 
ATOM     18  C   UNL A   1      32.562  28.506  25.284  1.00  0.00    -0.012 A 
ATOM     19  C   UNL A   1      32.248  27.845  24.094  1.00  0.00     0.046 A 
ATOM     20  C   UNL A   1      33.343  27.836  26.224  1.00  0.00     0.126 A 
ATOM     21  C   UNL A   1      32.774  26.576  23.831  1.00  0.00     0.132 A 
ATOM     22  C   UNL A   1      33.859  26.566  25.966  1.00  0.00     0.052 A 
ATOM     23  F   UNL A   1      33.636  28.427  27.391  1.00  0.00    -0.207 F 
ATOM     24  F   UNL A   1      32.502  26.036  22.636  1.00  0.00    -0.206 F 
ENDBRANCH  14  16
ENDBRANCH   8  14
ENDBRANCH   4   7
ENDBRANCH   2   3
ENDBRANCH   1   2
BRANCH   1  25
ATOM     25  C   UNL A   1      38.728  20.395  25.748  1.00  0.00     0.118 C 
BRANCH  25  26
ATOM     26  N   UNL A   1      39.864  19.480  25.757  1.00  0.00    -0.352 N 
ATOM     27  C   UNL A   1      41.196  19.647  26.071  1.00  0.00     0.251 C 
ATOM     28  H   UNL A   1      39.635  18.562  25.484  1.00  0.00     0.163 HD
ATOM     29  O   UNL A   1      41.975  18.735  25.826  1.00  0.00    -0.269 OA
BRANCH  27  30
ATOM     30  C   UNL A   1      41.720  20.915  26.640  1.00  0.00     0.039 A 
ATOM     31  C   UNL A   1      41.885  21.103  28.008  1.00  0.00     0.014 A 
ATOM     32  C   UNL A   1      42.082  21.951  25.769  1.00  0.00     0.014 A 
ATOM     33  C   UNL A   1      42.155  22.371  28.511  1.00  0.00     0.010 A 
ATOM     34  C   UNL A   1      42.485  23.195  26.273  1.00  0.00     0.010 A 
ATOM     35  C   UNL A   1      42.461  23.438  27.652  1.00  0.00    -0.014 A 
BRANCH  35  36
ATOM     36  C   UNL A   1      42.756  24.776  28.232  1.00  0.00     0.031 A 
ATOM     37  C   UNL A   1      44.173  25.199  28.530  1.00  0.00     0.074 A 
ATOM     38  C   UNL A   1      41.747  25.649  28.426  1.00  0.00     0.049 A 
ATOM     39  N   UNL A   1      44.608  26.348  28.987  1.00  0.00    -0.248 NA
ATOM     40  C   UNL A   1      45.238  24.211  28.295  1.00  0.00     0.031 C 
ATOM     41  C   UNL A   1      40.331  25.367  28.173  1.00  0.00     0.029 A 
ATOM     42  N   UNL A   1      41.754  26.959  28.836  1.00  0.00    -0.354 N 
ATOM     43  C   UNL A   1      45.984  26.211  29.119  1.00  0.00     0.074 A 
ATOM     44  C   UNL A   1      46.313  24.860  28.719  1.00  0.00     0.031 C 
ATOM     45  C   UNL A   1      39.619  26.488  28.356  1.00  0.00     0.029 A 
ATOM     46  C   UNL A   1      40.511  27.546  28.817  1.00  0.00     0.049 A 
ATOM     47  H   UNL A   1      42.570  27.432  29.117  1.00  0.00     0.167 HD
ATOM     48  C   UNL A   1      46.893  27.129  29.525  1.00  0.00     0.031 A 
ATOM     49  C   UNL A   1      40.119  28.793  29.143  1.00  0.00     0.031 A 
ATOM     50  C   UNL A   1      46.571  28.481  29.898  1.00  0.00     0.049 A 
ATOM     51  C   UNL A   1      41.142  29.784  29.613  1.00  0.00     0.074 A 
ATOM     52  C   UNL A   1      47.433  29.491  30.288  1.00  0.00     0.029 A 
ATOM     53  N   UNL A   1      45.291  29.013  29.923  1.00  0.00    -0.354 N 
ATOM     54  N   UNL A   1      42.440  29.637  29.717  1.00  0.00    -0.248 NA
ATOM     55  C   UNL A   1      40.650  31.107  30.020  1.00  0.00     0.031 C 
ATOM     56  C   UNL A   1      46.670  30.617  30.604  1.00  0.00     0.029 A 
ATOM     57  C   UNL A   1      45.338  30.328  30.353  1.00  0.00     0.049 A 
ATOM     58  H   UNL A   1      44.472  28.527  29.673  1.00  0.00     0.167 HD
ATOM     59  C   UNL A   1      42.921  30.846  30.199  1.00  0.00     0.074 A 
ATOM     60  C   UNL A   1      41.778  31.726  30.341  1.00  0.00     0.031 C 
ATOM     61  C   UNL A   1      44.195  31.190  30.502  1.00  0.00     0.031 A 
BRANCH  48  62
ATOM     62  C   UNL A   1      48.334  26.705  29.610  1.00  0.00    -0.014 A 
ATOM     63  C   UNL A   1      49.176  26.884  28.499  1.00  0.00     0.009 A 
ATOM     64  C   UNL A   1      48.840  26.056  30.746  1.00  0.00     0.009 A 
ATOM     65  C   UNL A   1      50.491  26.416  28.521  1.00  0.00     0.001 A 
ATOM     66  C   UNL A   1      50.165  25.612  30.775  1.00  0.00     0.001 A 
ATOM     67  C   UNL A   1      50.987  25.786  29.661  1.00  0.00     0.000 A 
ENDBRANCH  48  62
BRANCH  49  68
ATOM     68  C   UNL A   1      38.681  29.152  29.039  1.00  0.00    -0.014 A 
ATOM     69  C   UNL A   1      38.154  29.629  27.827  1.00  0.00     0.009 A 
ATOM     70  C   UNL A   1      37.843  29.085  30.161  1.00  0.00     0.009 A 
ATOM     71  C   UNL A   1      36.830  30.063  27.746  1.00  0.00     0.001 A 
ATOM     72  C   UNL A   1      36.508  29.490  30.070  1.00  0.00     0.001 A 
ATOM     73  C   UNL A   1      36.007  29.989  28.868  1.00  0.00     0.000 A 
ENDBRANCH  49  68
BRANCH  61  74
ATOM     74  C   UNL A   1      44.436  32.578  31.022  1.00  0.00    -0.014 A 
ATOM     75  C   UNL A   1      44.350  32.834  32.398  1.00  0.00     0.009 A 
ATOM     76  C   UNL A   1      44.655  33.648  30.141  1.00  0.00     0.009 A 
ATOM     77  C   UNL A   1      44.466  34.137  32.885  1.00  0.00     0.001 A 
ATOM     78  C   UNL A   1      44.796  34.947  30.632  1.00  0.00     0.001 A 
ATOM     79  C   UNL A   1      44.692  35.191  32.002  1.00  0.00     0.000 A 
ENDBRANCH  61  74
ENDBRANCH  35  36
ENDBRANCH  27  30
ENDBRANCH  25  26
ENDBRANCH   1  25
TORSDOF 12
ENDMDL
MODEL 3
REMARK VINA RESULT:     -11.5      1.373      1.961
REMARK SMILES Cc1cc(F)c([C@@H](C)[N@@H+]2C[C@H](C)[C@H](C(=O)NCCCNC(=O)c3ccc(-c4c5nc(c(-c6ccccc6)c6ccc([nH]6)c(-c6ccccc6)c6nc(c(-c7ccccc7)c7ccc4[nH]7)C=C6)C=C5)cc3)C2)cc1F
REMARK SMILES IDX 18 1 17 2 16 3 14 4 15 5 13 7 9 8 10 9 71 10 11 12 12 13
REMARK SMILES IDX 7 14 8 15 6 16 1 17 2 18 3 19 73 20 4 21 72 22 74 23 5 24
REMARK SMILES IDX 19 25 20 26 21 27 22 29 23 30 24 31 70 32 25 33 69 34 26 35
REMARK SMILES IDX 27 36 28 37 63 38 29 39 68 40 62 41 64 42 30 43 67 44 61 45
REMARK SMILES IDX 60 46 31 48 53 49 38 50 52 51 39 52 42 53 51 54 65 55 40 56
REMARK SMILES IDX 41 57 50 59 66 60 43 61 32 62 33 63 37 64 34 65 36 66 35 67
REMARK SMILES IDX 54 68 55 69 59 70 56 71 58 72 57 73 44 74 45 75 49 76 46 77
REMARK SMILES IDX 48 78 47 79
REMARK H PARENT 16 6 9 11 20 28 64 47 42 58
REMARK Flexibility Score: inf
ROOT
ATOM      1  C   UNL A   1      37.780  19.991  24.645  1.00  0.00     0.042 C 
ENDROOT
BRANCH   1   2
ATOM      2  C   UNL A   1      36.332  20.156  25.085  1.00  0.00     0.117 C 
BRANCH   2   3
ATOM      3  N   UNL A   1      36.107  21.410  25.777  1.00  0.00    -0.356 N 
ATOM      4  C   UNL A   1      35.440  22.532  25.405  1.00  0.00     0.229 C 
ATOM      5  O   UNL A   1      35.481  23.479  26.202  1.00  0.00    -0.275 OA
ATOM      6  H   UNL A   1      36.509  21.455  26.675  1.00  0.00     0.163 HD
BRANCH   4   7
ATOM      7  C   UNL A   1      34.693  22.695  24.085  1.00  0.00     0.142 C 
ATOM      8  N   UNL A   1      33.325  24.108  22.752  1.00  0.00    -0.328 N 
ATOM      9  C   UNL A   1      32.676  22.808  22.790  1.00  0.00     0.266 C 
ATOM     10  C   UNL A   1      34.562  24.106  23.521  1.00  0.00     0.276 C 
ATOM     11  H   UNL A   1      33.629  24.243  21.787  1.00  0.00     0.348 HD
ATOM     12  C   UNL A   1      33.320  22.027  23.938  1.00  0.00     0.059 C 
ATOM     13  C   UNL A   1      32.413  21.986  25.160  1.00  0.00     0.015 C 
BRANCH   8  14
ATOM     14  C   UNL A   1      32.506  25.318  22.669  1.00  0.00     0.215 C 
ATOM     15  C   UNL A   1      33.014  26.236  21.544  1.00  0.00     0.081 C 
BRANCH  14  16
ATOM     16  C   UNL A   1      32.279  26.029  23.998  1.00  0.00     0.048 A 
ATOM     17  C   UNL A   1      31.532  28.372  27.575  1.00  0.00     0.047 C 
ATOM     18  C   UNL A   1      31.809  27.537  26.364  1.00  0.00    -0.012 A 
ATOM     19  C   UNL A   1      31.042  26.405  26.077  1.00  0.00     0.046 A 
ATOM     20  C   UNL A   1      32.852  27.863  25.500  1.00  0.00     0.126 A 
ATOM     21  C   UNL A   1      31.276  25.672  24.910  1.00  0.00     0.132 A 
ATOM     22  C   UNL A   1      33.091  27.126  24.340  1.00  0.00     0.052 A 
ATOM     23  F   UNL A   1      33.630  28.924  25.762  1.00  0.00    -0.207 F 
ATOM     24  F   UNL A   1      30.450  24.649  24.653  1.00  0.00    -0.206 F 
ENDBRANCH  14  16
ENDBRANCH   8  14
ENDBRANCH   4   7
ENDBRANCH   2   3
ENDBRANCH   1   2
BRANCH   1  25
ATOM     25  C   UNL A   1      38.778  20.298  25.747  1.00  0.00     0.118 C 
BRANCH  25  26
ATOM     26  N   UNL A   1      39.919  19.388  25.751  1.00  0.00    -0.352 N 
ATOM     27  C   UNL A   1      41.253  19.562  26.056  1.00  0.00     0.251 C 
ATOM     28  H   UNL A   1      39.692  18.468  25.484  1.00  0.00     0.163 HD
ATOM     29  O   UNL A   1      42.034  18.653  25.808  1.00  0.00    -0.269 OA
BRANCH  27  30
ATOM     30  C   UNL A   1      41.774  20.835  26.616  1.00  0.00     0.039 A 
ATOM     31  C   UNL A   1      41.925  21.038  27.984  1.00  0.00     0.014 A 
ATOM     32  C   UNL A   1      42.149  21.861  25.738  1.00  0.00     0.014 A 
ATOM     33  C   UNL A   1      42.194  22.310  28.476  1.00  0.00     0.010 A 
ATOM     34  C   UNL A   1      42.551  23.108  26.232  1.00  0.00     0.010 A 
ATOM     35  C   UNL A   1      42.513  23.366  27.608  1.00  0.00    -0.014 A 
BRANCH  35  36
ATOM     36  C   UNL A   1      42.807  24.710  28.178  1.00  0.00     0.031 A 
ATOM     37  C   UNL A   1      44.223  25.141  28.461  1.00  0.00     0.074 A 
ATOM     38  C   UNL A   1      41.795  25.579  28.373  1.00  0.00     0.049 A 
ATOM     39  N   UNL A   1      44.657  26.295  28.907  1.00  0.00    -0.248 NA
ATOM     40  C   UNL A   1      45.291  24.156  28.225  1.00  0.00     0.031 C 
ATOM     41  C   UNL A   1      40.378  25.289  28.133  1.00  0.00     0.029 A 
ATOM     42  N   UNL A   1      41.799  26.892  28.774  1.00  0.00    -0.354 N 
ATOM     43  C   UNL A   1      46.035  26.165  29.029  1.00  0.00     0.074 A 
ATOM     44  C   UNL A   1      46.367  24.814  28.636  1.00  0.00     0.031 C 
ATOM     45  C   UNL A   1      39.663  26.408  28.314  1.00  0.00     0.029 A 
ATOM     46  C   UNL A   1      40.553  27.473  28.761  1.00  0.00     0.049 A 
ATOM     47  H   UNL A   1      42.615  27.371  29.045  1.00  0.00     0.167 HD
ATOM     48  C   UNL A   1      46.942  27.090  29.422  1.00  0.00     0.031 A 
ATOM     49  C   UNL A   1      40.158  28.720  29.081  1.00  0.00     0.031 A 
ATOM     50  C   UNL A   1      46.617  28.443  29.789  1.00  0.00     0.049 A 
ATOM     51  C   UNL A   1      41.180  29.719  29.537  1.00  0.00     0.074 A 
ATOM     52  C   UNL A   1      47.477  29.460  30.165  1.00  0.00     0.029 A 
ATOM     53  N   UNL A   1      45.335  28.970  29.820  1.00  0.00    -0.354 N 
ATOM     54  N   UNL A   1      42.479  29.579  29.631  1.00  0.00    -0.248 NA
ATOM     55  C   UNL A   1      40.684  31.043  29.938  1.00  0.00     0.031 C 
ATOM     56  C   UNL A   1      46.712  30.585  30.479  1.00  0.00     0.029 A 
ATOM     57  C   UNL A   1      45.379  30.288  30.240  1.00  0.00     0.049 A 
ATOM     58  H   UNL A   1      44.516  28.479  29.579  1.00  0.00     0.167 HD
ATOM     59  C   UNL A   1      42.958  30.793  30.101  1.00  0.00     0.074 A 
ATOM     60  C   UNL A   1      41.812  31.669  30.246  1.00  0.00     0.031 C 
ATOM     61  C   UNL A   1      44.233  31.146  30.392  1.00  0.00     0.031 A 
BRANCH  48  62
ATOM     62  C   UNL A   1      48.386  26.674  29.499  1.00  0.00    -0.014 A 
ATOM     63  C   UNL A   1      48.881  26.101  30.682  1.00  0.00     0.009 A 
ATOM     64  C   UNL A   1      49.276  26.923  28.443  1.00  0.00     0.009 A 
ATOM     65  C   UNL A   1      50.236  25.792  30.809  1.00  0.00     0.001 A 
ATOM     66  C   UNL A   1      50.627  26.588  28.562  1.00  0.00     0.001 A 
ATOM     67  C   UNL A   1      51.108  26.030  29.747  1.00  0.00     0.000 A 
ENDBRANCH  48  62
BRANCH  49  68
ATOM     68  C   UNL A   1      38.717  29.073  28.986  1.00  0.00    -0.014 A 
ATOM     69  C   UNL A   1      38.184  29.559  27.780  1.00  0.00     0.009 A 
ATOM     70  C   UNL A   1      37.883  28.989  30.109  1.00  0.00     0.009 A 
ATOM     71  C   UNL A   1      36.857  29.986  27.709  1.00  0.00     0.001 A 
ATOM     72  C   UNL A   1      36.546  29.387  30.028  1.00  0.00     0.001 A 
ATOM     73  C   UNL A   1      36.038  29.896  28.833  1.00  0.00     0.000 A 
ENDBRANCH  49  68
BRANCH  61  74
ATOM     74  C   UNL A   1      44.472  32.539  30.900  1.00  0.00    -0.014 A 
ATOM     75  C   UNL A   1      44.398  32.803  32.276  1.00  0.00     0.009 A 
ATOM     76  C   UNL A   1      44.676  33.604  30.011  1.00  0.00     0.009 A 
ATOM     77  C   UNL A   1      44.511  34.110  32.753  1.00  0.00     0.001 A 
ATOM     78  C   UNL A   1      44.815  34.906  30.492  1.00  0.00     0.001 A 
ATOM     79  C   UNL A   1      44.723  35.159  31.861  1.00  0.00     0.000 A 
ENDBRANCH  61  74
ENDBRANCH  35  36
ENDBRANCH  27  30
ENDBRANCH  25  26
ENDBRANCH   1  25
TORSDOF 12
ENDMDL
