MODEL 1
REMARK VINA RESULT:     -10.8      0.000      0.000
REMARK SMILES Cc1ccc(F)c(C(=O)N[C@@H]2C=C[C@@H](C(=O)NCCCNC(=O)c3ccc(-c4c5nc(c(-c6ccccc6)c6ccc([nH]6)c(-c6ccccc6)c6nc(c(-c7ccccc7)c7ccc4[nH]7)C=C6)C=C5)cc3)C2)c1
REMARK SMILES IDX 19 1 18 2 17 3 15 4 16 5 14 7 11 8 12 9 72 10 13 11 10 12
REMARK SMILES IDX 8 13 9 14 7 16 1 17 2 18 3 19 73 20 4 21 5 22 6 23 20 24
REMARK SMILES IDX 21 25 22 26 23 28 24 29 25 30 71 31 26 32 70 33 27 34 28 35
REMARK SMILES IDX 29 36 64 37 30 38 69 39 63 40 65 41 31 42 68 43 62 44 61 45
REMARK SMILES IDX 32 47 54 48 39 49 53 50 40 51 43 52 52 53 66 54 41 55 42 56
REMARK SMILES IDX 51 58 67 59 44 60 33 61 34 62 38 63 35 64 37 65 36 66 55 67
REMARK SMILES IDX 56 68 60 69 57 70 59 71 58 72 45 73 46 74 50 75 47 76 49 77
REMARK SMILES IDX 48 78
REMARK H PARENT 17 6 10 15 21 27 65 46 43 57
REMARK Flexibility Score: inf
ROOT
ATOM      1  C   UNL A   1      34.599  33.582  28.156  1.00  0.00     0.042 C 
ENDROOT
BRANCH   1   2
ATOM      2  C   UNL A   1      33.233  34.206  28.430  1.00  0.00     0.117 C 
BRANCH   2   3
ATOM      3  N   UNL A   1      33.273  35.652  28.522  1.00  0.00    -0.356 N 
ATOM      4  C   UNL A   1      33.259  36.507  29.579  1.00  0.00     0.227 C 
ATOM      5  O   UNL A   1      33.475  37.696  29.315  1.00  0.00    -0.274 OA
ATOM      6  H   UNL A   1      33.319  36.104  27.648  1.00  0.00     0.163 HD
BRANCH   4   7
ATOM      7  C   UNL A   1      32.898  36.104  31.015  1.00  0.00     0.103 C 
ATOM      8  C   UNL A   1      34.568  35.823  32.803  1.00  0.00     0.106 C 
ATOM      9  C   UNL A   1      33.659  36.985  33.056  1.00  0.00    -0.006 C 
ATOM     10  C   UNL A   1      33.906  35.121  31.610  1.00  0.00     0.047 C 
ATOM     11  C   UNL A   1      32.788  37.170  32.056  1.00  0.00    -0.016 C 
BRANCH   8  12
ATOM     12  N   UNL A   1      34.707  35.036  34.008  1.00  0.00    -0.346 N 
ATOM     13  C   UNL A   1      35.685  34.151  34.410  1.00  0.00     0.254 C 
ATOM     14  O   UNL A   1      35.680  33.758  35.573  1.00  0.00    -0.269 OA
ATOM     15  H   UNL A   1      33.975  35.154  34.656  1.00  0.00     0.164 HD
BRANCH  13  16
ATOM     16  C   UNL A   1      36.688  33.622  33.457  1.00  0.00     0.075 A 
ATOM     17  C   UNL A   1      40.124  34.498  32.093  1.00  0.00     0.044 C 
ATOM     18  C   UNL A   1      38.821  33.782  32.302  1.00  0.00    -0.050 A 
ATOM     19  C   UNL A   1      38.402  32.795  31.402  1.00  0.00     0.006 A 
ATOM     20  C   UNL A   1      37.994  34.119  33.383  1.00  0.00     0.020 A 
ATOM     21  C   UNL A   1      37.148  32.204  31.547  1.00  0.00     0.040 A 
ATOM     22  C   UNL A   1      36.289  32.636  32.555  1.00  0.00     0.135 A 
ATOM     23  F   UNL A   1      35.056  32.109  32.596  1.00  0.00    -0.206 F 
ENDBRANCH  13  16
ENDBRANCH   8  12
ENDBRANCH   4   7
ENDBRANCH   2   3
ENDBRANCH   1   2
BRANCH   1  24
ATOM     24  C   UNL A   1      34.952  32.387  29.040  1.00  0.00     0.118 C 
BRANCH  24  25
ATOM     25  N   UNL A   1      34.314  31.155  28.601  1.00  0.00    -0.352 N 
ATOM     26  C   UNL A   1      34.861  29.964  28.193  1.00  0.00     0.251 C 
ATOM     27  H   UNL A   1      33.330  31.181  28.595  1.00  0.00     0.163 HD
ATOM     28  O   UNL A   1      34.140  29.117  27.674  1.00  0.00    -0.269 OA
BRANCH  26  29
ATOM     29  C   UNL A   1      36.305  29.689  28.360  1.00  0.00     0.039 A 
ATOM     30  C   UNL A   1      36.758  29.196  29.588  1.00  0.00     0.014 A 
ATOM     31  C   UNL A   1      37.222  29.970  27.344  1.00  0.00     0.014 A 
ATOM     32  C   UNL A   1      38.117  28.933  29.780  1.00  0.00     0.010 A 
ATOM     33  C   UNL A   1      38.567  29.646  27.511  1.00  0.00     0.010 A 
ATOM     34  C   UNL A   1      39.030  29.131  28.731  1.00  0.00    -0.014 A 
BRANCH  34  35
ATOM     35  C   UNL A   1      40.473  28.814  28.893  1.00  0.00     0.031 A 
ATOM     36  C   UNL A   1      41.007  27.471  28.477  1.00  0.00     0.074 A 
ATOM     37  C   UNL A   1      41.292  29.709  29.476  1.00  0.00     0.049 A 
ATOM     38  N   UNL A   1      42.218  26.987  28.603  1.00  0.00    -0.248 NA
ATOM     39  C   UNL A   1      40.048  26.540  27.862  1.00  0.00     0.031 C 
ATOM     40  C   UNL A   1      40.899  31.038  29.947  1.00  0.00     0.029 A 
ATOM     41  N   UNL A   1      42.629  29.631  29.777  1.00  0.00    -0.354 N 
ATOM     42  C   UNL A   1      42.159  25.691  28.106  1.00  0.00     0.074 A 
ATOM     43  C   UNL A   1      40.787  25.449  27.720  1.00  0.00     0.031 C 
ATOM     44  C   UNL A   1      41.977  31.661  30.449  1.00  0.00     0.029 A 
ATOM     45  C   UNL A   1      43.126  30.763  30.375  1.00  0.00     0.049 A 
ATOM     46  H   UNL A   1      43.180  28.838  29.582  1.00  0.00     0.167 HD
ATOM     47  C   UNL A   1      43.159  24.787  27.970  1.00  0.00     0.031 A 
ATOM     48  C   UNL A   1      44.364  31.047  30.819  1.00  0.00     0.031 A 
ATOM     49  C   UNL A   1      44.528  25.028  28.345  1.00  0.00     0.049 A 
ATOM     50  C   UNL A   1      45.453  30.020  30.680  1.00  0.00     0.074 A 
ATOM     51  C   UNL A   1      45.624  24.198  28.188  1.00  0.00     0.029 A 
ATOM     52  N   UNL A   1      44.986  26.184  28.957  1.00  0.00    -0.354 N 
ATOM     53  N   UNL A   1      45.395  28.821  30.155  1.00  0.00    -0.248 NA
ATOM     54  C   UNL A   1      46.779  30.392  31.193  1.00  0.00     0.031 C 
ATOM     55  C   UNL A   1      46.736  24.831  28.755  1.00  0.00     0.029 A 
ATOM     56  C   UNL A   1      46.343  26.078  29.213  1.00  0.00     0.049 A 
ATOM     57  H   UNL A   1      44.429  26.965  29.178  1.00  0.00     0.167 HD
ATOM     58  C   UNL A   1      46.682  28.306  30.245  1.00  0.00     0.074 A 
ATOM     59  C   UNL A   1      47.500  29.327  30.868  1.00  0.00     0.031 C 
ATOM     60  C   UNL A   1      47.145  27.098  29.839  1.00  0.00     0.031 A 
BRANCH  47  61
ATOM     61  C   UNL A   1      42.793  23.439  27.409  1.00  0.00    -0.014 A 
ATOM     62  C   UNL A   1      42.315  22.408  28.235  1.00  0.00     0.009 A 
ATOM     63  C   UNL A   1      42.924  23.199  26.033  1.00  0.00     0.009 A 
ATOM     64  C   UNL A   1      42.027  21.150  27.701  1.00  0.00     0.001 A 
ATOM     65  C   UNL A   1      42.604  21.950  25.497  1.00  0.00     0.001 A 
ATOM     66  C   UNL A   1      42.169  20.923  26.334  1.00  0.00     0.000 A 
ENDBRANCH  47  61
BRANCH  48  67
ATOM     67  C   UNL A   1      44.648  32.381  31.408  1.00  0.00    -0.014 A 
ATOM     68  C   UNL A   1      44.506  32.586  32.789  1.00  0.00     0.009 A 
ATOM     69  C   UNL A   1      45.080  33.446  30.602  1.00  0.00     0.009 A 
ATOM     70  C   UNL A   1      44.775  33.836  33.349  1.00  0.00     0.001 A 
ATOM     71  C   UNL A   1      45.373  34.687  31.170  1.00  0.00     0.001 A 
ATOM     72  C   UNL A   1      45.214  34.883  32.541  1.00  0.00     0.000 A 
ENDBRANCH  48  67
BRANCH  60  73
ATOM     73  C   UNL A   1      48.611  26.826  30.027  1.00  0.00    -0.014 A 
ATOM     74  C   UNL A   1      49.556  27.222  29.068  1.00  0.00     0.009 A 
ATOM     75  C   UNL A   1      49.055  26.199  31.201  1.00  0.00     0.009 A 
ATOM     76  C   UNL A   1      50.914  26.967  29.269  1.00  0.00     0.001 A 
ATOM     77  C   UNL A   1      50.416  25.971  31.413  1.00  0.00     0.001 A 
ATOM     78  C   UNL A   1      51.343  26.347  30.442  1.00  0.00     0.000 A 
ENDBRANCH  60  73
ENDBRANCH  34  35
ENDBRANCH  26  29
ENDBRANCH  24  25
ENDBRANCH   1  24
TORSDOF 12
ENDMDL
MODEL 2
REMARK VINA RESULT:     -10.8      4.206      7.568
REMARK SMILES Cc1ccc(F)c(C(=O)N[C@@H]2C=C[C@@H](C(=O)NCCCNC(=O)c3ccc(-c4c5nc(c(-c6ccccc6)c6ccc([nH]6)c(-c6ccccc6)c6nc(c(-c7ccccc7)c7ccc4[nH]7)C=C6)C=C5)cc3)C2)c1
REMARK SMILES IDX 19 1 18 2 17 3 15 4 16 5 14 7 11 8 12 9 72 10 13 11 10 12
REMARK SMILES IDX 8 13 9 14 7 16 1 17 2 18 3 19 73 20 4 21 5 22 6 23 20 24
REMARK SMILES IDX 21 25 22 26 23 28 24 29 25 30 71 31 26 32 70 33 27 34 28 35
REMARK SMILES IDX 29 36 64 37 30 38 69 39 63 40 65 41 31 42 68 43 62 44 61 45
REMARK SMILES IDX 32 47 54 48 39 49 53 50 40 51 43 52 52 53 66 54 41 55 42 56
REMARK SMILES IDX 51 58 67 59 44 60 33 61 34 62 38 63 35 64 37 65 36 66 55 67
REMARK SMILES IDX 56 68 60 69 57 70 59 71 58 72 45 73 46 74 50 75 47 76 49 77
REMARK SMILES IDX 48 78
REMARK H PARENT 17 6 10 15 21 27 65 46 43 57
REMARK Flexibility Score: inf
ROOT
ATOM      1  C   UNL A   1      31.237  31.348  25.920  1.00  0.00     0.042 C 
ENDROOT
BRANCH   1   2
ATOM      2  C   UNL A   1      31.396  29.917  25.410  1.00  0.00     0.117 C 
BRANCH   2   3
ATOM      3  N   UNL A   1      32.616  29.712  24.654  1.00  0.00    -0.356 N 
ATOM      4  C   UNL A   1      33.108  28.642  23.976  1.00  0.00     0.227 C 
ATOM      5  O   UNL A   1      34.116  28.853  23.292  1.00  0.00    -0.274 OA
ATOM      6  H   UNL A   1      33.203  30.502  24.627  1.00  0.00     0.163 HD
BRANCH   4   7
ATOM      7  C   UNL A   1      32.561  27.212  24.096  1.00  0.00     0.103 C 
ATOM      8  C   UNL A   1      30.900  26.536  25.785  1.00  0.00     0.106 C 
ATOM      9  C   UNL A   1      30.351  26.473  24.393  1.00  0.00    -0.006 C 
ATOM     10  C   UNL A   1      32.398  26.777  25.553  1.00  0.00     0.047 C 
ATOM     11  C   UNL A   1      31.237  26.894  23.482  1.00  0.00    -0.016 C 
BRANCH   8  12
ATOM     12  N   UNL A   1      30.553  25.331  26.505  1.00  0.00    -0.346 N 
ATOM     13  C   UNL A   1      31.195  24.115  26.608  1.00  0.00     0.254 C 
ATOM     14  O   UNL A   1      30.800  23.312  27.448  1.00  0.00    -0.269 OA
ATOM     15  H   UNL A   1      29.711  25.391  27.012  1.00  0.00     0.164 HD
BRANCH  13  16
ATOM     16  C   UNL A   1      32.294  23.741  25.689  1.00  0.00     0.075 A 
ATOM     17  C   UNL A   1      36.071  24.051  25.420  1.00  0.00     0.044 C 
ATOM     18  C   UNL A   1      34.647  23.721  25.078  1.00  0.00    -0.050 A 
ATOM     19  C   UNL A   1      34.302  23.338  23.778  1.00  0.00     0.006 A 
ATOM     20  C   UNL A   1      33.643  23.827  26.051  1.00  0.00     0.020 A 
ATOM     21  C   UNL A   1      32.965  23.129  23.442  1.00  0.00     0.040 A 
ATOM     22  C   UNL A   1      31.968  23.354  24.388  1.00  0.00     0.135 A 
ATOM     23  F   UNL A   1      30.691  23.235  23.995  1.00  0.00    -0.206 F 
ENDBRANCH  13  16
ENDBRANCH   8  12
ENDBRANCH   4   7
ENDBRANCH   2   3
ENDBRANCH   1   2
BRANCH   1  24
ATOM     24  C   UNL A   1      32.328  31.815  26.882  1.00  0.00     0.118 C 
BRANCH  24  25
ATOM     25  N   UNL A   1      32.205  33.222  27.232  1.00  0.00    -0.352 N 
ATOM     26  C   UNL A   1      32.972  34.007  28.057  1.00  0.00     0.251 C 
ATOM     27  H   UNL A   1      31.448  33.686  26.808  1.00  0.00     0.163 HD
ATOM     28  O   UNL A   1      32.572  35.125  28.367  1.00  0.00    -0.269 OA
BRANCH  26  29
ATOM     29  C   UNL A   1      34.266  33.522  28.586  1.00  0.00     0.039 A 
ATOM     30  C   UNL A   1      34.272  32.782  29.773  1.00  0.00     0.014 A 
ATOM     31  C   UNL A   1      35.474  33.839  27.959  1.00  0.00     0.014 A 
ATOM     32  C   UNL A   1      35.480  32.316  30.301  1.00  0.00     0.010 A 
ATOM     33  C   UNL A   1      36.670  33.319  28.448  1.00  0.00     0.010 A 
ATOM     34  C   UNL A   1      36.687  32.558  29.627  1.00  0.00    -0.014 A 
BRANCH  34  35
ATOM     35  C   UNL A   1      37.978  32.032  30.142  1.00  0.00     0.031 A 
ATOM     36  C   UNL A   1      38.544  30.748  29.603  1.00  0.00     0.074 A 
ATOM     37  C   UNL A   1      38.611  32.675  31.141  1.00  0.00     0.049 A 
ATOM     38  N   UNL A   1      39.619  30.097  29.974  1.00  0.00    -0.248 NA
ATOM     39  C   UNL A   1      37.789  30.094  28.523  1.00  0.00     0.031 C 
ATOM     40  C   UNL A   1      38.160  33.918  31.770  1.00  0.00     0.029 A 
ATOM     41  N   UNL A   1      39.770  32.366  31.808  1.00  0.00    -0.354 N 
ATOM     42  C   UNL A   1      39.655  28.950  29.191  1.00  0.00     0.074 A 
ATOM     43  C   UNL A   1      38.473  28.971  28.359  1.00  0.00     0.031 C 
ATOM     44  C   UNL A   1      39.047  34.281  32.710  1.00  0.00     0.029 A 
ATOM     45  C   UNL A   1      40.105  33.277  32.780  1.00  0.00     0.049 A 
ATOM     46  H   UNL A   1      40.310  31.567  31.609  1.00  0.00     0.167 HD
ATOM     47  C   UNL A   1      40.594  27.973  29.156  1.00  0.00     0.031 A 
ATOM     48  C   UNL A   1      41.145  33.302  33.634  1.00  0.00     0.031 A 
ATOM     49  C   UNL A   1      41.776  27.955  29.977  1.00  0.00     0.049 A 
ATOM     50  C   UNL A   1      42.161  32.195  33.596  1.00  0.00     0.074 A 
ATOM     51  C   UNL A   1      42.816  27.042  29.971  1.00  0.00     0.029 A 
ATOM     52  N   UNL A   1      42.072  28.891  30.955  1.00  0.00    -0.354 N 
ATOM     53  N   UNL A   1      42.212  31.149  32.809  1.00  0.00    -0.248 NA
ATOM     54  C   UNL A   1      43.266  32.281  34.561  1.00  0.00     0.031 C 
ATOM     55  C   UNL A   1      43.715  27.396  30.982  1.00  0.00     0.029 A 
ATOM     56  C   UNL A   1      43.264  28.562  31.580  1.00  0.00     0.049 A 
ATOM     57  H   UNL A   1      41.517  29.674  31.174  1.00  0.00     0.167 HD
ATOM     58  C   UNL A   1      43.369  30.466  33.163  1.00  0.00     0.074 A 
ATOM     59  C   UNL A   1      43.993  31.223  34.229  1.00  0.00     0.031 C 
ATOM     60  C   UNL A   1      43.871  29.319  32.644  1.00  0.00     0.031 A 
BRANCH  47  61
ATOM     61  C   UNL A   1      40.357  26.829  28.208  1.00  0.00    -0.014 A 
ATOM     62  C   UNL A   1      40.920  26.817  26.921  1.00  0.00     0.009 A 
ATOM     63  C   UNL A   1      39.565  25.743  28.611  1.00  0.00     0.009 A 
ATOM     64  C   UNL A   1      40.648  25.768  26.040  1.00  0.00     0.001 A 
ATOM     65  C   UNL A   1      39.322  24.680  27.739  1.00  0.00     0.001 A 
ATOM     66  C   UNL A   1      39.853  24.701  26.450  1.00  0.00     0.000 A 
ENDBRANCH  47  61
BRANCH  48  67
ATOM     67  C   UNL A   1      41.294  34.438  34.580  1.00  0.00    -0.014 A 
ATOM     68  C   UNL A   1      42.016  35.580  34.201  1.00  0.00     0.009 A 
ATOM     69  C   UNL A   1      40.703  34.397  35.852  1.00  0.00     0.009 A 
ATOM     70  C   UNL A   1      42.156  36.653  35.084  1.00  0.00     0.001 A 
ATOM     71  C   UNL A   1      40.824  35.482  36.722  1.00  0.00     0.001 A 
ATOM     72  C   UNL A   1      41.556  36.606  36.340  1.00  0.00     0.000 A 
ENDBRANCH  48  67
BRANCH  60  73
ATOM     73  C   UNL A   1      45.179  28.829  33.200  1.00  0.00    -0.014 A 
ATOM     74  C   UNL A   1      46.405  29.252  32.666  1.00  0.00     0.009 A 
ATOM     75  C   UNL A   1      45.182  27.960  34.303  1.00  0.00     0.009 A 
ATOM     76  C   UNL A   1      47.607  28.791  33.206  1.00  0.00     0.001 A 
ATOM     77  C   UNL A   1      46.384  27.522  34.859  1.00  0.00     0.001 A 
ATOM     78  C   UNL A   1      47.596  27.931  34.304  1.00  0.00     0.000 A 
ENDBRANCH  60  73
ENDBRANCH  34  35
ENDBRANCH  26  29
ENDBRANCH  24  25
ENDBRANCH   1  24
TORSDOF 12
ENDMDL
MODEL 3
REMARK VINA RESULT:     -10.8      4.842     11.626
REMARK SMILES Cc1ccc(F)c(C(=O)N[C@@H]2C=C[C@@H](C(=O)NCCCNC(=O)c3ccc(-c4c5nc(c(-c6ccccc6)c6ccc([nH]6)c(-c6ccccc6)c6nc(c(-c7ccccc7)c7ccc4[nH]7)C=C6)C=C5)cc3)C2)c1
REMARK SMILES IDX 19 1 18 2 17 3 15 4 16 5 14 7 11 8 12 9 72 10 13 11 10 12
REMARK SMILES IDX 8 13 9 14 7 16 1 17 2 18 3 19 73 20 4 21 5 22 6 23 20 24
REMARK SMILES IDX 21 25 22 26 23 28 24 29 25 30 71 31 26 32 70 33 27 34 28 35
REMARK SMILES IDX 29 36 64 37 30 38 69 39 63 40 65 41 31 42 68 43 62 44 61 45
REMARK SMILES IDX 32 47 54 48 39 49 53 50 40 51 43 52 52 53 66 54 41 55 42 56
REMARK SMILES IDX 51 58 67 59 44 60 33 61 34 62 38 63 35 64 37 65 36 66 55 67
REMARK SMILES IDX 56 68 60 69 57 70 59 71 58 72 45 73 46 74 50 75 47 76 49 77
REMARK SMILES IDX 48 78
REMARK H PARENT 17 6 10 15 21 27 65 46 43 57
REMARK Flexibility Score: inf
ROOT
ATOM      1  C   UNL A   1      44.099  18.139  25.984  1.00  0.00     0.042 C 
ENDROOT
BRANCH   1   2
ATOM      2  C   UNL A   1      44.063  18.889  24.654  1.00  0.00     0.117 C 
BRANCH   2   3
ATOM      3  N   UNL A   1      45.330  19.503  24.309  1.00  0.00    -0.356 N 
ATOM      4  C   UNL A   1      45.919  20.669  24.687  1.00  0.00     0.227 C 
ATOM      5  O   UNL A   1      47.094  20.820  24.331  1.00  0.00    -0.274 OA
ATOM      6  H   UNL A   1      45.868  18.974  23.678  1.00  0.00     0.163 HD
BRANCH   4   7
ATOM      7  C   UNL A   1      45.195  21.812  25.412  1.00  0.00     0.103 C 
ATOM      8  C   UNL A   1      45.714  24.191  25.044  1.00  0.00     0.106 C 
ATOM      9  C   UNL A   1      44.345  23.828  24.559  1.00  0.00    -0.006 C 
ATOM     10  C   UNL A   1      46.150  22.937  25.813  1.00  0.00     0.047 C 
ATOM     11  C   UNL A   1      44.086  22.522  24.709  1.00  0.00    -0.016 C 
BRANCH   8  12
ATOM     12  N   UNL A   1      45.655  25.418  25.807  1.00  0.00    -0.346 N 
ATOM     13  C   UNL A   1      46.468  26.532  25.803  1.00  0.00     0.254 C 
ATOM     14  O   UNL A   1      46.092  27.536  26.402  1.00  0.00    -0.269 OA
ATOM     15  H   UNL A   1      44.903  25.466  26.440  1.00  0.00     0.164 HD
BRANCH  13  16
ATOM     16  C   UNL A   1      47.798  26.516  25.152  1.00  0.00     0.075 A 
ATOM     17  C   UNL A   1      51.394  25.584  25.944  1.00  0.00     0.044 C 
ATOM     18  C   UNL A   1      50.191  26.091  25.204  1.00  0.00    -0.050 A 
ATOM     19  C   UNL A   1      50.343  26.828  24.024  1.00  0.00     0.006 A 
ATOM     20  C   UNL A   1      48.902  25.861  25.707  1.00  0.00     0.020 A 
ATOM     21  C   UNL A   1      49.227  27.380  23.396  1.00  0.00     0.040 A 
ATOM     22  C   UNL A   1      47.967  27.244  23.973  1.00  0.00     0.135 A 
ATOM     23  F   UNL A   1      46.938  27.873  23.387  1.00  0.00    -0.206 F 
ENDBRANCH  13  16
ENDBRANCH   8  12
ENDBRANCH   4   7
ENDBRANCH   2   3
ENDBRANCH   1   2
BRANCH   1  24
ATOM     24  C   UNL A   1      42.919  18.415  26.912  1.00  0.00     0.118 C 
BRANCH  24  25
ATOM     25  N   UNL A   1      41.663  18.574  26.194  1.00  0.00    -0.352 N 
ATOM     26  C   UNL A   1      40.783  19.627  26.158  1.00  0.00     0.251 C 
ATOM     27  H   UNL A   1      41.402  17.799  25.645  1.00  0.00     0.163 HD
ATOM     28  O   UNL A   1      39.681  19.473  25.640  1.00  0.00    -0.269 OA
BRANCH  26  29
ATOM     29  C   UNL A   1      41.138  20.939  26.741  1.00  0.00     0.039 A 
ATOM     30  C   UNL A   1      41.633  20.982  28.049  1.00  0.00     0.014 A 
ATOM     31  C   UNL A   1      40.932  22.129  26.037  1.00  0.00     0.014 A 
ATOM     32  C   UNL A   1      41.971  22.208  28.630  1.00  0.00     0.010 A 
ATOM     33  C   UNL A   1      41.331  23.344  26.591  1.00  0.00     0.010 A 
ATOM     34  C   UNL A   1      41.848  23.397  27.895  1.00  0.00    -0.014 A 
BRANCH  34  35
ATOM     35  C   UNL A   1      42.247  24.707  28.472  1.00  0.00     0.031 A 
ATOM     36  C   UNL A   1      41.240  25.816  28.606  1.00  0.00     0.074 A 
ATOM     37  C   UNL A   1      43.530  24.923  28.816  1.00  0.00     0.049 A 
ATOM     38  N   UNL A   1      41.415  27.046  29.022  1.00  0.00    -0.248 NA
ATOM     39  C   UNL A   1      39.861  25.510  28.196  1.00  0.00     0.031 C 
ATOM     40  C   UNL A   1      44.612  23.942  28.716  1.00  0.00     0.029 A 
ATOM     41  N   UNL A   1      44.144  26.045  29.315  1.00  0.00    -0.354 N 
ATOM     42  C   UNL A   1      40.177  27.665  28.899  1.00  0.00     0.074 A 
ATOM     43  C   UNL A   1      39.273  26.690  28.330  1.00  0.00     0.031 C 
ATOM     44  C   UNL A   1      45.749  24.495  29.168  1.00  0.00     0.029 A 
ATOM     45  C   UNL A   1      45.487  25.879  29.550  1.00  0.00     0.049 A 
ATOM     46  H   UNL A   1      43.666  26.888  29.489  1.00  0.00     0.167 HD
ATOM     47  C   UNL A   1      39.819  28.926  29.242  1.00  0.00     0.031 A 
ATOM     48  C   UNL A   1      46.407  26.744  30.016  1.00  0.00     0.031 A 
ATOM     49  C   UNL A   1      40.714  29.895  29.818  1.00  0.00     0.049 A 
ATOM     50  C   UNL A   1      45.993  28.146  30.367  1.00  0.00     0.074 A 
ATOM     51  C   UNL A   1      40.431  31.177  30.256  1.00  0.00     0.029 A 
ATOM     52  N   UNL A   1      42.069  29.690  30.029  1.00  0.00    -0.354 N 
ATOM     53  N   UNL A   1      44.807  28.697  30.301  1.00  0.00    -0.248 NA
ATOM     54  C   UNL A   1      47.049  29.040  30.862  1.00  0.00     0.031 C 
ATOM     55  C   UNL A   1      41.626  31.767  30.684  1.00  0.00     0.029 A 
ATOM     56  C   UNL A   1      42.643  30.832  30.564  1.00  0.00     0.049 A 
ATOM     57  H   UNL A   1      42.552  28.857  29.828  1.00  0.00     0.167 HD
ATOM     58  C   UNL A   1      44.965  29.994  30.774  1.00  0.00     0.074 A 
ATOM     59  C   UNL A   1      46.362  30.142  31.132  1.00  0.00     0.031 C 
ATOM     60  C   UNL A   1      44.034  30.970  30.908  1.00  0.00     0.031 A 
BRANCH  47  61
ATOM     61  C   UNL A   1      38.395  29.331  28.977  1.00  0.00    -0.014 A 
ATOM     62  C   UNL A   1      37.974  29.732  27.698  1.00  0.00     0.009 A 
ATOM     63  C   UNL A   1      37.457  29.304  30.021  1.00  0.00     0.009 A 
ATOM     64  C   UNL A   1      36.659  30.151  27.485  1.00  0.00     0.001 A 
ATOM     65  C   UNL A   1      36.134  29.691  29.797  1.00  0.00     0.001 A 
ATOM     66  C   UNL A   1      35.740  30.127  28.532  1.00  0.00     0.000 A 
ENDBRANCH  47  61
BRANCH  48  67
ATOM     67  C   UNL A   1      47.809  26.295  30.209  1.00  0.00    -0.014 A 
ATOM     68  C   UNL A   1      48.224  25.798  31.455  1.00  0.00     0.009 A 
ATOM     69  C   UNL A   1      48.732  26.341  29.153  1.00  0.00     0.009 A 
ATOM     70  C   UNL A   1      49.540  25.370  31.642  1.00  0.00     0.001 A 
ATOM     71  C   UNL A   1      50.039  25.888  29.337  1.00  0.00     0.001 A 
ATOM     72  C   UNL A   1      50.444  25.409  30.582  1.00  0.00     0.000 A 
ENDBRANCH  48  67
BRANCH  60  73
ATOM     73  C   UNL A   1      44.489  32.276  31.496  1.00  0.00    -0.014 A 
ATOM     74  C   UNL A   1      44.500  32.489  32.883  1.00  0.00     0.009 A 
ATOM     75  C   UNL A   1      44.951  33.295  30.648  1.00  0.00     0.009 A 
ATOM     76  C   UNL A   1      44.936  33.708  33.406  1.00  0.00     0.001 A 
ATOM     77  C   UNL A   1      45.413  34.502  31.175  1.00  0.00     0.001 A 
ATOM     78  C   UNL A   1      45.396  34.711  32.553  1.00  0.00     0.000 A 
ENDBRANCH  60  73
ENDBRANCH  34  35
ENDBRANCH  26  29
ENDBRANCH  24  25
ENDBRANCH   1  24
TORSDOF 12
ENDMDL
