MODEL 1
REMARK VINA RESULT:     -10.9      0.000      0.000
REMARK SMILES C[C@@H]1CN(C(=O)NC(=O)CCCCC(=O)NCCCNC(=O)c2ccc(-c3c4nc(c(-c5ccccc5)c5ccc([nH]5)c(-c5ccccc5)c5nc(c(-c6ccccc6)c6ccc3[nH]6)C=C5)C=C4)cc2)CCO1
REMARK SMILES IDX 14 1 15 2 16 3 13 5 12 6 11 7 10 8 8 9 5 10 6 11 7 12 9 14
REMARK SMILES IDX 4 15 1 16 2 17 3 18 73 19 72 20 71 21 17 22 18 23 19 24
REMARK SMILES IDX 20 25 21 26 22 28 23 29 24 30 70 31 25 32 69 33 26 34 27 35
REMARK SMILES IDX 28 36 63 37 29 38 68 39 62 40 64 41 30 42 67 43 61 44 60 45
REMARK SMILES IDX 31 47 53 48 38 49 52 50 39 51 42 52 51 53 65 54 40 55 41 56
REMARK SMILES IDX 50 58 66 59 43 60 32 61 33 62 37 63 34 64 36 65 35 66 54 67
REMARK SMILES IDX 55 68 59 69 56 70 58 71 57 72 44 73 45 74 49 75 46 76 48 77
REMARK SMILES IDX 47 78
REMARK H PARENT 16 4 7 13 20 27 64 46 42 57
REMARK Flexibility Score: inf
ROOT
ATOM      1  C   UNL A   1      31.820  28.193  27.044  1.00  0.00     0.219 C 
ATOM      2  O   UNL A   1      31.229  27.506  27.877  1.00  0.00    -0.275 OA
ATOM      3  N   UNL A   1      31.799  29.545  27.192  1.00  0.00    -0.356 N 
ATOM      4  H   UNL A   1      31.454  29.870  28.056  1.00  0.00     0.163 HD
ENDROOT
BRANCH   1   5
ATOM      5  C   UNL A   1      32.637  27.564  25.934  1.00  0.00     0.100 C 
BRANCH   5   6
ATOM      6  C   UNL A   1      33.177  26.157  26.146  1.00  0.00     0.010 C 
BRANCH   6   7
ATOM      7  C   UNL A   1      34.227  25.634  25.154  1.00  0.00     0.010 C 
BRANCH   7   8
ATOM      8  C   UNL A   1      34.116  24.191  24.656  1.00  0.00     0.100 C 
BRANCH   8   9
ATOM      9  C   UNL A   1      34.204  23.959  23.165  1.00  0.00     0.227 C 
ATOM     10  C   UNL A   1      32.854  25.672  22.160  1.00  0.00     0.324 C 
ATOM     11  O   UNL A   1      33.554  26.304  21.371  1.00  0.00    -0.248 OA
ATOM     12  N   UNL A   1      33.130  24.353  22.395  1.00  0.00    -0.278 N 
ATOM     13  H   UNL A   1      32.546  23.665  22.003  1.00  0.00     0.174 HD
ATOM     14  O   UNL A   1      35.136  23.332  22.664  1.00  0.00    -0.275 OA
BRANCH  10  15
ATOM     15  N   UNL A   1      31.690  26.200  22.704  1.00  0.00    -0.320 N 
ATOM     16  C   UNL A   1      29.191  29.109  22.550  1.00  0.00     0.040 C 
ATOM     17  C   UNL A   1      29.973  27.991  23.234  1.00  0.00     0.134 C 
ATOM     18  C   UNL A   1      31.114  27.497  22.333  1.00  0.00     0.153 C 
ATOM     19  O   UNL A   1      29.039  26.933  23.490  1.00  0.00    -0.375 OA
ATOM     20  C   UNL A   1      29.683  25.875  24.203  1.00  0.00     0.182 C 
ATOM     21  C   UNL A   1      30.800  25.244  23.379  1.00  0.00     0.150 C 
ENDBRANCH  10  15
ENDBRANCH   8   9
ENDBRANCH   7   8
ENDBRANCH   6   7
ENDBRANCH   5   6
ENDBRANCH   1   5
BRANCH   3  22
ATOM     22  C   UNL A   1      32.212  30.575  26.264  1.00  0.00     0.117 C 
BRANCH  22  23
ATOM     23  C   UNL A   1      31.731  31.939  26.714  1.00  0.00     0.042 C 
BRANCH  23  24
ATOM     24  C   UNL A   1      32.847  32.688  27.421  1.00  0.00     0.118 C 
BRANCH  24  25
ATOM     25  N   UNL A   1      32.512  34.094  27.640  1.00  0.00    -0.352 N 
ATOM     26  C   UNL A   1      33.006  34.977  28.577  1.00  0.00     0.251 C 
ATOM     27  H   UNL A   1      31.835  34.464  27.029  1.00  0.00     0.163 HD
ATOM     28  O   UNL A   1      32.478  36.061  28.754  1.00  0.00    -0.269 OA
BRANCH  26  29
ATOM     29  C   UNL A   1      34.163  34.560  29.399  1.00  0.00     0.039 A 
ATOM     30  C   UNL A   1      33.948  33.966  30.643  1.00  0.00     0.014 A 
ATOM     31  C   UNL A   1      35.451  34.665  28.880  1.00  0.00     0.014 A 
ATOM     32  C   UNL A   1      35.019  33.362  31.306  1.00  0.00     0.010 A 
ATOM     33  C   UNL A   1      36.479  33.945  29.469  1.00  0.00     0.010 A 
ATOM     34  C   UNL A   1      36.278  33.281  30.689  1.00  0.00    -0.014 A 
BRANCH  34  35
ATOM     35  C   UNL A   1      37.407  32.511  31.274  1.00  0.00     0.031 A 
ATOM     36  C   UNL A   1      38.009  32.953  32.584  1.00  0.00     0.074 A 
ATOM     37  C   UNL A   1      37.976  31.507  30.576  1.00  0.00     0.049 A 
ATOM     38  N   UNL A   1      39.106  32.544  33.169  1.00  0.00    -0.248 NA
ATOM     39  C   UNL A   1      37.316  34.037  33.302  1.00  0.00     0.031 C 
ATOM     40  C   UNL A   1      37.544  31.026  29.260  1.00  0.00     0.029 A 
ATOM     41  N   UNL A   1      39.062  30.719  30.872  1.00  0.00    -0.354 N 
ATOM     42  C   UNL A   1      39.263  33.362  34.281  1.00  0.00     0.074 A 
ATOM     43  C   UNL A   1      38.178  34.316  34.267  1.00  0.00     0.031 C 
ATOM     44  C   UNL A   1      38.337  30.010  28.878  1.00  0.00     0.029 A 
ATOM     45  C   UNL A   1      39.361  29.800  29.894  1.00  0.00     0.049 A 
ATOM     46  H   UNL A   1      39.578  30.805  31.705  1.00  0.00     0.167 HD
ATOM     47  C   UNL A   1      40.213  33.311  35.242  1.00  0.00     0.031 A 
ATOM     48  C   UNL A   1      40.355  28.895  29.819  1.00  0.00     0.031 A 
ATOM     49  C   UNL A   1      41.245  32.315  35.301  1.00  0.00     0.049 A 
ATOM     50  C   UNL A   1      41.353  28.808  30.940  1.00  0.00     0.074 A 
ATOM     51  C   UNL A   1      42.181  32.102  36.297  1.00  0.00     0.029 A 
ATOM     52  N   UNL A   1      41.464  31.353  34.329  1.00  0.00    -0.354 N 
ATOM     53  N   UNL A   1      41.436  29.535  32.028  1.00  0.00    -0.248 NA
ATOM     54  C   UNL A   1      42.389  27.772  30.826  1.00  0.00     0.031 C 
ATOM     55  C   UNL A   1      42.991  31.031  35.909  1.00  0.00     0.029 A 
ATOM     56  C   UNL A   1      42.532  30.553  34.692  1.00  0.00     0.049 A 
ATOM     57  H   UNL A   1      40.938  31.253  33.502  1.00  0.00     0.167 HD
ATOM     58  C   UNL A   1      42.520  29.033  32.735  1.00  0.00     0.074 A 
ATOM     59  C   UNL A   1      43.049  27.926  31.965  1.00  0.00     0.031 C 
ATOM     60  C   UNL A   1      43.036  29.453  33.915  1.00  0.00     0.031 A 
BRANCH  47  61
ATOM     61  C   UNL A   1      40.171  34.358  36.319  1.00  0.00    -0.014 A 
ATOM     62  C   UNL A   1      39.396  34.185  37.478  1.00  0.00     0.009 A 
ATOM     63  C   UNL A   1      40.945  35.522  36.188  1.00  0.00     0.009 A 
ATOM     64  C   UNL A   1      39.370  35.171  38.464  1.00  0.00     0.001 A 
ATOM     65  C   UNL A   1      40.939  36.493  37.189  1.00  0.00     0.001 A 
ATOM     66  C   UNL A   1      40.145  36.322  38.322  1.00  0.00     0.000 A 
ENDBRANCH  47  61
BRANCH  48  67
ATOM     67  C   UNL A   1      40.459  27.988  28.646  1.00  0.00    -0.014 A 
ATOM     68  C   UNL A   1      41.193  28.375  27.513  1.00  0.00     0.009 A 
ATOM     69  C   UNL A   1      39.811  26.744  28.641  1.00  0.00     0.009 A 
ATOM     70  C   UNL A   1      41.248  27.548  26.388  1.00  0.00     0.001 A 
ATOM     71  C   UNL A   1      39.889  25.908  27.525  1.00  0.00     0.001 A 
ATOM     72  C   UNL A   1      40.598  26.315  26.396  1.00  0.00     0.000 A 
ENDBRANCH  48  67
BRANCH  60  73
ATOM     73  C   UNL A   1      44.213  28.698  34.456  1.00  0.00    -0.014 A 
ATOM     74  C   UNL A   1      44.035  27.568  35.269  1.00  0.00     0.009 A 
ATOM     75  C   UNL A   1      45.514  29.092  34.106  1.00  0.00     0.009 A 
ATOM     76  C   UNL A   1      45.143  26.861  35.742  1.00  0.00     0.001 A 
ATOM     77  C   UNL A   1      46.617  28.368  34.560  1.00  0.00     0.001 A 
ATOM     78  C   UNL A   1      46.430  27.259  35.383  1.00  0.00     0.000 A 
ENDBRANCH  60  73
ENDBRANCH  34  35
ENDBRANCH  26  29
ENDBRANCH  24  25
ENDBRANCH  23  24
ENDBRANCH  22  23
ENDBRANCH   3  22
TORSDOF 15
ENDMDL
MODEL 2
REMARK VINA RESULT:     -10.8      4.567      9.055
REMARK SMILES C[C@@H]1CN(C(=O)NC(=O)CCCCC(=O)NCCCNC(=O)c2ccc(-c3c4nc(c(-c5ccccc5)c5ccc([nH]5)c(-c5ccccc5)c5nc(c(-c6ccccc6)c6ccc3[nH]6)C=C5)C=C4)cc2)CCO1
REMARK SMILES IDX 14 1 15 2 16 3 13 5 12 6 11 7 10 8 8 9 5 10 6 11 7 12 9 14
REMARK SMILES IDX 4 15 1 16 2 17 3 18 73 19 72 20 71 21 17 22 18 23 19 24
REMARK SMILES IDX 20 25 21 26 22 28 23 29 24 30 70 31 25 32 69 33 26 34 27 35
REMARK SMILES IDX 28 36 63 37 29 38 68 39 62 40 64 41 30 42 67 43 61 44 60 45
REMARK SMILES IDX 31 47 53 48 38 49 52 50 39 51 42 52 51 53 65 54 40 55 41 56
REMARK SMILES IDX 50 58 66 59 43 60 32 61 33 62 37 63 34 64 36 65 35 66 54 67
REMARK SMILES IDX 55 68 59 69 56 70 58 71 57 72 44 73 45 74 49 75 46 76 48 77
REMARK SMILES IDX 47 78
REMARK H PARENT 16 4 7 13 20 27 64 46 42 57
REMARK Flexibility Score: inf
ROOT
ATOM      1  C   UNL A   1      37.337  23.277  25.823  1.00  0.00     0.219 C 
ATOM      2  O   UNL A   1      38.081  24.215  26.108  1.00  0.00    -0.275 OA
ATOM      3  N   UNL A   1      37.887  22.166  25.261  1.00  0.00    -0.356 N 
ATOM      4  H   UNL A   1      38.871  22.127  25.282  1.00  0.00     0.163 HD
ENDROOT
BRANCH   1   5
ATOM      5  C   UNL A   1      35.863  23.300  26.170  1.00  0.00     0.100 C 
BRANCH   5   6
ATOM      6  C   UNL A   1      35.010  24.432  25.615  1.00  0.00     0.010 C 
BRANCH   6   7
ATOM      7  C   UNL A   1      33.871  24.069  24.652  1.00  0.00     0.010 C 
BRANCH   7   8
ATOM      8  C   UNL A   1      32.599  23.434  25.220  1.00  0.00     0.100 C 
BRANCH   8   9
ATOM      9  C   UNL A   1      32.102  23.939  26.555  1.00  0.00     0.227 C 
ATOM     10  C   UNL A   1      30.585  25.730  26.050  1.00  0.00     0.324 C 
ATOM     11  O   UNL A   1      29.496  25.472  26.560  1.00  0.00    -0.248 OA
ATOM     12  N   UNL A   1      31.729  25.263  26.636  1.00  0.00    -0.278 N 
ATOM     13  H   UNL A   1      32.303  25.891  27.132  1.00  0.00     0.174 HD
ATOM     14  O   UNL A   1      32.143  23.237  27.564  1.00  0.00    -0.275 OA
BRANCH  10  15
ATOM     15  N   UNL A   1      30.713  26.616  24.988  1.00  0.00    -0.320 N 
ATOM     16  C   UNL A   1      33.185  28.695  22.914  1.00  0.00     0.040 C 
ATOM     17  C   UNL A   1      31.835  28.383  23.553  1.00  0.00     0.134 C 
ATOM     18  C   UNL A   1      31.971  27.255  24.586  1.00  0.00     0.153 C 
ATOM     19  O   UNL A   1      30.957  27.988  22.489  1.00  0.00    -0.375 OA
ATOM     20  C   UNL A   1      29.644  27.753  23.001  1.00  0.00     0.182 C 
ATOM     21  C   UNL A   1      29.630  26.595  23.994  1.00  0.00     0.150 C 
ENDBRANCH  10  15
ENDBRANCH   8   9
ENDBRANCH   7   8
ENDBRANCH   6   7
ENDBRANCH   5   6
ENDBRANCH   1   5
BRANCH   3  22
ATOM     22  C   UNL A   1      37.235  21.035  24.640  1.00  0.00     0.117 C 
BRANCH  22  23
ATOM     23  C   UNL A   1      38.161  19.837  24.580  1.00  0.00     0.042 C 
BRANCH  23  24
ATOM     24  C   UNL A   1      38.805  19.598  25.934  1.00  0.00     0.118 C 
BRANCH  24  25
ATOM     25  N   UNL A   1      40.124  18.980  25.812  1.00  0.00    -0.352 N 
ATOM     26  C   UNL A   1      41.372  19.528  26.029  1.00  0.00     0.251 C 
ATOM     27  H   UNL A   1      40.122  18.035  25.535  1.00  0.00     0.163 HD
ATOM     28  O   UNL A   1      42.382  18.934  25.693  1.00  0.00    -0.269 OA
BRANCH  26  29
ATOM     29  C   UNL A   1      41.456  20.874  26.637  1.00  0.00     0.039 A 
ATOM     30  C   UNL A   1      41.653  20.999  28.013  1.00  0.00     0.014 A 
ATOM     31  C   UNL A   1      41.445  22.001  25.820  1.00  0.00     0.014 A 
ATOM     32  C   UNL A   1      41.967  22.250  28.547  1.00  0.00     0.010 A 
ATOM     33  C   UNL A   1      41.894  23.210  26.328  1.00  0.00     0.010 A 
ATOM     34  C   UNL A   1      42.164  23.352  27.698  1.00  0.00    -0.014 A 
BRANCH  34  35
ATOM     35  C   UNL A   1      42.658  24.664  28.193  1.00  0.00     0.031 A 
ATOM     36  C   UNL A   1      41.672  25.762  28.500  1.00  0.00     0.074 A 
ATOM     37  C   UNL A   1      43.983  24.916  28.240  1.00  0.00     0.049 A 
ATOM     38  N   UNL A   1      41.895  27.025  28.757  1.00  0.00    -0.248 NA
ATOM     39  C   UNL A   1      40.243  25.404  28.455  1.00  0.00     0.031 C 
ATOM     40  C   UNL A   1      45.048  23.969  27.895  1.00  0.00     0.029 A 
ATOM     41  N   UNL A   1      44.660  26.061  28.579  1.00  0.00    -0.354 N 
ATOM     42  C   UNL A   1      40.641  27.617  28.839  1.00  0.00     0.074 A 
ATOM     43  C   UNL A   1      39.663  26.589  28.563  1.00  0.00     0.031 C 
ATOM     44  C   UNL A   1      46.240  24.563  28.069  1.00  0.00     0.029 A 
ATOM     45  C   UNL A   1      46.027  25.943  28.489  1.00  0.00     0.049 A 
ATOM     46  H   UNL A   1      44.210  26.890  28.861  1.00  0.00     0.167 HD
ATOM     47  C   UNL A   1      40.326  28.898  29.141  1.00  0.00     0.031 A 
ATOM     48  C   UNL A   1      47.000  26.847  28.708  1.00  0.00     0.031 A 
ATOM     49  C   UNL A   1      41.291  29.900  29.494  1.00  0.00     0.049 A 
ATOM     50  C   UNL A   1      46.623  28.243  29.117  1.00  0.00     0.074 A 
ATOM     51  C   UNL A   1      41.068  31.193  29.934  1.00  0.00     0.029 A 
ATOM     52  N   UNL A   1      42.663  29.715  29.464  1.00  0.00    -0.354 N 
ATOM     53  N   UNL A   1      45.430  28.764  29.273  1.00  0.00    -0.248 NA
ATOM     54  C   UNL A   1      47.727  29.176  29.386  1.00  0.00     0.031 C 
ATOM     55  C   UNL A   1      42.309  31.803  30.136  1.00  0.00     0.029 A 
ATOM     56  C   UNL A   1      43.302  30.876  29.861  1.00  0.00     0.049 A 
ATOM     57  H   UNL A   1      43.116  28.882  29.200  1.00  0.00     0.167 HD
ATOM     58  C   UNL A   1      45.640  30.075  29.677  1.00  0.00     0.074 A 
ATOM     59  C   UNL A   1      47.073  30.265  29.763  1.00  0.00     0.031 C 
ATOM     60  C   UNL A   1      44.728  31.039  29.947  1.00  0.00     0.031 A 
BRANCH  47  61
ATOM     61  C   UNL A   1      38.874  29.283  29.115  1.00  0.00    -0.014 A 
ATOM     62  C   UNL A   1      38.272  29.790  27.952  1.00  0.00     0.009 A 
ATOM     63  C   UNL A   1      38.087  29.102  30.263  1.00  0.00     0.009 A 
ATOM     64  C   UNL A   1      36.922  30.143  27.951  1.00  0.00     0.001 A 
ATOM     65  C   UNL A   1      36.730  29.429  30.251  1.00  0.00     0.001 A 
ATOM     66  C   UNL A   1      36.151  29.958  29.098  1.00  0.00     0.000 A 
ENDBRANCH  47  61
BRANCH  48  67
ATOM     67  C   UNL A   1      48.429  26.467  28.554  1.00  0.00    -0.014 A 
ATOM     68  C   UNL A   1      49.064  26.581  27.307  1.00  0.00     0.009 A 
ATOM     69  C   UNL A   1      49.159  25.967  29.643  1.00  0.00     0.009 A 
ATOM     70  C   UNL A   1      50.390  26.173  27.147  1.00  0.00     0.001 A 
ATOM     71  C   UNL A   1      50.493  25.585  29.486  1.00  0.00     0.001 A 
ATOM     72  C   UNL A   1      51.104  25.678  28.237  1.00  0.00     0.000 A 
ENDBRANCH  48  67
BRANCH  60  73
ATOM     73  C   UNL A   1      45.252  32.374  30.387  1.00  0.00    -0.014 A 
ATOM     74  C   UNL A   1      45.507  32.640  31.741  1.00  0.00     0.009 A 
ATOM     75  C   UNL A   1      45.542  33.358  29.429  1.00  0.00     0.009 A 
ATOM     76  C   UNL A   1      46.019  33.880  32.129  1.00  0.00     0.001 A 
ATOM     77  C   UNL A   1      46.077  34.586  29.818  1.00  0.00     0.001 A 
ATOM     78  C   UNL A   1      46.309  34.847  31.168  1.00  0.00     0.000 A 
ENDBRANCH  60  73
ENDBRANCH  34  35
ENDBRANCH  26  29
ENDBRANCH  24  25
ENDBRANCH  23  24
ENDBRANCH  22  23
ENDBRANCH   3  22
TORSDOF 15
ENDMDL
MODEL 3
REMARK VINA RESULT:     -10.7      1.772      6.564
REMARK SMILES C[C@@H]1CN(C(=O)NC(=O)CCCCC(=O)NCCCNC(=O)c2ccc(-c3c4nc(c(-c5ccccc5)c5ccc([nH]5)c(-c5ccccc5)c5nc(c(-c6ccccc6)c6ccc3[nH]6)C=C5)C=C4)cc2)CCO1
REMARK SMILES IDX 14 1 15 2 16 3 13 5 12 6 11 7 10 8 8 9 5 10 6 11 7 12 9 14
REMARK SMILES IDX 4 15 1 16 2 17 3 18 73 19 72 20 71 21 17 22 18 23 19 24
REMARK SMILES IDX 20 25 21 26 22 28 23 29 24 30 70 31 25 32 69 33 26 34 27 35
REMARK SMILES IDX 28 36 63 37 29 38 68 39 62 40 64 41 30 42 67 43 61 44 60 45
REMARK SMILES IDX 31 47 53 48 38 49 52 50 39 51 42 52 51 53 65 54 40 55 41 56
REMARK SMILES IDX 50 58 66 59 43 60 32 61 33 62 37 63 34 64 36 65 35 66 54 67
REMARK SMILES IDX 55 68 59 69 56 70 58 71 57 72 44 73 45 74 49 75 46 76 48 77
REMARK SMILES IDX 47 78
REMARK H PARENT 16 4 7 13 20 27 64 46 42 57
REMARK Flexibility Score: inf
ROOT
ATOM      1  C   UNL A   1      32.480  27.324  25.642  1.00  0.00     0.219 C 
ATOM      2  O   UNL A   1      33.199  26.355  25.886  1.00  0.00    -0.275 OA
ATOM      3  N   UNL A   1      33.068  28.543  25.500  1.00  0.00    -0.356 N 
ATOM      4  H   UNL A   1      34.051  28.532  25.433  1.00  0.00     0.163 HD
ENDROOT
BRANCH   1   5
ATOM      5  C   UNL A   1      30.992  27.168  25.406  1.00  0.00     0.100 C 
BRANCH   5   6
ATOM      6  C   UNL A   1      30.528  26.678  24.042  1.00  0.00     0.010 C 
BRANCH   6   7
ATOM      7  C   UNL A   1      31.042  25.315  23.556  1.00  0.00     0.010 C 
BRANCH   7   8
ATOM      8  C   UNL A   1      31.873  25.254  22.272  1.00  0.00     0.100 C 
BRANCH   8   9
ATOM      9  C   UNL A   1      33.338  25.610  22.371  1.00  0.00     0.227 C 
ATOM     10  C   UNL A   1      34.419  23.667  23.279  1.00  0.00     0.324 C 
ATOM     11  O   UNL A   1      35.302  23.315  22.498  1.00  0.00    -0.248 OA
ATOM     12  N   UNL A   1      34.079  24.990  23.355  1.00  0.00    -0.278 N 
ATOM     13  H   UNL A   1      34.372  25.514  24.135  1.00  0.00     0.174 HD
ATOM     14  O   UNL A   1      33.831  26.507  21.689  1.00  0.00    -0.275 OA
BRANCH  10  15
ATOM     15  N   UNL A   1      33.861  22.797  24.206  1.00  0.00    -0.320 N 
ATOM     16  C   UNL A   1      33.152  22.213  27.933  1.00  0.00     0.040 C 
ATOM     17  C   UNL A   1      33.451  21.788  26.498  1.00  0.00     0.134 C 
ATOM     18  C   UNL A   1      33.906  22.992  25.659  1.00  0.00     0.153 C 
ATOM     19  O   UNL A   1      32.237  21.237  25.970  1.00  0.00    -0.375 OA
ATOM     20  C   UNL A   1      32.459  20.742  24.648  1.00  0.00     0.182 C 
ATOM     21  C   UNL A   1      32.850  21.863  23.690  1.00  0.00     0.150 C 
ENDBRANCH  10  15
ENDBRANCH   8   9
ENDBRANCH   7   8
ENDBRANCH   6   7
ENDBRANCH   5   6
ENDBRANCH   1   5
BRANCH   3  22
ATOM     22  C   UNL A   1      32.458  29.852  25.433  1.00  0.00     0.117 C 
BRANCH  22  23
ATOM     23  C   UNL A   1      32.128  30.372  26.817  1.00  0.00     0.042 C 
BRANCH  23  24
ATOM     24  C   UNL A   1      33.203  31.333  27.292  1.00  0.00     0.118 C 
BRANCH  24  25
ATOM     25  N   UNL A   1      32.684  32.687  27.481  1.00  0.00    -0.352 N 
ATOM     26  C   UNL A   1      33.159  33.703  28.284  1.00  0.00     0.251 C 
ATOM     27  H   UNL A   1      31.879  32.905  26.959  1.00  0.00     0.163 HD
ATOM     28  O   UNL A   1      32.497  34.708  28.477  1.00  0.00    -0.269 OA
BRANCH  26  29
ATOM     29  C   UNL A   1      34.471  33.527  28.944  1.00  0.00     0.039 A 
ATOM     30  C   UNL A   1      34.559  32.768  30.112  1.00  0.00     0.014 A 
ATOM     31  C   UNL A   1      35.621  34.028  28.340  1.00  0.00     0.014 A 
ATOM     32  C   UNL A   1      35.818  32.406  30.598  1.00  0.00     0.010 A 
ATOM     33  C   UNL A   1      36.859  33.552  28.740  1.00  0.00     0.010 A 
ATOM     34  C   UNL A   1      36.976  32.733  29.874  1.00  0.00    -0.014 A 
BRANCH  34  35
ATOM     35  C   UNL A   1      38.324  32.236  30.256  1.00  0.00     0.031 A 
ATOM     36  C   UNL A   1      38.841  30.953  29.656  1.00  0.00     0.074 A 
ATOM     37  C   UNL A   1      39.023  32.853  31.230  1.00  0.00     0.049 A 
ATOM     38  N   UNL A   1      39.893  30.250  29.989  1.00  0.00    -0.248 NA
ATOM     39  C   UNL A   1      38.036  30.351  28.577  1.00  0.00     0.031 C 
ATOM     40  C   UNL A   1      38.606  34.059  31.952  1.00  0.00     0.029 A 
ATOM     41  N   UNL A   1      40.232  32.534  31.799  1.00  0.00    -0.354 N 
ATOM     42  C   UNL A   1      39.837  29.102  29.208  1.00  0.00     0.074 A 
ATOM     43  C   UNL A   1      38.630  29.179  28.419  1.00  0.00     0.031 C 
ATOM     44  C   UNL A   1      39.555  34.392  32.843  1.00  0.00     0.029 A 
ATOM     45  C   UNL A   1      40.622  33.400  32.793  1.00  0.00     0.049 A 
ATOM     46  H   UNL A   1      40.769  31.757  31.521  1.00  0.00     0.167 HD
ATOM     47  C   UNL A   1      40.724  28.082  29.137  1.00  0.00     0.031 A 
ATOM     48  C   UNL A   1      41.711  33.391  33.583  1.00  0.00     0.031 A 
ATOM     49  C   UNL A   1      41.963  28.042  29.861  1.00  0.00     0.049 A 
ATOM     50  C   UNL A   1      42.719  32.287  33.429  1.00  0.00     0.074 A 
ATOM     51  C   UNL A   1      42.985  27.115  29.767  1.00  0.00     0.029 A 
ATOM     52  N   UNL A   1      42.354  28.981  30.801  1.00  0.00    -0.354 N 
ATOM     53  N   UNL A   1      42.692  31.252  32.624  1.00  0.00    -0.248 NA
ATOM     54  C   UNL A   1      43.911  32.352  34.287  1.00  0.00     0.031 C 
ATOM     55  C   UNL A   1      43.982  27.474  30.678  1.00  0.00     0.029 A 
ATOM     56  C   UNL A   1      43.596  28.647  31.308  1.00  0.00     0.049 A 
ATOM     57  H   UNL A   1      41.827  29.769  31.068  1.00  0.00     0.167 HD
ATOM     58  C   UNL A   1      43.869  30.556  32.865  1.00  0.00     0.074 A 
ATOM     59  C   UNL A   1      44.597  31.296  33.874  1.00  0.00     0.031 C 
ATOM     60  C   UNL A   1      44.306  29.402  32.306  1.00  0.00     0.031 A 
BRANCH  47  61
ATOM     61  C   UNL A   1      40.389  26.931  28.231  1.00  0.00    -0.014 A 
ATOM     62  C   UNL A   1      40.849  26.886  26.905  1.00  0.00     0.009 A 
ATOM     63  C   UNL A   1      39.630  25.857  28.723  1.00  0.00     0.009 A 
ATOM     64  C   UNL A   1      40.524  25.808  26.081  1.00  0.00     0.001 A 
ATOM     65  C   UNL A   1      39.331  24.767  27.905  1.00  0.00     0.001 A 
ATOM     66  C   UNL A   1      39.770  24.748  26.582  1.00  0.00     0.000 A 
ENDBRANCH  47  61
BRANCH  48  67
ATOM     67  C   UNL A   1      41.918  34.464  34.591  1.00  0.00    -0.014 A 
ATOM     68  C   UNL A   1      41.435  34.311  35.901  1.00  0.00     0.009 A 
ATOM     69  C   UNL A   1      42.577  35.654  34.247  1.00  0.00     0.009 A 
ATOM     70  C   UNL A   1      41.580  35.340  36.835  1.00  0.00     0.001 A 
ATOM     71  C   UNL A   1      42.745  36.670  35.190  1.00  0.00     0.001 A 
ATOM     72  C   UNL A   1      42.237  36.517  36.479  1.00  0.00     0.000 A 
ENDBRANCH  48  67
BRANCH  60  73
ATOM     73  C   UNL A   1      45.642  28.887  32.751  1.00  0.00    -0.014 A 
ATOM     74  C   UNL A   1      45.747  27.959  33.798  1.00  0.00     0.009 A 
ATOM     75  C   UNL A   1      46.805  29.297  32.079  1.00  0.00     0.009 A 
ATOM     76  C   UNL A   1      46.998  27.471  34.180  1.00  0.00     0.001 A 
ATOM     77  C   UNL A   1      48.049  28.787  32.448  1.00  0.00     0.001 A 
ATOM     78  C   UNL A   1      48.145  27.881  33.502  1.00  0.00     0.000 A 
ENDBRANCH  60  73
ENDBRANCH  34  35
ENDBRANCH  26  29
ENDBRANCH  24  25
ENDBRANCH  23  24
ENDBRANCH  22  23
ENDBRANCH   3  22
TORSDOF 15
ENDMDL
