MODEL 1
REMARK VINA RESULT:     -11.8      0.000      0.000
REMARK SMILES O=C(CC1(CC(=O)NNc2ccc([N+](=O)[O-])cc2)CCCC1)NCCCNC(=O)c1ccc(-c2c3nc(c(-c4ccccc4)c4ccc([nH]4)c(-c4ccccc4)c4nc(c(-c5ccccc5)c5ccc2[nH]5)C=C4)C=C3)cc1
REMARK SMILES IDX 1 1 2 2 23 3 3 5 4 6 19 7 22 8 20 9 21 10 5 11 6 12 7 13
REMARK SMILES IDX 8 14 9 16 10 18 11 19 18 20 12 21 17 22 13 23 14 24 15 25
REMARK SMILES IDX 16 26 24 27 25 28 26 29 27 30 28 31 29 33 30 34 31 35 77 36
REMARK SMILES IDX 32 37 76 38 33 39 34 40 35 41 70 42 36 43 75 44 69 45 71 46
REMARK SMILES IDX 37 47 74 48 68 49 67 50 38 52 60 53 45 54 59 55 46 56 49 57
REMARK SMILES IDX 58 58 72 59 47 60 48 61 57 63 73 64 50 65 39 66 40 67 44 68
REMARK SMILES IDX 41 69 43 70 42 71 61 72 62 73 66 74 63 75 65 76 64 77 51 78
REMARK SMILES IDX 52 79 56 80 53 81 55 82 54 83
REMARK H PARENT 23 4 8 15 9 17 27 32 71 51 49 62
REMARK Flexibility Score: inf
ROOT
ATOM      1  O   UNL A   1      36.851  23.963  25.882  1.00  0.00    -0.275 OA
ATOM      2  C   UNL A   1      35.877  23.232  25.725  1.00  0.00     0.220 C 
ATOM      3  N   UNL A   1      35.962  21.986  25.161  1.00  0.00    -0.356 N 
ATOM      4  H   UNL A   1      35.209  21.360  25.266  1.00  0.00     0.163 HD
ENDROOT
BRANCH   2   5
ATOM      5  C   UNL A   1      34.504  23.636  26.235  1.00  0.00     0.107 C 
BRANCH   5   6
ATOM      6  C   UNL A   1      33.625  24.618  25.415  1.00  0.00    -0.012 C 
ATOM      7  C   UNL A   1      33.935  26.103  25.737  1.00  0.00     0.008 C 
ATOM      8  C   UNL A   1      34.125  24.594  23.951  1.00  0.00     0.008 C 
ATOM      9  C   UNL A   1      33.543  26.885  24.480  1.00  0.00     0.001 C 
ATOM     10  C   UNL A   1      33.634  25.893  23.325  1.00  0.00     0.001 C 
BRANCH   6  11
ATOM     11  C   UNL A   1      32.091  24.382  25.533  1.00  0.00     0.109 C 
BRANCH  11  12
ATOM     12  C   UNL A   1      31.635  23.232  26.419  1.00  0.00     0.238 C 
ATOM     13  O   UNL A   1      31.261  23.426  27.574  1.00  0.00    -0.273 OA
ATOM     14  N   UNL A   1      31.597  21.965  25.896  1.00  0.00    -0.270 N 
ATOM     15  H   UNL A   1      31.357  21.215  26.487  1.00  0.00     0.191 HD
BRANCH  14  16
ATOM     16  N   UNL A   1      31.884  21.702  24.570  1.00  0.00    -0.299 N 
ATOM     17  H   UNL A   1      31.693  22.355  23.857  1.00  0.00     0.188 HD
BRANCH  16  18
ATOM     18  C   UNL A   1      32.463  20.455  24.295  1.00  0.00     0.055 A 
ATOM     19  C   UNL A   1      32.096  19.787  23.119  1.00  0.00     0.034 A 
ATOM     20  C   UNL A   1      33.228  19.777  25.252  1.00  0.00     0.034 A 
ATOM     21  C   UNL A   1      32.506  18.474  22.880  1.00  0.00     0.088 A 
ATOM     22  C   UNL A   1      33.637  18.458  25.032  1.00  0.00     0.088 A 
ATOM     23  C   UNL A   1      33.266  17.809  23.847  1.00  0.00     0.269 A 
BRANCH  23  24
ATOM     24  N   UNL A   1      33.638  16.406  23.636  1.00  0.00     0.062 N 
ATOM     25  O   UNL A   1      33.254  15.575  24.471  1.00  0.00    -0.258 OA
ATOM     26  O   UNL A   1      34.327  16.137  22.642  1.00  0.00    -0.258 OA
ENDBRANCH  23  24
ENDBRANCH  16  18
ENDBRANCH  14  16
ENDBRANCH  11  12
ENDBRANCH   6  11
ENDBRANCH   5   6
ENDBRANCH   2   5
BRANCH   3  27
ATOM     27  C   UNL A   1      37.129  21.566  24.415  1.00  0.00     0.117 C 
BRANCH  27  28
ATOM     28  C   UNL A   1      37.762  20.307  24.984  1.00  0.00     0.042 C 
BRANCH  28  29
ATOM     29  C   UNL A   1      38.994  20.564  25.842  1.00  0.00     0.118 C 
BRANCH  29  30
ATOM     30  N   UNL A   1      39.946  19.461  25.840  1.00  0.00    -0.352 N 
ATOM     31  C   UNL A   1      41.296  19.457  26.102  1.00  0.00     0.251 C 
ATOM     32  H   UNL A   1      39.562  18.582  25.617  1.00  0.00     0.163 HD
ATOM     33  O   UNL A   1      41.950  18.438  25.937  1.00  0.00    -0.269 OA
BRANCH  31  34
ATOM     34  C   UNL A   1      41.966  20.699  26.546  1.00  0.00     0.039 A 
ATOM     35  C   UNL A   1      42.505  21.551  25.578  1.00  0.00     0.014 A 
ATOM     36  C   UNL A   1      42.047  21.034  27.900  1.00  0.00     0.014 A 
ATOM     37  C   UNL A   1      43.040  22.784  25.962  1.00  0.00     0.010 A 
ATOM     38  C   UNL A   1      42.513  22.292  28.274  1.00  0.00     0.010 A 
ATOM     39  C   UNL A   1      43.000  23.185  27.307  1.00  0.00    -0.014 A 
BRANCH  39  40
ATOM     40  C   UNL A   1      43.418  24.551  27.717  1.00  0.00     0.031 A 
ATOM     41  C   UNL A   1      42.392  25.599  28.040  1.00  0.00     0.074 A 
ATOM     42  C   UNL A   1      44.728  24.869  27.720  1.00  0.00     0.049 A 
ATOM     43  N   UNL A   1      42.568  26.862  28.336  1.00  0.00    -0.248 NA
ATOM     44  C   UNL A   1      40.982  25.179  28.007  1.00  0.00     0.031 C 
ATOM     45  C   UNL A   1      45.825  23.955  27.393  1.00  0.00     0.029 A 
ATOM     46  N   UNL A   1      45.359  26.056  28.000  1.00  0.00    -0.354 N 
ATOM     47  C   UNL A   1      41.295  27.390  28.510  1.00  0.00     0.074 A 
ATOM     48  C   UNL A   1      40.355  26.323  28.244  1.00  0.00     0.031 C 
ATOM     49  C   UNL A   1      46.992  24.609  27.512  1.00  0.00     0.029 A 
ATOM     50  C   UNL A   1      46.726  25.996  27.875  1.00  0.00     0.049 A 
ATOM     51  H   UNL A   1      44.877  26.874  28.264  1.00  0.00     0.167 HD
ATOM     52  C   UNL A   1      40.940  28.645  28.874  1.00  0.00     0.031 A 
ATOM     53  C   UNL A   1      47.662  26.954  28.020  1.00  0.00     0.031 A 
ATOM     54  C   UNL A   1      41.874  29.709  29.140  1.00  0.00     0.049 A 
ATOM     55  C   UNL A   1      47.238  28.348  28.384  1.00  0.00     0.074 A 
ATOM     56  C   UNL A   1      41.610  30.999  29.568  1.00  0.00     0.029 A 
ATOM     57  N   UNL A   1      43.248  29.609  28.995  1.00  0.00    -0.354 N 
ATOM     58  N   UNL A   1      46.034  28.814  28.612  1.00  0.00    -0.248 NA
ATOM     59  C   UNL A   1      48.307  29.350  28.516  1.00  0.00     0.031 C 
ATOM     60  C   UNL A   1      42.821  31.697  29.623  1.00  0.00     0.029 A 
ATOM     61  C   UNL A   1      43.844  30.825  29.291  1.00  0.00     0.049 A 
ATOM     62  H   UNL A   1      43.730  28.795  28.721  1.00  0.00     0.167 HD
ATOM     63  C   UNL A   1      46.202  30.154  28.936  1.00  0.00     0.074 A 
ATOM     64  C   UNL A   1      47.624  30.422  28.896  1.00  0.00     0.031 C 
ATOM     65  C   UNL A   1      45.260  31.080  29.239  1.00  0.00     0.031 A 
BRANCH  52  66
ATOM     66  C   UNL A   1      39.470  28.943  28.993  1.00  0.00    -0.014 A 
ATOM     67  C   UNL A   1      38.733  29.419  27.897  1.00  0.00     0.009 A 
ATOM     68  C   UNL A   1      38.806  28.707  30.205  1.00  0.00     0.009 A 
ATOM     69  C   UNL A   1      37.370  29.687  28.024  1.00  0.00     0.001 A 
ATOM     70  C   UNL A   1      37.435  28.947  30.322  1.00  0.00     0.001 A 
ATOM     71  C   UNL A   1      36.720  29.445  29.234  1.00  0.00     0.000 A 
ENDBRANCH  52  66
BRANCH  53  72
ATOM     72  C   UNL A   1      49.098  26.629  27.817  1.00  0.00    -0.014 A 
ATOM     73  C   UNL A   1      49.662  26.667  26.532  1.00  0.00     0.009 A 
ATOM     74  C   UNL A   1      49.911  26.269  28.904  1.00  0.00     0.009 A 
ATOM     75  C   UNL A   1      51.002  26.324  26.337  1.00  0.00     0.001 A 
ATOM     76  C   UNL A   1      51.258  25.957  28.709  1.00  0.00     0.001 A 
ATOM     77  C   UNL A   1      51.799  25.974  27.425  1.00  0.00     0.000 A 
ENDBRANCH  53  72
BRANCH  65  78
ATOM     78  C   UNL A   1      45.740  32.464  29.576  1.00  0.00    -0.014 A 
ATOM     79  C   UNL A   1      45.747  33.488  28.615  1.00  0.00     0.009 A 
ATOM     80  C   UNL A   1      46.160  32.757  30.883  1.00  0.00     0.009 A 
ATOM     81  C   UNL A   1      46.194  34.767  28.949  1.00  0.00     0.001 A 
ATOM     82  C   UNL A   1      46.578  34.045  31.222  1.00  0.00     0.001 A 
ATOM     83  C   UNL A   1      46.603  35.046  30.252  1.00  0.00     0.000 A 
ENDBRANCH  65  78
ENDBRANCH  39  40
ENDBRANCH  31  34
ENDBRANCH  29  30
ENDBRANCH  28  29
ENDBRANCH  27  28
ENDBRANCH   3  27
TORSDOF 16
ENDMDL
MODEL 2
REMARK VINA RESULT:     -11.5      5.571     10.374
REMARK SMILES O=C(CC1(CC(=O)NNc2ccc([N+](=O)[O-])cc2)CCCC1)NCCCNC(=O)c1ccc(-c2c3nc(c(-c4ccccc4)c4ccc([nH]4)c(-c4ccccc4)c4nc(c(-c5ccccc5)c5ccc2[nH]5)C=C4)C=C3)cc1
REMARK SMILES IDX 1 1 2 2 23 3 3 5 4 6 19 7 22 8 20 9 21 10 5 11 6 12 7 13
REMARK SMILES IDX 8 14 9 16 10 18 11 19 18 20 12 21 17 22 13 23 14 24 15 25
REMARK SMILES IDX 16 26 24 27 25 28 26 29 27 30 28 31 29 33 30 34 31 35 77 36
REMARK SMILES IDX 32 37 76 38 33 39 34 40 35 41 70 42 36 43 75 44 69 45 71 46
REMARK SMILES IDX 37 47 74 48 68 49 67 50 38 52 60 53 45 54 59 55 46 56 49 57
REMARK SMILES IDX 58 58 72 59 47 60 48 61 57 63 73 64 50 65 39 66 40 67 44 68
REMARK SMILES IDX 41 69 43 70 42 71 61 72 62 73 66 74 63 75 65 76 64 77 51 78
REMARK SMILES IDX 52 79 56 80 53 81 55 82 54 83
REMARK H PARENT 23 4 8 15 9 17 27 32 71 51 49 62
REMARK Flexibility Score: inf
ROOT
ATOM      1  O   UNL A   1      34.249  28.626  26.506  1.00  0.00    -0.275 OA
ATOM      2  C   UNL A   1      33.338  28.521  25.688  1.00  0.00     0.220 C 
ATOM      3  N   UNL A   1      32.199  29.281  25.736  1.00  0.00    -0.356 N 
ATOM      4  H   UNL A   1      31.616  29.321  24.944  1.00  0.00     0.163 HD
ENDROOT
BRANCH   2   5
ATOM      5  C   UNL A   1      33.460  27.584  24.497  1.00  0.00     0.107 C 
BRANCH   5   6
ATOM      6  C   UNL A   1      33.212  26.063  24.674  1.00  0.00    -0.012 C 
ATOM      7  C   UNL A   1      34.422  25.335  25.315  1.00  0.00     0.008 C 
ATOM      8  C   UNL A   1      32.197  25.877  25.827  1.00  0.00     0.008 C 
ATOM      9  C   UNL A   1      33.835  24.103  26.011  1.00  0.00     0.001 C 
ATOM     10  C   UNL A   1      32.379  24.445  26.312  1.00  0.00     0.001 C 
BRANCH   6  11
ATOM     11  C   UNL A   1      32.795  25.310  23.376  1.00  0.00     0.109 C 
BRANCH  11  12
ATOM     12  C   UNL A   1      32.763  26.119  22.088  1.00  0.00     0.238 C 
ATOM     13  O   UNL A   1      33.717  26.121  21.312  1.00  0.00    -0.273 OA
ATOM     14  N   UNL A   1      31.628  26.819  21.771  1.00  0.00    -0.270 N 
ATOM     15  H   UNL A   1      31.629  27.387  20.967  1.00  0.00     0.191 HD
BRANCH  14  16
ATOM     16  N   UNL A   1      30.480  26.755  22.539  1.00  0.00    -0.299 N 
ATOM     17  H   UNL A   1      30.134  25.902  22.889  1.00  0.00     0.188 HD
BRANCH  16  18
ATOM     18  C   UNL A   1      29.835  27.974  22.793  1.00  0.00     0.055 A 
ATOM     19  C   UNL A   1      28.459  27.965  23.055  1.00  0.00     0.034 A 
ATOM     20  C   UNL A   1      30.482  29.200  22.590  1.00  0.00     0.034 A 
ATOM     21  C   UNL A   1      27.736  29.157  23.145  1.00  0.00     0.088 A 
ATOM     22  C   UNL A   1      29.769  30.401  22.665  1.00  0.00     0.088 A 
ATOM     23  C   UNL A   1      28.395  30.372  22.935  1.00  0.00     0.269 A 
BRANCH  23  24
ATOM     24  N   UNL A   1      27.628  31.623  22.954  1.00  0.00     0.062 N 
ATOM     25  O   UNL A   1      26.872  31.822  23.915  1.00  0.00    -0.258 OA
ATOM     26  O   UNL A   1      27.772  32.401  21.999  1.00  0.00    -0.258 OA
ENDBRANCH  23  24
ENDBRANCH  16  18
ENDBRANCH  14  16
ENDBRANCH  11  12
ENDBRANCH   6  11
ENDBRANCH   5   6
ENDBRANCH   2   5
BRANCH   3  27
ATOM     27  C   UNL A   1      31.830  30.024  26.921  1.00  0.00     0.117 C 
BRANCH  27  28
ATOM     28  C   UNL A   1      31.739  31.520  26.666  1.00  0.00     0.042 C 
BRANCH  28  29
ATOM     29  C   UNL A   1      32.874  32.326  27.284  1.00  0.00     0.118 C 
BRANCH  29  30
ATOM     30  N   UNL A   1      32.500  33.694  27.622  1.00  0.00    -0.352 N 
ATOM     31  C   UNL A   1      33.088  34.582  28.492  1.00  0.00     0.251 C 
ATOM     32  H   UNL A   1      31.703  34.034  27.155  1.00  0.00     0.163 HD
ATOM     33  O   UNL A   1      32.554  35.657  28.725  1.00  0.00    -0.269 OA
BRANCH  31  34
ATOM     34  C   UNL A   1      34.349  34.221  29.178  1.00  0.00     0.039 A 
ATOM     35  C   UNL A   1      34.277  33.639  30.446  1.00  0.00     0.014 A 
ATOM     36  C   UNL A   1      35.589  34.434  28.572  1.00  0.00     0.014 A 
ATOM     37  C   UNL A   1      35.444  33.184  31.065  1.00  0.00     0.010 A 
ATOM     38  C   UNL A   1      36.742  33.914  29.156  1.00  0.00     0.010 A 
ATOM     39  C   UNL A   1      36.678  33.271  30.402  1.00  0.00    -0.014 A 
BRANCH  39  40
ATOM     40  C   UNL A   1      37.905  32.655  30.970  1.00  0.00     0.031 A 
ATOM     41  C   UNL A   1      38.482  31.406  30.367  1.00  0.00     0.074 A 
ATOM     42  C   UNL A   1      38.454  33.179  32.084  1.00  0.00     0.049 A 
ATOM     43  N   UNL A   1      39.495  30.684  30.776  1.00  0.00    -0.248 NA
ATOM     44  C   UNL A   1      37.822  30.887  29.157  1.00  0.00     0.031 C 
ATOM     45  C   UNL A   1      37.972  34.369  32.790  1.00  0.00     0.029 A 
ATOM     46  N   UNL A   1      39.535  32.771  32.825  1.00  0.00    -0.354 N 
ATOM     47  C   UNL A   1      39.586  29.622  29.886  1.00  0.00     0.074 A 
ATOM     48  C   UNL A   1      38.500  29.769  28.941  1.00  0.00     0.031 C 
ATOM     49  C   UNL A   1      38.766  34.605  33.845  1.00  0.00     0.029 A 
ATOM     50  C   UNL A   1      39.782  33.561  33.922  1.00  0.00     0.049 A 
ATOM     51  H   UNL A   1      40.082  31.985  32.592  1.00  0.00     0.167 HD
ATOM     52  C   UNL A   1      40.500  28.624  29.847  1.00  0.00     0.031 A 
ATOM     53  C   UNL A   1      40.710  33.450  34.891  1.00  0.00     0.031 A 
ATOM     54  C   UNL A   1      41.582  28.476  30.786  1.00  0.00     0.049 A 
ATOM     55  C   UNL A   1      41.687  32.309  34.847  1.00  0.00     0.074 A 
ATOM     56  C   UNL A   1      42.590  27.527  30.796  1.00  0.00     0.029 A 
ATOM     57  N   UNL A   1      41.791  29.293  31.886  1.00  0.00    -0.354 N 
ATOM     58  N   UNL A   1      41.802  31.352  33.959  1.00  0.00    -0.248 NA
ATOM     59  C   UNL A   1      42.668  32.238  35.941  1.00  0.00     0.031 C 
ATOM     60  C   UNL A   1      43.375  27.734  31.935  1.00  0.00     0.029 A 
ATOM     61  C   UNL A   1      42.892  28.849  32.601  1.00  0.00     0.049 A 
ATOM     62  H   UNL A   1      41.240  30.073  32.124  1.00  0.00     0.167 HD
ATOM     63  C   UNL A   1      42.879  30.579  34.373  1.00  0.00     0.074 A 
ATOM     64  C   UNL A   1      43.397  31.190  35.580  1.00  0.00     0.031 C 
ATOM     65  C   UNL A   1      43.392  29.461  33.804  1.00  0.00     0.031 A 
BRANCH  52  66
ATOM     66  C   UNL A   1      40.360  27.597  28.757  1.00  0.00    -0.014 A 
ATOM     67  C   UNL A   1      39.615  26.423  28.953  1.00  0.00     0.009 A 
ATOM     68  C   UNL A   1      40.948  27.826  27.504  1.00  0.00     0.009 A 
ATOM     69  C   UNL A   1      39.493  25.483  27.929  1.00  0.00     0.001 A 
ATOM     70  C   UNL A   1      40.798  26.898  26.471  1.00  0.00     0.001 A 
ATOM     71  C   UNL A   1      40.080  25.723  26.687  1.00  0.00     0.000 A 
ENDBRANCH  52  66
BRANCH  53  72
ATOM     72  C   UNL A   1      40.761  34.447  35.992  1.00  0.00    -0.014 A 
ATOM     73  C   UNL A   1      40.020  34.248  37.168  1.00  0.00     0.009 A 
ATOM     74  C   UNL A   1      41.542  35.608  35.871  1.00  0.00     0.009 A 
ATOM     75  C   UNL A   1      40.037  35.204  38.185  1.00  0.00     0.001 A 
ATOM     76  C   UNL A   1      41.581  36.546  36.904  1.00  0.00     0.001 A 
ATOM     77  C   UNL A   1      40.821  36.349  38.055  1.00  0.00     0.000 A 
ENDBRANCH  53  72
BRANCH  65  78
ATOM     78  C   UNL A   1      44.591  28.841  34.467  1.00  0.00    -0.014 A 
ATOM     79  C   UNL A   1      45.895  29.252  34.146  1.00  0.00     0.009 A 
ATOM     80  C   UNL A   1      44.412  27.857  35.451  1.00  0.00     0.009 A 
ATOM     81  C   UNL A   1      46.994  28.666  34.775  1.00  0.00     0.001 A 
ATOM     82  C   UNL A   1      45.512  27.295  36.101  1.00  0.00     0.001 A 
ATOM     83  C   UNL A   1      46.802  27.693  35.755  1.00  0.00     0.000 A 
ENDBRANCH  65  78
ENDBRANCH  39  40
ENDBRANCH  31  34
ENDBRANCH  29  30
ENDBRANCH  28  29
ENDBRANCH  27  28
ENDBRANCH   3  27
TORSDOF 16
ENDMDL
MODEL 3
REMARK VINA RESULT:     -11.4      4.964      9.828
REMARK SMILES O=C(CC1(CC(=O)NNc2ccc([N+](=O)[O-])cc2)CCCC1)NCCCNC(=O)c1ccc(-c2c3nc(c(-c4ccccc4)c4ccc([nH]4)c(-c4ccccc4)c4nc(c(-c5ccccc5)c5ccc2[nH]5)C=C4)C=C3)cc1
REMARK SMILES IDX 1 1 2 2 23 3 3 5 4 6 19 7 22 8 20 9 21 10 5 11 6 12 7 13
REMARK SMILES IDX 8 14 9 16 10 18 11 19 18 20 12 21 17 22 13 23 14 24 15 25
REMARK SMILES IDX 16 26 24 27 25 28 26 29 27 30 28 31 29 33 30 34 31 35 77 36
REMARK SMILES IDX 32 37 76 38 33 39 34 40 35 41 70 42 36 43 75 44 69 45 71 46
REMARK SMILES IDX 37 47 74 48 68 49 67 50 38 52 60 53 45 54 59 55 46 56 49 57
REMARK SMILES IDX 58 58 72 59 47 60 48 61 57 63 73 64 50 65 39 66 40 67 44 68
REMARK SMILES IDX 41 69 43 70 42 71 61 72 62 73 66 74 63 75 65 76 64 77 51 78
REMARK SMILES IDX 52 79 56 80 53 81 55 82 54 83
REMARK H PARENT 23 4 8 15 9 17 27 32 71 51 49 62
REMARK Flexibility Score: inf
ROOT
ATOM      1  O   UNL A   1      34.447  28.468  26.704  1.00  0.00    -0.275 OA
ATOM      2  C   UNL A   1      33.608  28.148  25.867  1.00  0.00     0.220 C 
ATOM      3  N   UNL A   1      32.369  28.728  25.791  1.00  0.00    -0.356 N 
ATOM      4  H   UNL A   1      31.830  28.604  24.976  1.00  0.00     0.163 HD
ENDROOT
BRANCH   2   5
ATOM      5  C   UNL A   1      33.929  27.129  24.786  1.00  0.00     0.107 C 
BRANCH   5   6
ATOM      6  C   UNL A   1      33.380  25.682  24.890  1.00  0.00    -0.012 C 
ATOM      7  C   UNL A   1      34.414  24.696  25.493  1.00  0.00     0.008 C 
ATOM      8  C   UNL A   1      32.340  25.649  26.035  1.00  0.00     0.008 C 
ATOM      9  C   UNL A   1      33.588  23.576  26.131  1.00  0.00     0.001 C 
ATOM     10  C   UNL A   1      32.228  24.188  26.451  1.00  0.00     0.001 C 
BRANCH   6  11
ATOM     11  C   UNL A   1      32.830  25.090  23.559  1.00  0.00     0.109 C 
BRANCH  11  12
ATOM     12  C   UNL A   1      32.890  25.984  22.329  1.00  0.00     0.238 C 
ATOM     13  O   UNL A   1      33.830  25.921  21.539  1.00  0.00    -0.273 OA
ATOM     14  N   UNL A   1      31.847  26.838  22.077  1.00  0.00    -0.270 N 
ATOM     15  H   UNL A   1      31.914  27.455  21.314  1.00  0.00     0.191 HD
BRANCH  14  16
ATOM     16  N   UNL A   1      30.706  26.864  22.857  1.00  0.00    -0.299 N 
ATOM     17  H   UNL A   1      30.481  26.130  23.475  1.00  0.00     0.188 HD
BRANCH  16  18
ATOM     18  C   UNL A   1      29.886  27.993  22.720  1.00  0.00     0.055 A 
ATOM     19  C   UNL A   1      30.483  29.226  22.428  1.00  0.00     0.034 A 
ATOM     20  C   UNL A   1      28.530  27.958  23.066  1.00  0.00     0.034 A 
ATOM     21  C   UNL A   1      29.740  30.408  22.449  1.00  0.00     0.088 A 
ATOM     22  C   UNL A   1      27.775  29.135  23.103  1.00  0.00     0.088 A 
ATOM     23  C   UNL A   1      28.388  30.358  22.802  1.00  0.00     0.269 A 
BRANCH  23  24
ATOM     24  N   UNL A   1      27.619  31.604  22.898  1.00  0.00     0.062 N 
ATOM     25  O   UNL A   1      27.748  32.434  21.988  1.00  0.00    -0.258 OA
ATOM     26  O   UNL A   1      26.895  31.757  23.893  1.00  0.00    -0.258 OA
ENDBRANCH  23  24
ENDBRANCH  16  18
ENDBRANCH  14  16
ENDBRANCH  11  12
ENDBRANCH   6  11
ENDBRANCH   5   6
ENDBRANCH   2   5
BRANCH   3  27
ATOM     27  C   UNL A   1      31.832  29.519  26.877  1.00  0.00     0.117 C 
BRANCH  27  28
ATOM     28  C   UNL A   1      31.778  31.002  26.547  1.00  0.00     0.042 C 
BRANCH  28  29
ATOM     29  C   UNL A   1      32.921  31.813  27.147  1.00  0.00     0.118 C 
BRANCH  29  30
ATOM     30  N   UNL A   1      32.529  33.156  27.557  1.00  0.00    -0.352 N 
ATOM     31  C   UNL A   1      33.158  34.042  28.400  1.00  0.00     0.251 C 
ATOM     32  H   UNL A   1      31.683  33.478  27.170  1.00  0.00     0.163 HD
ATOM     33  O   UNL A   1      32.608  35.088  28.711  1.00  0.00    -0.269 OA
BRANCH  31  34
ATOM     34  C   UNL A   1      34.486  33.711  28.963  1.00  0.00     0.039 A 
ATOM     35  C   UNL A   1      34.544  32.994  30.161  1.00  0.00     0.014 A 
ATOM     36  C   UNL A   1      35.663  34.083  28.309  1.00  0.00     0.014 A 
ATOM     37  C   UNL A   1      35.781  32.569  30.654  1.00  0.00     0.010 A 
ATOM     38  C   UNL A   1      36.888  33.597  28.761  1.00  0.00     0.010 A 
ATOM     39  C   UNL A   1      36.957  32.823  29.930  1.00  0.00    -0.014 A 
BRANCH  39  40
ATOM     40  C   UNL A   1      38.261  32.249  30.351  1.00  0.00     0.031 A 
ATOM     41  C   UNL A   1      38.734  30.937  29.791  1.00  0.00     0.074 A 
ATOM     42  C   UNL A   1      38.984  32.874  31.301  1.00  0.00     0.049 A 
ATOM     43  N   UNL A   1      39.802  30.245  30.100  1.00  0.00    -0.248 NA
ATOM     44  C   UNL A   1      37.887  30.311  28.763  1.00  0.00     0.031 C 
ATOM     45  C   UNL A   1      38.621  34.135  31.952  1.00  0.00     0.029 A 
ATOM     46  N   UNL A   1      40.172  32.525  31.894  1.00  0.00    -0.354 N 
ATOM     47  C   UNL A   1      39.748  29.099  29.319  1.00  0.00     0.074 A 
ATOM     48  C   UNL A   1      38.522  29.166  28.553  1.00  0.00     0.031 C 
ATOM     49  C   UNL A   1      39.576  34.464  32.836  1.00  0.00     0.029 A 
ATOM     50  C   UNL A   1      40.593  33.417  32.851  1.00  0.00     0.049 A 
ATOM     51  H   UNL A   1      40.675  31.712  31.656  1.00  0.00     0.167 HD
ATOM     52  C   UNL A   1      40.646  28.088  29.233  1.00  0.00     0.031 A 
ATOM     53  C   UNL A   1      41.667  33.390  33.662  1.00  0.00     0.031 A 
ATOM     54  C   UNL A   1      41.866  28.019  29.994  1.00  0.00     0.049 A 
ATOM     55  C   UNL A   1      42.626  32.236  33.576  1.00  0.00     0.074 A 
ATOM     56  C   UNL A   1      42.865  27.061  29.935  1.00  0.00     0.029 A 
ATOM     57  N   UNL A   1      42.251  28.939  30.957  1.00  0.00    -0.354 N 
ATOM     58  N   UNL A   1      42.596  31.194  32.782  1.00  0.00    -0.248 NA
ATOM     59  C   UNL A   1      43.772  32.260  34.497  1.00  0.00     0.031 C 
ATOM     60  C   UNL A   1      43.824  27.369  30.905  1.00  0.00     0.029 A 
ATOM     61  C   UNL A   1      43.455  28.552  31.524  1.00  0.00     0.049 A 
ATOM     62  H   UNL A   1      41.744  29.746  31.202  1.00  0.00     0.167 HD
ATOM     63  C   UNL A   1      43.728  30.451  33.091  1.00  0.00     0.074 A 
ATOM     64  C   UNL A   1      44.434  31.172  34.130  1.00  0.00     0.031 C 
ATOM     65  C   UNL A   1      44.143  29.274  32.562  1.00  0.00     0.031 A 
BRANCH  52  66
ATOM     66  C   UNL A   1      40.331  26.960  28.289  1.00  0.00    -0.014 A 
ATOM     67  C   UNL A   1      40.837  26.945  26.979  1.00  0.00     0.009 A 
ATOM     68  C   UNL A   1      39.552  25.880  28.727  1.00  0.00     0.009 A 
ATOM     69  C   UNL A   1      40.538  25.889  26.117  1.00  0.00     0.001 A 
ATOM     70  C   UNL A   1      39.280  24.809  27.873  1.00  0.00     0.001 A 
ATOM     71  C   UNL A   1      39.765  24.819  26.566  1.00  0.00     0.000 A 
ENDBRANCH  52  66
BRANCH  53  72
ATOM     72  C   UNL A   1      41.895  34.492  34.634  1.00  0.00    -0.014 A 
ATOM     73  C   UNL A   1      41.358  34.421  35.929  1.00  0.00     0.009 A 
ATOM     74  C   UNL A   1      42.641  35.624  34.271  1.00  0.00     0.009 A 
ATOM     75  C   UNL A   1      41.540  35.473  36.829  1.00  0.00     0.001 A 
ATOM     76  C   UNL A   1      42.847  36.661  35.183  1.00  0.00     0.001 A 
ATOM     77  C   UNL A   1      42.287  36.589  36.457  1.00  0.00     0.000 A 
ENDBRANCH  53  72
BRANCH  65  78
ATOM     78  C   UNL A   1      45.435  28.706  33.080  1.00  0.00    -0.014 A 
ATOM     79  C   UNL A   1      45.456  27.805  34.157  1.00  0.00     0.009 A 
ATOM     80  C   UNL A   1      46.646  29.051  32.459  1.00  0.00     0.009 A 
ATOM     81  C   UNL A   1      46.666  27.286  34.620  1.00  0.00     0.001 A 
ATOM     82  C   UNL A   1      47.852  28.507  32.905  1.00  0.00     0.001 A 
ATOM     83  C   UNL A   1      47.861  27.633  33.991  1.00  0.00     0.000 A 
ENDBRANCH  65  78
ENDBRANCH  39  40
ENDBRANCH  31  34
ENDBRANCH  29  30
ENDBRANCH  28  29
ENDBRANCH  27  28
ENDBRANCH   3  27
TORSDOF 16
ENDMDL
