MODEL 1
REMARK VINA RESULT:     -11.8      0.000      0.000
REMARK SMILES O=C(CCC(=O)Nc1sc2c(c1C(=O)NCc1ccccc1)CCCC2)NCCCNC(=O)c1ccc(-c2c3nc(c(-c4ccccc4)c4ccc([nH]4)c(-c4ccccc4)c4nc(c(-c5ccccc5)c5ccc2[nH]5)C=C4)C=C3)cc1
REMARK SMILES IDX 1 1 2 2 27 3 3 5 4 6 5 7 6 8 7 9 8 11 9 12 12 13 10 14 11 15
REMARK SMILES IDX 26 16 23 17 25 18 24 19 13 20 14 21 15 22 16 24 17 25 18 26
REMARK SMILES IDX 22 27 19 28 21 29 20 30 28 31 29 32 30 33 31 34 32 35 33 37
REMARK SMILES IDX 34 38 35 39 81 40 36 41 80 42 37 43 38 44 39 45 74 46 40 47
REMARK SMILES IDX 79 48 73 49 75 50 41 51 78 52 72 53 71 54 42 56 64 57 49 58
REMARK SMILES IDX 63 59 50 60 53 61 62 62 76 63 51 64 52 65 61 67 77 68 54 69
REMARK SMILES IDX 43 70 44 71 48 72 45 73 47 74 46 75 65 76 66 77 70 78 67 79
REMARK SMILES IDX 69 80 68 81 55 82 56 83 60 84 57 85 59 86 58 87
REMARK H PARENT 27 4 7 10 15 23 31 36 75 55 53 66
REMARK Flexibility Score: inf
ROOT
ATOM      1  O   UNL A   1      32.604  29.157  22.504  1.00  0.00    -0.275 OA
ATOM      2  C   UNL A   1      31.708  28.669  23.185  1.00  0.00     0.220 C 
ATOM      3  N   UNL A   1      31.475  29.009  24.497  1.00  0.00    -0.356 N 
ATOM      4  H   UNL A   1      30.630  28.727  24.917  1.00  0.00     0.163 HD
ENDROOT
BRANCH   2   5
ATOM      5  C   UNL A   1      30.752  27.631  22.630  1.00  0.00     0.110 C 
BRANCH   5   6
ATOM      6  C   UNL A   1      31.282  26.197  22.591  1.00  0.00     0.110 C 
BRANCH   6   7
ATOM      7  C   UNL A   1      31.030  25.394  23.850  1.00  0.00     0.225 C 
ATOM      8  O   UNL A   1      29.928  25.530  24.405  1.00  0.00    -0.275 OA
ATOM      9  N   UNL A   1      31.940  24.609  24.494  1.00  0.00    -0.317 N 
ATOM     10  H   UNL A   1      31.539  24.020  25.173  1.00  0.00     0.170 HD
BRANCH   9  11
ATOM     11  C   UNL A   1      33.318  24.469  24.385  1.00  0.00     0.108 A 
ATOM     12  S   UNL A   1      34.369  25.328  25.393  1.00  0.00    -0.122 S 
ATOM     13  C   UNL A   1      34.001  23.596  23.512  1.00  0.00     0.078 A 
ATOM     14  C   UNL A   1      35.568  24.171  25.173  1.00  0.00     0.011 A 
ATOM     15  C   UNL A   1      35.360  23.430  24.024  1.00  0.00    -0.019 A 
ATOM     16  C   UNL A   1      36.640  23.939  26.194  1.00  0.00     0.047 C 
ATOM     17  C   UNL A   1      36.410  22.461  23.610  1.00  0.00     0.037 C 
ATOM     18  C   UNL A   1      37.813  23.163  25.592  1.00  0.00     0.006 C 
ATOM     19  C   UNL A   1      37.320  21.989  24.745  1.00  0.00     0.005 C 
BRANCH  13  20
ATOM     20  C   UNL A   1      33.224  22.813  22.518  1.00  0.00     0.254 C 
ATOM     21  O   UNL A   1      33.328  23.103  21.318  1.00  0.00    -0.269 OA
ATOM     22  N   UNL A   1      32.334  21.807  22.761  1.00  0.00    -0.348 N 
ATOM     23  H   UNL A   1      31.762  21.639  21.977  1.00  0.00     0.164 HD
BRANCH  22  24
ATOM     24  C   UNL A   1      32.000  20.921  23.856  1.00  0.00     0.152 C 
BRANCH  24  25
ATOM     25  C   UNL A   1      32.851  19.663  23.815  1.00  0.00    -0.029 A 
ATOM     26  C   UNL A   1      32.447  18.562  23.044  1.00  0.00     0.005 A 
ATOM     27  C   UNL A   1      34.027  19.523  24.571  1.00  0.00     0.005 A 
ATOM     28  C   UNL A   1      33.198  17.380  23.026  1.00  0.00     0.000 A 
ATOM     29  C   UNL A   1      34.781  18.348  24.551  1.00  0.00     0.000 A 
ATOM     30  C   UNL A   1      34.365  17.273  23.779  1.00  0.00     0.000 A 
ENDBRANCH  24  25
ENDBRANCH  22  24
ENDBRANCH  13  20
ENDBRANCH   9  11
ENDBRANCH   6   7
ENDBRANCH   5   6
ENDBRANCH   2   5
BRANCH   3  31
ATOM     31  C   UNL A   1      32.428  29.766  25.283  1.00  0.00     0.117 C 
BRANCH  31  32
ATOM     32  C   UNL A   1      33.612  28.950  25.755  1.00  0.00     0.042 C 
BRANCH  32  33
ATOM     33  C   UNL A   1      33.758  28.885  27.267  1.00  0.00     0.118 C 
BRANCH  33  34
ATOM     34  N   UNL A   1      33.743  30.176  27.944  1.00  0.00    -0.352 N 
ATOM     35  C   UNL A   1      34.757  30.807  28.640  1.00  0.00     0.251 C 
ATOM     36  H   UNL A   1      32.893  30.669  27.897  1.00  0.00     0.163 HD
ATOM     37  O   UNL A   1      34.546  31.856  29.224  1.00  0.00    -0.269 OA
BRANCH  35  38
ATOM     38  C   UNL A   1      36.100  30.175  28.717  1.00  0.00     0.039 A 
ATOM     39  C   UNL A   1      36.922  30.198  27.589  1.00  0.00     0.014 A 
ATOM     40  C   UNL A   1      36.562  29.592  29.898  1.00  0.00     0.014 A 
ATOM     41  C   UNL A   1      38.230  29.711  27.674  1.00  0.00     0.010 A 
ATOM     42  C   UNL A   1      37.899  29.228  30.017  1.00  0.00     0.010 A 
ATOM     43  C   UNL A   1      38.746  29.264  28.901  1.00  0.00    -0.014 A 
BRANCH  43  44
ATOM     44  C   UNL A   1      40.154  28.801  29.026  1.00  0.00     0.031 A 
ATOM     45  C   UNL A   1      40.530  27.396  28.627  1.00  0.00     0.074 A 
ATOM     46  C   UNL A   1      41.091  29.622  29.544  1.00  0.00     0.049 A 
ATOM     47  N   UNL A   1      41.700  26.810  28.670  1.00  0.00    -0.248 NA
ATOM     48  C   UNL A   1      39.443  26.525  28.148  1.00  0.00     0.031 C 
ATOM     49  C   UNL A   1      40.854  30.984  30.032  1.00  0.00     0.029 A 
ATOM     50  N   UNL A   1      42.437  29.432  29.738  1.00  0.00    -0.354 N 
ATOM     51  C   UNL A   1      41.483  25.503  28.247  1.00  0.00     0.074 A 
ATOM     52  C   UNL A   1      40.062  25.363  28.020  1.00  0.00     0.031 C 
ATOM     53  C   UNL A   1      42.022  31.520  30.421  1.00  0.00     0.029 A 
ATOM     54  C   UNL A   1      43.082  30.533  30.247  1.00  0.00     0.049 A 
ATOM     55  H   UNL A   1      42.896  28.586  29.533  1.00  0.00     0.167 HD
ATOM     56  C   UNL A   1      42.383  24.515  28.031  1.00  0.00     0.031 A 
ATOM     57  C   UNL A   1      44.383  30.732  30.528  1.00  0.00     0.031 A 
ATOM     58  C   UNL A   1      43.800  24.656  28.234  1.00  0.00     0.049 A 
ATOM     59  C   UNL A   1      45.369  29.627  30.260  1.00  0.00     0.074 A 
ATOM     60  C   UNL A   1      44.802  23.734  27.991  1.00  0.00     0.029 A 
ATOM     61  N   UNL A   1      44.413  25.797  28.727  1.00  0.00    -0.354 N 
ATOM     62  N   UNL A   1      45.156  28.424  29.784  1.00  0.00    -0.248 NA
ATOM     63  C   UNL A   1      46.780  29.921  30.546  1.00  0.00     0.031 C 
ATOM     64  C   UNL A   1      46.020  24.302  28.380  1.00  0.00     0.029 A 
ATOM     65  C   UNL A   1      45.781  25.598  28.806  1.00  0.00     0.049 A 
ATOM     66  H   UNL A   1      43.946  26.624  28.982  1.00  0.00     0.167 HD
ATOM     67  C   UNL A   1      46.408  27.832  29.679  1.00  0.00     0.074 A 
ATOM     68  C   UNL A   1      47.374  28.814  30.124  1.00  0.00     0.031 C 
ATOM     69  C   UNL A   1      46.731  26.587  29.250  1.00  0.00     0.031 A 
BRANCH  56  70
ATOM     70  C   UNL A   1      41.852  23.194  27.544  1.00  0.00    -0.014 A 
ATOM     71  C   UNL A   1      41.577  22.976  26.184  1.00  0.00     0.009 A 
ATOM     72  C   UNL A   1      41.639  22.147  28.455  1.00  0.00     0.009 A 
ATOM     73  C   UNL A   1      41.056  21.754  25.753  1.00  0.00     0.001 A 
ATOM     74  C   UNL A   1      41.150  20.915  28.015  1.00  0.00     0.001 A 
ATOM     75  C   UNL A   1      40.848  20.723  26.668  1.00  0.00     0.000 A 
ENDBRANCH  56  70
BRANCH  57  76
ATOM     76  C   UNL A   1      44.845  32.043  31.055  1.00  0.00    -0.014 A 
ATOM     77  C   UNL A   1      44.950  32.257  32.439  1.00  0.00     0.009 A 
ATOM     78  C   UNL A   1      45.167  33.093  30.182  1.00  0.00     0.009 A 
ATOM     79  C   UNL A   1      45.334  33.506  32.937  1.00  0.00     0.001 A 
ATOM     80  C   UNL A   1      45.580  34.330  30.682  1.00  0.00     0.001 A 
ATOM     81  C   UNL A   1      45.652  34.539  32.058  1.00  0.00     0.000 A 
ENDBRANCH  57  76
BRANCH  69  82
ATOM     82  C   UNL A   1      48.192  26.239  29.191  1.00  0.00    -0.014 A 
ATOM     83  C   UNL A   1      48.952  26.446  28.029  1.00  0.00     0.009 A 
ATOM     84  C   UNL A   1      48.820  25.709  30.329  1.00  0.00     0.009 A 
ATOM     85  C   UNL A   1      50.298  26.081  27.993  1.00  0.00     0.001 A 
ATOM     86  C   UNL A   1      50.176  25.376  30.300  1.00  0.00     0.001 A 
ATOM     87  C   UNL A   1      50.910  25.550  29.128  1.00  0.00     0.000 A 
ENDBRANCH  69  82
ENDBRANCH  43  44
ENDBRANCH  35  38
ENDBRANCH  33  34
ENDBRANCH  32  33
ENDBRANCH  31  32
ENDBRANCH   3  31
TORSDOF 16
ENDMDL
MODEL 2
REMARK VINA RESULT:     -11.7      1.522      6.389
REMARK SMILES O=C(CCC(=O)Nc1sc2c(c1C(=O)NCc1ccccc1)CCCC2)NCCCNC(=O)c1ccc(-c2c3nc(c(-c4ccccc4)c4ccc([nH]4)c(-c4ccccc4)c4nc(c(-c5ccccc5)c5ccc2[nH]5)C=C4)C=C3)cc1
REMARK SMILES IDX 1 1 2 2 27 3 3 5 4 6 5 7 6 8 7 9 8 11 9 12 12 13 10 14 11 15
REMARK SMILES IDX 26 16 23 17 25 18 24 19 13 20 14 21 15 22 16 24 17 25 18 26
REMARK SMILES IDX 22 27 19 28 21 29 20 30 28 31 29 32 30 33 31 34 32 35 33 37
REMARK SMILES IDX 34 38 35 39 81 40 36 41 80 42 37 43 38 44 39 45 74 46 40 47
REMARK SMILES IDX 79 48 73 49 75 50 41 51 78 52 72 53 71 54 42 56 64 57 49 58
REMARK SMILES IDX 63 59 50 60 53 61 62 62 76 63 51 64 52 65 61 67 77 68 54 69
REMARK SMILES IDX 43 70 44 71 48 72 45 73 47 74 46 75 65 76 66 77 70 78 67 79
REMARK SMILES IDX 69 80 68 81 55 82 56 83 60 84 57 85 59 86 58 87
REMARK H PARENT 27 4 7 10 15 23 31 36 75 55 53 66
REMARK Flexibility Score: inf
ROOT
ATOM      1  O   UNL A   1      33.704  28.195  22.277  1.00  0.00    -0.275 OA
ATOM      2  C   UNL A   1      32.615  27.971  22.794  1.00  0.00     0.220 C 
ATOM      3  N   UNL A   1      32.183  28.570  23.954  1.00  0.00    -0.356 N 
ATOM      4  H   UNL A   1      31.234  28.493  24.202  1.00  0.00     0.163 HD
ENDROOT
BRANCH   2   5
ATOM      5  C   UNL A   1      31.623  26.999  22.187  1.00  0.00     0.110 C 
BRANCH   5   6
ATOM      6  C   UNL A   1      31.873  25.521  22.490  1.00  0.00     0.110 C 
BRANCH   6   7
ATOM      7  C   UNL A   1      32.750  24.808  21.482  1.00  0.00     0.225 C 
ATOM      8  O   UNL A   1      32.960  25.379  20.400  1.00  0.00    -0.275 OA
ATOM      9  N   UNL A   1      33.252  23.547  21.608  1.00  0.00    -0.317 N 
ATOM     10  H   UNL A   1      33.952  23.336  20.949  1.00  0.00     0.170 HD
BRANCH   9  11
ATOM     11  C   UNL A   1      32.978  22.500  22.479  1.00  0.00     0.108 A 
ATOM     12  S   UNL A   1      31.705  21.426  22.185  1.00  0.00    -0.122 S 
ATOM     13  C   UNL A   1      33.715  22.161  23.633  1.00  0.00     0.078 A 
ATOM     14  C   UNL A   1      32.459  20.239  23.106  1.00  0.00     0.011 A 
ATOM     15  C   UNL A   1      33.384  20.780  23.982  1.00  0.00    -0.019 A 
ATOM     16  C   UNL A   1      32.206  18.779  22.878  1.00  0.00     0.047 C 
ATOM     17  C   UNL A   1      34.034  19.876  24.969  1.00  0.00     0.037 C 
ATOM     18  C   UNL A   1      32.663  17.949  24.078  1.00  0.00     0.006 C 
ATOM     19  C   UNL A   1      34.040  18.401  24.569  1.00  0.00     0.005 C 
BRANCH  13  20
ATOM     20  C   UNL A   1      34.830  23.041  24.063  1.00  0.00     0.254 C 
ATOM     21  O   UNL A   1      35.601  23.489  23.203  1.00  0.00    -0.269 OA
ATOM     22  N   UNL A   1      35.167  23.398  25.337  1.00  0.00    -0.348 N 
ATOM     23  H   UNL A   1      36.084  23.757  25.377  1.00  0.00     0.164 HD
BRANCH  22  24
ATOM     24  C   UNL A   1      34.547  23.393  26.645  1.00  0.00     0.152 C 
BRANCH  24  25
ATOM     25  C   UNL A   1      33.090  23.814  26.556  1.00  0.00    -0.029 A 
ATOM     26  C   UNL A   1      32.070  22.880  26.790  1.00  0.00     0.005 A 
ATOM     27  C   UNL A   1      32.702  25.114  26.191  1.00  0.00     0.005 A 
ATOM     28  C   UNL A   1      30.721  23.241  26.674  1.00  0.00     0.000 A 
ATOM     29  C   UNL A   1      31.358  25.478  26.079  1.00  0.00     0.000 A 
ATOM     30  C   UNL A   1      30.366  24.539  26.319  1.00  0.00     0.000 A 
ENDBRANCH  24  25
ENDBRANCH  22  24
ENDBRANCH  13  20
ENDBRANCH   9  11
ENDBRANCH   6   7
ENDBRANCH   5   6
ENDBRANCH   2   5
BRANCH   3  31
ATOM     31  C   UNL A   1      33.075  29.311  24.823  1.00  0.00     0.117 C 
BRANCH  31  32
ATOM     32  C   UNL A   1      33.838  28.439  25.796  1.00  0.00     0.042 C 
BRANCH  32  33
ATOM     33  C   UNL A   1      33.477  28.673  27.254  1.00  0.00     0.118 C 
BRANCH  33  34
ATOM     34  N   UNL A   1      33.478  30.070  27.673  1.00  0.00    -0.352 N 
ATOM     35  C   UNL A   1      34.500  30.810  28.238  1.00  0.00     0.251 C 
ATOM     36  H   UNL A   1      32.633  30.554  27.534  1.00  0.00     0.163 HD
ATOM     37  O   UNL A   1      34.302  31.954  28.612  1.00  0.00    -0.269 OA
BRANCH  35  38
ATOM     38  C   UNL A   1      35.836  30.189  28.435  1.00  0.00     0.039 A 
ATOM     39  C   UNL A   1      36.754  30.217  27.383  1.00  0.00     0.014 A 
ATOM     40  C   UNL A   1      36.197  29.612  29.653  1.00  0.00     0.014 A 
ATOM     41  C   UNL A   1      38.054  29.741  27.584  1.00  0.00     0.010 A 
ATOM     42  C   UNL A   1      37.521  29.259  29.890  1.00  0.00     0.010 A 
ATOM     43  C   UNL A   1      38.463  29.300  28.853  1.00  0.00    -0.014 A 
BRANCH  43  44
ATOM     44  C   UNL A   1      39.858  28.849  29.103  1.00  0.00     0.031 A 
ATOM     45  C   UNL A   1      40.839  29.763  29.793  1.00  0.00     0.074 A 
ATOM     46  C   UNL A   1      40.263  27.638  28.670  1.00  0.00     0.049 A 
ATOM     47  N   UNL A   1      42.097  29.552  30.092  1.00  0.00    -0.248 NA
ATOM     48  C   UNL A   1      40.355  31.104  30.166  1.00  0.00     0.031 C 
ATOM     49  C   UNL A   1      39.439  26.678  27.931  1.00  0.00     0.029 A 
ATOM     50  N   UNL A   1      41.474  27.003  28.797  1.00  0.00    -0.354 N 
ATOM     51  C   UNL A   1      42.552  30.734  30.664  1.00  0.00     0.074 A 
ATOM     52  C   UNL A   1      41.462  31.680  30.606  1.00  0.00     0.031 C 
ATOM     53  C   UNL A   1      40.152  25.561  27.715  1.00  0.00     0.029 A 
ATOM     54  C   UNL A   1      41.491  25.736  28.265  1.00  0.00     0.049 A 
ATOM     55  H   UNL A   1      42.257  27.417  29.227  1.00  0.00     0.167 HD
ATOM     56  C   UNL A   1      43.757  31.004  31.220  1.00  0.00     0.031 A 
ATOM     57  C   UNL A   1      42.471  24.813  28.236  1.00  0.00     0.031 A 
ATOM     58  C   UNL A   1      44.838  30.059  31.301  1.00  0.00     0.049 A 
ATOM     59  C   UNL A   1      43.794  25.127  28.880  1.00  0.00     0.074 A 
ATOM     60  C   UNL A   1      46.078  30.216  31.895  1.00  0.00     0.029 A 
ATOM     61  N   UNL A   1      44.804  28.779  30.771  1.00  0.00    -0.354 N 
ATOM     62  N   UNL A   1      44.181  26.223  29.487  1.00  0.00    -0.248 NA
ATOM     63  C   UNL A   1      44.807  24.063  28.854  1.00  0.00     0.031 C 
ATOM     64  C   UNL A   1      46.812  29.043  31.685  1.00  0.00     0.029 A 
ATOM     65  C   UNL A   1      46.006  28.137  31.015  1.00  0.00     0.049 A 
ATOM     66  H   UNL A   1      44.040  28.385  30.295  1.00  0.00     0.167 HD
ATOM     67  C   UNL A   1      45.467  25.966  29.948  1.00  0.00     0.074 A 
ATOM     68  C   UNL A   1      45.785  24.607  29.564  1.00  0.00     0.031 C 
ATOM     69  C   UNL A   1      46.308  26.782  30.629  1.00  0.00     0.031 A 
BRANCH  56  70
ATOM     70  C   UNL A   1      43.960  32.382  31.790  1.00  0.00    -0.014 A 
ATOM     71  C   UNL A   1      43.638  32.673  33.127  1.00  0.00     0.009 A 
ATOM     72  C   UNL A   1      44.494  33.401  30.985  1.00  0.00     0.009 A 
ATOM     73  C   UNL A   1      43.804  33.964  33.631  1.00  0.00     0.001 A 
ATOM     74  C   UNL A   1      44.690  34.683  31.503  1.00  0.00     0.001 A 
ATOM     75  C   UNL A   1      44.333  34.966  32.821  1.00  0.00     0.000 A 
ENDBRANCH  56  70
BRANCH  57  76
ATOM     76  C   UNL A   1      42.231  23.484  27.615  1.00  0.00    -0.014 A 
ATOM     77  C   UNL A   1      42.611  23.240  26.285  1.00  0.00     0.009 A 
ATOM     78  C   UNL A   1      41.606  22.457  28.338  1.00  0.00     0.009 A 
ATOM     79  C   UNL A   1      42.339  22.008  25.684  1.00  0.00     0.001 A 
ATOM     80  C   UNL A   1      41.363  21.216  27.745  1.00  0.00     0.001 A 
ATOM     81  C   UNL A   1      41.719  20.997  26.415  1.00  0.00     0.000 A 
ENDBRANCH  57  76
BRANCH  69  82
ATOM     82  C   UNL A   1      47.631  26.205  31.050  1.00  0.00    -0.014 A 
ATOM     83  C   UNL A   1      48.731  26.174  30.178  1.00  0.00     0.009 A 
ATOM     84  C   UNL A   1      47.780  25.698  32.350  1.00  0.00     0.009 A 
ATOM     85  C   UNL A   1      49.937  25.601  30.585  1.00  0.00     0.001 A 
ATOM     86  C   UNL A   1      48.997  25.156  32.765  1.00  0.00     0.001 A 
ATOM     87  C   UNL A   1      50.070  25.095  31.878  1.00  0.00     0.000 A 
ENDBRANCH  69  82
ENDBRANCH  43  44
ENDBRANCH  35  38
ENDBRANCH  33  34
ENDBRANCH  32  33
ENDBRANCH  31  32
ENDBRANCH   3  31
TORSDOF 16
ENDMDL
MODEL 3
REMARK VINA RESULT:     -11.7      1.273      2.771
REMARK SMILES O=C(CCC(=O)Nc1sc2c(c1C(=O)NCc1ccccc1)CCCC2)NCCCNC(=O)c1ccc(-c2c3nc(c(-c4ccccc4)c4ccc([nH]4)c(-c4ccccc4)c4nc(c(-c5ccccc5)c5ccc2[nH]5)C=C4)C=C3)cc1
REMARK SMILES IDX 1 1 2 2 27 3 3 5 4 6 5 7 6 8 7 9 8 11 9 12 12 13 10 14 11 15
REMARK SMILES IDX 26 16 23 17 25 18 24 19 13 20 14 21 15 22 16 24 17 25 18 26
REMARK SMILES IDX 22 27 19 28 21 29 20 30 28 31 29 32 30 33 31 34 32 35 33 37
REMARK SMILES IDX 34 38 35 39 81 40 36 41 80 42 37 43 38 44 39 45 74 46 40 47
REMARK SMILES IDX 79 48 73 49 75 50 41 51 78 52 72 53 71 54 42 56 64 57 49 58
REMARK SMILES IDX 63 59 50 60 53 61 62 62 76 63 51 64 52 65 61 67 77 68 54 69
REMARK SMILES IDX 43 70 44 71 48 72 45 73 47 74 46 75 65 76 66 77 70 78 67 79
REMARK SMILES IDX 69 80 68 81 55 82 56 83 60 84 57 85 59 86 58 87
REMARK H PARENT 27 4 7 10 15 23 31 36 75 55 53 66
REMARK Flexibility Score: inf
ROOT
ATOM      1  O   UNL A   1      33.368  28.483  22.323  1.00  0.00    -0.275 OA
ATOM      2  C   UNL A   1      32.366  28.053  22.882  1.00  0.00     0.220 C 
ATOM      3  N   UNL A   1      31.923  28.499  24.105  1.00  0.00    -0.356 N 
ATOM      4  H   UNL A   1      31.016  28.253  24.400  1.00  0.00     0.163 HD
ENDROOT
BRANCH   2   5
ATOM      5  C   UNL A   1      31.503  26.971  22.263  1.00  0.00     0.110 C 
BRANCH   5   6
ATOM      6  C   UNL A   1      31.888  25.533  22.615  1.00  0.00     0.110 C 
BRANCH   6   7
ATOM      7  C   UNL A   1      32.867  24.888  21.657  1.00  0.00     0.225 C 
ATOM      8  O   UNL A   1      33.003  25.409  20.539  1.00  0.00    -0.275 OA
ATOM      9  N   UNL A   1      33.544  23.723  21.869  1.00  0.00    -0.317 N 
ATOM     10  H   UNL A   1      34.273  23.571  21.225  1.00  0.00     0.170 HD
BRANCH   9  11
ATOM     11  C   UNL A   1      33.414  22.709  22.809  1.00  0.00     0.108 A 
ATOM     12  S   UNL A   1      31.963  21.859  22.988  1.00  0.00    -0.122 S 
ATOM     13  C   UNL A   1      34.432  22.225  23.658  1.00  0.00     0.078 A 
ATOM     14  C   UNL A   1      32.783  20.542  23.634  1.00  0.00     0.011 A 
ATOM     15  C   UNL A   1      34.022  20.904  24.134  1.00  0.00    -0.019 A 
ATOM     16  C   UNL A   1      32.240  19.148  23.543  1.00  0.00     0.047 C 
ATOM     17  C   UNL A   1      34.812  19.881  24.870  1.00  0.00     0.037 C 
ATOM     18  C   UNL A   1      32.935  18.222  24.542  1.00  0.00     0.006 C 
ATOM     19  C   UNL A   1      34.449  18.436  24.531  1.00  0.00     0.005 C 
BRANCH  13  20
ATOM     20  C   UNL A   1      35.752  22.904  23.665  1.00  0.00     0.254 C 
ATOM     21  O   UNL A   1      36.362  23.031  22.595  1.00  0.00    -0.269 OA
ATOM     22  N   UNL A   1      36.437  23.383  24.745  1.00  0.00    -0.348 N 
ATOM     23  H   UNL A   1      37.384  23.539  24.525  1.00  0.00     0.164 HD
BRANCH  22  24
ATOM     24  C   UNL A   1      36.153  23.723  26.122  1.00  0.00     0.152 C 
BRANCH  24  25
ATOM     25  C   UNL A   1      34.655  23.792  26.366  1.00  0.00    -0.029 A 
ATOM     26  C   UNL A   1      33.910  24.878  25.881  1.00  0.00     0.005 A 
ATOM     27  C   UNL A   1      33.967  22.825  27.118  1.00  0.00     0.005 A 
ATOM     28  C   UNL A   1      32.535  24.978  26.130  1.00  0.00     0.000 A 
ATOM     29  C   UNL A   1      32.596  22.919  27.365  1.00  0.00     0.000 A 
ATOM     30  C   UNL A   1      31.879  23.999  26.871  1.00  0.00     0.000 A 
ENDBRANCH  24  25
ENDBRANCH  22  24
ENDBRANCH  13  20
ENDBRANCH   9  11
ENDBRANCH   6   7
ENDBRANCH   5   6
ENDBRANCH   2   5
BRANCH   3  31
ATOM     31  C   UNL A   1      32.741  29.320  24.975  1.00  0.00     0.117 C 
BRANCH  31  32
ATOM     32  C   UNL A   1      33.793  28.541  25.733  1.00  0.00     0.042 C 
BRANCH  32  33
ATOM     33  C   UNL A   1      33.664  28.633  27.246  1.00  0.00     0.118 C 
BRANCH  33  34
ATOM     34  N   UNL A   1      33.627  29.990  27.779  1.00  0.00    -0.352 N 
ATOM     35  C   UNL A   1      34.632  30.712  28.394  1.00  0.00     0.251 C 
ATOM     36  H   UNL A   1      32.766  30.457  27.687  1.00  0.00     0.163 HD
ATOM     37  O   UNL A   1      34.404  31.814  28.864  1.00  0.00    -0.269 OA
BRANCH  35  38
ATOM     38  C   UNL A   1      35.988  30.119  28.528  1.00  0.00     0.039 A 
ATOM     39  C   UNL A   1      36.863  30.186  27.441  1.00  0.00     0.014 A 
ATOM     40  C   UNL A   1      36.410  29.531  29.721  1.00  0.00     0.014 A 
ATOM     41  C   UNL A   1      38.180  29.736  27.583  1.00  0.00     0.010 A 
ATOM     42  C   UNL A   1      37.750  29.204  29.899  1.00  0.00     0.010 A 
ATOM     43  C   UNL A   1      38.649  29.284  28.826  1.00  0.00    -0.014 A 
BRANCH  43  44
ATOM     44  C   UNL A   1      40.063  28.861  29.013  1.00  0.00     0.031 A 
ATOM     45  C   UNL A   1      40.495  27.467  28.632  1.00  0.00     0.074 A 
ATOM     46  C   UNL A   1      40.952  29.708  29.570  1.00  0.00     0.049 A 
ATOM     47  N   UNL A   1      41.678  26.914  28.727  1.00  0.00    -0.248 NA
ATOM     48  C   UNL A   1      39.455  26.566  28.106  1.00  0.00     0.031 C 
ATOM     49  C   UNL A   1      40.656  31.062  30.047  1.00  0.00     0.029 A 
ATOM     50  N   UNL A   1      42.294  29.556  29.823  1.00  0.00    -0.354 N 
ATOM     51  C   UNL A   1      41.517  25.602  28.295  1.00  0.00     0.074 A 
ATOM     52  C   UNL A   1      40.112  25.422  28.007  1.00  0.00     0.031 C 
ATOM     53  C   UNL A   1      41.790  31.631  30.487  1.00  0.00     0.029 A 
ATOM     54  C   UNL A   1      42.885  30.675  30.359  1.00  0.00     0.049 A 
ATOM     55  H   UNL A   1      42.784  28.723  29.639  1.00  0.00     0.167 HD
ATOM     56  C   UNL A   1      42.453  24.640  28.120  1.00  0.00     0.031 A 
ATOM     57  C   UNL A   1      44.166  30.909  30.697  1.00  0.00     0.031 A 
ATOM     58  C   UNL A   1      43.855  24.821  28.384  1.00  0.00     0.049 A 
ATOM     59  C   UNL A   1      45.193  29.833  30.472  1.00  0.00     0.074 A 
ATOM     60  C   UNL A   1      44.893  23.928  28.185  1.00  0.00     0.029 A 
ATOM     61  N   UNL A   1      44.414  25.978  28.903  1.00  0.00    -0.354 N 
ATOM     62  N   UNL A   1      45.035  28.625  29.988  1.00  0.00    -0.248 NA
ATOM     63  C   UNL A   1      46.582  30.166  30.820  1.00  0.00     0.031 C 
ATOM     64  C   UNL A   1      46.076  24.530  28.627  1.00  0.00     0.029 A 
ATOM     65  C   UNL A   1      45.782  25.818  29.041  1.00  0.00     0.049 A 
ATOM     66  H   UNL A   1      43.913  26.792  29.136  1.00  0.00     0.167 HD
ATOM     67  C   UNL A   1      46.307  28.068  29.939  1.00  0.00     0.074 A 
ATOM     68  C   UNL A   1      47.225  29.077  30.425  1.00  0.00     0.031 C 
ATOM     69  C   UNL A   1      46.683  26.833  29.525  1.00  0.00     0.031 A 
BRANCH  56  70
ATOM     70  C   UNL A   1      41.981  23.304  27.611  1.00  0.00    -0.014 A 
ATOM     71  C   UNL A   1      41.600  22.281  28.496  1.00  0.00     0.009 A 
ATOM     72  C   UNL A   1      41.902  23.069  26.230  1.00  0.00     0.009 A 
ATOM     73  C   UNL A   1      41.194  21.038  28.008  1.00  0.00     0.001 A 
ATOM     74  C   UNL A   1      41.463  21.836  25.745  1.00  0.00     0.001 A 
ATOM     75  C   UNL A   1      41.121  20.817  26.634  1.00  0.00     0.000 A 
ENDBRANCH  56  70
BRANCH  57  76
ATOM     76  C   UNL A   1      44.567  32.233  31.243  1.00  0.00    -0.014 A 
ATOM     77  C   UNL A   1      44.995  33.258  30.383  1.00  0.00     0.009 A 
ATOM     78  C   UNL A   1      44.543  32.476  32.624  1.00  0.00     0.009 A 
ATOM     79  C   UNL A   1      45.421  34.485  30.898  1.00  0.00     0.001 A 
ATOM     80  C   UNL A   1      44.940  33.714  33.135  1.00  0.00     0.001 A 
ATOM     81  C   UNL A   1      45.390  34.713  32.272  1.00  0.00     0.000 A 
ENDBRANCH  57  76
BRANCH  69  82
ATOM     82  C   UNL A   1      48.155  26.527  29.530  1.00  0.00    -0.014 A 
ATOM     83  C   UNL A   1      49.000  26.954  28.494  1.00  0.00     0.009 A 
ATOM     84  C   UNL A   1      48.705  25.809  30.604  1.00  0.00     0.009 A 
ATOM     85  C   UNL A   1      50.356  26.625  28.508  1.00  0.00     0.001 A 
ATOM     86  C   UNL A   1      50.069  25.510  30.632  1.00  0.00     0.001 A 
ATOM     87  C   UNL A   1      50.890  25.907  29.578  1.00  0.00     0.000 A 
ENDBRANCH  69  82
ENDBRANCH  43  44
ENDBRANCH  35  38
ENDBRANCH  33  34
ENDBRANCH  32  33
ENDBRANCH  31  32
ENDBRANCH   3  31
TORSDOF 16
ENDMDL
