MODEL 1
REMARK VINA RESULT:     -12.4      0.000      0.000
REMARK SMILES Cc1c(CC(=O)NCCCNC(=O)c2ccc(-c3c4nc(c(-c5ccccc5)c5ccc([nH]5)c(-c5ccccc5)c5nc(c(-c6ccccc6)c6ccc3[nH]6)C=C5)C=C4)cc2)cccc1-c1ccn(C(F)F)c(=O)c1
REMARK SMILES IDX 8 1 7 2 5 3 6 4 4 6 3 7 1 8 2 9 65 10 62 11 64 12 63 13
REMARK SMILES IDX 66 14 67 15 75 16 68 17 73 18 69 19 74 20 70 21 71 22 72 23
REMARK SMILES IDX 9 24 10 25 11 26 12 27 13 29 14 30 15 31 61 32 16 33 60 34
REMARK SMILES IDX 17 35 18 36 19 37 54 38 20 39 59 40 53 41 55 42 21 43 58 44
REMARK SMILES IDX 52 45 51 46 22 48 44 49 29 50 43 51 30 52 33 53 42 54 56 55
REMARK SMILES IDX 31 56 32 57 41 59 57 60 34 61 23 62 24 63 28 64 25 65 27 66
REMARK SMILES IDX 26 67 45 68 46 69 50 70 47 71 49 72 48 73 35 74 36 75 40 76
REMARK SMILES IDX 37 77 39 78 38 79
REMARK H PARENT 7 5 11 28 55 47 33 58
REMARK Flexibility Score: inf
ROOT
ATOM      1  C   UNL A   1      32.345  29.679  25.652  1.00  0.00     0.117 C 
ENDROOT
BRANCH   1   2
ATOM      2  N   UNL A   1      31.421  28.660  26.126  1.00  0.00    -0.356 N 
ATOM      3  C   UNL A   1      31.651  27.343  26.416  1.00  0.00     0.224 C 
ATOM      4  O   UNL A   1      30.704  26.661  26.816  1.00  0.00    -0.275 OA
ATOM      5  H   UNL A   1      30.494  28.963  26.258  1.00  0.00     0.163 HD
BRANCH   3   6
ATOM      6  C   UNL A   1      33.043  26.733  26.256  1.00  0.00     0.135 C 
BRANCH   6   7
ATOM      7  C   UNL A   1      33.162  25.799  25.064  1.00  0.00    -0.035 A 
ATOM      8  C   UNL A   1      32.733  23.717  26.473  1.00  0.00     0.045 C 
ATOM      9  C   UNL A   1      33.112  24.383  25.169  1.00  0.00    -0.040 A 
ATOM     10  C   UNL A   1      33.395  23.600  24.018  1.00  0.00    -0.015 A 
ATOM     11  C   UNL A   1      33.397  26.388  23.805  1.00  0.00     0.004 A 
ATOM     12  C   UNL A   1      33.647  24.225  22.785  1.00  0.00     0.009 A 
ATOM     13  C   UNL A   1      33.633  25.611  22.677  1.00  0.00     0.001 A 
BRANCH  10  14
ATOM     14  C   UNL A   1      33.524  22.126  24.083  1.00  0.00    -0.011 A 
ATOM     15  C   UNL A   1      32.431  21.214  23.812  1.00  0.00     0.027 A 
ATOM     16  C   UNL A   1      34.703  21.627  24.498  1.00  0.00     0.080 A 
ATOM     17  C   UNL A   1      32.565  19.904  24.057  1.00  0.00     0.095 A 
ATOM     18  C   UNL A   1      34.884  20.167  24.719  1.00  0.00     0.255 A 
ATOM     19  N   UNL A   1      33.758  19.385  24.526  1.00  0.00    -0.258 N 
ATOM     20  O   UNL A   1      35.985  19.764  25.080  1.00  0.00    -0.269 OA
BRANCH  19  21
ATOM     21  C   UNL A   1      33.881  17.982  24.826  1.00  0.00     0.451 C 
ATOM     22  F   UNL A   1      32.665  17.394  24.924  1.00  0.00    -0.185 F 
ATOM     23  F   UNL A   1      34.584  17.339  23.862  1.00  0.00    -0.185 F 
ENDBRANCH  19  21
ENDBRANCH  10  14
ENDBRANCH   6   7
ENDBRANCH   3   6
ENDBRANCH   1   2
BRANCH   1  24
ATOM     24  C   UNL A   1      32.695  30.706  26.726  1.00  0.00     0.042 C 
BRANCH  24  25
ATOM     25  C   UNL A   1      33.766  30.246  27.701  1.00  0.00     0.118 C 
BRANCH  25  26
ATOM     26  N   UNL A   1      34.442  31.325  28.408  1.00  0.00    -0.352 N 
ATOM     27  C   UNL A   1      35.711  31.344  28.970  1.00  0.00     0.251 C 
ATOM     28  H   UNL A   1      33.926  32.159  28.501  1.00  0.00     0.163 HD
ATOM     29  O   UNL A   1      36.120  32.337  29.538  1.00  0.00    -0.269 OA
BRANCH  27  30
ATOM     30  C   UNL A   1      36.615  30.188  28.739  1.00  0.00     0.039 A 
ATOM     31  C   UNL A   1      36.831  29.316  29.812  1.00  0.00     0.014 A 
ATOM     32  C   UNL A   1      37.401  30.101  27.594  1.00  0.00     0.014 A 
ATOM     33  C   UNL A   1      37.997  28.557  29.842  1.00  0.00     0.010 A 
ATOM     34  C   UNL A   1      38.606  29.433  27.667  1.00  0.00     0.010 A 
ATOM     35  C   UNL A   1      38.938  28.727  28.826  1.00  0.00    -0.014 A 
BRANCH  35  36
ATOM     36  C   UNL A   1      40.332  28.331  28.969  1.00  0.00     0.031 A 
ATOM     37  C   UNL A   1      40.812  27.054  28.394  1.00  0.00     0.074 A 
ATOM     38  C   UNL A   1      41.204  29.154  29.598  1.00  0.00     0.049 A 
ATOM     39  N   UNL A   1      41.830  26.397  28.841  1.00  0.00    -0.248 NA
ATOM     40  C   UNL A   1      40.144  26.386  27.280  1.00  0.00     0.031 C 
ATOM     41  C   UNL A   1      42.661  29.027  29.630  1.00  0.00     0.029 A 
ATOM     42  N   UNL A   1      40.981  30.220  30.464  1.00  0.00    -0.354 N 
ATOM     43  C   UNL A   1      42.130  25.422  27.919  1.00  0.00     0.074 A 
ATOM     44  C   UNL A   1      41.003  25.397  27.015  1.00  0.00     0.031 C 
ATOM     45  C   UNL A   1      43.131  29.719  30.682  1.00  0.00     0.029 A 
ATOM     46  C   UNL A   1      41.979  30.168  31.441  1.00  0.00     0.049 A 
ATOM     47  H   UNL A   1      40.257  30.885  30.400  1.00  0.00     0.167 HD
ATOM     48  C   UNL A   1      43.364  24.842  27.924  1.00  0.00     0.031 A 
ATOM     49  C   UNL A   1      41.770  29.895  32.765  1.00  0.00     0.031 A 
ATOM     50  C   UNL A   1      44.195  25.328  29.023  1.00  0.00     0.049 A 
ATOM     51  C   UNL A   1      42.557  28.692  33.267  1.00  0.00     0.074 A 
ATOM     52  C   UNL A   1      45.211  26.269  29.091  1.00  0.00     0.029 A 
ATOM     53  N   UNL A   1      43.826  25.052  30.333  1.00  0.00    -0.354 N 
ATOM     54  N   UNL A   1      43.102  27.804  32.483  1.00  0.00    -0.248 NA
ATOM     55  C   UNL A   1      42.744  28.362  34.681  1.00  0.00     0.031 C 
ATOM     56  C   UNL A   1      45.406  26.605  30.456  1.00  0.00     0.029 A 
ATOM     57  C   UNL A   1      44.530  25.851  31.214  1.00  0.00     0.049 A 
ATOM     58  H   UNL A   1      43.157  24.380  30.597  1.00  0.00     0.167 HD
ATOM     59  C   UNL A   1      43.684  26.815  33.230  1.00  0.00     0.074 A 
ATOM     60  C   UNL A   1      43.446  27.216  34.603  1.00  0.00     0.031 C 
ATOM     61  C   UNL A   1      44.297  25.742  32.647  1.00  0.00     0.031 A 
BRANCH  48  62
ATOM     62  C   UNL A   1      43.911  24.065  26.750  1.00  0.00    -0.014 A 
ATOM     63  C   UNL A   1      43.773  22.664  26.715  1.00  0.00     0.009 A 
ATOM     64  C   UNL A   1      44.617  24.639  25.680  1.00  0.00     0.009 A 
ATOM     65  C   UNL A   1      44.396  21.878  25.736  1.00  0.00     0.001 A 
ATOM     66  C   UNL A   1      45.280  23.859  24.722  1.00  0.00     0.001 A 
ATOM     67  C   UNL A   1      45.181  22.475  24.759  1.00  0.00     0.000 A 
ENDBRANCH  48  62
BRANCH  49  68
ATOM     68  C   UNL A   1      40.433  30.286  33.282  1.00  0.00    -0.014 A 
ATOM     69  C   UNL A   1      40.148  31.655  33.439  1.00  0.00     0.009 A 
ATOM     70  C   UNL A   1      39.368  29.374  33.285  1.00  0.00     0.009 A 
ATOM     71  C   UNL A   1      38.828  32.112  33.472  1.00  0.00     0.001 A 
ATOM     72  C   UNL A   1      38.046  29.836  33.327  1.00  0.00     0.001 A 
ATOM     73  C   UNL A   1      37.777  31.202  33.383  1.00  0.00     0.000 A 
ENDBRANCH  49  68
BRANCH  61  74
ATOM     74  C   UNL A   1      44.795  24.504  33.352  1.00  0.00    -0.014 A 
ATOM     75  C   UNL A   1      46.121  24.300  33.754  1.00  0.00     0.009 A 
ATOM     76  C   UNL A   1      43.851  23.535  33.768  1.00  0.00     0.009 A 
ATOM     77  C   UNL A   1      46.490  23.169  34.497  1.00  0.00     0.001 A 
ATOM     78  C   UNL A   1      44.207  22.431  34.545  1.00  0.00     0.001 A 
ATOM     79  C   UNL A   1      45.533  22.242  34.902  1.00  0.00     0.000 A 
ENDBRANCH  61  74
ENDBRANCH  35  36
ENDBRANCH  27  30
ENDBRANCH  25  26
ENDBRANCH  24  25
ENDBRANCH   1  24
TORSDOF 13
ENDMDL
MODEL 2
REMARK VINA RESULT:     -12.1      3.989      9.229
REMARK SMILES Cc1c(CC(=O)NCCCNC(=O)c2ccc(-c3c4nc(c(-c5ccccc5)c5ccc([nH]5)c(-c5ccccc5)c5nc(c(-c6ccccc6)c6ccc3[nH]6)C=C5)C=C4)cc2)cccc1-c1ccn(C(F)F)c(=O)c1
REMARK SMILES IDX 8 1 7 2 5 3 6 4 4 6 3 7 1 8 2 9 65 10 62 11 64 12 63 13
REMARK SMILES IDX 66 14 67 15 75 16 68 17 73 18 69 19 74 20 70 21 71 22 72 23
REMARK SMILES IDX 9 24 10 25 11 26 12 27 13 29 14 30 15 31 61 32 16 33 60 34
REMARK SMILES IDX 17 35 18 36 19 37 54 38 20 39 59 40 53 41 55 42 21 43 58 44
REMARK SMILES IDX 52 45 51 46 22 48 44 49 29 50 43 51 30 52 33 53 42 54 56 55
REMARK SMILES IDX 31 56 32 57 41 59 57 60 34 61 23 62 24 63 28 64 25 65 27 66
REMARK SMILES IDX 26 67 45 68 46 69 50 70 47 71 49 72 48 73 35 74 36 75 40 76
REMARK SMILES IDX 37 77 39 78 38 79
REMARK H PARENT 7 5 11 28 55 47 33 58
REMARK Flexibility Score: inf
ROOT
ATOM      1  C   UNL A   1      36.158  21.304  25.040  1.00  0.00     0.117 C 
ENDROOT
BRANCH   1   2
ATOM      2  N   UNL A   1      35.562  21.775  26.281  1.00  0.00    -0.356 N 
ATOM      3  C   UNL A   1      34.389  22.449  26.482  1.00  0.00     0.224 C 
ATOM      4  O   UNL A   1      34.077  22.743  27.639  1.00  0.00    -0.275 OA
ATOM      5  H   UNL A   1      36.079  21.578  27.095  1.00  0.00     0.163 HD
BRANCH   3   6
ATOM      6  C   UNL A   1      33.484  22.823  25.309  1.00  0.00     0.135 C 
BRANCH   6   7
ATOM      7  C   UNL A   1      32.632  24.054  25.568  1.00  0.00    -0.035 A 
ATOM      8  C   UNL A   1      34.610  25.645  25.336  1.00  0.00     0.045 C 
ATOM      9  C   UNL A   1      33.163  25.366  25.676  1.00  0.00    -0.040 A 
ATOM     10  C   UNL A   1      32.303  26.423  26.079  1.00  0.00    -0.015 A 
ATOM     11  C   UNL A   1      31.252  23.851  25.772  1.00  0.00     0.004 A 
ATOM     12  C   UNL A   1      30.937  26.176  26.296  1.00  0.00     0.009 A 
ATOM     13  C   UNL A   1      30.412  24.900  26.128  1.00  0.00     0.001 A 
BRANCH  10  14
ATOM     14  C   UNL A   1      32.813  27.782  26.373  1.00  0.00    -0.011 A 
ATOM     15  C   UNL A   1      34.186  28.057  26.750  1.00  0.00     0.027 A 
ATOM     16  C   UNL A   1      31.924  28.792  26.364  1.00  0.00     0.080 A 
ATOM     17  C   UNL A   1      34.541  29.277  27.171  1.00  0.00     0.095 A 
ATOM     18  C   UNL A   1      32.319  30.166  26.773  1.00  0.00     0.255 A 
ATOM     19  N   UNL A   1      33.625  30.313  27.208  1.00  0.00    -0.258 N 
ATOM     20  O   UNL A   1      31.473  31.054  26.728  1.00  0.00    -0.269 OA
BRANCH  19  21
ATOM     21  C   UNL A   1      34.005  31.612  27.701  1.00  0.00     0.451 C 
ATOM     22  F   UNL A   1      34.028  31.635  29.055  1.00  0.00    -0.185 F 
ATOM     23  F   UNL A   1      35.235  31.961  27.252  1.00  0.00    -0.185 F 
ENDBRANCH  19  21
ENDBRANCH  10  14
ENDBRANCH   6   7
ENDBRANCH   3   6
ENDBRANCH   1   2
BRANCH   1  24
ATOM     24  C   UNL A   1      37.678  21.443  25.023  1.00  0.00     0.042 C 
BRANCH  24  25
ATOM     25  C   UNL A   1      38.224  22.409  26.060  1.00  0.00     0.118 C 
BRANCH  25  26
ATOM     26  N   UNL A   1      39.673  22.377  26.210  1.00  0.00    -0.352 N 
ATOM     27  C   UNL A   1      40.546  23.413  26.514  1.00  0.00     0.251 C 
ATOM     28  H   UNL A   1      40.093  21.496  26.077  1.00  0.00     0.163 HD
ATOM     29  O   UNL A   1      41.741  23.210  26.592  1.00  0.00    -0.269 OA
BRANCH  27  30
ATOM     30  C   UNL A   1      39.985  24.737  26.886  1.00  0.00     0.039 A 
ATOM     31  C   UNL A   1      40.485  25.859  26.214  1.00  0.00     0.014 A 
ATOM     32  C   UNL A   1      39.180  24.892  28.010  1.00  0.00     0.014 A 
ATOM     33  C   UNL A   1      40.403  27.105  26.826  1.00  0.00     0.010 A 
ATOM     34  C   UNL A   1      39.189  26.105  28.669  1.00  0.00     0.010 A 
ATOM     35  C   UNL A   1      39.872  27.190  28.114  1.00  0.00    -0.014 A 
BRANCH  35  36
ATOM     36  C   UNL A   1      40.122  28.321  28.997  1.00  0.00     0.031 A 
ATOM     37  C   UNL A   1      39.096  29.373  29.179  1.00  0.00     0.074 A 
ATOM     38  C   UNL A   1      41.286  28.390  29.688  1.00  0.00     0.049 A 
ATOM     39  N   UNL A   1      39.361  30.590  29.519  1.00  0.00    -0.248 NA
ATOM     40  C   UNL A   1      37.674  29.140  28.944  1.00  0.00     0.031 C 
ATOM     41  C   UNL A   1      41.605  29.315  30.775  1.00  0.00     0.029 A 
ATOM     42  N   UNL A   1      42.498  27.738  29.488  1.00  0.00    -0.354 N 
ATOM     43  C   UNL A   1      38.170  31.197  29.841  1.00  0.00     0.074 A 
ATOM     44  C   UNL A   1      37.146  30.287  29.381  1.00  0.00     0.031 C 
ATOM     45  C   UNL A   1      42.941  29.398  30.893  1.00  0.00     0.029 A 
ATOM     46  C   UNL A   1      43.509  28.658  29.781  1.00  0.00     0.049 A 
ATOM     47  H   UNL A   1      42.621  26.806  29.196  1.00  0.00     0.167 HD
ATOM     48  C   UNL A   1      38.172  32.332  30.596  1.00  0.00     0.031 A 
ATOM     49  C   UNL A   1      44.385  29.181  28.870  1.00  0.00     0.031 A 
ATOM     50  C   UNL A   1      39.526  32.789  30.899  1.00  0.00     0.049 A 
ATOM     51  C   UNL A   1      44.347  30.702  28.798  1.00  0.00     0.074 A 
ATOM     52  C   UNL A   1      40.333  32.667  32.020  1.00  0.00     0.029 A 
ATOM     53  N   UNL A   1      40.349  33.221  29.867  1.00  0.00    -0.354 N 
ATOM     54  N   UNL A   1      43.374  31.426  29.278  1.00  0.00    -0.248 NA
ATOM     55  C   UNL A   1      45.362  31.520  28.133  1.00  0.00     0.031 C 
ATOM     56  C   UNL A   1      41.665  32.967  31.636  1.00  0.00     0.029 A 
ATOM     57  C   UNL A   1      41.661  33.297  30.293  1.00  0.00     0.049 A 
ATOM     58  H   UNL A   1      40.040  33.442  28.959  1.00  0.00     0.167 HD
ATOM     59  C   UNL A   1      43.598  32.750  29.004  1.00  0.00     0.074 A 
ATOM     60  C   UNL A   1      44.864  32.760  28.297  1.00  0.00     0.031 C 
ATOM     61  C   UNL A   1      42.707  33.718  29.371  1.00  0.00     0.031 A 
BRANCH  48  62
ATOM     62  C   UNL A   1      36.943  32.846  31.309  1.00  0.00    -0.014 A 
ATOM     63  C   UNL A   1      36.647  32.386  32.607  1.00  0.00     0.009 A 
ATOM     64  C   UNL A   1      36.012  33.733  30.745  1.00  0.00     0.009 A 
ATOM     65  C   UNL A   1      35.444  32.703  33.253  1.00  0.00     0.001 A 
ATOM     66  C   UNL A   1      34.787  34.020  31.364  1.00  0.00     0.001 A 
ATOM     67  C   UNL A   1      34.497  33.492  32.614  1.00  0.00     0.000 A 
ENDBRANCH  48  62
BRANCH  49  68
ATOM     68  C   UNL A   1      44.680  28.303  27.708  1.00  0.00    -0.014 A 
ATOM     69  C   UNL A   1      45.430  27.132  27.927  1.00  0.00     0.009 A 
ATOM     70  C   UNL A   1      43.960  28.425  26.512  1.00  0.00     0.009 A 
ATOM     71  C   UNL A   1      45.363  26.062  27.030  1.00  0.00     0.001 A 
ATOM     72  C   UNL A   1      43.901  27.353  25.612  1.00  0.00     0.001 A 
ATOM     73  C   UNL A   1      44.571  26.162  25.888  1.00  0.00     0.000 A 
ENDBRANCH  49  68
BRANCH  61  74
ATOM     74  C   UNL A   1      42.743  35.169  28.958  1.00  0.00    -0.014 A 
ATOM     75  C   UNL A   1      41.910  35.736  27.985  1.00  0.00     0.009 A 
ATOM     76  C   UNL A   1      43.565  36.061  29.685  1.00  0.00     0.009 A 
ATOM     77  C   UNL A   1      41.927  37.114  27.726  1.00  0.00     0.001 A 
ATOM     78  C   UNL A   1      43.554  37.440  29.460  1.00  0.00     0.001 A 
ATOM     79  C   UNL A   1      42.740  37.966  28.470  1.00  0.00     0.000 A 
ENDBRANCH  61  74
ENDBRANCH  35  36
ENDBRANCH  27  30
ENDBRANCH  25  26
ENDBRANCH  24  25
ENDBRANCH   1  24
TORSDOF 13
ENDMDL
MODEL 3
REMARK VINA RESULT:     -12.0      4.261      9.318
REMARK SMILES Cc1c(CC(=O)NCCCNC(=O)c2ccc(-c3c4nc(c(-c5ccccc5)c5ccc([nH]5)c(-c5ccccc5)c5nc(c(-c6ccccc6)c6ccc3[nH]6)C=C5)C=C4)cc2)cccc1-c1ccn(C(F)F)c(=O)c1
REMARK SMILES IDX 8 1 7 2 5 3 6 4 4 6 3 7 1 8 2 9 65 10 62 11 64 12 63 13
REMARK SMILES IDX 66 14 67 15 75 16 68 17 73 18 69 19 74 20 70 21 71 22 72 23
REMARK SMILES IDX 9 24 10 25 11 26 12 27 13 29 14 30 15 31 61 32 16 33 60 34
REMARK SMILES IDX 17 35 18 36 19 37 54 38 20 39 59 40 53 41 55 42 21 43 58 44
REMARK SMILES IDX 52 45 51 46 22 48 44 49 29 50 43 51 30 52 33 53 42 54 56 55
REMARK SMILES IDX 31 56 32 57 41 59 57 60 34 61 23 62 24 63 28 64 25 65 27 66
REMARK SMILES IDX 26 67 45 68 46 69 50 70 47 71 49 72 48 73 35 74 36 75 40 76
REMARK SMILES IDX 37 77 39 78 38 79
REMARK H PARENT 7 5 11 28 55 47 33 58
REMARK Flexibility Score: inf
ROOT
ATOM      1  C   UNL A   1      36.238  21.463  25.309  1.00  0.00     0.117 C 
ENDROOT
BRANCH   1   2
ATOM      2  N   UNL A   1      35.664  21.940  24.060  1.00  0.00    -0.356 N 
ATOM      3  C   UNL A   1      35.147  23.169  23.753  1.00  0.00     0.224 C 
ATOM      4  O   UNL A   1      34.717  23.352  22.611  1.00  0.00    -0.275 OA
ATOM      5  H   UNL A   1      35.646  21.282  23.328  1.00  0.00     0.163 HD
BRANCH   3   6
ATOM      6  C   UNL A   1      35.108  24.289  24.792  1.00  0.00     0.135 C 
BRANCH   6   7
ATOM      7  C   UNL A   1      33.703  24.770  25.112  1.00  0.00    -0.035 A 
ATOM      8  C   UNL A   1      33.787  26.621  23.361  1.00  0.00     0.045 C 
ATOM      9  C   UNL A   1      33.112  25.916  24.516  1.00  0.00    -0.040 A 
ATOM     10  C   UNL A   1      31.858  26.372  25.003  1.00  0.00    -0.015 A 
ATOM     11  C   UNL A   1      32.990  24.065  26.103  1.00  0.00     0.004 A 
ATOM     12  C   UNL A   1      31.189  25.654  26.007  1.00  0.00     0.009 A 
ATOM     13  C   UNL A   1      31.745  24.498  26.543  1.00  0.00     0.001 A 
BRANCH  10  14
ATOM     14  C   UNL A   1      31.256  27.647  24.549  1.00  0.00    -0.011 A 
ATOM     15  C   UNL A   1      31.584  28.936  25.126  1.00  0.00     0.027 A 
ATOM     16  C   UNL A   1      30.298  27.578  23.607  1.00  0.00     0.080 A 
ATOM     17  C   UNL A   1      30.880  30.026  24.792  1.00  0.00     0.095 A 
ATOM     18  C   UNL A   1      29.548  28.791  23.184  1.00  0.00     0.255 A 
ATOM     19  N   UNL A   1      29.863  29.959  23.857  1.00  0.00    -0.258 N 
ATOM     20  O   UNL A   1      28.697  28.675  22.307  1.00  0.00    -0.269 OA
BRANCH  19  21
ATOM     21  C   UNL A   1      29.084  31.126  23.535  1.00  0.00     0.451 C 
ATOM     22  F   UNL A   1      27.796  30.981  23.930  1.00  0.00    -0.185 F 
ATOM     23  F   UNL A   1      29.589  32.229  24.141  1.00  0.00    -0.185 F 
ENDBRANCH  19  21
ENDBRANCH  10  14
ENDBRANCH   6   7
ENDBRANCH   3   6
ENDBRANCH   1   2
BRANCH   1  24
ATOM     24  C   UNL A   1      37.765  21.499  25.311  1.00  0.00     0.042 C 
BRANCH  24  25
ATOM     25  C   UNL A   1      38.355  22.769  25.899  1.00  0.00     0.118 C 
BRANCH  25  26
ATOM     26  N   UNL A   1      39.760  22.665  26.270  1.00  0.00    -0.352 N 
ATOM     27  C   UNL A   1      40.600  23.635  26.802  1.00  0.00     0.251 C 
ATOM     28  H   UNL A   1      40.174  21.785  26.121  1.00  0.00     0.163 HD
ATOM     29  O   UNL A   1      41.762  23.379  27.046  1.00  0.00    -0.269 OA
BRANCH  27  30
ATOM     30  C   UNL A   1      40.021  24.942  27.205  1.00  0.00     0.039 A 
ATOM     31  C   UNL A   1      40.416  26.072  26.480  1.00  0.00     0.014 A 
ATOM     32  C   UNL A   1      39.308  25.083  28.392  1.00  0.00     0.014 A 
ATOM     33  C   UNL A   1      40.338  27.324  27.082  1.00  0.00     0.010 A 
ATOM     34  C   UNL A   1      39.326  26.305  29.034  1.00  0.00     0.010 A 
ATOM     35  C   UNL A   1      39.915  27.407  28.410  1.00  0.00    -0.014 A 
BRANCH  35  36
ATOM     36  C   UNL A   1      40.196  28.560  29.255  1.00  0.00     0.031 A 
ATOM     37  C   UNL A   1      39.158  29.590  29.488  1.00  0.00     0.074 A 
ATOM     38  C   UNL A   1      41.400  28.670  29.864  1.00  0.00     0.049 A 
ATOM     39  N   UNL A   1      39.413  30.819  29.789  1.00  0.00    -0.248 NA
ATOM     40  C   UNL A   1      37.729  29.318  29.353  1.00  0.00     0.031 C 
ATOM     41  C   UNL A   1      41.767  29.623  30.912  1.00  0.00     0.029 A 
ATOM     42  N   UNL A   1      42.613  28.044  29.594  1.00  0.00    -0.354 N 
ATOM     43  C   UNL A   1      38.232  31.403  30.179  1.00  0.00     0.074 A 
ATOM     44  C   UNL A   1      37.202  30.460  29.805  1.00  0.00     0.031 C 
ATOM     45  C   UNL A   1      43.106  29.740  30.938  1.00  0.00     0.029 A 
ATOM     46  C   UNL A   1      43.617  28.993  29.803  1.00  0.00     0.049 A 
ATOM     47  H   UNL A   1      42.739  27.110  29.311  1.00  0.00     0.167 HD
ATOM     48  C   UNL A   1      38.255  32.552  30.913  1.00  0.00     0.031 A 
ATOM     49  C   UNL A   1      44.417  29.521  28.827  1.00  0.00     0.031 A 
ATOM     50  C   UNL A   1      39.614  33.047  31.117  1.00  0.00     0.049 A 
ATOM     51  C   UNL A   1      44.335  31.038  28.732  1.00  0.00     0.074 A 
ATOM     52  C   UNL A   1      40.497  32.965  32.182  1.00  0.00     0.029 A 
ATOM     53  N   UNL A   1      40.355  33.479  30.024  1.00  0.00    -0.354 N 
ATOM     54  N   UNL A   1      43.379  31.747  29.264  1.00  0.00    -0.248 NA
ATOM     55  C   UNL A   1      45.283  31.869  27.987  1.00  0.00     0.031 C 
ATOM     56  C   UNL A   1      41.793  33.291  31.705  1.00  0.00     0.029 A 
ATOM     57  C   UNL A   1      41.690  33.595  30.359  1.00  0.00     0.049 A 
ATOM     58  H   UNL A   1      39.980  33.676  29.135  1.00  0.00     0.167 HD
ATOM     59  C   UNL A   1      43.550  33.071  28.953  1.00  0.00     0.074 A 
ATOM     60  C   UNL A   1      44.766  33.099  28.163  1.00  0.00     0.031 C 
ATOM     61  C   UNL A   1      42.661  34.024  29.363  1.00  0.00     0.031 A 
BRANCH  48  62
ATOM     62  C   UNL A   1      37.064  33.049  31.698  1.00  0.00    -0.014 A 
ATOM     63  C   UNL A   1      35.808  32.436  31.523  1.00  0.00     0.009 A 
ATOM     64  C   UNL A   1      37.096  34.143  32.578  1.00  0.00     0.009 A 
ATOM     65  C   UNL A   1      34.640  32.953  32.101  1.00  0.00     0.001 A 
ATOM     66  C   UNL A   1      35.927  34.692  33.125  1.00  0.00     0.001 A 
ATOM     67  C   UNL A   1      34.696  34.104  32.875  1.00  0.00     0.000 A 
ENDBRANCH  48  62
BRANCH  49  68
ATOM     68  C   UNL A   1      44.656  28.628  27.663  1.00  0.00    -0.014 A 
ATOM     69  C   UNL A   1      45.467  27.492  27.845  1.00  0.00     0.009 A 
ATOM     70  C   UNL A   1      43.841  28.696  26.524  1.00  0.00     0.009 A 
ATOM     71  C   UNL A   1      45.373  26.401  26.977  1.00  0.00     0.001 A 
ATOM     72  C   UNL A   1      43.756  27.603  25.653  1.00  0.00     0.001 A 
ATOM     73  C   UNL A   1      44.492  26.445  25.899  1.00  0.00     0.000 A 
ENDBRANCH  49  68
BRANCH  61  74
ATOM     74  C   UNL A   1      42.632  35.468  28.923  1.00  0.00    -0.014 A 
ATOM     75  C   UNL A   1      43.315  36.506  29.570  1.00  0.00     0.009 A 
ATOM     76  C   UNL A   1      41.996  35.793  27.703  1.00  0.00     0.009 A 
ATOM     77  C   UNL A   1      43.326  37.807  29.045  1.00  0.00     0.001 A 
ATOM     78  C   UNL A   1      42.041  37.076  27.154  1.00  0.00     0.001 A 
ATOM     79  C   UNL A   1      42.700  38.088  27.833  1.00  0.00     0.000 A 
ENDBRANCH  61  74
ENDBRANCH  35  36
ENDBRANCH  27  30
ENDBRANCH  25  26
ENDBRANCH  24  25
ENDBRANCH   1  24
TORSDOF 13
ENDMDL
