MODEL 1
REMARK VINA RESULT:     -11.2      0.000      0.000
REMARK SMILES CCOc1cc(OCC)cc(-c2ccc([C@@H](C)C(=O)NCCCNC(=O)c3ccc(-c4c5nc(c(-c6ccccc6)c6ccc([nH]6)c(-c6ccccc6)c6nc(c(-c7ccccc7)c7ccc4[nH]7)C=C6)C=C5)cc3)cc2)c1
REMARK SMILES IDX 21 1 20 2 18 3 19 4 16 6 17 7 15 8 12 9 13 10 76 11 14 12
REMARK SMILES IDX 75 13 11 14 4 15 5 16 77 17 6 18 10 19 3 20 2 21 1 22 7 23
REMARK SMILES IDX 8 24 9 25 22 26 23 27 24 28 25 29 26 31 27 32 28 33 74 34
REMARK SMILES IDX 29 35 73 36 30 37 31 38 32 39 67 40 33 41 72 42 66 43 68 44
REMARK SMILES IDX 34 45 71 46 65 47 64 48 35 50 57 51 42 52 56 53 43 54 46 55
REMARK SMILES IDX 55 56 69 57 44 58 45 59 54 61 70 62 47 63 36 64 37 65 41 66
REMARK SMILES IDX 38 67 40 68 39 69 58 70 59 71 63 72 60 73 62 74 61 75 48 76
REMARK SMILES IDX 49 77 53 78 50 79 52 80 51 81
REMARK H PARENT 20 5 24 30 68 49 46 60
REMARK Flexibility Score: inf
ROOT
ATOM      1  C   UNL A   1      31.401  27.797  26.156  1.00  0.00     0.117 C 
ENDROOT
BRANCH   1   2
ATOM      2  N   UNL A   1      31.844  28.481  24.958  1.00  0.00    -0.356 N 
ATOM      3  C   UNL A   1      31.637  28.235  23.635  1.00  0.00     0.227 C 
ATOM      4  O   UNL A   1      32.222  28.989  22.847  1.00  0.00    -0.274 OA
ATOM      5  H   UNL A   1      32.399  29.275  25.133  1.00  0.00     0.163 HD
BRANCH   3   6
ATOM      6  C   UNL A   1      30.753  27.102  23.094  1.00  0.00     0.105 C 
ATOM      7  C   UNL A   1      29.279  27.188  23.487  1.00  0.00     0.023 C 
BRANCH   6   8
ATOM      8  C   UNL A   1      31.390  25.731  23.243  1.00  0.00    -0.036 A 
ATOM      9  C   UNL A   1      32.701  23.242  23.719  1.00  0.00    -0.018 A 
ATOM     10  C   UNL A   1      31.322  23.405  23.932  1.00  0.00     0.009 A 
ATOM     11  C   UNL A   1      33.401  24.348  23.217  1.00  0.00     0.009 A 
ATOM     12  C   UNL A   1      30.673  24.612  23.662  1.00  0.00     0.005 A 
ATOM     13  C   UNL A   1      32.764  25.577  23.004  1.00  0.00     0.005 A 
BRANCH   9  14
ATOM     14  C   UNL A   1      33.368  21.964  24.046  1.00  0.00    -0.011 A 
ATOM     15  C   UNL A   1      35.280  20.717  24.895  1.00  0.00     0.123 A 
ATOM     16  C   UNL A   1      34.567  19.523  24.797  1.00  0.00     0.092 A 
ATOM     17  C   UNL A   1      34.691  21.921  24.509  1.00  0.00     0.055 A 
ATOM     18  C   UNL A   1      33.258  19.529  24.315  1.00  0.00     0.123 A 
ATOM     19  C   UNL A   1      32.680  20.742  23.934  1.00  0.00     0.055 A 
BRANCH  15  20
ATOM     20  O   UNL A   1      36.599  20.657  25.253  1.00  0.00    -0.494 OA
BRANCH  20  21
ATOM     21  C   UNL A   1      37.384  21.759  24.778  1.00  0.00     0.226 C 
ATOM     22  C   UNL A   1      38.220  22.390  25.882  1.00  0.00     0.049 C 
ENDBRANCH  20  21
ENDBRANCH  15  20
BRANCH  18  23
ATOM     23  O   UNL A   1      32.629  18.313  24.280  1.00  0.00    -0.494 OA
BRANCH  23  24
ATOM     24  C   UNL A   1      32.828  17.485  23.131  1.00  0.00     0.226 C 
ATOM     25  C   UNL A   1      34.079  16.628  23.265  1.00  0.00     0.049 C 
ENDBRANCH  23  24
ENDBRANCH  18  23
ENDBRANCH   9  14
ENDBRANCH   6   8
ENDBRANCH   3   6
ENDBRANCH   1   2
BRANCH   1  26
ATOM     26  C   UNL A   1      32.344  28.017  27.336  1.00  0.00     0.042 C 
BRANCH  26  27
ATOM     27  C   UNL A   1      33.598  28.808  26.989  1.00  0.00     0.118 C 
BRANCH  27  28
ATOM     28  N   UNL A   1      33.593  30.138  27.582  1.00  0.00    -0.352 N 
ATOM     29  C   UNL A   1      34.533  30.782  28.345  1.00  0.00     0.251 C 
ATOM     30  H   UNL A   1      32.779  30.663  27.404  1.00  0.00     0.163 HD
ATOM     31  O   UNL A   1      34.225  31.829  28.911  1.00  0.00    -0.269 OA
BRANCH  29  32
ATOM     32  C   UNL A   1      35.904  30.245  28.506  1.00  0.00     0.039 A 
ATOM     33  C   UNL A   1      36.281  29.732  29.755  1.00  0.00     0.014 A 
ATOM     34  C   UNL A   1      36.847  30.309  27.478  1.00  0.00     0.014 A 
ATOM     35  C   UNL A   1      37.580  29.259  29.957  1.00  0.00     0.010 A 
ATOM     36  C   UNL A   1      38.115  29.759  27.653  1.00  0.00     0.010 A 
ATOM     37  C   UNL A   1      38.504  29.252  28.901  1.00  0.00    -0.014 A 
BRANCH  37  38
ATOM     38  C   UNL A   1      39.895  28.773  29.095  1.00  0.00     0.031 A 
ATOM     39  C   UNL A   1      40.935  29.698  29.672  1.00  0.00     0.074 A 
ATOM     40  C   UNL A   1      40.243  27.531  28.706  1.00  0.00     0.049 A 
ATOM     41  N   UNL A   1      42.216  29.496  29.850  1.00  0.00    -0.248 NA
ATOM     42  C   UNL A   1      40.478  31.037  30.078  1.00  0.00     0.031 C 
ATOM     43  C   UNL A   1      39.341  26.547  28.104  1.00  0.00     0.029 A 
ATOM     44  N   UNL A   1      41.453  26.887  28.755  1.00  0.00    -0.354 N 
ATOM     45  C   UNL A   1      42.719  30.688  30.359  1.00  0.00     0.074 A 
ATOM     46  C   UNL A   1      41.617  31.621  30.418  1.00  0.00     0.031 C 
ATOM     47  C   UNL A   1      40.024  25.417  27.862  1.00  0.00     0.029 A 
ATOM     48  C   UNL A   1      41.416  25.608  28.257  1.00  0.00     0.049 A 
ATOM     49  H   UNL A   1      42.271  27.303  29.112  1.00  0.00     0.167 HD
ATOM     50  C   UNL A   1      43.979  30.975  30.763  1.00  0.00     0.031 A 
ATOM     51  C   UNL A   1      42.395  24.692  28.128  1.00  0.00     0.031 A 
ATOM     52  C   UNL A   1      45.071  30.040  30.729  1.00  0.00     0.049 A 
ATOM     53  C   UNL A   1      43.785  25.031  28.591  1.00  0.00     0.074 A 
ATOM     54  C   UNL A   1      46.375  30.219  31.160  1.00  0.00     0.029 A 
ATOM     55  N   UNL A   1      44.984  28.747  30.240  1.00  0.00    -0.354 N 
ATOM     56  N   UNL A   1      44.232  26.146  29.117  1.00  0.00    -0.248 NA
ATOM     57  C   UNL A   1      44.801  23.978  28.456  1.00  0.00     0.031 C 
ATOM     58  C   UNL A   1      47.087  29.044  30.896  1.00  0.00     0.029 A 
ATOM     59  C   UNL A   1      46.213  28.118  30.348  1.00  0.00     0.049 A 
ATOM     60  H   UNL A   1      44.170  28.336  29.870  1.00  0.00     0.167 HD
ATOM     61  C   UNL A   1      45.571  25.917  29.405  1.00  0.00     0.074 A 
ATOM     62  C   UNL A   1      45.861  24.555  29.007  1.00  0.00     0.031 C 
ATOM     63  C   UNL A   1      46.480  26.760  29.954  1.00  0.00     0.031 A 
BRANCH  50  64
ATOM     64  C   UNL A   1      44.241  32.365  31.275  1.00  0.00    -0.014 A 
ATOM     65  C   UNL A   1      44.629  33.399  30.407  1.00  0.00     0.009 A 
ATOM     66  C   UNL A   1      44.078  32.651  32.639  1.00  0.00     0.009 A 
ATOM     67  C   UNL A   1      44.888  34.679  30.902  1.00  0.00     0.001 A 
ATOM     68  C   UNL A   1      44.307  33.939  33.126  1.00  0.00     0.001 A 
ATOM     69  C   UNL A   1      44.723  34.948  32.259  1.00  0.00     0.000 A 
ENDBRANCH  50  64
BRANCH  51  70
ATOM     70  C   UNL A   1      42.091  23.353  27.560  1.00  0.00    -0.014 A 
ATOM     71  C   UNL A   1      42.389  23.067  26.219  1.00  0.00     0.009 A 
ATOM     72  C   UNL A   1      41.501  22.356  28.352  1.00  0.00     0.009 A 
ATOM     73  C   UNL A   1      42.076  21.819  25.675  1.00  0.00     0.001 A 
ATOM     74  C   UNL A   1      41.215  21.100  27.812  1.00  0.00     0.001 A 
ATOM     75  C   UNL A   1      41.494  20.835  26.473  1.00  0.00     0.000 A 
ENDBRANCH  51  70
BRANCH  63  76
ATOM     76  C   UNL A   1      47.858  26.217  30.201  1.00  0.00    -0.014 A 
ATOM     77  C   UNL A   1      48.823  26.178  29.182  1.00  0.00     0.009 A 
ATOM     78  C   UNL A   1      48.206  25.775  31.487  1.00  0.00     0.009 A 
ATOM     79  C   UNL A   1      50.099  25.674  29.441  1.00  0.00     0.001 A 
ATOM     80  C   UNL A   1      49.492  25.297  31.748  1.00  0.00     0.001 A 
ATOM     81  C   UNL A   1      50.433  25.239  30.723  1.00  0.00     0.000 A 
ENDBRANCH  63  76
ENDBRANCH  37  38
ENDBRANCH  29  32
ENDBRANCH  27  28
ENDBRANCH  26  27
ENDBRANCH   1  26
TORSDOF 16
ENDMDL
MODEL 2
REMARK VINA RESULT:     -11.1      2.471      8.445
REMARK SMILES CCOc1cc(OCC)cc(-c2ccc([C@@H](C)C(=O)NCCCNC(=O)c3ccc(-c4c5nc(c(-c6ccccc6)c6ccc([nH]6)c(-c6ccccc6)c6nc(c(-c7ccccc7)c7ccc4[nH]7)C=C6)C=C5)cc3)cc2)c1
REMARK SMILES IDX 21 1 20 2 18 3 19 4 16 6 17 7 15 8 12 9 13 10 76 11 14 12
REMARK SMILES IDX 75 13 11 14 4 15 5 16 77 17 6 18 10 19 3 20 2 21 1 22 7 23
REMARK SMILES IDX 8 24 9 25 22 26 23 27 24 28 25 29 26 31 27 32 28 33 74 34
REMARK SMILES IDX 29 35 73 36 30 37 31 38 32 39 67 40 33 41 72 42 66 43 68 44
REMARK SMILES IDX 34 45 71 46 65 47 64 48 35 50 57 51 42 52 56 53 43 54 46 55
REMARK SMILES IDX 55 56 69 57 44 58 45 59 54 61 70 62 47 63 36 64 37 65 41 66
REMARK SMILES IDX 38 67 40 68 39 69 58 70 59 71 63 72 60 73 62 74 61 75 48 76
REMARK SMILES IDX 49 77 53 78 50 79 52 80 51 81
REMARK H PARENT 20 5 24 30 68 49 46 60
REMARK Flexibility Score: inf
ROOT
ATOM      1  C   UNL A   1      35.235  22.479  23.904  1.00  0.00     0.117 C 
ENDROOT
BRANCH   1   2
ATOM      2  N   UNL A   1      34.903  21.866  25.175  1.00  0.00    -0.356 N 
ATOM      3  C   UNL A   1      33.722  21.450  25.709  1.00  0.00     0.227 C 
ATOM      4  O   UNL A   1      33.775  21.019  26.868  1.00  0.00    -0.274 OA
ATOM      5  H   UNL A   1      35.679  21.721  25.763  1.00  0.00     0.163 HD
BRANCH   3   6
ATOM      6  C   UNL A   1      32.375  21.499  24.973  1.00  0.00     0.105 C 
ATOM      7  C   UNL A   1      32.275  20.593  23.747  1.00  0.00     0.023 C 
BRANCH   6   8
ATOM      8  C   UNL A   1      31.853  22.913  24.786  1.00  0.00    -0.036 A 
ATOM      9  C   UNL A   1      31.103  25.644  24.443  1.00  0.00    -0.018 A 
ATOM     10  C   UNL A   1      31.007  24.714  23.396  1.00  0.00     0.009 A 
ATOM     11  C   UNL A   1      31.543  25.161  25.684  1.00  0.00     0.009 A 
ATOM     12  C   UNL A   1      31.338  23.368  23.574  1.00  0.00     0.005 A 
ATOM     13  C   UNL A   1      31.933  23.826  25.848  1.00  0.00     0.005 A 
BRANCH   9  14
ATOM     14  C   UNL A   1      30.781  27.069  24.217  1.00  0.00    -0.011 A 
ATOM     15  C   UNL A   1      31.084  29.429  24.737  1.00  0.00     0.123 A 
ATOM     16  C   UNL A   1      30.259  29.788  23.673  1.00  0.00     0.092 A 
ATOM     17  C   UNL A   1      31.329  28.084  25.014  1.00  0.00     0.055 A 
ATOM     18  C   UNL A   1      29.677  28.801  22.876  1.00  0.00     0.123 A 
ATOM     19  C   UNL A   1      29.933  27.458  23.164  1.00  0.00     0.055 A 
BRANCH  15  20
ATOM     20  O   UNL A   1      31.535  30.417  25.570  1.00  0.00    -0.494 OA
BRANCH  20  21
ATOM     21  C   UNL A   1      31.985  29.945  26.846  1.00  0.00     0.226 C 
ATOM     22  C   UNL A   1      33.386  30.437  27.183  1.00  0.00     0.049 C 
ENDBRANCH  20  21
ENDBRANCH  15  20
BRANCH  18  23
ATOM     23  O   UNL A   1      28.905  29.249  21.839  1.00  0.00    -0.494 OA
BRANCH  23  24
ATOM     24  C   UNL A   1      27.982  30.312  22.097  1.00  0.00     0.226 C 
ATOM     25  C   UNL A   1      27.982  31.341  20.976  1.00  0.00     0.049 C 
ENDBRANCH  23  24
ENDBRANCH  18  23
ENDBRANCH   9  14
ENDBRANCH   6   8
ENDBRANCH   3   6
ENDBRANCH   1   2
BRANCH   1  26
ATOM     26  C   UNL A   1      36.596  23.168  23.927  1.00  0.00     0.042 C 
BRANCH  26  27
ATOM     27  C   UNL A   1      37.169  23.364  25.324  1.00  0.00     0.118 C 
BRANCH  27  28
ATOM     28  N   UNL A   1      38.352  22.547  25.554  1.00  0.00    -0.352 N 
ATOM     29  C   UNL A   1      39.567  22.864  26.107  1.00  0.00     0.251 C 
ATOM     30  H   UNL A   1      38.264  21.610  25.267  1.00  0.00     0.163 HD
ATOM     31  O   UNL A   1      40.492  22.061  26.011  1.00  0.00    -0.269 OA
BRANCH  29  32
ATOM     32  C   UNL A   1      39.789  24.150  26.808  1.00  0.00     0.039 A 
ATOM     33  C   UNL A   1      40.467  25.174  26.133  1.00  0.00     0.014 A 
ATOM     34  C   UNL A   1      39.414  24.337  28.140  1.00  0.00     0.014 A 
ATOM     35  C   UNL A   1      40.735  26.383  26.779  1.00  0.00     0.010 A 
ATOM     36  C   UNL A   1      39.604  25.573  28.756  1.00  0.00     0.010 A 
ATOM     37  C   UNL A   1      40.290  26.600  28.092  1.00  0.00    -0.014 A 
BRANCH  37  38
ATOM     38  C   UNL A   1      40.579  27.868  28.806  1.00  0.00     0.031 A 
ATOM     39  C   UNL A   1      41.905  28.057  29.496  1.00  0.00     0.074 A 
ATOM     40  C   UNL A   1      39.638  28.830  28.885  1.00  0.00     0.049 A 
ATOM     41  N   UNL A   1      42.320  29.056  30.234  1.00  0.00    -0.248 NA
ATOM     42  C   UNL A   1      42.883  26.965  29.361  1.00  0.00     0.031 C 
ATOM     43  C   UNL A   1      38.303  28.760  28.289  1.00  0.00     0.029 A 
ATOM     44  N   UNL A   1      39.662  30.052  29.505  1.00  0.00    -0.354 N 
ATOM     45  C   UNL A   1      43.590  28.699  30.671  1.00  0.00     0.074 A 
ATOM     46  C   UNL A   1      43.859  27.375  30.157  1.00  0.00     0.031 C 
ATOM     47  C   UNL A   1      37.645  29.901  28.552  1.00  0.00     0.029 A 
ATOM     48  C   UNL A   1      38.496  30.764  29.365  1.00  0.00     0.049 A 
ATOM     49  H   UNL A   1      40.441  30.388  30.005  1.00  0.00     0.167 HD
ATOM     50  C   UNL A   1      44.465  29.416  31.415  1.00  0.00     0.031 A 
ATOM     51  C   UNL A   1      38.149  31.975  29.840  1.00  0.00     0.031 A 
ATOM     52  C   UNL A   1      44.211  30.743  31.907  1.00  0.00     0.049 A 
ATOM     53  C   UNL A   1      39.141  32.756  30.658  1.00  0.00     0.074 A 
ATOM     54  C   UNL A   1      45.051  31.573  32.630  1.00  0.00     0.029 A 
ATOM     55  N   UNL A   1      43.026  31.436  31.720  1.00  0.00    -0.354 N 
ATOM     56  N   UNL A   1      40.357  32.424  31.019  1.00  0.00    -0.248 NA
ATOM     57  C   UNL A   1      38.715  34.085  31.119  1.00  0.00     0.031 C 
ATOM     58  C   UNL A   1      44.359  32.755  32.913  1.00  0.00     0.029 A 
ATOM     59  C   UNL A   1      43.107  32.680  32.322  1.00  0.00     0.049 A 
ATOM     60  H   UNL A   1      42.242  31.096  31.232  1.00  0.00     0.167 HD
ATOM     61  C   UNL A   1      40.853  33.516  31.721  1.00  0.00     0.074 A 
ATOM     62  C   UNL A   1      39.811  34.522  31.724  1.00  0.00     0.031 C 
ATOM     63  C   UNL A   1      42.064  33.672  32.309  1.00  0.00     0.031 A 
BRANCH  50  64
ATOM     64  C   UNL A   1      45.784  28.771  31.744  1.00  0.00    -0.014 A 
ATOM     65  C   UNL A   1      46.900  28.926  30.904  1.00  0.00     0.009 A 
ATOM     66  C   UNL A   1      45.920  28.015  32.919  1.00  0.00     0.009 A 
ATOM     67  C   UNL A   1      48.111  28.303  31.214  1.00  0.00     0.001 A 
ATOM     68  C   UNL A   1      47.141  27.420  33.242  1.00  0.00     0.001 A 
ATOM     69  C   UNL A   1      48.231  27.555  32.383  1.00  0.00     0.000 A 
ENDBRANCH  50  64
BRANCH  51  70
ATOM     70  C   UNL A   1      36.809  32.539  29.533  1.00  0.00    -0.014 A 
ATOM     71  C   UNL A   1      36.606  33.288  28.364  1.00  0.00     0.009 A 
ATOM     72  C   UNL A   1      35.729  32.335  30.405  1.00  0.00     0.009 A 
ATOM     73  C   UNL A   1      35.354  33.844  28.088  1.00  0.00     0.001 A 
ATOM     74  C   UNL A   1      34.472  32.868  30.112  1.00  0.00     0.001 A 
ATOM     75  C   UNL A   1      34.287  33.630  28.960  1.00  0.00     0.000 A 
ENDBRANCH  51  70
BRANCH  63  76
ATOM     76  C   UNL A   1      42.346  34.996  32.959  1.00  0.00    -0.014 A 
ATOM     77  C   UNL A   1      41.853  35.302  34.237  1.00  0.00     0.009 A 
ATOM     78  C   UNL A   1      43.154  35.934  32.297  1.00  0.00     0.009 A 
ATOM     79  C   UNL A   1      42.137  36.538  34.823  1.00  0.00     0.001 A 
ATOM     80  C   UNL A   1      43.457  37.157  32.897  1.00  0.00     0.001 A 
ATOM     81  C   UNL A   1      42.940  37.461  34.155  1.00  0.00     0.000 A 
ENDBRANCH  63  76
ENDBRANCH  37  38
ENDBRANCH  29  32
ENDBRANCH  27  28
ENDBRANCH  26  27
ENDBRANCH   1  26
TORSDOF 16
ENDMDL
MODEL 3
REMARK VINA RESULT:     -10.9      2.373      8.197
REMARK SMILES CCOc1cc(OCC)cc(-c2ccc([C@@H](C)C(=O)NCCCNC(=O)c3ccc(-c4c5nc(c(-c6ccccc6)c6ccc([nH]6)c(-c6ccccc6)c6nc(c(-c7ccccc7)c7ccc4[nH]7)C=C6)C=C5)cc3)cc2)c1
REMARK SMILES IDX 21 1 20 2 18 3 19 4 16 6 17 7 15 8 12 9 13 10 76 11 14 12
REMARK SMILES IDX 75 13 11 14 4 15 5 16 77 17 6 18 10 19 3 20 2 21 1 22 7 23
REMARK SMILES IDX 8 24 9 25 22 26 23 27 24 28 25 29 26 31 27 32 28 33 74 34
REMARK SMILES IDX 29 35 73 36 30 37 31 38 32 39 67 40 33 41 72 42 66 43 68 44
REMARK SMILES IDX 34 45 71 46 65 47 64 48 35 50 57 51 42 52 56 53 43 54 46 55
REMARK SMILES IDX 55 56 69 57 44 58 45 59 54 61 70 62 47 63 36 64 37 65 41 66
REMARK SMILES IDX 38 67 40 68 39 69 58 70 59 71 63 72 60 73 62 74 61 75 48 76
REMARK SMILES IDX 49 77 53 78 50 79 52 80 51 81
REMARK H PARENT 20 5 24 30 68 49 46 60
REMARK Flexibility Score: inf
ROOT
ATOM      1  C   UNL A   1      35.149  22.842  23.515  1.00  0.00     0.117 C 
ENDROOT
BRANCH   1   2
ATOM      2  N   UNL A   1      34.776  21.788  24.438  1.00  0.00    -0.356 N 
ATOM      3  C   UNL A   1      33.581  21.202  24.722  1.00  0.00     0.227 C 
ATOM      4  O   UNL A   1      33.594  20.358  25.627  1.00  0.00    -0.274 OA
ATOM      5  H   UNL A   1      35.530  21.426  24.956  1.00  0.00     0.163 HD
BRANCH   3   6
ATOM      6  C   UNL A   1      32.262  21.535  24.007  1.00  0.00     0.105 C 
ATOM      7  C   UNL A   1      32.123  20.948  22.603  1.00  0.00     0.023 C 
BRANCH   6   8
ATOM      8  C   UNL A   1      31.863  22.994  24.148  1.00  0.00    -0.036 A 
ATOM      9  C   UNL A   1      31.344  25.780  24.469  1.00  0.00    -0.018 A 
ATOM     10  C   UNL A   1      31.327  25.165  23.207  1.00  0.00     0.009 A 
ATOM     11  C   UNL A   1      31.585  24.954  25.576  1.00  0.00     0.009 A 
ATOM     12  C   UNL A   1      31.543  23.794  23.053  1.00  0.00     0.005 A 
ATOM     13  C   UNL A   1      31.861  23.590  25.419  1.00  0.00     0.005 A 
BRANCH   9  14
ATOM     14  C   UNL A   1      31.148  27.240  24.599  1.00  0.00    -0.011 A 
ATOM     15  C   UNL A   1      31.654  29.370  25.665  1.00  0.00     0.123 A 
ATOM     16  C   UNL A   1      30.867  30.044  24.734  1.00  0.00     0.092 A 
ATOM     17  C   UNL A   1      31.780  27.982  25.606  1.00  0.00     0.055 A 
ATOM     18  C   UNL A   1      30.204  29.331  23.734  1.00  0.00     0.123 A 
ATOM     19  C   UNL A   1      30.340  27.943  23.685  1.00  0.00     0.055 A 
BRANCH  15  20
ATOM     20  O   UNL A   1      32.187  30.085  26.703  1.00  0.00    -0.494 OA
BRANCH  20  21
ATOM     21  C   UNL A   1      33.605  30.274  26.616  1.00  0.00     0.226 C 
ATOM     22  C   UNL A   1      34.362  29.459  27.656  1.00  0.00     0.049 C 
ENDBRANCH  20  21
ENDBRANCH  15  20
BRANCH  18  23
ATOM     23  O   UNL A   1      29.476  30.081  22.849  1.00  0.00    -0.494 OA
BRANCH  23  24
ATOM     24  C   UNL A   1      28.053  30.102  22.995  1.00  0.00     0.226 C 
ATOM     25  C   UNL A   1      27.559  31.451  23.498  1.00  0.00     0.049 C 
ENDBRANCH  23  24
ENDBRANCH  18  23
ENDBRANCH   9  14
ENDBRANCH   6   8
ENDBRANCH   3   6
ENDBRANCH   1   2
BRANCH   1  26
ATOM     26  C   UNL A   1      36.619  23.233  23.639  1.00  0.00     0.042 C 
BRANCH  26  27
ATOM     27  C   UNL A   1      37.069  23.508  25.067  1.00  0.00     0.118 C 
BRANCH  27  28
ATOM     28  N   UNL A   1      38.059  22.546  25.529  1.00  0.00    -0.352 N 
ATOM     29  C   UNL A   1      39.234  22.727  26.214  1.00  0.00     0.251 C 
ATOM     30  H   UNL A   1      37.850  21.608  25.315  1.00  0.00     0.163 HD
ATOM     31  O   UNL A   1      40.015  21.783  26.317  1.00  0.00    -0.269 OA
BRANCH  29  32
ATOM     32  C   UNL A   1      39.584  24.030  26.826  1.00  0.00     0.039 A 
ATOM     33  C   UNL A   1      40.285  24.966  26.054  1.00  0.00     0.014 A 
ATOM     34  C   UNL A   1      39.305  24.314  28.165  1.00  0.00     0.014 A 
ATOM     35  C   UNL A   1      40.672  26.187  26.612  1.00  0.00     0.010 A 
ATOM     36  C   UNL A   1      39.615  25.565  28.695  1.00  0.00     0.010 A 
ATOM     37  C   UNL A   1      40.324  26.505  27.934  1.00  0.00    -0.014 A 
BRANCH  37  38
ATOM     38  C   UNL A   1      40.740  27.787  28.556  1.00  0.00     0.031 A 
ATOM     39  C   UNL A   1      39.730  28.886  28.757  1.00  0.00     0.074 A 
ATOM     40  C   UNL A   1      42.029  27.988  28.892  1.00  0.00     0.049 A 
ATOM     41  N   UNL A   1      39.908  30.101  29.211  1.00  0.00    -0.248 NA
ATOM     42  C   UNL A   1      38.341  28.589  28.369  1.00  0.00     0.031 C 
ATOM     43  C   UNL A   1      43.112  27.018  28.721  1.00  0.00     0.029 A 
ATOM     44  N   UNL A   1      42.646  29.082  29.444  1.00  0.00    -0.354 N 
ATOM     45  C   UNL A   1      38.664  30.718  29.136  1.00  0.00     0.074 A 
ATOM     46  C   UNL A   1      37.752  29.761  28.551  1.00  0.00     0.031 C 
ATOM     47  C   UNL A   1      44.255  27.552  29.182  1.00  0.00     0.029 A 
ATOM     48  C   UNL A   1      43.994  28.911  29.645  1.00  0.00     0.049 A 
ATOM     49  H   UNL A   1      42.168  29.912  29.673  1.00  0.00     0.167 HD
ATOM     50  C   UNL A   1      38.306  31.960  29.539  1.00  0.00     0.031 A 
ATOM     51  C   UNL A   1      44.916  29.756  30.142  1.00  0.00     0.031 A 
ATOM     52  C   UNL A   1      39.205  32.904  30.144  1.00  0.00     0.049 A 
ATOM     53  C   UNL A   1      44.493  31.127  30.589  1.00  0.00     0.074 A 
ATOM     54  C   UNL A   1      38.930  34.171  30.630  1.00  0.00     0.029 A 
ATOM     55  N   UNL A   1      40.557  32.681  30.352  1.00  0.00    -0.354 N 
ATOM     56  N   UNL A   1      43.303  31.676  30.558  1.00  0.00    -0.248 NA
ATOM     57  C   UNL A   1      45.540  31.990  31.155  1.00  0.00     0.031 C 
ATOM     58  C   UNL A   1      40.124  34.729  31.098  1.00  0.00     0.029 A 
ATOM     59  C   UNL A   1      41.132  33.789  30.949  1.00  0.00     0.049 A 
ATOM     60  H   UNL A   1      41.037  31.856  30.110  1.00  0.00     0.167 HD
ATOM     61  C   UNL A   1      43.452  32.934  31.130  1.00  0.00     0.074 A 
ATOM     62  C   UNL A   1      44.844  33.061  31.508  1.00  0.00     0.031 C 
ATOM     63  C   UNL A   1      42.517  33.896  31.326  1.00  0.00     0.031 A 
BRANCH  50  64
ATOM     64  C   UNL A   1      36.872  32.367  29.331  1.00  0.00    -0.014 A 
ATOM     65  C   UNL A   1      36.441  32.915  28.111  1.00  0.00     0.009 A 
ATOM     66  C   UNL A   1      35.936  32.183  30.359  1.00  0.00     0.009 A 
ATOM     67  C   UNL A   1      35.112  33.307  27.942  1.00  0.00     0.001 A 
ATOM     68  C   UNL A   1      34.601  32.547  30.176  1.00  0.00     0.001 A 
ATOM     69  C   UNL A   1      34.193  33.119  28.972  1.00  0.00     0.000 A 
ENDBRANCH  50  64
BRANCH  51  70
ATOM     70  C   UNL A   1      46.332  29.320  30.270  1.00  0.00    -0.014 A 
ATOM     71  C   UNL A   1      47.243  29.554  29.229  1.00  0.00     0.009 A 
ATOM     72  C   UNL A   1      46.777  28.666  31.429  1.00  0.00     0.009 A 
ATOM     73  C   UNL A   1      48.566  29.118  29.336  1.00  0.00     0.001 A 
ATOM     74  C   UNL A   1      48.107  28.257  31.544  1.00  0.00     0.001 A 
ATOM     75  C   UNL A   1      48.998  28.474  30.494  1.00  0.00     0.000 A 
ENDBRANCH  51  70
BRANCH  63  76
ATOM     76  C   UNL A   1      42.959  35.150  32.024  1.00  0.00    -0.014 A 
ATOM     77  C   UNL A   1      43.577  36.198  31.323  1.00  0.00     0.009 A 
ATOM     78  C   UNL A   1      42.715  35.299  33.398  1.00  0.00     0.009 A 
ATOM     79  C   UNL A   1      43.972  37.356  31.995  1.00  0.00     0.001 A 
ATOM     80  C   UNL A   1      43.087  36.470  34.061  1.00  0.00     0.001 A 
ATOM     81  C   UNL A   1      43.724  37.493  33.360  1.00  0.00     0.000 A 
ENDBRANCH  63  76
ENDBRANCH  37  38
ENDBRANCH  29  32
ENDBRANCH  27  28
ENDBRANCH  26  27
ENDBRANCH   1  26
TORSDOF 16
ENDMDL
