MODEL 1
REMARK VINA RESULT:     -11.1      0.000      0.000
REMARK SMILES C[C@@H](C(=O)NCCCNC(=O)c1ccc(-c2c3nc(c(-c4ccccc4)c4ccc([nH]4)c(-c4ccccc4)c4nc(c(-c5ccccc5)c5ccc2[nH]5)C=C4)C=C3)cc1)c1ccc(C[C@@H]2CCC[C@@H]2O)cc1F
REMARK SMILES IDX 6 1 5 2 3 3 4 4 2 6 1 7 60 8 61 9 72 10 62 11 71 12 73 13
REMARK SMILES IDX 63 14 64 15 65 16 66 17 69 18 67 19 68 20 70 21 7 23 8 24
REMARK SMILES IDX 9 25 10 26 11 28 12 29 13 30 59 31 14 32 58 33 15 34 16 35
REMARK SMILES IDX 17 36 52 37 18 38 57 39 51 40 53 41 19 42 56 43 50 44 49 45
REMARK SMILES IDX 20 47 42 48 27 49 41 50 28 51 31 52 40 53 54 54 29 55 30 56
REMARK SMILES IDX 39 58 55 59 32 60 21 61 22 62 26 63 23 64 25 65 24 66 43 67
REMARK SMILES IDX 44 68 48 69 45 70 47 71 46 72 33 73 34 74 38 75 35 76 37 77
REMARK SMILES IDX 36 78
REMARK H PARENT 5 5 70 22 9 27 53 46 31 57
REMARK Flexibility Score: inf
ROOT
ATOM      1  C   UNL A   1      31.867  30.114  26.382  1.00  0.00     0.117 C 
ENDROOT
BRANCH   1   2
ATOM      2  N   UNL A   1      31.260  29.606  25.168  1.00  0.00    -0.356 N 
ATOM      3  C   UNL A   1      31.821  29.011  24.077  1.00  0.00     0.227 C 
ATOM      4  O   UNL A   1      31.052  28.764  23.144  1.00  0.00    -0.274 OA
ATOM      5  H   UNL A   1      30.282  29.708  25.123  1.00  0.00     0.163 HD
BRANCH   3   6
ATOM      6  C   UNL A   1      33.320  28.661  24.063  1.00  0.00     0.108 C 
ATOM      7  C   UNL A   1      33.990  28.982  22.726  1.00  0.00     0.023 C 
BRANCH   6   8
ATOM      8  C   UNL A   1      33.573  27.200  24.403  1.00  0.00    -0.000 A 
ATOM      9  C   UNL A   1      33.682  26.226  23.398  1.00  0.00     0.008 A 
ATOM     10  C   UNL A   1      33.709  26.792  25.731  1.00  0.00     0.127 A 
ATOM     11  C   UNL A   1      33.874  24.883  23.722  1.00  0.00     0.004 A 
ATOM     12  C   UNL A   1      33.894  25.452  26.061  1.00  0.00     0.043 A 
ATOM     13  F   UNL A   1      33.653  27.697  26.719  1.00  0.00    -0.207 F 
ATOM     14  C   UNL A   1      33.944  24.476  25.058  1.00  0.00    -0.045 A 
BRANCH  14  15
ATOM     15  C   UNL A   1      34.038  23.014  25.414  1.00  0.00     0.041 C 
BRANCH  15  16
ATOM     16  C   UNL A   1      35.324  22.525  26.120  1.00  0.00     0.022 C 
ATOM     17  C   UNL A   1      36.532  23.464  26.011  1.00  0.00     0.007 C 
ATOM     18  C   UNL A   1      35.907  21.185  25.660  1.00  0.00     0.117 C 
ATOM     19  C   UNL A   1      37.429  22.904  24.903  1.00  0.00     0.003 C 
ATOM     20  C   UNL A   1      36.863  21.539  24.528  1.00  0.00     0.032 C 
BRANCH  18  21
ATOM     21  O   UNL A   1      34.921  20.251  25.273  1.00  0.00    -0.393 OA
ATOM     22  H   UNL A   1      35.263  19.700  24.552  1.00  0.00     0.210 HD
ENDBRANCH  18  21
ENDBRANCH  15  16
ENDBRANCH  14  15
ENDBRANCH   6   8
ENDBRANCH   3   6
ENDBRANCH   1   2
BRANCH   1  23
ATOM     23  C   UNL A   1      31.647  31.617  26.527  1.00  0.00     0.042 C 
BRANCH  23  24
ATOM     24  C   UNL A   1      32.794  32.349  27.216  1.00  0.00     0.118 C 
BRANCH  24  25
ATOM     25  N   UNL A   1      32.455  33.718  27.575  1.00  0.00    -0.352 N 
ATOM     26  C   UNL A   1      33.045  34.549  28.496  1.00  0.00     0.251 C 
ATOM     27  H   UNL A   1      31.692  34.105  27.088  1.00  0.00     0.163 HD
ATOM     28  O   UNL A   1      32.518  35.615  28.797  1.00  0.00    -0.269 OA
BRANCH  26  29
ATOM     29  C   UNL A   1      34.309  34.143  29.144  1.00  0.00     0.039 A 
ATOM     30  C   UNL A   1      34.261  33.395  30.325  1.00  0.00     0.014 A 
ATOM     31  C   UNL A   1      35.538  34.490  28.578  1.00  0.00     0.014 A 
ATOM     32  C   UNL A   1      35.447  32.928  30.896  1.00  0.00     0.010 A 
ATOM     33  C   UNL A   1      36.709  33.962  29.104  1.00  0.00     0.010 A 
ATOM     34  C   UNL A   1      36.677  33.175  30.268  1.00  0.00    -0.014 A 
BRANCH  34  35
ATOM     35  C   UNL A   1      37.956  32.637  30.793  1.00  0.00     0.031 A 
ATOM     36  C   UNL A   1      38.546  31.397  30.184  1.00  0.00     0.074 A 
ATOM     37  C   UNL A   1      38.517  33.183  31.889  1.00  0.00     0.049 A 
ATOM     38  N   UNL A   1      39.540  30.659  30.606  1.00  0.00    -0.248 NA
ATOM     39  C   UNL A   1      37.904  30.903  28.955  1.00  0.00     0.031 C 
ATOM     40  C   UNL A   1      38.028  34.370  32.591  1.00  0.00     0.029 A 
ATOM     41  N   UNL A   1      39.607  32.785  32.622  1.00  0.00    -0.354 N 
ATOM     42  C   UNL A   1      39.619  29.595  29.715  1.00  0.00     0.074 A 
ATOM     43  C   UNL A   1      38.546  29.762  28.759  1.00  0.00     0.031 C 
ATOM     44  C   UNL A   1      38.812  34.603  33.655  1.00  0.00     0.029 A 
ATOM     45  C   UNL A   1      39.826  33.556  33.738  1.00  0.00     0.049 A 
ATOM     46  H   UNL A   1      40.177  32.023  32.372  1.00  0.00     0.167 HD
ATOM     47  C   UNL A   1      40.510  28.575  29.692  1.00  0.00     0.031 A 
ATOM     48  C   UNL A   1      40.722  33.419  34.735  1.00  0.00     0.031 A 
ATOM     49  C   UNL A   1      41.578  28.417  30.642  1.00  0.00     0.049 A 
ATOM     50  C   UNL A   1      41.693  32.273  34.702  1.00  0.00     0.074 A 
ATOM     51  C   UNL A   1      42.571  27.453  30.671  1.00  0.00     0.029 A 
ATOM     52  N   UNL A   1      41.786  29.242  31.737  1.00  0.00    -0.354 N 
ATOM     53  N   UNL A   1      41.795  31.305  33.823  1.00  0.00    -0.248 NA
ATOM     54  C   UNL A   1      42.678  32.205  35.790  1.00  0.00     0.031 C 
ATOM     55  C   UNL A   1      43.347  27.663  31.815  1.00  0.00     0.029 A 
ATOM     56  C   UNL A   1      42.877  28.794  32.463  1.00  0.00     0.049 A 
ATOM     57  H   UNL A   1      41.241  30.029  31.963  1.00  0.00     0.167 HD
ATOM     58  C   UNL A   1      42.872  30.531  34.235  1.00  0.00     0.074 A 
ATOM     59  C   UNL A   1      43.393  31.143  35.440  1.00  0.00     0.031 C 
ATOM     60  C   UNL A   1      43.387  29.417  33.658  1.00  0.00     0.031 A 
BRANCH  47  61
ATOM     61  C   UNL A   1      40.339  27.541  28.613  1.00  0.00    -0.014 A 
ATOM     62  C   UNL A   1      39.583  26.376  28.826  1.00  0.00     0.009 A 
ATOM     63  C   UNL A   1      40.951  27.731  27.364  1.00  0.00     0.009 A 
ATOM     64  C   UNL A   1      39.492  25.399  27.832  1.00  0.00     0.001 A 
ATOM     65  C   UNL A   1      40.829  26.770  26.361  1.00  0.00     0.001 A 
ATOM     66  C   UNL A   1      40.114  25.598  26.599  1.00  0.00     0.000 A 
ENDBRANCH  47  61
BRANCH  48  67
ATOM     67  C   UNL A   1      40.731  34.402  35.849  1.00  0.00    -0.014 A 
ATOM     68  C   UNL A   1      41.448  35.602  35.735  1.00  0.00     0.009 A 
ATOM     69  C   UNL A   1      39.985  34.165  37.015  1.00  0.00     0.009 A 
ATOM     70  C   UNL A   1      41.430  36.538  36.771  1.00  0.00     0.001 A 
ATOM     71  C   UNL A   1      39.947  35.115  38.038  1.00  0.00     0.001 A 
ATOM     72  C   UNL A   1      40.674  36.298  37.918  1.00  0.00     0.000 A 
ENDBRANCH  48  67
BRANCH  60  73
ATOM     73  C   UNL A   1      44.605  28.804  34.291  1.00  0.00    -0.014 A 
ATOM     74  C   UNL A   1      44.500  27.781  35.244  1.00  0.00     0.009 A 
ATOM     75  C   UNL A   1      45.880  29.204  33.858  1.00  0.00     0.009 A 
ATOM     76  C   UNL A   1      45.650  27.181  35.763  1.00  0.00     0.001 A 
ATOM     77  C   UNL A   1      47.025  28.585  34.358  1.00  0.00     0.001 A 
ATOM     78  C   UNL A   1      46.909  27.577  35.313  1.00  0.00     0.000 A 
ENDBRANCH  60  73
ENDBRANCH  34  35
ENDBRANCH  26  29
ENDBRANCH  24  25
ENDBRANCH  23  24
ENDBRANCH   1  23
TORSDOF 14
ENDMDL
MODEL 2
REMARK VINA RESULT:     -11.1      4.504      9.398
REMARK SMILES C[C@@H](C(=O)NCCCNC(=O)c1ccc(-c2c3nc(c(-c4ccccc4)c4ccc([nH]4)c(-c4ccccc4)c4nc(c(-c5ccccc5)c5ccc2[nH]5)C=C4)C=C3)cc1)c1ccc(C[C@@H]2CCC[C@@H]2O)cc1F
REMARK SMILES IDX 6 1 5 2 3 3 4 4 2 6 1 7 60 8 61 9 72 10 62 11 71 12 73 13
REMARK SMILES IDX 63 14 64 15 65 16 66 17 69 18 67 19 68 20 70 21 7 23 8 24
REMARK SMILES IDX 9 25 10 26 11 28 12 29 13 30 59 31 14 32 58 33 15 34 16 35
REMARK SMILES IDX 17 36 52 37 18 38 57 39 51 40 53 41 19 42 56 43 50 44 49 45
REMARK SMILES IDX 20 47 42 48 27 49 41 50 28 51 31 52 40 53 54 54 29 55 30 56
REMARK SMILES IDX 39 58 55 59 32 60 21 61 22 62 26 63 23 64 25 65 24 66 43 67
REMARK SMILES IDX 44 68 48 69 45 70 47 71 46 72 33 73 34 74 38 75 35 76 37 77
REMARK SMILES IDX 36 78
REMARK H PARENT 5 5 70 22 9 27 53 46 31 57
REMARK Flexibility Score: inf
ROOT
ATOM      1  C   UNL A   1      36.719  20.599  24.975  1.00  0.00     0.117 C 
ENDROOT
BRANCH   1   2
ATOM      2  N   UNL A   1      36.988  21.669  24.035  1.00  0.00    -0.356 N 
ATOM      3  C   UNL A   1      36.176  22.654  23.556  1.00  0.00     0.227 C 
ATOM      4  O   UNL A   1      36.665  23.377  22.684  1.00  0.00    -0.274 OA
ATOM      5  H   UNL A   1      37.908  21.688  23.686  1.00  0.00     0.163 HD
BRANCH   3   6
ATOM      6  C   UNL A   1      34.753  22.834  24.115  1.00  0.00     0.108 C 
ATOM      7  C   UNL A   1      33.734  21.907  23.451  1.00  0.00     0.023 C 
BRANCH   6   8
ATOM      8  C   UNL A   1      34.265  24.270  23.996  1.00  0.00    -0.000 A 
ATOM      9  C   UNL A   1      33.682  24.745  22.810  1.00  0.00     0.008 A 
ATOM     10  C   UNL A   1      34.381  25.152  25.071  1.00  0.00     0.127 A 
ATOM     11  C   UNL A   1      33.274  26.074  22.698  1.00  0.00     0.004 A 
ATOM     12  C   UNL A   1      33.983  26.482  24.962  1.00  0.00     0.043 A 
ATOM     13  F   UNL A   1      34.894  24.727  26.235  1.00  0.00    -0.207 F 
ATOM     14  C   UNL A   1      33.455  26.967  23.759  1.00  0.00    -0.045 A 
BRANCH  14  15
ATOM     15  C   UNL A   1      33.121  28.429  23.602  1.00  0.00     0.041 C 
BRANCH  15  16
ATOM     16  C   UNL A   1      31.704  28.893  24.013  1.00  0.00     0.022 C 
ATOM     17  C   UNL A   1      30.888  27.877  24.823  1.00  0.00     0.007 C 
ATOM     18  C   UNL A   1      30.737  29.268  22.886  1.00  0.00     0.117 C 
ATOM     19  C   UNL A   1      29.926  27.200  23.841  1.00  0.00     0.003 C 
ATOM     20  C   UNL A   1      30.025  27.970  22.528  1.00  0.00     0.032 C 
BRANCH  18  21
ATOM     21  O   UNL A   1      31.377  29.867  21.778  1.00  0.00    -0.393 OA
ATOM     22  H   UNL A   1      31.817  29.182  21.251  1.00  0.00     0.210 HD
ENDBRANCH  18  21
ENDBRANCH  15  16
ENDBRANCH  14  15
ENDBRANCH   6   8
ENDBRANCH   3   6
ENDBRANCH   1   2
BRANCH   1  23
ATOM     23  C   UNL A   1      37.889  19.622  25.054  1.00  0.00     0.042 C 
BRANCH  23  24
ATOM     24  C   UNL A   1      39.130  20.194  25.733  1.00  0.00     0.118 C 
BRANCH  24  25
ATOM     25  N   UNL A   1      40.194  19.212  25.883  1.00  0.00    -0.352 N 
ATOM     26  C   UNL A   1      41.534  19.408  26.117  1.00  0.00     0.251 C 
ATOM     27  H   UNL A   1      39.914  18.271  25.803  1.00  0.00     0.163 HD
ATOM     28  O   UNL A   1      42.320  18.470  26.039  1.00  0.00    -0.269 OA
BRANCH  26  29
ATOM     29  C   UNL A   1      42.029  20.761  26.442  1.00  0.00     0.039 A 
ATOM     30  C   UNL A   1      42.583  21.547  25.426  1.00  0.00     0.014 A 
ATOM     31  C   UNL A   1      41.935  21.255  27.745  1.00  0.00     0.014 A 
ATOM     32  C   UNL A   1      42.972  22.860  25.702  1.00  0.00     0.010 A 
ATOM     33  C   UNL A   1      42.250  22.584  27.999  1.00  0.00     0.010 A 
ATOM     34  C   UNL A   1      42.771  23.400  26.981  1.00  0.00    -0.014 A 
BRANCH  34  35
ATOM     35  C   UNL A   1      43.096  24.811  27.304  1.00  0.00     0.031 A 
ATOM     36  C   UNL A   1      44.530  25.223  27.472  1.00  0.00     0.074 A 
ATOM     37  C   UNL A   1      42.107  25.686  27.569  1.00  0.00     0.049 A 
ATOM     38  N   UNL A   1      45.022  26.344  27.935  1.00  0.00    -0.248 NA
ATOM     39  C   UNL A   1      45.545  24.223  27.104  1.00  0.00     0.031 C 
ATOM     40  C   UNL A   1      40.674  25.404  27.470  1.00  0.00     0.029 A 
ATOM     41  N   UNL A   1      42.162  26.985  28.010  1.00  0.00    -0.354 N 
ATOM     42  C   UNL A   1      46.400  26.170  27.947  1.00  0.00     0.074 A 
ATOM     43  C   UNL A   1      46.661  24.823  27.489  1.00  0.00     0.031 C 
ATOM     44  C   UNL A   1      39.987  26.495  27.842  1.00  0.00     0.029 A 
ATOM     45  C   UNL A   1      40.926  27.534  28.252  1.00  0.00     0.049 A 
ATOM     46  H   UNL A   1      43.006  27.476  28.138  1.00  0.00     0.167 HD
ATOM     47  C   UNL A   1      47.362  27.055  28.302  1.00  0.00     0.031 A 
ATOM     48  C   UNL A   1      40.586  28.728  28.775  1.00  0.00     0.031 A 
ATOM     49  C   UNL A   1      47.097  28.394  28.753  1.00  0.00     0.049 A 
ATOM     50  C   UNL A   1      41.666  29.692  29.178  1.00  0.00     0.074 A 
ATOM     51  C   UNL A   1      48.002  29.390  29.078  1.00  0.00     0.029 A 
ATOM     52  N   UNL A   1      45.830  28.923  28.949  1.00  0.00    -0.354 N 
ATOM     53  N   UNL A   1      42.967  29.538  29.131  1.00  0.00    -0.248 NA
ATOM     54  C   UNL A   1      41.232  30.998  29.695  1.00  0.00     0.031 C 
ATOM     55  C   UNL A   1      47.282  30.503  29.524  1.00  0.00     0.029 A 
ATOM     56  C   UNL A   1      45.930  30.223  29.415  1.00  0.00     0.049 A 
ATOM     57  H   UNL A   1      44.986  28.446  28.780  1.00  0.00     0.167 HD
ATOM     58  C   UNL A   1      43.507  30.735  29.583  1.00  0.00     0.074 A 
ATOM     59  C   UNL A   1      42.394  31.606  29.897  1.00  0.00     0.031 C 
ATOM     60  C   UNL A   1      44.811  31.080  29.718  1.00  0.00     0.031 A 
BRANCH  47  61
ATOM     61  C   UNL A   1      48.788  26.579  28.238  1.00  0.00    -0.014 A 
ATOM     62  C   UNL A   1      49.444  26.073  29.372  1.00  0.00     0.009 A 
ATOM     63  C   UNL A   1      49.489  26.646  27.024  1.00  0.00     0.009 A 
ATOM     64  C   UNL A   1      50.788  25.698  29.304  1.00  0.00     0.001 A 
ATOM     65  C   UNL A   1      50.821  26.238  26.951  1.00  0.00     0.001 A 
ATOM     66  C   UNL A   1      51.475  25.779  28.093  1.00  0.00     0.000 A 
ENDBRANCH  47  61
BRANCH  48  67
ATOM     67  C   UNL A   1      39.150  29.067  28.945  1.00  0.00    -0.014 A 
ATOM     68  C   UNL A   1      38.427  29.658  27.898  1.00  0.00     0.009 A 
ATOM     69  C   UNL A   1      38.482  28.760  30.143  1.00  0.00     0.009 A 
ATOM     70  C   UNL A   1      37.069  29.948  28.051  1.00  0.00     0.001 A 
ATOM     71  C   UNL A   1      37.118  29.027  30.282  1.00  0.00     0.001 A 
ATOM     72  C   UNL A   1      36.415  29.625  29.239  1.00  0.00     0.000 A 
ENDBRANCH  48  67
BRANCH  60  73
ATOM     73  C   UNL A   1      45.118  32.476  30.183  1.00  0.00    -0.014 A 
ATOM     74  C   UNL A   1      45.318  32.769  31.540  1.00  0.00     0.009 A 
ATOM     75  C   UNL A   1      45.292  33.496  29.233  1.00  0.00     0.009 A 
ATOM     76  C   UNL A   1      45.671  34.062  31.937  1.00  0.00     0.001 A 
ATOM     77  C   UNL A   1      45.670  34.778  29.629  1.00  0.00     0.001 A 
ATOM     78  C   UNL A   1      45.856  35.061  30.981  1.00  0.00     0.000 A 
ENDBRANCH  60  73
ENDBRANCH  34  35
ENDBRANCH  26  29
ENDBRANCH  24  25
ENDBRANCH  23  24
ENDBRANCH   1  23
TORSDOF 14
ENDMDL
MODEL 3
REMARK VINA RESULT:     -11.1      1.202      6.173
REMARK SMILES C[C@@H](C(=O)NCCCNC(=O)c1ccc(-c2c3nc(c(-c4ccccc4)c4ccc([nH]4)c(-c4ccccc4)c4nc(c(-c5ccccc5)c5ccc2[nH]5)C=C4)C=C3)cc1)c1ccc(C[C@@H]2CCC[C@@H]2O)cc1F
REMARK SMILES IDX 6 1 5 2 3 3 4 4 2 6 1 7 60 8 61 9 72 10 62 11 71 12 73 13
REMARK SMILES IDX 63 14 64 15 65 16 66 17 69 18 67 19 68 20 70 21 7 23 8 24
REMARK SMILES IDX 9 25 10 26 11 28 12 29 13 30 59 31 14 32 58 33 15 34 16 35
REMARK SMILES IDX 17 36 52 37 18 38 57 39 51 40 53 41 19 42 56 43 50 44 49 45
REMARK SMILES IDX 20 47 42 48 27 49 41 50 28 51 31 52 40 53 54 54 29 55 30 56
REMARK SMILES IDX 39 58 55 59 32 60 21 61 22 62 26 63 23 64 25 65 24 66 43 67
REMARK SMILES IDX 44 68 48 69 45 70 47 71 46 72 33 73 34 74 38 75 35 76 37 77
REMARK SMILES IDX 36 78
REMARK H PARENT 5 5 70 22 9 27 53 46 31 57
REMARK Flexibility Score: inf
ROOT
ATOM      1  C   UNL A   1      31.275  30.870  26.491  1.00  0.00     0.117 C 
ENDROOT
BRANCH   1   2
ATOM      2  N   UNL A   1      31.866  30.302  25.296  1.00  0.00    -0.356 N 
ATOM      3  C   UNL A   1      32.793  29.313  25.147  1.00  0.00     0.227 C 
ATOM      4  O   UNL A   1      33.177  29.105  23.993  1.00  0.00    -0.274 OA
ATOM      5  H   UNL A   1      31.545  30.694  24.452  1.00  0.00     0.163 HD
BRANCH   3   6
ATOM      6  C   UNL A   1      33.284  28.514  26.367  1.00  0.00     0.108 C 
ATOM      7  C   UNL A   1      34.755  28.776  26.693  1.00  0.00     0.023 C 
BRANCH   6   8
ATOM      8  C   UNL A   1      33.077  27.017  26.195  1.00  0.00    -0.000 A 
ATOM      9  C   UNL A   1      34.123  26.180  25.778  1.00  0.00     0.008 A 
ATOM     10  C   UNL A   1      31.835  26.436  26.456  1.00  0.00     0.127 A 
ATOM     11  C   UNL A   1      33.912  24.814  25.585  1.00  0.00     0.004 A 
ATOM     12  C   UNL A   1      31.615  25.076  26.259  1.00  0.00     0.043 A 
ATOM     13  F   UNL A   1      30.820  27.195  26.897  1.00  0.00    -0.207 F 
ATOM     14  C   UNL A   1      32.646  24.254  25.787  1.00  0.00    -0.045 A 
BRANCH  14  15
ATOM     15  C   UNL A   1      32.387  22.803  25.471  1.00  0.00     0.041 C 
BRANCH  15  16
ATOM     16  C   UNL A   1      33.295  22.119  24.422  1.00  0.00     0.022 C 
ATOM     17  C   UNL A   1      32.618  21.775  23.089  1.00  0.00     0.007 C 
ATOM     18  C   UNL A   1      33.940  20.787  24.818  1.00  0.00     0.117 C 
ATOM     19  C   UNL A   1      32.270  20.284  23.143  1.00  0.00     0.003 C 
ATOM     20  C   UNL A   1      32.935  19.723  24.394  1.00  0.00     0.032 C 
BRANCH  18  21
ATOM     21  O   UNL A   1      34.273  20.714  26.188  1.00  0.00    -0.393 OA
ATOM     22  H   UNL A   1      35.072  20.175  26.298  1.00  0.00     0.210 HD
ENDBRANCH  18  21
ENDBRANCH  15  16
ENDBRANCH  14  15
ENDBRANCH   6   8
ENDBRANCH   3   6
ENDBRANCH   1   2
BRANCH   1  23
ATOM     23  C   UNL A   1      31.383  32.392  26.495  1.00  0.00     0.042 C 
BRANCH  23  24
ATOM     24  C   UNL A   1      32.593  32.926  27.255  1.00  0.00     0.118 C 
BRANCH  24  25
ATOM     25  N   UNL A   1      32.446  34.323  27.638  1.00  0.00    -0.352 N 
ATOM     26  C   UNL A   1      33.079  35.024  28.636  1.00  0.00     0.251 C 
ATOM     27  H   UNL A   1      31.800  34.841  27.106  1.00  0.00     0.163 HD
ATOM     28  O   UNL A   1      32.704  36.153  28.934  1.00  0.00    -0.269 OA
BRANCH  26  29
ATOM     29  C   UNL A   1      34.201  34.402  29.369  1.00  0.00     0.039 A 
ATOM     30  C   UNL A   1      33.935  33.661  30.524  1.00  0.00     0.014 A 
ATOM     31  C   UNL A   1      35.512  34.541  28.906  1.00  0.00     0.014 A 
ATOM     32  C   UNL A   1      34.976  32.994  31.174  1.00  0.00     0.010 A 
ATOM     33  C   UNL A   1      36.532  33.816  29.507  1.00  0.00     0.010 A 
ATOM     34  C   UNL A   1      36.276  33.035  30.646  1.00  0.00    -0.014 A 
BRANCH  34  35
ATOM     35  C   UNL A   1      37.400  32.282  31.255  1.00  0.00     0.031 A 
ATOM     36  C   UNL A   1      38.042  32.793  32.512  1.00  0.00     0.074 A 
ATOM     37  C   UNL A   1      37.923  31.219  30.614  1.00  0.00     0.049 A 
ATOM     38  N   UNL A   1      39.144  32.401  33.099  1.00  0.00    -0.248 NA
ATOM     39  C   UNL A   1      37.370  33.922  33.177  1.00  0.00     0.031 C 
ATOM     40  C   UNL A   1      37.411  30.639  29.371  1.00  0.00     0.029 A 
ATOM     41  N   UNL A   1      39.027  30.457  30.908  1.00  0.00    -0.354 N 
ATOM     42  C   UNL A   1      39.316  33.258  34.179  1.00  0.00     0.074 A 
ATOM     43  C   UNL A   1      38.231  34.214  34.139  1.00  0.00     0.031 C 
ATOM     44  C   UNL A   1      38.200  29.616  29.008  1.00  0.00     0.029 A 
ATOM     45  C   UNL A   1      39.299  29.499  29.962  1.00  0.00     0.049 A 
ATOM     46  H   UNL A   1      39.570  30.584  31.720  1.00  0.00     0.167 HD
ATOM     47  C   UNL A   1      40.287  33.245  35.124  1.00  0.00     0.031 A 
ATOM     48  C   UNL A   1      40.333  28.642  29.856  1.00  0.00     0.031 A 
ATOM     49  C   UNL A   1      41.361  32.289  35.161  1.00  0.00     0.049 A 
ATOM     50  C   UNL A   1      41.410  28.651  30.904  1.00  0.00     0.074 A 
ATOM     51  C   UNL A   1      42.360  32.152  36.109  1.00  0.00     0.029 A 
ATOM     52  N   UNL A   1      41.578  31.312  34.203  1.00  0.00    -0.354 N 
ATOM     53  N   UNL A   1      41.531  29.428  31.953  1.00  0.00    -0.248 NA
ATOM     54  C   UNL A   1      42.485  27.660  30.760  1.00  0.00     0.031 C 
ATOM     55  C   UNL A   1      43.215  31.126  35.693  1.00  0.00     0.029 A 
ATOM     56  C   UNL A   1      42.711  30.583  34.522  1.00  0.00     0.049 A 
ATOM     57  H   UNL A   1      41.011  31.157  33.413  1.00  0.00     0.167 HD
ATOM     58  C   UNL A   1      42.678  29.001  32.610  1.00  0.00     0.074 A 
ATOM     59  C   UNL A   1      43.214  27.896  31.843  1.00  0.00     0.031 C 
ATOM     60  C   UNL A   1      43.230  29.481  33.752  1.00  0.00     0.031 A 
BRANCH  47  61
ATOM     61  C   UNL A   1      40.235  34.320  36.174  1.00  0.00    -0.014 A 
ATOM     62  C   UNL A   1      39.491  34.159  37.354  1.00  0.00     0.009 A 
ATOM     63  C   UNL A   1      40.938  35.519  35.977  1.00  0.00     0.009 A 
ATOM     64  C   UNL A   1      39.405  35.198  38.285  1.00  0.00     0.001 A 
ATOM     65  C   UNL A   1      40.880  36.541  36.925  1.00  0.00     0.001 A 
ATOM     66  C   UNL A   1      40.101  36.386  38.070  1.00  0.00     0.000 A 
ENDBRANCH  47  61
BRANCH  48  67
ATOM     67  C   UNL A   1      40.390  27.707  28.703  1.00  0.00    -0.014 A 
ATOM     68  C   UNL A   1      39.770  26.451  28.772  1.00  0.00     0.009 A 
ATOM     69  C   UNL A   1      41.029  28.084  27.510  1.00  0.00     0.009 A 
ATOM     70  C   UNL A   1      39.799  25.586  27.675  1.00  0.00     0.001 A 
ATOM     71  C   UNL A   1      41.033  27.228  26.406  1.00  0.00     0.001 A 
ATOM     72  C   UNL A   1      40.423  25.978  26.492  1.00  0.00     0.000 A 
ENDBRANCH  48  67
BRANCH  60  73
ATOM     73  C   UNL A   1      44.456  28.788  34.277  1.00  0.00    -0.014 A 
ATOM     74  C   UNL A   1      44.363  27.700  35.158  1.00  0.00     0.009 A 
ATOM     75  C   UNL A   1      45.722  29.182  33.813  1.00  0.00     0.009 A 
ATOM     76  C   UNL A   1      45.516  27.031  35.575  1.00  0.00     0.001 A 
ATOM     77  C   UNL A   1      46.869  28.495  34.209  1.00  0.00     0.001 A 
ATOM     78  C   UNL A   1      46.765  27.422  35.094  1.00  0.00     0.000 A 
ENDBRANCH  60  73
ENDBRANCH  34  35
ENDBRANCH  26  29
ENDBRANCH  24  25
ENDBRANCH  23  24
ENDBRANCH   1  23
TORSDOF 14
ENDMDL
