MODEL 1
REMARK VINA RESULT:     -12.1      0.000      0.000
REMARK SMILES CSCC[C@H](NC(=O)Nc1cccc(-c2nc3ccccc3o2)c1)C(=O)NCCCNC(=O)c1ccc(-c2c3nc(c(-c4ccccc4)c4ccc([nH]4)c(-c4ccccc4)c4nc(c(-c5ccccc5)c5ccc2[nH]5)C=C4)C=C3)cc1
REMARK SMILES IDX 28 1 27 2 25 3 26 4 5 6 4 7 3 8 2 9 1 10 6 11 7 12 8 14 9 15
REMARK SMILES IDX 10 17 11 18 24 19 12 20 14 21 13 22 15 23 16 24 23 25 17 26
REMARK SMILES IDX 22 27 18 28 21 29 19 30 20 31 29 32 30 33 31 34 32 35 33 37
REMARK SMILES IDX 34 38 35 39 81 40 36 41 80 42 37 43 38 44 39 45 74 46 40 47
REMARK SMILES IDX 79 48 73 49 75 50 41 51 78 52 72 53 71 54 42 56 64 57 49 58
REMARK SMILES IDX 63 59 50 60 53 61 62 62 76 63 51 64 52 65 61 67 77 68 54 69
REMARK SMILES IDX 43 70 44 71 48 72 45 73 47 74 46 75 65 76 66 77 70 78 67 79
REMARK SMILES IDX 69 80 68 81 55 82 56 83 60 84 57 85 59 86 58 87
REMARK H PARENT 27 5 6 13 9 16 31 36 75 55 53 66
REMARK Flexibility Score: inf
ROOT
ATOM      1  C   UNL A   1      32.310  26.679  26.160  1.00  0.00     0.117 C 
ENDROOT
BRANCH   1   2
ATOM      2  N   UNL A   1      31.600  25.668  26.899  1.00  0.00    -0.354 N 
ATOM      3  C   UNL A   1      31.430  24.368  26.554  1.00  0.00     0.242 C 
ATOM      4  O   UNL A   1      30.450  23.786  27.034  1.00  0.00    -0.273 OA
ATOM      5  H   UNL A   1      31.192  25.952  27.748  1.00  0.00     0.163 HD
BRANCH   3   6
ATOM      6  C   UNL A   1      32.573  23.564  25.908  1.00  0.00     0.174 C 
BRANCH   6   7
ATOM      7  C   UNL A   1      33.801  24.437  26.133  1.00  0.00     0.046 C 
BRANCH   7   8
ATOM      8  C   UNL A   1      35.075  23.637  26.353  1.00  0.00     0.072 C 
BRANCH   8   9
ATOM      9  S   UNL A   1      36.237  23.713  24.952  1.00  0.00    -0.165 SA
ATOM     10  C   UNL A   1      37.623  22.820  25.672  1.00  0.00     0.085 C 
ENDBRANCH   8   9
ENDBRANCH   7   8
ENDBRANCH   6   7
BRANCH   6  11
ATOM     11  N   UNL A   1      32.380  22.858  24.619  1.00  0.00    -0.326 N 
ATOM     12  C   UNL A   1      31.928  22.948  23.367  1.00  0.00     0.319 C 
ATOM     13  H   UNL A   1      32.733  21.947  24.733  1.00  0.00     0.166 HD
ATOM     14  O   UNL A   1      31.775  21.864  22.790  1.00  0.00    -0.248 OA
ATOM     15  N   UNL A   1      31.492  24.035  22.722  1.00  0.00    -0.308 N 
ATOM     16  H   UNL A   1      30.822  23.820  22.034  1.00  0.00     0.171 HD
BRANCH  15  17
ATOM     17  C   UNL A   1      31.762  25.401  22.793  1.00  0.00     0.043 A 
ATOM     18  C   UNL A   1      33.097  25.790  22.674  1.00  0.00     0.026 A 
ATOM     19  C   UNL A   1      30.771  26.367  22.984  1.00  0.00     0.040 A 
ATOM     20  C   UNL A   1      33.422  27.143  22.575  1.00  0.00     0.003 A 
ATOM     21  C   UNL A   1      31.085  27.738  22.870  1.00  0.00     0.039 A 
ATOM     22  C   UNL A   1      32.417  28.111  22.643  1.00  0.00     0.014 A 
BRANCH  21  23
ATOM     23  C   UNL A   1      29.995  28.709  22.783  1.00  0.00     0.227 A 
ATOM     24  N   UNL A   1      29.312  29.094  21.718  1.00  0.00    -0.209 NA
ATOM     25  O   UNL A   1      29.919  29.578  23.850  1.00  0.00    -0.436 OA
ATOM     26  C   UNL A   1      28.943  30.382  22.023  1.00  0.00     0.110 A 
ATOM     27  C   UNL A   1      29.316  30.684  23.323  1.00  0.00     0.155 A 
ATOM     28  C   UNL A   1      28.401  31.396  21.223  1.00  0.00     0.032 A 
ATOM     29  C   UNL A   1      29.210  31.943  23.907  1.00  0.00     0.049 A 
ATOM     30  C   UNL A   1      28.327  32.692  21.757  1.00  0.00     0.003 A 
ATOM     31  C   UNL A   1      28.728  32.959  23.073  1.00  0.00     0.004 A 
ENDBRANCH  21  23
ENDBRANCH  15  17
ENDBRANCH   6  11
ENDBRANCH   3   6
ENDBRANCH   1   2
BRANCH   1  32
ATOM     32  C   UNL A   1      32.243  27.993  26.928  1.00  0.00     0.042 C 
BRANCH  32  33
ATOM     33  C   UNL A   1      33.627  28.558  27.237  1.00  0.00     0.118 C 
BRANCH  33  34
ATOM     34  N   UNL A   1      33.576  29.975  27.584  1.00  0.00    -0.352 N 
ATOM     35  C   UNL A   1      34.500  30.722  28.257  1.00  0.00     0.251 C 
ATOM     36  H   UNL A   1      32.766  30.456  27.294  1.00  0.00     0.163 HD
ATOM     37  O   UNL A   1      34.213  31.838  28.689  1.00  0.00    -0.269 OA
BRANCH  35  38
ATOM     38  C   UNL A   1      35.845  30.165  28.460  1.00  0.00     0.039 A 
ATOM     39  C   UNL A   1      36.760  30.198  27.409  1.00  0.00     0.014 A 
ATOM     40  C   UNL A   1      36.198  29.641  29.708  1.00  0.00     0.014 A 
ATOM     41  C   UNL A   1      38.056  29.738  27.626  1.00  0.00     0.010 A 
ATOM     42  C   UNL A   1      37.512  29.265  29.945  1.00  0.00     0.010 A 
ATOM     43  C   UNL A   1      38.446  29.293  28.900  1.00  0.00    -0.014 A 
BRANCH  43  44
ATOM     44  C   UNL A   1      39.835  28.851  29.149  1.00  0.00     0.031 A 
ATOM     45  C   UNL A   1      40.812  29.771  29.823  1.00  0.00     0.074 A 
ATOM     46  C   UNL A   1      40.223  27.634  28.723  1.00  0.00     0.049 A 
ATOM     47  N   UNL A   1      42.059  29.550  30.153  1.00  0.00    -0.248 NA
ATOM     48  C   UNL A   1      40.340  31.129  30.140  1.00  0.00     0.031 C 
ATOM     49  C   UNL A   1      39.382  26.688  27.986  1.00  0.00     0.029 A 
ATOM     50  N   UNL A   1      41.422  26.986  28.851  1.00  0.00    -0.354 N 
ATOM     51  C   UNL A   1      42.521  30.741  30.698  1.00  0.00     0.074 A 
ATOM     52  C   UNL A   1      41.443  31.699  30.600  1.00  0.00     0.031 C 
ATOM     53  C   UNL A   1      40.081  25.564  27.763  1.00  0.00     0.029 A 
ATOM     54  C   UNL A   1      41.421  25.722  28.315  1.00  0.00     0.049 A 
ATOM     55  H   UNL A   1      42.209  27.387  29.287  1.00  0.00     0.167 HD
ATOM     56  C   UNL A   1      43.728  31.006  31.250  1.00  0.00     0.031 A 
ATOM     57  C   UNL A   1      42.392  24.792  28.279  1.00  0.00     0.031 A 
ATOM     58  C   UNL A   1      44.791  30.043  31.352  1.00  0.00     0.049 A 
ATOM     59  C   UNL A   1      43.709  25.094  28.935  1.00  0.00     0.074 A 
ATOM     60  C   UNL A   1      46.025  30.179  31.963  1.00  0.00     0.029 A 
ATOM     61  N   UNL A   1      44.745  28.762  30.821  1.00  0.00    -0.354 N 
ATOM     62  N   UNL A   1      44.098  26.190  29.541  1.00  0.00    -0.248 NA
ATOM     63  C   UNL A   1      44.712  24.022  28.920  1.00  0.00     0.031 C 
ATOM     64  C   UNL A   1      46.746  28.998  31.754  1.00  0.00     0.029 A 
ATOM     65  C   UNL A   1      45.940  28.107  31.064  1.00  0.00     0.049 A 
ATOM     66  H   UNL A   1      43.976  28.377  30.341  1.00  0.00     0.167 HD
ATOM     67  C   UNL A   1      45.386  25.935  29.994  1.00  0.00     0.074 A 
ATOM     68  C   UNL A   1      45.697  24.570  29.617  1.00  0.00     0.031 C 
ATOM     69  C   UNL A   1      46.236  26.756  30.659  1.00  0.00     0.031 A 
BRANCH  56  70
ATOM     70  C   UNL A   1      43.956  32.399  31.771  1.00  0.00    -0.014 A 
ATOM     71  C   UNL A   1      43.654  32.742  33.099  1.00  0.00     0.009 A 
ATOM     72  C   UNL A   1      44.490  33.381  30.923  1.00  0.00     0.009 A 
ATOM     73  C   UNL A   1      43.837  34.050  33.552  1.00  0.00     0.001 A 
ATOM     74  C   UNL A   1      44.702  34.680  31.387  1.00  0.00     0.001 A 
ATOM     75  C   UNL A   1      44.364  35.017  32.698  1.00  0.00     0.000 A 
ENDBRANCH  56  70
BRANCH  57  76
ATOM     76  C   UNL A   1      42.137  23.482  27.629  1.00  0.00    -0.014 A 
ATOM     77  C   UNL A   1      41.456  22.463  28.313  1.00  0.00     0.009 A 
ATOM     78  C   UNL A   1      42.553  23.251  26.308  1.00  0.00     0.009 A 
ATOM     79  C   UNL A   1      41.220  21.233  27.697  1.00  0.00     0.001 A 
ATOM     80  C   UNL A   1      42.289  22.030  25.685  1.00  0.00     0.001 A 
ATOM     81  C   UNL A   1      41.632  21.018  26.383  1.00  0.00     0.000 A 
ENDBRANCH  57  76
BRANCH  69  82
ATOM     82  C   UNL A   1      47.577  26.185  31.024  1.00  0.00    -0.014 A 
ATOM     83  C   UNL A   1      48.630  26.152  30.096  1.00  0.00     0.009 A 
ATOM     84  C   UNL A   1      47.794  25.690  32.318  1.00  0.00     0.009 A 
ATOM     85  C   UNL A   1      49.859  25.587  30.444  1.00  0.00     0.001 A 
ATOM     86  C   UNL A   1      49.034  25.155  32.673  1.00  0.00     0.001 A 
ATOM     87  C   UNL A   1      50.059  25.093  31.731  1.00  0.00     0.000 A 
ENDBRANCH  69  82
ENDBRANCH  43  44
ENDBRANCH  35  38
ENDBRANCH  33  34
ENDBRANCH  32  33
ENDBRANCH   1  32
TORSDOF 16
ENDMDL
MODEL 2
REMARK VINA RESULT:     -12.1      2.312      6.819
REMARK SMILES CSCC[C@H](NC(=O)Nc1cccc(-c2nc3ccccc3o2)c1)C(=O)NCCCNC(=O)c1ccc(-c2c3nc(c(-c4ccccc4)c4ccc([nH]4)c(-c4ccccc4)c4nc(c(-c5ccccc5)c5ccc2[nH]5)C=C4)C=C3)cc1
REMARK SMILES IDX 28 1 27 2 25 3 26 4 5 6 4 7 3 8 2 9 1 10 6 11 7 12 8 14 9 15
REMARK SMILES IDX 10 17 11 18 24 19 12 20 14 21 13 22 15 23 16 24 23 25 17 26
REMARK SMILES IDX 22 27 18 28 21 29 19 30 20 31 29 32 30 33 31 34 32 35 33 37
REMARK SMILES IDX 34 38 35 39 81 40 36 41 80 42 37 43 38 44 39 45 74 46 40 47
REMARK SMILES IDX 79 48 73 49 75 50 41 51 78 52 72 53 71 54 42 56 64 57 49 58
REMARK SMILES IDX 63 59 50 60 53 61 62 62 76 63 51 64 52 65 61 67 77 68 54 69
REMARK SMILES IDX 43 70 44 71 48 72 45 73 47 74 46 75 65 76 66 77 70 78 67 79
REMARK SMILES IDX 69 80 68 81 55 82 56 83 60 84 57 85 59 86 58 87
REMARK H PARENT 27 5 6 13 9 16 31 36 75 55 53 66
REMARK Flexibility Score: inf
ROOT
ATOM      1  C   UNL A   1      35.158  22.728  26.412  1.00  0.00     0.117 C 
ENDROOT
BRANCH   1   2
ATOM      2  N   UNL A   1      33.863  23.106  26.916  1.00  0.00    -0.354 N 
ATOM      3  C   UNL A   1      32.777  23.477  26.193  1.00  0.00     0.242 C 
ATOM      4  O   UNL A   1      31.942  24.187  26.765  1.00  0.00    -0.273 OA
ATOM      5  H   UNL A   1      33.754  23.096  27.894  1.00  0.00     0.163 HD
BRANCH   3   6
ATOM      6  C   UNL A   1      32.424  22.766  24.875  1.00  0.00     0.174 C 
BRANCH   6   7
ATOM      7  C   UNL A   1      32.051  21.355  25.314  1.00  0.00     0.046 C 
BRANCH   7   8
ATOM      8  C   UNL A   1      32.546  20.279  24.361  1.00  0.00     0.072 C 
BRANCH   8   9
ATOM      9  S   UNL A   1      32.704  18.636  25.131  1.00  0.00    -0.165 SA
ATOM     10  C   UNL A   1      34.215  18.079  24.329  1.00  0.00     0.085 C 
ENDBRANCH   8   9
ENDBRANCH   7   8
ENDBRANCH   6   7
BRANCH   6  11
ATOM     11  N   UNL A   1      33.227  22.982  23.648  1.00  0.00    -0.326 N 
ATOM     12  C   UNL A   1      33.476  23.795  22.620  1.00  0.00     0.319 C 
ATOM     13  H   UNL A   1      33.824  22.206  23.552  1.00  0.00     0.166 HD
ATOM     14  O   UNL A   1      34.113  23.280  21.691  1.00  0.00    -0.248 OA
ATOM     15  N   UNL A   1      33.008  25.030  22.410  1.00  0.00    -0.308 N 
ATOM     16  H   UNL A   1      32.941  25.249  21.453  1.00  0.00     0.171 HD
BRANCH  15  17
ATOM     17  C   UNL A   1      32.593  26.081  23.227  1.00  0.00     0.043 A 
ATOM     18  C   UNL A   1      33.459  26.468  24.251  1.00  0.00     0.026 A 
ATOM     19  C   UNL A   1      31.371  26.738  23.067  1.00  0.00     0.040 A 
ATOM     20  C   UNL A   1      33.184  27.610  25.003  1.00  0.00     0.003 A 
ATOM     21  C   UNL A   1      31.088  27.904  23.809  1.00  0.00     0.039 A 
ATOM     22  C   UNL A   1      32.018  28.342  24.762  1.00  0.00     0.014 A 
BRANCH  21  23
ATOM     23  C   UNL A   1      29.945  28.731  23.420  1.00  0.00     0.227 A 
ATOM     24  N   UNL A   1      29.228  28.683  22.312  1.00  0.00    -0.209 NA
ATOM     25  O   UNL A   1      29.839  29.916  24.115  1.00  0.00    -0.436 OA
ATOM     26  C   UNL A   1      28.795  29.977  22.155  1.00  0.00     0.110 A 
ATOM     27  C   UNL A   1      29.169  30.736  23.252  1.00  0.00     0.155 A 
ATOM     28  C   UNL A   1      28.187  30.617  21.066  1.00  0.00     0.032 A 
ATOM     29  C   UNL A   1      29.004  32.114  23.358  1.00  0.00     0.049 A 
ATOM     30  C   UNL A   1      28.051  32.014  21.112  1.00  0.00     0.003 A 
ATOM     31  C   UNL A   1      28.457  32.746  22.235  1.00  0.00     0.004 A 
ENDBRANCH  21  23
ENDBRANCH  15  17
ENDBRANCH   6  11
ENDBRANCH   3   6
ENDBRANCH   1   2
BRANCH   1  32
ATOM     32  C   UNL A   1      35.856  23.965  25.863  1.00  0.00     0.042 C 
BRANCH  32  33
ATOM     33  C   UNL A   1      36.993  23.615  24.904  1.00  0.00     0.118 C 
BRANCH  33  34
ATOM     34  N   UNL A   1      37.861  22.573  25.442  1.00  0.00    -0.352 N 
ATOM     35  C   UNL A   1      39.002  22.712  26.181  1.00  0.00     0.251 C 
ATOM     36  H   UNL A   1      37.590  21.647  25.245  1.00  0.00     0.163 HD
ATOM     37  O   UNL A   1      39.759  21.757  26.354  1.00  0.00    -0.269 OA
BRANCH  35  38
ATOM     38  C   UNL A   1      39.310  24.025  26.764  1.00  0.00     0.039 A 
ATOM     39  C   UNL A   1      38.880  24.313  28.058  1.00  0.00     0.014 A 
ATOM     40  C   UNL A   1      40.055  24.953  26.028  1.00  0.00     0.014 A 
ATOM     41  C   UNL A   1      39.236  25.528  28.635  1.00  0.00     0.010 A 
ATOM     42  C   UNL A   1      40.481  26.124  26.637  1.00  0.00     0.010 A 
ATOM     43  C   UNL A   1      40.060  26.429  27.938  1.00  0.00    -0.014 A 
BRANCH  43  44
ATOM     44  C   UNL A   1      40.483  27.699  28.565  1.00  0.00     0.031 A 
ATOM     45  C   UNL A   1      41.895  27.870  29.049  1.00  0.00     0.074 A 
ATOM     46  C   UNL A   1      39.577  28.680  28.739  1.00  0.00     0.049 A 
ATOM     47  N   UNL A   1      42.458  28.918  29.594  1.00  0.00    -0.248 NA
ATOM     48  C   UNL A   1      42.784  26.702  28.935  1.00  0.00     0.031 C 
ATOM     49  C   UNL A   1      38.159  28.595  28.382  1.00  0.00     0.029 A 
ATOM     50  N   UNL A   1      39.716  29.940  29.258  1.00  0.00    -0.354 N 
ATOM     51  C   UNL A   1      43.755  28.530  29.902  1.00  0.00     0.074 A 
ATOM     52  C   UNL A   1      43.880  27.137  29.540  1.00  0.00     0.031 C 
ATOM     53  C   UNL A   1      37.568  29.769  28.655  1.00  0.00     0.029 A 
ATOM     54  C   UNL A   1      38.556  30.673  29.230  1.00  0.00     0.049 A 
ATOM     55  H   UNL A   1      40.566  30.287  29.614  1.00  0.00     0.167 HD
ATOM     56  C   UNL A   1      44.759  29.275  30.420  1.00  0.00     0.031 A 
ATOM     57  C   UNL A   1      38.319  31.939  29.620  1.00  0.00     0.031 A 
ATOM     58  C   UNL A   1      44.629  30.664  30.768  1.00  0.00     0.049 A 
ATOM     59  C   UNL A   1      39.459  32.759  30.152  1.00  0.00     0.074 A 
ATOM     60  C   UNL A   1      45.602  31.536  31.224  1.00  0.00     0.029 A 
ATOM     61  N   UNL A   1      43.445  31.384  30.702  1.00  0.00    -0.354 N 
ATOM     62  N   UNL A   1      40.709  32.411  30.341  1.00  0.00    -0.248 NA
ATOM     63  C   UNL A   1      39.158  34.152  30.505  1.00  0.00     0.031 C 
ATOM     64  C   UNL A   1      44.994  32.768  31.486  1.00  0.00     0.029 A 
ATOM     65  C   UNL A   1      43.655  32.680  31.137  1.00  0.00     0.049 A 
ATOM     66  H   UNL A   1      42.582  31.024  30.392  1.00  0.00     0.167 HD
ATOM     67  C   UNL A   1      41.349  33.547  30.821  1.00  0.00     0.074 A 
ATOM     68  C   UNL A   1      40.353  34.599  30.864  1.00  0.00     0.031 C 
ATOM     69  C   UNL A   1      42.643  33.705  31.194  1.00  0.00     0.031 A 
BRANCH  56  70
ATOM     70  C   UNL A   1      46.078  28.589  30.650  1.00  0.00    -0.014 A 
ATOM     71  C   UNL A   1      47.070  28.556  29.655  1.00  0.00     0.009 A 
ATOM     72  C   UNL A   1      46.338  27.972  31.883  1.00  0.00     0.009 A 
ATOM     73  C   UNL A   1      48.272  27.880  29.874  1.00  0.00     0.001 A 
ATOM     74  C   UNL A   1      47.553  27.325  32.111  1.00  0.00     0.001 A 
ATOM     75  C   UNL A   1      48.515  27.269  31.103  1.00  0.00     0.000 A 
ENDBRANCH  56  70
BRANCH  57  76
ATOM     76  C   UNL A   1      36.955  32.510  29.485  1.00  0.00    -0.014 A 
ATOM     77  C   UNL A   1      36.554  33.134  28.293  1.00  0.00     0.009 A 
ATOM     78  C   UNL A   1      36.036  32.413  30.541  1.00  0.00     0.009 A 
ATOM     79  C   UNL A   1      35.271  33.670  28.172  1.00  0.00     0.001 A 
ATOM     80  C   UNL A   1      34.744  32.925  30.407  1.00  0.00     0.001 A 
ATOM     81  C   UNL A   1      34.366  33.561  29.226  1.00  0.00     0.000 A 
ENDBRANCH  57  76
BRANCH  69  82
ATOM     82  C   UNL A   1      43.045  35.072  31.672  1.00  0.00    -0.014 A 
ATOM     83  C   UNL A   1      43.568  36.026  30.785  1.00  0.00     0.009 A 
ATOM     84  C   UNL A   1      42.884  35.412  33.023  1.00  0.00     0.009 A 
ATOM     85  C   UNL A   1      43.967  37.280  31.254  1.00  0.00     0.001 A 
ATOM     86  C   UNL A   1      43.254  36.678  33.482  1.00  0.00     0.001 A 
ATOM     87  C   UNL A   1      43.807  37.604  32.600  1.00  0.00     0.000 A 
ENDBRANCH  69  82
ENDBRANCH  43  44
ENDBRANCH  35  38
ENDBRANCH  33  34
ENDBRANCH  32  33
ENDBRANCH   1  32
TORSDOF 16
ENDMDL
MODEL 3
REMARK VINA RESULT:     -12.0      2.789      8.226
REMARK SMILES CSCC[C@H](NC(=O)Nc1cccc(-c2nc3ccccc3o2)c1)C(=O)NCCCNC(=O)c1ccc(-c2c3nc(c(-c4ccccc4)c4ccc([nH]4)c(-c4ccccc4)c4nc(c(-c5ccccc5)c5ccc2[nH]5)C=C4)C=C3)cc1
REMARK SMILES IDX 28 1 27 2 25 3 26 4 5 6 4 7 3 8 2 9 1 10 6 11 7 12 8 14 9 15
REMARK SMILES IDX 10 17 11 18 24 19 12 20 14 21 13 22 15 23 16 24 23 25 17 26
REMARK SMILES IDX 22 27 18 28 21 29 19 30 20 31 29 32 30 33 31 34 32 35 33 37
REMARK SMILES IDX 34 38 35 39 81 40 36 41 80 42 37 43 38 44 39 45 74 46 40 47
REMARK SMILES IDX 79 48 73 49 75 50 41 51 78 52 72 53 71 54 42 56 64 57 49 58
REMARK SMILES IDX 63 59 50 60 53 61 62 62 76 63 51 64 52 65 61 67 77 68 54 69
REMARK SMILES IDX 43 70 44 71 48 72 45 73 47 74 46 75 65 76 66 77 70 78 67 79
REMARK SMILES IDX 69 80 68 81 55 82 56 83 60 84 57 85 59 86 58 87
REMARK H PARENT 27 5 6 13 9 16 31 36 75 55 53 66
REMARK Flexibility Score: inf
ROOT
ATOM      1  C   UNL A   1      34.560  24.781  25.765  1.00  0.00     0.117 C 
ENDROOT
BRANCH   1   2
ATOM      2  N   UNL A   1      33.304  24.191  26.151  1.00  0.00    -0.354 N 
ATOM      3  C   UNL A   1      32.212  24.830  26.638  1.00  0.00     0.242 C 
ATOM      4  O   UNL A   1      31.433  24.161  27.326  1.00  0.00    -0.273 OA
ATOM      5  H   UNL A   1      33.230  23.215  26.051  1.00  0.00     0.163 HD
BRANCH   3   6
ATOM      6  C   UNL A   1      31.777  26.195  26.074  1.00  0.00     0.174 C 
BRANCH   6   7
ATOM      7  C   UNL A   1      31.909  27.137  27.265  1.00  0.00     0.046 C 
BRANCH   7   8
ATOM      8  C   UNL A   1      32.263  28.560  26.868  1.00  0.00     0.072 C 
BRANCH   8   9
ATOM      9  S   UNL A   1      34.056  28.884  26.828  1.00  0.00    -0.165 SA
ATOM     10  C   UNL A   1      34.068  30.558  27.486  1.00  0.00     0.085 C 
ENDBRANCH   8   9
ENDBRANCH   7   8
ENDBRANCH   6   7
BRANCH   6  11
ATOM     11  N   UNL A   1      30.624  26.310  25.150  1.00  0.00    -0.326 N 
ATOM     12  C   UNL A   1      30.179  26.109  23.909  1.00  0.00     0.319 C 
ATOM     13  H   UNL A   1      29.878  26.692  25.665  1.00  0.00     0.166 HD
ATOM     14  O   UNL A   1      29.124  26.696  23.633  1.00  0.00    -0.248 OA
ATOM     15  N   UNL A   1      30.794  25.480  22.901  1.00  0.00    -0.308 N 
ATOM     16  H   UNL A   1      30.522  25.825  22.021  1.00  0.00     0.171 HD
BRANCH  15  17
ATOM     17  C   UNL A   1      31.730  24.452  22.804  1.00  0.00     0.043 A 
ATOM     18  C   UNL A   1      33.028  24.809  22.436  1.00  0.00     0.026 A 
ATOM     19  C   UNL A   1      31.422  23.112  23.048  1.00  0.00     0.040 A 
ATOM     20  C   UNL A   1      34.050  23.860  22.474  1.00  0.00     0.003 A 
ATOM     21  C   UNL A   1      32.448  22.146  23.107  1.00  0.00     0.039 A 
ATOM     22  C   UNL A   1      33.766  22.541  22.837  1.00  0.00     0.014 A 
BRANCH  21  23
ATOM     23  C   UNL A   1      32.143  20.820  23.646  1.00  0.00     0.227 A 
ATOM     24  N   UNL A   1      32.133  20.421  24.906  1.00  0.00    -0.209 NA
ATOM     25  O   UNL A   1      32.236  19.797  22.727  1.00  0.00    -0.436 OA
ATOM     26  C   UNL A   1      32.450  19.087  24.821  1.00  0.00     0.110 A 
ATOM     27  C   UNL A   1      32.519  18.702  23.492  1.00  0.00     0.155 A 
ATOM     28  C   UNL A   1      32.813  18.164  25.811  1.00  0.00     0.032 A 
ATOM     29  C   UNL A   1      32.942  17.453  23.048  1.00  0.00     0.049 A 
ATOM     30  C   UNL A   1      33.297  16.911  25.403  1.00  0.00     0.003 A 
ATOM     31  C   UNL A   1      33.364  16.566  24.046  1.00  0.00     0.004 A 
ENDBRANCH  21  23
ENDBRANCH  15  17
ENDBRANCH   6  11
ENDBRANCH   3   6
ENDBRANCH   1   2
BRANCH   1  32
ATOM     32  C   UNL A   1      35.694  23.870  26.217  1.00  0.00     0.042 C 
BRANCH  32  33
ATOM     33  C   UNL A   1      36.782  23.724  25.155  1.00  0.00     0.118 C 
BRANCH  33  34
ATOM     34  N   UNL A   1      37.768  22.710  25.516  1.00  0.00    -0.352 N 
ATOM     35  C   UNL A   1      38.981  22.879  26.120  1.00  0.00     0.251 C 
ATOM     36  H   UNL A   1      37.526  21.781  25.294  1.00  0.00     0.163 HD
ATOM     37  O   UNL A   1      39.806  21.966  26.139  1.00  0.00    -0.269 OA
BRANCH  35  38
ATOM     38  C   UNL A   1      39.285  24.175  26.743  1.00  0.00     0.039 A 
ATOM     39  C   UNL A   1      38.878  24.410  28.056  1.00  0.00     0.014 A 
ATOM     40  C   UNL A   1      40.003  25.138  26.028  1.00  0.00     0.014 A 
ATOM     41  C   UNL A   1      39.231  25.608  28.669  1.00  0.00     0.010 A 
ATOM     42  C   UNL A   1      40.427  26.292  26.670  1.00  0.00     0.010 A 
ATOM     43  C   UNL A   1      40.029  26.545  27.990  1.00  0.00    -0.014 A 
BRANCH  43  44
ATOM     44  C   UNL A   1      40.450  27.796  28.654  1.00  0.00     0.031 A 
ATOM     45  C   UNL A   1      41.851  27.942  29.175  1.00  0.00     0.074 A 
ATOM     46  C   UNL A   1      39.549  28.782  28.826  1.00  0.00     0.049 A 
ATOM     47  N   UNL A   1      42.410  28.972  29.756  1.00  0.00    -0.248 NA
ATOM     48  C   UNL A   1      42.731  26.768  29.058  1.00  0.00     0.031 C 
ATOM     49  C   UNL A   1      38.140  28.720  28.433  1.00  0.00     0.029 A 
ATOM     50  N   UNL A   1      39.688  30.030  29.375  1.00  0.00    -0.354 N 
ATOM     51  C   UNL A   1      43.696  28.565  30.088  1.00  0.00     0.074 A 
ATOM     52  C   UNL A   1      43.815  27.178  29.699  1.00  0.00     0.031 C 
ATOM     53  C   UNL A   1      37.554  29.894  28.717  1.00  0.00     0.029 A 
ATOM     54  C   UNL A   1      38.536  30.776  29.335  1.00  0.00     0.049 A 
ATOM     55  H   UNL A   1      40.532  30.360  29.760  1.00  0.00     0.167 HD
ATOM     56  C   UNL A   1      44.694  29.288  30.646  1.00  0.00     0.031 A 
ATOM     57  C   UNL A   1      38.302  32.035  29.746  1.00  0.00     0.031 A 
ATOM     58  C   UNL A   1      44.570  30.670  31.020  1.00  0.00     0.049 A 
ATOM     59  C   UNL A   1      39.437  32.832  30.324  1.00  0.00     0.074 A 
ATOM     60  C   UNL A   1      45.539  31.522  31.519  1.00  0.00     0.029 A 
ATOM     61  N   UNL A   1      43.394  31.404  30.940  1.00  0.00    -0.354 N 
ATOM     62  N   UNL A   1      40.679  32.467  30.535  1.00  0.00    -0.248 NA
ATOM     63  C   UNL A   1      39.141  34.220  30.699  1.00  0.00     0.031 C 
ATOM     64  C   UNL A   1      44.937  32.755  31.792  1.00  0.00     0.029 A 
ATOM     65  C   UNL A   1      43.606  32.689  31.409  1.00  0.00     0.049 A 
ATOM     66  H   UNL A   1      42.536  31.059  30.602  1.00  0.00     0.167 HD
ATOM     67  C   UNL A   1      41.318  33.585  31.054  1.00  0.00     0.074 A 
ATOM     68  C   UNL A   1      40.331  34.647  31.096  1.00  0.00     0.031 C 
ATOM     69  C   UNL A   1      42.604  33.722  31.463  1.00  0.00     0.031 A 
BRANCH  56  70
ATOM     70  C   UNL A   1      46.000  28.583  30.893  1.00  0.00    -0.014 A 
ATOM     71  C   UNL A   1      46.256  27.920  32.105  1.00  0.00     0.009 A 
ATOM     72  C   UNL A   1      46.987  28.573  29.895  1.00  0.00     0.009 A 
ATOM     73  C   UNL A   1      47.489  27.304  32.330  1.00  0.00     0.001 A 
ATOM     74  C   UNL A   1      48.207  27.929  30.110  1.00  0.00     0.001 A 
ATOM     75  C   UNL A   1      48.462  27.306  31.331  1.00  0.00     0.000 A 
ENDBRANCH  56  70
BRANCH  57  76
ATOM     76  C   UNL A   1      36.948  32.623  29.590  1.00  0.00    -0.014 A 
ATOM     77  C   UNL A   1      35.984  32.481  30.601  1.00  0.00     0.009 A 
ATOM     78  C   UNL A   1      36.617  33.351  28.436  1.00  0.00     0.009 A 
ATOM     79  C   UNL A   1      34.712  33.035  30.448  1.00  0.00     0.001 A 
ATOM     80  C   UNL A   1      35.353  33.928  28.299  1.00  0.00     0.001 A 
ATOM     81  C   UNL A   1      34.399  33.761  29.301  1.00  0.00     0.000 A 
ENDBRANCH  57  76
BRANCH  69  82
ATOM     82  C   UNL A   1      43.008  35.074  31.979  1.00  0.00    -0.014 A 
ATOM     83  C   UNL A   1      42.836  35.417  33.330  1.00  0.00     0.009 A 
ATOM     84  C   UNL A   1      43.580  36.010  31.105  1.00  0.00     0.009 A 
ATOM     85  C   UNL A   1      43.187  36.690  33.783  1.00  0.00     0.001 A 
ATOM     86  C   UNL A   1      43.959  37.271  31.569  1.00  0.00     0.001 A 
ATOM     87  C   UNL A   1      43.750  37.614  32.904  1.00  0.00     0.000 A 
ENDBRANCH  69  82
ENDBRANCH  43  44
ENDBRANCH  35  38
ENDBRANCH  33  34
ENDBRANCH  32  33
ENDBRANCH   1  32
TORSDOF 16
ENDMDL
