MODEL 1
REMARK VINA RESULT:     -11.5      0.000      0.000
REMARK SMILES Cc1cc(C)cc(OCC(=O)Nc2ccc(O)cc2C(=O)NCCCNC(=O)c2ccc(-c3c4nc(c(-c5ccccc5)c5ccc([nH]5)c(-c5ccccc5)c5nc(c(-c6ccccc6)c6ccc3[nH]6)C=C5)C=C4)cc2)c1
REMARK SMILES IDX 23 1 22 2 20 3 21 4 19 6 13 7 14 8 15 9 18 10 16 11 12 12
REMARK SMILES IDX 10 13 11 14 9 16 8 17 7 18 1 19 2 20 3 21 77 22 4 23 5 24
REMARK SMILES IDX 6 25 17 26 24 28 25 29 26 30 27 31 28 33 29 34 30 35 76 36
REMARK SMILES IDX 31 37 75 38 32 39 33 40 34 41 69 42 35 43 74 44 68 45 70 46
REMARK SMILES IDX 36 47 73 48 67 49 66 50 37 52 59 53 44 54 58 55 45 56 48 57
REMARK SMILES IDX 57 58 71 59 46 60 47 61 56 63 72 64 49 65 38 66 39 67 43 68
REMARK SMILES IDX 40 69 42 70 41 71 60 72 61 73 65 74 62 75 64 76 63 77 50 78
REMARK SMILES IDX 51 79 55 80 52 81 54 82 53 83
REMARK H PARENT 22 5 12 15 17 27 26 32 70 51 48 62
REMARK Flexibility Score: inf
ROOT
ATOM      1  C   UNL A   1      31.842  28.089  24.938  1.00  0.00     0.118 C 
ENDROOT
BRANCH   1   2
ATOM      2  N   UNL A   1      30.527  27.645  24.551  1.00  0.00    -0.352 N 
ATOM      3  C   UNL A   1      30.106  26.430  24.058  1.00  0.00     0.253 C 
ATOM      4  O   UNL A   1      28.888  26.293  23.924  1.00  0.00    -0.269 OA
ATOM      5  H   UNL A   1      29.817  28.319  24.656  1.00  0.00     0.163 HD
BRANCH   3   6
ATOM      6  C   UNL A   1      31.003  25.307  23.609  1.00  0.00     0.067 A 
ATOM      7  C   UNL A   1      31.165  24.023  24.170  1.00  0.00     0.054 A 
ATOM      8  C   UNL A   1      32.076  23.114  23.605  1.00  0.00     0.031 A 
ATOM      9  C   UNL A   1      32.827  23.447  22.483  1.00  0.00     0.048 A 
ATOM     10  C   UNL A   1      31.776  25.621  22.470  1.00  0.00     0.062 A 
ATOM     11  C   UNL A   1      32.664  24.701  21.919  1.00  0.00     0.116 A 
BRANCH   7  12
ATOM     12  N   UNL A   1      30.362  23.541  25.210  1.00  0.00    -0.322 N 
ATOM     13  C   UNL A   1      30.687  23.465  26.543  1.00  0.00     0.262 C 
ATOM     14  O   UNL A   1      29.769  23.228  27.338  1.00  0.00    -0.271 OA
ATOM     15  H   UNL A   1      29.466  23.220  24.958  1.00  0.00     0.170 HD
BRANCH  13  16
ATOM     16  C   UNL A   1      32.099  23.873  27.057  1.00  0.00     0.329 C 
BRANCH  16  17
ATOM     17  O   UNL A   1      32.946  22.903  27.659  1.00  0.00    -0.484 OA
BRANCH  17  18
ATOM     18  C   UNL A   1      33.776  22.286  26.763  1.00  0.00     0.120 A 
ATOM     19  C   UNL A   1      33.915  19.215  24.556  1.00  0.00     0.044 C 
ATOM     20  C   UNL A   1      34.272  20.532  25.180  1.00  0.00    -0.047 A 
ATOM     21  C   UNL A   1      35.285  21.333  24.639  1.00  0.00     0.007 A 
ATOM     22  C   UNL A   1      33.566  20.991  26.292  1.00  0.00     0.049 A 
ATOM     23  C   UNL A   1      35.572  22.593  25.182  1.00  0.00    -0.047 A 
ATOM     24  C   UNL A   1      36.660  23.440  24.595  1.00  0.00     0.044 C 
ATOM     25  C   UNL A   1      34.815  23.061  26.259  1.00  0.00     0.049 A 
ENDBRANCH  17  18
ENDBRANCH  16  17
ENDBRANCH  13  16
ENDBRANCH   7  12
BRANCH  11  26
ATOM     26  O   UNL A   1      33.354  25.067  20.803  1.00  0.00    -0.508 OA
ATOM     27  H   UNL A   1      33.670  25.945  20.714  1.00  0.00     0.293 HD
ENDBRANCH  11  26
ENDBRANCH   3   6
ENDBRANCH   1   2
BRANCH   1  28
ATOM     28  C   UNL A   1      32.451  27.527  26.202  1.00  0.00     0.042 C 
BRANCH  28  29
ATOM     29  C   UNL A   1      33.712  28.213  26.684  1.00  0.00     0.118 C 
BRANCH  29  30
ATOM     30  N   UNL A   1      33.544  29.613  27.058  1.00  0.00    -0.352 N 
ATOM     31  C   UNL A   1      34.361  30.521  27.691  1.00  0.00     0.251 C 
ATOM     32  H   UNL A   1      32.667  29.983  26.807  1.00  0.00     0.163 HD
ATOM     33  O   UNL A   1      33.920  31.649  27.925  1.00  0.00    -0.269 OA
BRANCH  31  34
ATOM     34  C   UNL A   1      35.732  30.180  28.141  1.00  0.00     0.039 A 
ATOM     35  C   UNL A   1      35.910  29.630  29.417  1.00  0.00     0.014 A 
ATOM     36  C   UNL A   1      36.852  30.407  27.348  1.00  0.00     0.014 A 
ATOM     37  C   UNL A   1      37.183  29.235  29.842  1.00  0.00     0.010 A 
ATOM     38  C   UNL A   1      38.087  29.874  27.704  1.00  0.00     0.010 A 
ATOM     39  C   UNL A   1      38.277  29.298  28.964  1.00  0.00    -0.014 A 
BRANCH  39  40
ATOM     40  C   UNL A   1      39.627  28.805  29.351  1.00  0.00     0.031 A 
ATOM     41  C   UNL A   1      40.533  29.658  30.207  1.00  0.00     0.074 A 
ATOM     42  C   UNL A   1      40.062  27.614  28.891  1.00  0.00     0.049 A 
ATOM     43  N   UNL A   1      41.760  29.421  30.600  1.00  0.00    -0.248 NA
ATOM     44  C   UNL A   1      40.011  30.962  30.650  1.00  0.00     0.031 C 
ATOM     45  C   UNL A   1      39.310  26.713  28.013  1.00  0.00     0.029 A 
ATOM     46  N   UNL A   1      41.246  26.952  29.102  1.00  0.00    -0.354 N 
ATOM     47  C   UNL A   1      42.152  30.546  31.317  1.00  0.00     0.074 A 
ATOM     48  C   UNL A   1      41.067  31.497  31.241  1.00  0.00     0.031 C 
ATOM     49  C   UNL A   1      40.027  25.597  27.807  1.00  0.00     0.029 A 
ATOM     50  C   UNL A   1      41.309  25.722  28.491  1.00  0.00     0.049 A 
ATOM     51  H   UNL A   1      41.983  27.324  29.640  1.00  0.00     0.167 HD
ATOM     52  C   UNL A   1      43.295  30.762  32.010  1.00  0.00     0.031 A 
ATOM     53  C   UNL A   1      42.287  24.798  28.484  1.00  0.00     0.031 A 
ATOM     54  C   UNL A   1      44.369  29.810  32.109  1.00  0.00     0.049 A 
ATOM     55  C   UNL A   1      43.554  25.070  29.248  1.00  0.00     0.074 A 
ATOM     56  C   UNL A   1      45.549  29.913  32.824  1.00  0.00     0.029 A 
ATOM     57  N   UNL A   1      44.387  28.577  31.478  1.00  0.00    -0.354 N 
ATOM     58  N   UNL A   1      43.876  26.113  29.975  1.00  0.00    -0.248 NA
ATOM     59  C   UNL A   1      44.589  24.028  29.200  1.00  0.00     0.031 C 
ATOM     60  C   UNL A   1      46.305  28.762  32.584  1.00  0.00     0.029 A 
ATOM     61  C   UNL A   1      45.567  27.916  31.771  1.00  0.00     0.049 A 
ATOM     62  H   UNL A   1      43.668  28.223  30.905  1.00  0.00     0.167 HD
ATOM     63  C   UNL A   1      45.132  25.837  30.498  1.00  0.00     0.074 A 
ATOM     64  C   UNL A   1      45.502  24.519  30.024  1.00  0.00     0.031 C 
ATOM     65  C   UNL A   1      45.914  26.603  31.296  1.00  0.00     0.031 A 
BRANCH  52  66
ATOM     66  C   UNL A   1      43.436  32.074  32.734  1.00  0.00    -0.014 A 
ATOM     67  C   UNL A   1      44.003  33.193  32.103  1.00  0.00     0.009 A 
ATOM     68  C   UNL A   1      42.951  32.210  34.044  1.00  0.00     0.009 A 
ATOM     69  C   UNL A   1      44.113  34.409  32.779  1.00  0.00     0.001 A 
ATOM     70  C   UNL A   1      43.032  33.437  34.706  1.00  0.00     0.001 A 
ATOM     71  C   UNL A   1      43.621  34.533  34.076  1.00  0.00     0.000 A 
ENDBRANCH  52  66
BRANCH  53  72
ATOM     72  C   UNL A   1      42.116  23.517  27.745  1.00  0.00    -0.014 A 
ATOM     73  C   UNL A   1      42.521  23.406  26.405  1.00  0.00     0.009 A 
ATOM     74  C   UNL A   1      41.510  22.410  28.360  1.00  0.00     0.009 A 
ATOM     75  C   UNL A   1      42.281  22.233  25.684  1.00  0.00     0.001 A 
ATOM     76  C   UNL A   1      41.303  21.226  27.648  1.00  0.00     0.001 A 
ATOM     77  C   UNL A   1      41.675  21.144  26.308  1.00  0.00     0.000 A 
ENDBRANCH  53  72
BRANCH  65  78
ATOM     78  C   UNL A   1      47.223  26.014  31.744  1.00  0.00    -0.014 A 
ATOM     79  C   UNL A   1      48.379  26.109  30.952  1.00  0.00     0.009 A 
ATOM     80  C   UNL A   1      47.302  25.373  32.989  1.00  0.00     0.009 A 
ATOM     81  C   UNL A   1      49.576  25.532  31.380  1.00  0.00     0.001 A 
ATOM     82  C   UNL A   1      48.509  24.828  33.430  1.00  0.00     0.001 A 
ATOM     83  C   UNL A   1      49.640  24.897  32.619  1.00  0.00     0.000 A 
ENDBRANCH  65  78
ENDBRANCH  39  40
ENDBRANCH  31  34
ENDBRANCH  29  30
ENDBRANCH  28  29
ENDBRANCH   1  28
TORSDOF 15
ENDMDL
MODEL 2
REMARK VINA RESULT:     -11.4      1.628      6.549
REMARK SMILES Cc1cc(C)cc(OCC(=O)Nc2ccc(O)cc2C(=O)NCCCNC(=O)c2ccc(-c3c4nc(c(-c5ccccc5)c5ccc([nH]5)c(-c5ccccc5)c5nc(c(-c6ccccc6)c6ccc3[nH]6)C=C5)C=C4)cc2)c1
REMARK SMILES IDX 23 1 22 2 20 3 21 4 19 6 13 7 14 8 15 9 18 10 16 11 12 12
REMARK SMILES IDX 10 13 11 14 9 16 8 17 7 18 1 19 2 20 3 21 77 22 4 23 5 24
REMARK SMILES IDX 6 25 17 26 24 28 25 29 26 30 27 31 28 33 29 34 30 35 76 36
REMARK SMILES IDX 31 37 75 38 32 39 33 40 34 41 69 42 35 43 74 44 68 45 70 46
REMARK SMILES IDX 36 47 73 48 67 49 66 50 37 52 59 53 44 54 58 55 45 56 48 57
REMARK SMILES IDX 57 58 71 59 46 60 47 61 56 63 72 64 49 65 38 66 39 67 43 68
REMARK SMILES IDX 40 69 42 70 41 71 60 72 61 73 65 74 62 75 64 76 63 77 50 78
REMARK SMILES IDX 51 79 55 80 52 81 54 82 53 83
REMARK H PARENT 22 5 12 15 17 27 26 32 70 51 48 62
REMARK Flexibility Score: inf
ROOT
ATOM      1  C   UNL A   1      33.105  27.120  25.221  1.00  0.00     0.118 C 
ENDROOT
BRANCH   1   2
ATOM      2  N   UNL A   1      33.957  26.271  24.428  1.00  0.00    -0.352 N 
ATOM      3  C   UNL A   1      34.260  24.934  24.567  1.00  0.00     0.253 C 
ATOM      4  O   UNL A   1      34.933  24.435  23.663  1.00  0.00    -0.269 OA
ATOM      5  H   UNL A   1      34.392  26.717  23.667  1.00  0.00     0.163 HD
BRANCH   3   6
ATOM      6  C   UNL A   1      33.904  24.072  25.750  1.00  0.00     0.067 A 
ATOM      7  C   UNL A   1      34.754  23.310  26.579  1.00  0.00     0.054 A 
ATOM      8  C   UNL A   1      34.218  22.552  27.634  1.00  0.00     0.031 A 
ATOM      9  C   UNL A   1      32.851  22.539  27.893  1.00  0.00     0.048 A 
ATOM     10  C   UNL A   1      32.521  24.044  26.034  1.00  0.00     0.062 A 
ATOM     11  C   UNL A   1      32.013  23.294  27.091  1.00  0.00     0.116 A 
BRANCH   7  12
ATOM     12  N   UNL A   1      36.149  23.363  26.491  1.00  0.00    -0.322 N 
ATOM     13  C   UNL A   1      36.960  22.593  25.691  1.00  0.00     0.262 C 
ATOM     14  O   UNL A   1      38.142  22.942  25.580  1.00  0.00    -0.271 OA
ATOM     15  H   UNL A   1      36.600  24.023  27.066  1.00  0.00     0.170 HD
BRANCH  13  16
ATOM     16  C   UNL A   1      36.375  21.466  24.790  1.00  0.00     0.329 C 
BRANCH  16  17
ATOM     17  O   UNL A   1      35.816  20.300  25.381  1.00  0.00    -0.484 OA
BRANCH  17  18
ATOM     18  C   UNL A   1      34.633  19.921  24.805  1.00  0.00     0.120 A 
ATOM     19  C   UNL A   1      31.762  21.379  22.816  1.00  0.00     0.044 C 
ATOM     20  C   UNL A   1      32.659  20.386  23.495  1.00  0.00    -0.047 A 
ATOM     21  C   UNL A   1      32.499  19.011  23.285  1.00  0.00     0.007 A 
ATOM     22  C   UNL A   1      33.695  20.829  24.317  1.00  0.00     0.049 A 
ATOM     23  C   UNL A   1      33.380  18.087  23.866  1.00  0.00    -0.047 A 
ATOM     24  C   UNL A   1      33.196  16.618  23.635  1.00  0.00     0.044 C 
ATOM     25  C   UNL A   1      34.445  18.554  24.639  1.00  0.00     0.049 A 
ENDBRANCH  17  18
ENDBRANCH  16  17
ENDBRANCH  13  16
ENDBRANCH   7  12
BRANCH  11  26
ATOM     26  O   UNL A   1      30.671  23.339  27.320  1.00  0.00    -0.508 OA
ATOM     27  H   UNL A   1      30.090  22.815  26.804  1.00  0.00     0.293 HD
ENDBRANCH  11  26
ENDBRANCH   3   6
ENDBRANCH   1   2
BRANCH   1  28
ATOM     28  C   UNL A   1      33.698  28.369  25.833  1.00  0.00     0.042 C 
BRANCH  28  29
ATOM     29  C   UNL A   1      33.411  28.579  27.305  1.00  0.00     0.118 C 
BRANCH  29  30
ATOM     30  N   UNL A   1      33.532  29.958  27.763  1.00  0.00    -0.352 N 
ATOM     31  C   UNL A   1      34.577  30.688  28.280  1.00  0.00     0.251 C 
ATOM     32  H   UNL A   1      32.695  30.471  27.687  1.00  0.00     0.163 HD
ATOM     33  O   UNL A   1      34.367  31.849  28.637  1.00  0.00    -0.269 OA
BRANCH  31  34
ATOM     34  C   UNL A   1      35.932  30.116  28.465  1.00  0.00     0.039 A 
ATOM     35  C   UNL A   1      36.846  30.178  27.405  1.00  0.00     0.014 A 
ATOM     36  C   UNL A   1      36.323  29.498  29.648  1.00  0.00     0.014 A 
ATOM     37  C   UNL A   1      38.153  29.710  27.573  1.00  0.00     0.010 A 
ATOM     38  C   UNL A   1      37.659  29.177  29.868  1.00  0.00     0.010 A 
ATOM     39  C   UNL A   1      38.590  29.257  28.828  1.00  0.00    -0.014 A 
BRANCH  39  40
ATOM     40  C   UNL A   1      39.997  28.834  29.067  1.00  0.00     0.031 A 
ATOM     41  C   UNL A   1      40.455  27.452  28.665  1.00  0.00     0.074 A 
ATOM     42  C   UNL A   1      40.850  29.670  29.693  1.00  0.00     0.049 A 
ATOM     43  N   UNL A   1      41.624  26.887  28.840  1.00  0.00    -0.248 NA
ATOM     44  C   UNL A   1      39.465  26.577  28.015  1.00  0.00     0.031 C 
ATOM     45  C   UNL A   1      40.525  31.012  30.182  1.00  0.00     0.029 A 
ATOM     46  N   UNL A   1      42.175  29.514  30.023  1.00  0.00    -0.354 N 
ATOM     47  C   UNL A   1      41.499  25.595  28.338  1.00  0.00     0.074 A 
ATOM     48  C   UNL A   1      40.125  25.433  27.923  1.00  0.00     0.031 C 
ATOM     49  C   UNL A   1      41.630  31.575  30.698  1.00  0.00     0.029 A 
ATOM     50  C   UNL A   1      42.728  30.618  30.625  1.00  0.00     0.049 A 
ATOM     51  H   UNL A   1      42.680  28.687  29.845  1.00  0.00     0.167 HD
ATOM     52  C   UNL A   1      42.447  24.639  28.197  1.00  0.00     0.031 A 
ATOM     53  C   UNL A   1      43.980  30.837  31.070  1.00  0.00     0.031 A 
ATOM     54  C   UNL A   1      43.821  24.804  28.587  1.00  0.00     0.049 A 
ATOM     55  C   UNL A   1      45.009  29.751  30.917  1.00  0.00     0.074 A 
ATOM     56  C   UNL A   1      44.870  23.912  28.444  1.00  0.00     0.029 A 
ATOM     57  N   UNL A   1      44.337  25.939  29.190  1.00  0.00    -0.354 N 
ATOM     58  N   UNL A   1      44.886  28.561  30.377  1.00  0.00    -0.248 NA
ATOM     59  C   UNL A   1      46.356  30.044  31.424  1.00  0.00     0.031 C 
ATOM     60  C   UNL A   1      46.012  24.490  29.008  1.00  0.00     0.029 A 
ATOM     61  C   UNL A   1      45.687  25.765  29.444  1.00  0.00     0.049 A 
ATOM     62  H   UNL A   1      43.821  26.750  29.407  1.00  0.00     0.167 HD
ATOM     63  C   UNL A   1      46.145  27.982  30.449  1.00  0.00     0.074 A 
ATOM     64  C   UNL A   1      47.022  28.959  31.061  1.00  0.00     0.031 C 
ATOM     65  C   UNL A   1      46.543  26.750  30.048  1.00  0.00     0.031 A 
BRANCH  52  66
ATOM     66  C   UNL A   1      42.032  23.332  27.577  1.00  0.00    -0.014 A 
ATOM     67  C   UNL A   1      42.144  23.118  26.194  1.00  0.00     0.009 A 
ATOM     68  C   UNL A   1      41.571  22.283  28.389  1.00  0.00     0.009 A 
ATOM     69  C   UNL A   1      41.771  21.895  25.632  1.00  0.00     0.001 A 
ATOM     70  C   UNL A   1      41.231  21.051  27.829  1.00  0.00     0.001 A 
ATOM     71  C   UNL A   1      41.323  20.860  26.450  1.00  0.00     0.000 A 
ENDBRANCH  52  66
BRANCH  53  72
ATOM     72  C   UNL A   1      44.348  32.140  31.689  1.00  0.00    -0.014 A 
ATOM     73  C   UNL A   1      44.219  32.333  33.074  1.00  0.00     0.009 A 
ATOM     74  C   UNL A   1      44.791  33.211  30.898  1.00  0.00     0.009 A 
ATOM     75  C   UNL A   1      44.481  33.582  33.645  1.00  0.00     0.001 A 
ATOM     76  C   UNL A   1      45.087  34.448  31.475  1.00  0.00     0.001 A 
ATOM     77  C   UNL A   1      44.917  34.636  32.845  1.00  0.00     0.000 A 
ENDBRANCH  53  72
BRANCH  65  78
ATOM     78  C   UNL A   1      47.999  26.412  30.215  1.00  0.00    -0.014 A 
ATOM     79  C   UNL A   1      48.935  26.681  29.203  1.00  0.00     0.009 A 
ATOM     80  C   UNL A   1      48.442  25.836  31.415  1.00  0.00     0.009 A 
ATOM     81  C   UNL A   1      50.276  26.335  29.373  1.00  0.00     0.001 A 
ATOM     82  C   UNL A   1      49.790  25.524  31.597  1.00  0.00     0.001 A 
ATOM     83  C   UNL A   1      50.703  25.762  30.571  1.00  0.00     0.000 A 
ENDBRANCH  65  78
ENDBRANCH  39  40
ENDBRANCH  31  34
ENDBRANCH  29  30
ENDBRANCH  28  29
ENDBRANCH   1  28
TORSDOF 15
ENDMDL
MODEL 3
REMARK VINA RESULT:     -11.4      1.217      2.561
REMARK SMILES Cc1cc(C)cc(OCC(=O)Nc2ccc(O)cc2C(=O)NCCCNC(=O)c2ccc(-c3c4nc(c(-c5ccccc5)c5ccc([nH]5)c(-c5ccccc5)c5nc(c(-c6ccccc6)c6ccc3[nH]6)C=C5)C=C4)cc2)c1
REMARK SMILES IDX 23 1 22 2 20 3 21 4 19 6 13 7 14 8 15 9 18 10 16 11 12 12
REMARK SMILES IDX 10 13 11 14 9 16 8 17 7 18 1 19 2 20 3 21 77 22 4 23 5 24
REMARK SMILES IDX 6 25 17 26 24 28 25 29 26 30 27 31 28 33 29 34 30 35 76 36
REMARK SMILES IDX 31 37 75 38 32 39 33 40 34 41 69 42 35 43 74 44 68 45 70 46
REMARK SMILES IDX 36 47 73 48 67 49 66 50 37 52 59 53 44 54 58 55 45 56 48 57
REMARK SMILES IDX 57 58 71 59 46 60 47 61 56 63 72 64 49 65 38 66 39 67 43 68
REMARK SMILES IDX 40 69 42 70 41 71 60 72 61 73 65 74 62 75 64 76 63 77 50 78
REMARK SMILES IDX 51 79 55 80 52 81 54 82 53 83
REMARK H PARENT 22 5 12 15 17 27 26 32 70 51 48 62
REMARK Flexibility Score: inf
ROOT
ATOM      1  C   UNL A   1      33.255  27.966  24.938  1.00  0.00     0.118 C 
ENDROOT
BRANCH   1   2
ATOM      2  N   UNL A   1      31.948  28.251  24.405  1.00  0.00    -0.352 N 
ATOM      3  C   UNL A   1      30.862  27.424  24.218  1.00  0.00     0.253 C 
ATOM      4  O   UNL A   1      29.822  27.973  23.847  1.00  0.00    -0.269 OA
ATOM      5  H   UNL A   1      31.809  29.186  24.129  1.00  0.00     0.163 HD
BRANCH   3   6
ATOM      6  C   UNL A   1      30.867  25.925  24.355  1.00  0.00     0.067 A 
ATOM      7  C   UNL A   1      31.123  24.945  23.372  1.00  0.00     0.054 A 
ATOM      8  C   UNL A   1      31.063  23.581  23.702  1.00  0.00     0.031 A 
ATOM      9  C   UNL A   1      30.763  23.162  24.993  1.00  0.00     0.048 A 
ATOM     10  C   UNL A   1      30.567  25.474  25.659  1.00  0.00     0.062 A 
ATOM     11  C   UNL A   1      30.524  24.117  25.966  1.00  0.00     0.116 A 
BRANCH   7  12
ATOM     12  N   UNL A   1      31.567  25.260  22.083  1.00  0.00    -0.322 N 
ATOM     13  C   UNL A   1      32.851  25.164  21.600  1.00  0.00     0.262 C 
ATOM     14  O   UNL A   1      33.005  25.266  20.377  1.00  0.00    -0.271 OA
ATOM     15  H   UNL A   1      30.885  25.589  21.453  1.00  0.00     0.170 HD
BRANCH  13  16
ATOM     16  C   UNL A   1      34.030  24.727  22.517  1.00  0.00     0.329 C 
BRANCH  16  17
ATOM     17  O   UNL A   1      34.624  23.446  22.352  1.00  0.00    -0.484 OA
BRANCH  17  18
ATOM     18  C   UNL A   1      35.109  22.925  23.521  1.00  0.00     0.120 A 
ATOM     19  C   UNL A   1      37.989  23.370  25.936  1.00  0.00     0.044 C 
ATOM     20  C   UNL A   1      36.699  22.891  25.338  1.00  0.00    -0.047 A 
ATOM     21  C   UNL A   1      35.787  22.148  26.097  1.00  0.00     0.007 A 
ATOM     22  C   UNL A   1      36.377  23.217  24.020  1.00  0.00     0.049 A 
ATOM     23  C   UNL A   1      34.552  21.759  25.558  1.00  0.00    -0.047 A 
ATOM     24  C   UNL A   1      33.585  20.962  26.380  1.00  0.00     0.044 C 
ATOM     25  C   UNL A   1      34.223  22.145  24.257  1.00  0.00     0.049 A 
ENDBRANCH  17  18
ENDBRANCH  16  17
ENDBRANCH  13  16
ENDBRANCH   7  12
BRANCH  11  26
ATOM     26  O   UNL A   1      30.254  23.761  27.253  1.00  0.00    -0.508 OA
ATOM     27  H   UNL A   1      30.758  24.123  27.955  1.00  0.00     0.293 HD
ENDBRANCH  11  26
ENDBRANCH   3   6
ENDBRANCH   1   2
BRANCH   1  28
ATOM     28  C   UNL A   1      33.913  28.996  25.828  1.00  0.00     0.042 C 
BRANCH  28  29
ATOM     29  C   UNL A   1      33.426  29.031  27.262  1.00  0.00     0.118 C 
BRANCH  29  30
ATOM     30  N   UNL A   1      33.556  30.325  27.921  1.00  0.00    -0.352 N 
ATOM     31  C   UNL A   1      34.599  30.954  28.560  1.00  0.00     0.251 C 
ATOM     32  H   UNL A   1      32.727  30.856  27.909  1.00  0.00     0.163 HD
ATOM     33  O   UNL A   1      34.397  32.053  29.081  1.00  0.00    -0.269 OA
BRANCH  31  34
ATOM     34  C   UNL A   1      35.944  30.340  28.681  1.00  0.00     0.039 A 
ATOM     35  C   UNL A   1      36.835  30.440  27.605  1.00  0.00     0.014 A 
ATOM     36  C   UNL A   1      36.345  29.648  29.819  1.00  0.00     0.014 A 
ATOM     37  C   UNL A   1      38.133  29.931  27.716  1.00  0.00     0.010 A 
ATOM     38  C   UNL A   1      37.676  29.283  29.990  1.00  0.00     0.010 A 
ATOM     39  C   UNL A   1      38.587  29.399  28.934  1.00  0.00    -0.014 A 
BRANCH  39  40
ATOM     40  C   UNL A   1      39.987  28.929  29.116  1.00  0.00     0.031 A 
ATOM     41  C   UNL A   1      41.028  29.850  29.708  1.00  0.00     0.074 A 
ATOM     42  C   UNL A   1      40.339  27.696  28.700  1.00  0.00     0.049 A 
ATOM     43  N   UNL A   1      42.307  29.638  29.894  1.00  0.00    -0.248 NA
ATOM     44  C   UNL A   1      40.586  31.196  30.112  1.00  0.00     0.031 C 
ATOM     45  C   UNL A   1      39.447  26.724  28.063  1.00  0.00     0.029 A 
ATOM     46  N   UNL A   1      41.547  27.044  28.756  1.00  0.00    -0.354 N 
ATOM     47  C   UNL A   1      42.816  30.822  30.418  1.00  0.00     0.074 A 
ATOM     48  C   UNL A   1      41.728  31.773  30.449  1.00  0.00     0.031 C 
ATOM     49  C   UNL A   1      40.122  25.585  27.838  1.00  0.00     0.029 A 
ATOM     50  C   UNL A   1      41.505  25.761  28.264  1.00  0.00     0.049 A 
ATOM     51  H   UNL A   1      42.366  27.457  29.114  1.00  0.00     0.167 HD
ATOM     52  C   UNL A   1      44.064  31.090  30.869  1.00  0.00     0.031 A 
ATOM     53  C   UNL A   1      42.472  24.829  28.168  1.00  0.00     0.031 A 
ATOM     54  C   UNL A   1      45.143  30.140  30.862  1.00  0.00     0.049 A 
ATOM     55  C   UNL A   1      43.855  25.159  28.661  1.00  0.00     0.074 A 
ATOM     56  C   UNL A   1      46.432  30.298  31.340  1.00  0.00     0.029 A 
ATOM     57  N   UNL A   1      45.055  28.853  30.359  1.00  0.00    -0.354 N 
ATOM     58  N   UNL A   1      44.297  26.263  29.215  1.00  0.00    -0.248 NA
ATOM     59  C   UNL A   1      44.870  24.106  28.527  1.00  0.00     0.031 C 
ATOM     60  C   UNL A   1      47.140  29.121  31.077  1.00  0.00     0.029 A 
ATOM     61  C   UNL A   1      46.273  28.210  30.495  1.00  0.00     0.049 A 
ATOM     62  H   UNL A   1      44.247  28.454  29.961  1.00  0.00     0.167 HD
ATOM     63  C   UNL A   1      45.628  26.024  29.526  1.00  0.00     0.074 A 
ATOM     64  C   UNL A   1      45.915  24.663  29.121  1.00  0.00     0.031 C 
ATOM     65  C   UNL A   1      46.536  26.854  30.093  1.00  0.00     0.031 A 
BRANCH  52  66
ATOM     66  C   UNL A   1      44.324  32.463  31.427  1.00  0.00    -0.014 A 
ATOM     67  C   UNL A   1      44.188  32.725  32.800  1.00  0.00     0.009 A 
ATOM     68  C   UNL A   1      44.758  33.496  30.581  1.00  0.00     0.009 A 
ATOM     69  C   UNL A   1      44.448  33.999  33.309  1.00  0.00     0.001 A 
ATOM     70  C   UNL A   1      45.049  34.760  31.097  1.00  0.00     0.001 A 
ATOM     71  C   UNL A   1      44.886  35.013  32.459  1.00  0.00     0.000 A 
ENDBRANCH  52  66
BRANCH  53  72
ATOM     72  C   UNL A   1      42.179  23.486  27.598  1.00  0.00    -0.014 A 
ATOM     73  C   UNL A   1      42.354  23.238  26.227  1.00  0.00     0.009 A 
ATOM     74  C   UNL A   1      41.682  22.455  28.411  1.00  0.00     0.009 A 
ATOM     75  C   UNL A   1      41.995  22.006  25.675  1.00  0.00     0.001 A 
ATOM     76  C   UNL A   1      41.358  21.211  27.864  1.00  0.00     0.001 A 
ATOM     77  C   UNL A   1      41.500  20.993  26.495  1.00  0.00     0.000 A 
ENDBRANCH  53  72
BRANCH  65  78
ATOM     78  C   UNL A   1      47.908  26.296  30.351  1.00  0.00    -0.014 A 
ATOM     79  C   UNL A   1      48.909  26.324  29.366  1.00  0.00     0.009 A 
ATOM     80  C   UNL A   1      48.209  25.752  31.609  1.00  0.00     0.009 A 
ATOM     81  C   UNL A   1      50.167  25.777  29.622  1.00  0.00     0.001 A 
ATOM     82  C   UNL A   1      49.479  25.238  31.875  1.00  0.00     0.001 A 
ATOM     83  C   UNL A   1      50.452  25.239  30.877  1.00  0.00     0.000 A 
ENDBRANCH  65  78
ENDBRANCH  39  40
ENDBRANCH  31  34
ENDBRANCH  29  30
ENDBRANCH  28  29
ENDBRANCH   1  28
TORSDOF 15
ENDMDL
