MODEL 1
REMARK VINA RESULT:     -11.6      0.000      0.000
REMARK SMILES NS(=O)(=O)c1ccc(-n2nc(C(=O)NCCCNC(=O)c3ccc(-c4c5nc(c(-c6ccccc6)c6ccc([nH]6)c(-c6ccccc6)c6nc(c(-c7ccccc7)c7ccc4[nH]7)C=C6)C=C5)cc3)cc2-c2cc3ccccc3s2)cc1
REMARK SMILES IDX 15 1 14 2 12 3 13 4 11 6 9 7 10 8 70 9 69 10 8 11 5 12 6 13
REMARK SMILES IDX 81 14 7 15 80 16 2 17 3 18 4 19 1 20 71 23 72 24 79 25 73 26
REMARK SMILES IDX 78 27 74 28 77 29 75 30 76 31 16 32 17 33 18 34 19 35 20 37
REMARK SMILES IDX 21 38 22 39 68 40 23 41 67 42 24 43 25 44 26 45 61 46 27 47
REMARK SMILES IDX 66 48 60 49 62 50 28 51 65 52 59 53 58 54 29 56 51 57 36 58
REMARK SMILES IDX 50 59 37 60 40 61 49 62 63 63 38 64 39 65 48 67 64 68 41 69
REMARK SMILES IDX 30 70 31 71 35 72 32 73 34 74 33 75 52 76 53 77 57 78 54 79
REMARK SMILES IDX 56 80 55 81 42 82 43 83 47 84 44 85 46 86 45 87
REMARK H PARENT 14 5 1 21 1 22 18 36 62 55 40 66
REMARK Flexibility Score: inf
ROOT
ATOM      1  C   UNL A   1      46.816  27.333  29.983  1.00  0.00     0.118 C 
ENDROOT
BRANCH   1   2
ATOM      2  N   UNL A   1      47.633  27.496  28.784  1.00  0.00    -0.351 N 
ATOM      3  C   UNL A   1      47.450  27.034  27.489  1.00  0.00     0.271 C 
ATOM      4  O   UNL A   1      48.253  27.426  26.641  1.00  0.00    -0.267 OA
ATOM      5  H   UNL A   1      48.452  28.025  28.917  1.00  0.00     0.163 HD
BRANCH   3   6
ATOM      6  C   UNL A   1      46.298  26.171  27.167  1.00  0.00     0.151 A 
ATOM      7  N   UNL A   1      45.263  24.529  26.239  1.00  0.00    -0.231 N 
ATOM      8  N   UNL A   1      46.427  24.866  26.868  1.00  0.00    -0.162 NA
ATOM      9  C   UNL A   1      44.408  25.607  26.182  1.00  0.00     0.085 A 
ATOM     10  C   UNL A   1      44.940  26.520  27.073  1.00  0.00     0.066 A 
BRANCH   7  11
ATOM     11  C   UNL A   1      45.041  23.189  25.857  1.00  0.00     0.065 A 
ATOM     12  C   UNL A   1      44.748  20.529  25.102  1.00  0.00     0.082 A 
ATOM     13  C   UNL A   1      43.748  21.151  25.856  1.00  0.00     0.024 A 
ATOM     14  C   UNL A   1      45.894  21.230  24.717  1.00  0.00     0.024 A 
ATOM     15  C   UNL A   1      43.906  22.480  26.261  1.00  0.00     0.030 A 
ATOM     16  C   UNL A   1      46.025  22.570  25.067  1.00  0.00     0.030 A 
BRANCH  12  17
ATOM     17  S   UNL A   1      44.638  18.828  24.639  1.00  0.00     0.238 S 
ATOM     18  O   UNL A   1      44.993  18.710  23.249  1.00  0.00    -0.207 OA
ATOM     19  O   UNL A   1      43.412  18.286  25.188  1.00  0.00    -0.207 OA
BRANCH  17  20
ATOM     20  N   UNL A   1      45.885  18.078  25.479  1.00  0.00    -0.225 NA
ATOM     21  H   UNL A   1      46.722  18.056  24.896  1.00  0.00     0.137 HD
ATOM     22  H   UNL A   1      45.610  17.125  25.717  1.00  0.00     0.137 HD
ENDBRANCH  17  20
ENDBRANCH  12  17
ENDBRANCH   7  11
BRANCH   9  23
ATOM     23  C   UNL A   1      43.295  25.919  25.330  1.00  0.00     0.054 A 
ATOM     24  C   UNL A   1      42.032  25.348  25.434  1.00  0.00     0.031 A 
ATOM     25  S   UNL A   1      43.035  27.599  24.965  1.00  0.00    -0.134 S 
ATOM     26  C   UNL A   1      41.202  26.285  26.178  1.00  0.00    -0.007 A 
ATOM     27  C   UNL A   1      41.717  27.584  26.094  1.00  0.00     0.035 A 
ATOM     28  C   UNL A   1      40.101  26.061  27.038  1.00  0.00     0.009 A 
ATOM     29  C   UNL A   1      41.212  28.646  26.863  1.00  0.00     0.019 A 
ATOM     30  C   UNL A   1      39.627  27.101  27.848  1.00  0.00     0.001 A 
ATOM     31  C   UNL A   1      40.187  28.372  27.772  1.00  0.00     0.001 A 
ENDBRANCH   9  23
ENDBRANCH   3   6
ENDBRANCH   1   2
BRANCH   1  32
ATOM     32  C   UNL A   1      47.124  26.021  30.719  1.00  0.00     0.042 C 
BRANCH  32  33
ATOM     33  C   UNL A   1      46.902  26.127  32.213  1.00  0.00     0.118 C 
BRANCH  33  34
ATOM     34  N   UNL A   1      45.871  25.212  32.730  1.00  0.00    -0.352 N 
ATOM     35  C   UNL A   1      44.527  25.482  32.966  1.00  0.00     0.251 C 
ATOM     36  H   UNL A   1      46.170  24.298  32.936  1.00  0.00     0.163 HD
ATOM     37  O   UNL A   1      43.859  24.773  33.709  1.00  0.00    -0.269 OA
BRANCH  35  38
ATOM     38  C   UNL A   1      43.927  26.646  32.289  1.00  0.00     0.039 A 
ATOM     39  C   UNL A   1      43.472  26.632  30.968  1.00  0.00     0.014 A 
ATOM     40  C   UNL A   1      43.731  27.761  33.087  1.00  0.00     0.014 A 
ATOM     41  C   UNL A   1      42.747  27.735  30.515  1.00  0.00     0.010 A 
ATOM     42  C   UNL A   1      42.739  28.632  32.764  1.00  0.00     0.010 A 
ATOM     43  C   UNL A   1      42.364  28.721  31.441  1.00  0.00    -0.014 A 
BRANCH  43  44
ATOM     44  C   UNL A   1      41.496  29.838  31.111  1.00  0.00     0.031 A 
ATOM     45  C   UNL A   1      42.223  31.017  30.604  1.00  0.00     0.074 A 
ATOM     46  C   UNL A   1      40.147  29.750  31.057  1.00  0.00     0.049 A 
ATOM     47  N   UNL A   1      42.522  32.075  31.274  1.00  0.00    -0.248 NA
ATOM     48  C   UNL A   1      42.853  30.945  29.277  1.00  0.00     0.031 C 
ATOM     49  C   UNL A   1      39.278  28.573  31.203  1.00  0.00     0.029 A 
ATOM     50  N   UNL A   1      39.255  30.730  30.764  1.00  0.00    -0.354 N 
ATOM     51  C   UNL A   1      43.167  32.915  30.380  1.00  0.00     0.074 A 
ATOM     52  C   UNL A   1      43.536  32.092  29.256  1.00  0.00     0.031 C 
ATOM     53  C   UNL A   1      38.025  28.870  30.785  1.00  0.00     0.029 A 
ATOM     54  C   UNL A   1      37.956  30.295  30.521  1.00  0.00     0.049 A 
ATOM     55  H   UNL A   1      39.508  31.681  30.727  1.00  0.00     0.167 HD
ATOM     56  C   UNL A   1      43.077  34.267  30.522  1.00  0.00     0.031 A 
ATOM     57  C   UNL A   1      36.906  31.063  30.136  1.00  0.00     0.031 A 
ATOM     58  C   UNL A   1      42.525  34.623  31.809  1.00  0.00     0.049 A 
ATOM     59  C   UNL A   1      37.235  32.459  30.510  1.00  0.00     0.074 A 
ATOM     60  C   UNL A   1      42.883  34.377  33.122  1.00  0.00     0.029 A 
ATOM     61  N   UNL A   1      41.187  34.948  31.841  1.00  0.00    -0.354 N 
ATOM     62  N   UNL A   1      37.340  32.855  31.746  1.00  0.00    -0.248 NA
ATOM     63  C   UNL A   1      37.922  33.282  29.529  1.00  0.00     0.031 C 
ATOM     64  C   UNL A   1      41.653  34.085  33.788  1.00  0.00     0.029 A 
ATOM     65  C   UNL A   1      40.609  34.262  32.878  1.00  0.00     0.049 A 
ATOM     66  H   UNL A   1      40.727  35.566  31.228  1.00  0.00     0.167 HD
ATOM     67  C   UNL A   1      38.460  33.676  31.757  1.00  0.00     0.074 A 
ATOM     68  C   UNL A   1      38.717  33.980  30.347  1.00  0.00     0.031 C 
ATOM     69  C   UNL A   1      39.241  33.789  32.871  1.00  0.00     0.031 A 
BRANCH  56  70
ATOM     70  C   UNL A   1      43.051  35.226  29.358  1.00  0.00    -0.014 A 
ATOM     71  C   UNL A   1      41.849  35.369  28.643  1.00  0.00     0.009 A 
ATOM     72  C   UNL A   1      44.206  35.771  28.767  1.00  0.00     0.009 A 
ATOM     73  C   UNL A   1      41.824  35.942  27.366  1.00  0.00     0.001 A 
ATOM     74  C   UNL A   1      44.179  36.379  27.510  1.00  0.00     0.001 A 
ATOM     75  C   UNL A   1      42.993  36.436  26.796  1.00  0.00     0.000 A 
ENDBRANCH  56  70
BRANCH  57  76
ATOM     76  C   UNL A   1      35.775  30.745  29.237  1.00  0.00    -0.014 A 
ATOM     77  C   UNL A   1      34.795  31.709  28.943  1.00  0.00     0.009 A 
ATOM     78  C   UNL A   1      35.828  29.600  28.423  1.00  0.00     0.009 A 
ATOM     79  C   UNL A   1      33.936  31.556  27.845  1.00  0.00     0.001 A 
ATOM     80  C   UNL A   1      34.972  29.449  27.325  1.00  0.00     0.001 A 
ATOM     81  C   UNL A   1      34.038  30.435  27.025  1.00  0.00     0.000 A 
ENDBRANCH  57  76
BRANCH  69  82
ATOM     82  C   UNL A   1      38.733  33.172  34.155  1.00  0.00    -0.014 A 
ATOM     83  C   UNL A   1      38.923  31.821  34.500  1.00  0.00     0.009 A 
ATOM     84  C   UNL A   1      38.165  34.022  35.115  1.00  0.00     0.009 A 
ATOM     85  C   UNL A   1      38.530  31.335  35.754  1.00  0.00     0.001 A 
ATOM     86  C   UNL A   1      37.790  33.544  36.373  1.00  0.00     0.001 A 
ATOM     87  C   UNL A   1      37.967  32.199  36.690  1.00  0.00     0.000 A 
ENDBRANCH  69  82
ENDBRANCH  43  44
ENDBRANCH  35  38
ENDBRANCH  33  34
ENDBRANCH  32  33
ENDBRANCH   1  32
TORSDOF 14
ENDMDL
MODEL 2
REMARK VINA RESULT:     -11.6      5.295     10.484
REMARK SMILES NS(=O)(=O)c1ccc(-n2nc(C(=O)NCCCNC(=O)c3ccc(-c4c5nc(c(-c6ccccc6)c6ccc([nH]6)c(-c6ccccc6)c6nc(c(-c7ccccc7)c7ccc4[nH]7)C=C6)C=C5)cc3)cc2-c2cc3ccccc3s2)cc1
REMARK SMILES IDX 15 1 14 2 12 3 13 4 11 6 9 7 10 8 70 9 69 10 8 11 5 12 6 13
REMARK SMILES IDX 81 14 7 15 80 16 2 17 3 18 4 19 1 20 71 23 72 24 79 25 73 26
REMARK SMILES IDX 78 27 74 28 77 29 75 30 76 31 16 32 17 33 18 34 19 35 20 37
REMARK SMILES IDX 21 38 22 39 68 40 23 41 67 42 24 43 25 44 26 45 61 46 27 47
REMARK SMILES IDX 66 48 60 49 62 50 28 51 65 52 59 53 58 54 29 56 51 57 36 58
REMARK SMILES IDX 50 59 37 60 40 61 49 62 63 63 38 64 39 65 48 67 64 68 41 69
REMARK SMILES IDX 30 70 31 71 35 72 32 73 34 74 33 75 52 76 53 77 57 78 54 79
REMARK SMILES IDX 56 80 55 81 42 82 43 83 47 84 44 85 46 86 45 87
REMARK H PARENT 14 5 1 21 1 22 18 36 62 55 40 66
REMARK Flexibility Score: inf
ROOT
ATOM      1  C   UNL A   1      31.711  30.701  26.095  1.00  0.00     0.118 C 
ENDROOT
BRANCH   1   2
ATOM      2  N   UNL A   1      33.018  30.214  26.526  1.00  0.00    -0.351 N 
ATOM      3  C   UNL A   1      33.545  28.932  26.557  1.00  0.00     0.271 C 
ATOM      4  O   UNL A   1      34.734  28.827  26.866  1.00  0.00    -0.267 OA
ATOM      5  H   UNL A   1      33.628  30.915  26.848  1.00  0.00     0.163 HD
BRANCH   3   6
ATOM      6  C   UNL A   1      32.712  27.779  26.167  1.00  0.00     0.151 A 
ATOM      7  N   UNL A   1      32.308  25.790  25.451  1.00  0.00    -0.231 N 
ATOM      8  N   UNL A   1      33.138  26.506  26.266  1.00  0.00    -0.162 NA
ATOM      9  C   UNL A   1      31.357  26.607  24.883  1.00  0.00     0.085 A 
ATOM     10  C   UNL A   1      31.421  27.777  25.615  1.00  0.00     0.066 A 
BRANCH   7  11
ATOM     11  C   UNL A   1      32.438  24.387  25.386  1.00  0.00     0.065 A 
ATOM     12  C   UNL A   1      32.832  21.640  25.214  1.00  0.00     0.082 A 
ATOM     13  C   UNL A   1      31.897  22.152  26.120  1.00  0.00     0.024 A 
ATOM     14  C   UNL A   1      33.569  22.492  24.388  1.00  0.00     0.024 A 
ATOM     15  C   UNL A   1      31.718  23.535  26.228  1.00  0.00     0.030 A 
ATOM     16  C   UNL A   1      33.348  23.864  24.452  1.00  0.00     0.030 A 
BRANCH  12  17
ATOM     17  S   UNL A   1      33.159  19.907  25.100  1.00  0.00     0.238 S 
ATOM     18  O   UNL A   1      34.531  19.728  24.705  1.00  0.00    -0.207 OA
ATOM     19  O   UNL A   1      32.051  19.280  24.409  1.00  0.00    -0.207 OA
BRANCH  17  20
ATOM     20  N   UNL A   1      33.079  19.356  26.685  1.00  0.00    -0.225 NA
ATOM     21  H   UNL A   1      32.121  19.435  27.025  1.00  0.00     0.137 HD
ATOM     22  H   UNL A   1      33.696  19.917  27.272  1.00  0.00     0.137 HD
ENDBRANCH  17  20
ENDBRANCH  12  17
ENDBRANCH   7  11
BRANCH   9  23
ATOM     23  C   UNL A   1      30.543  26.476  23.706  1.00  0.00     0.054 A 
ATOM     24  C   UNL A   1      29.163  26.641  23.673  1.00  0.00     0.031 A 
ATOM     25  S   UNL A   1      31.150  27.209  22.250  1.00  0.00    -0.134 S 
ATOM     26  C   UNL A   1      28.907  27.995  23.205  1.00  0.00    -0.007 A 
ATOM     27  C   UNL A   1      29.999  28.487  22.478  1.00  0.00     0.035 A 
ATOM     28  C   UNL A   1      27.841  28.882  23.485  1.00  0.00     0.009 A 
ATOM     29  C   UNL A   1      30.087  29.827  22.067  1.00  0.00     0.019 A 
ATOM     30  C   UNL A   1      27.945  30.232  23.125  1.00  0.00     0.001 A 
ATOM     31  C   UNL A   1      29.062  30.700  22.439  1.00  0.00     0.001 A 
ENDBRANCH   9  23
ENDBRANCH   3   6
ENDBRANCH   1   2
BRANCH   1  32
ATOM     32  C   UNL A   1      31.437  32.131  26.581  1.00  0.00     0.042 C 
BRANCH  32  33
ATOM     33  C   UNL A   1      32.602  32.717  27.350  1.00  0.00     0.118 C 
BRANCH  33  34
ATOM     34  N   UNL A   1      32.381  34.098  27.812  1.00  0.00    -0.352 N 
ATOM     35  C   UNL A   1      33.004  34.759  28.864  1.00  0.00     0.251 C 
ATOM     36  H   UNL A   1      31.708  34.615  27.315  1.00  0.00     0.163 HD
ATOM     37  O   UNL A   1      32.506  35.757  29.370  1.00  0.00    -0.269 OA
BRANCH  35  38
ATOM     38  C   UNL A   1      34.289  34.225  29.351  1.00  0.00     0.039 A 
ATOM     39  C   UNL A   1      34.403  33.220  30.315  1.00  0.00     0.014 A 
ATOM     40  C   UNL A   1      35.416  34.710  28.708  1.00  0.00     0.014 A 
ATOM     41  C   UNL A   1      35.665  32.670  30.540  1.00  0.00     0.010 A 
ATOM     42  C   UNL A   1      36.532  33.936  28.668  1.00  0.00     0.010 A 
ATOM     43  C   UNL A   1      36.722  33.024  29.683  1.00  0.00    -0.014 A 
BRANCH  43  44
ATOM     44  C   UNL A   1      38.039  32.413  29.737  1.00  0.00     0.031 A 
ATOM     45  C   UNL A   1      38.047  30.998  29.320  1.00  0.00     0.074 A 
ATOM     46  C   UNL A   1      39.182  33.110  29.931  1.00  0.00     0.049 A 
ATOM     47  N   UNL A   1      38.073  29.974  30.100  1.00  0.00    -0.248 NA
ATOM     48  C   UNL A   1      37.809  30.674  27.905  1.00  0.00     0.031 C 
ATOM     49  C   UNL A   1      39.389  34.563  30.026  1.00  0.00     0.029 A 
ATOM     50  N   UNL A   1      40.451  32.635  29.999  1.00  0.00    -0.354 N 
ATOM     51  C   UNL A   1      38.106  28.868  29.265  1.00  0.00     0.074 A 
ATOM     52  C   UNL A   1      37.718  29.343  27.960  1.00  0.00     0.031 C 
ATOM     53  C   UNL A   1      40.709  34.848  29.921  1.00  0.00     0.029 A 
ATOM     54  C   UNL A   1      41.450  33.601  29.938  1.00  0.00     0.049 A 
ATOM     55  H   UNL A   1      40.652  31.674  30.086  1.00  0.00     0.167 HD
ATOM     56  C   UNL A   1      38.730  27.725  29.664  1.00  0.00     0.031 A 
ATOM     57  C   UNL A   1      42.788  33.378  29.910  1.00  0.00     0.031 A 
ATOM     58  C   UNL A   1      39.032  27.759  31.077  1.00  0.00     0.049 A 
ATOM     59  C   UNL A   1      43.009  32.020  30.460  1.00  0.00     0.074 A 
ATOM     60  C   UNL A   1      38.281  27.907  32.228  1.00  0.00     0.029 A 
ATOM     61  N   UNL A   1      40.322  28.092  31.426  1.00  0.00    -0.354 N 
ATOM     62  N   UNL A   1      42.773  31.711  31.703  1.00  0.00    -0.248 NA
ATOM     63  C   UNL A   1      43.020  30.903  29.529  1.00  0.00     0.031 C 
ATOM     64  C   UNL A   1      39.049  28.782  33.056  1.00  0.00     0.029 A 
ATOM     65  C   UNL A   1      40.262  29.042  32.414  1.00  0.00     0.049 A 
ATOM     66  H   UNL A   1      41.143  27.714  31.036  1.00  0.00     0.167 HD
ATOM     67  C   UNL A   1      42.155  30.470  31.644  1.00  0.00     0.074 A 
ATOM     68  C   UNL A   1      42.424  29.979  30.290  1.00  0.00     0.031 C 
ATOM     69  C   UNL A   1      41.244  30.091  32.588  1.00  0.00     0.031 A 
BRANCH  56  70
ATOM     70  C   UNL A   1      39.463  26.804  28.721  1.00  0.00    -0.014 A 
ATOM     71  C   UNL A   1      40.463  27.355  27.900  1.00  0.00     0.009 A 
ATOM     72  C   UNL A   1      39.030  25.503  28.403  1.00  0.00     0.009 A 
ATOM     73  C   UNL A   1      40.934  26.675  26.771  1.00  0.00     0.001 A 
ATOM     74  C   UNL A   1      39.527  24.805  27.300  1.00  0.00     0.001 A 
ATOM     75  C   UNL A   1      40.456  25.405  26.466  1.00  0.00     0.000 A 
ENDBRANCH  56  70
BRANCH  57  76
ATOM     76  C   UNL A   1      43.859  34.116  29.206  1.00  0.00    -0.014 A 
ATOM     77  C   UNL A   1      45.142  34.235  29.768  1.00  0.00     0.009 A 
ATOM     78  C   UNL A   1      43.712  34.434  27.844  1.00  0.00     0.009 A 
ATOM     79  C   UNL A   1      46.244  34.607  28.984  1.00  0.00     0.001 A 
ATOM     80  C   UNL A   1      44.813  34.802  27.061  1.00  0.00     0.001 A 
ATOM     81  C   UNL A   1      46.082  34.872  27.627  1.00  0.00     0.000 A 
ENDBRANCH  57  76
BRANCH  69  82
ATOM     82  C   UNL A   1      41.089  30.965  33.813  1.00  0.00    -0.014 A 
ATOM     83  C   UNL A   1      41.807  30.767  35.007  1.00  0.00     0.009 A 
ATOM     84  C   UNL A   1      40.294  32.114  33.705  1.00  0.00     0.009 A 
ATOM     85  C   UNL A   1      41.706  31.677  36.067  1.00  0.00     0.001 A 
ATOM     86  C   UNL A   1      40.207  33.033  34.754  1.00  0.00     0.001 A 
ATOM     87  C   UNL A   1      40.909  32.811  35.937  1.00  0.00     0.000 A 
ENDBRANCH  69  82
ENDBRANCH  43  44
ENDBRANCH  35  38
ENDBRANCH  33  34
ENDBRANCH  32  33
ENDBRANCH   1  32
TORSDOF 14
ENDMDL
MODEL 3
REMARK VINA RESULT:     -11.4      4.367     11.235
REMARK SMILES NS(=O)(=O)c1ccc(-n2nc(C(=O)NCCCNC(=O)c3ccc(-c4c5nc(c(-c6ccccc6)c6ccc([nH]6)c(-c6ccccc6)c6nc(c(-c7ccccc7)c7ccc4[nH]7)C=C6)C=C5)cc3)cc2-c2cc3ccccc3s2)cc1
REMARK SMILES IDX 15 1 14 2 12 3 13 4 11 6 9 7 10 8 70 9 69 10 8 11 5 12 6 13
REMARK SMILES IDX 81 14 7 15 80 16 2 17 3 18 4 19 1 20 71 23 72 24 79 25 73 26
REMARK SMILES IDX 78 27 74 28 77 29 75 30 76 31 16 32 17 33 18 34 19 35 20 37
REMARK SMILES IDX 21 38 22 39 68 40 23 41 67 42 24 43 25 44 26 45 61 46 27 47
REMARK SMILES IDX 66 48 60 49 62 50 28 51 65 52 59 53 58 54 29 56 51 57 36 58
REMARK SMILES IDX 50 59 37 60 40 61 49 62 63 63 38 64 39 65 48 67 64 68 41 69
REMARK SMILES IDX 30 70 31 71 35 72 32 73 34 74 33 75 52 76 53 77 57 78 54 79
REMARK SMILES IDX 56 80 55 81 42 82 43 83 47 84 44 85 46 86 45 87
REMARK H PARENT 14 5 1 21 1 22 18 36 62 55 40 66
REMARK Flexibility Score: inf
ROOT
ATOM      1  C   UNL A   1      40.456  29.610  34.916  1.00  0.00     0.118 C 
ENDROOT
BRANCH   1   2
ATOM      2  N   UNL A   1      39.537  29.951  35.998  1.00  0.00    -0.351 N 
ATOM      3  C   UNL A   1      38.443  30.802  36.027  1.00  0.00     0.271 C 
ATOM      4  O   UNL A   1      37.773  30.810  37.062  1.00  0.00    -0.267 OA
ATOM      5  H   UNL A   1      39.727  29.500  36.851  1.00  0.00     0.163 HD
BRANCH   3   6
ATOM      6  C   UNL A   1      38.089  31.595  34.835  1.00  0.00     0.151 A 
ATOM      7  N   UNL A   1      36.790  32.648  33.481  1.00  0.00    -0.231 N 
ATOM      8  N   UNL A   1      37.044  32.442  34.807  1.00  0.00    -0.162 NA
ATOM      9  C   UNL A   1      37.693  31.964  32.698  1.00  0.00     0.085 A 
ATOM     10  C   UNL A   1      38.699  31.595  33.570  1.00  0.00     0.066 A 
BRANCH   7  11
ATOM     11  C   UNL A   1      35.785  33.562  33.099  1.00  0.00     0.065 A 
ATOM     12  C   UNL A   1      33.879  35.469  32.419  1.00  0.00     0.082 A 
ATOM     13  C   UNL A   1      34.101  34.376  31.575  1.00  0.00     0.024 A 
ATOM     14  C   UNL A   1      34.602  35.614  33.606  1.00  0.00     0.024 A 
ATOM     15  C   UNL A   1      35.079  33.431  31.901  1.00  0.00     0.030 A 
ATOM     16  C   UNL A   1      35.532  34.642  33.962  1.00  0.00     0.030 A 
BRANCH  12  17
ATOM     17  S   UNL A   1      32.718  36.736  32.011  1.00  0.00     0.238 S 
ATOM     18  O   UNL A   1      31.663  36.721  32.991  1.00  0.00    -0.207 OA
ATOM     19  O   UNL A   1      32.469  36.683  30.586  1.00  0.00    -0.207 OA
BRANCH  17  20
ATOM     20  N   UNL A   1      33.548  38.173  32.276  1.00  0.00    -0.225 NA
ATOM     21  H   UNL A   1      33.054  38.727  32.976  1.00  0.00     0.137 HD
ATOM     22  H   UNL A   1      33.605  38.698  31.404  1.00  0.00     0.137 HD
ENDBRANCH  17  20
ENDBRANCH  12  17
ENDBRANCH   7  11
BRANCH   9  23
ATOM     23  C   UNL A   1      37.650  31.516  31.333  1.00  0.00     0.054 A 
ATOM     24  C   UNL A   1      38.633  31.771  30.385  1.00  0.00     0.031 A 
ATOM     25  S   UNL A   1      37.132  29.879  31.063  1.00  0.00    -0.134 S 
ATOM     26  C   UNL A   1      39.478  30.587  30.320  1.00  0.00    -0.007 A 
ATOM     27  C   UNL A   1      38.791  29.457  30.782  1.00  0.00     0.035 A 
ATOM     28  C   UNL A   1      40.853  30.450  30.012  1.00  0.00     0.009 A 
ATOM     29  C   UNL A   1      39.428  28.223  30.994  1.00  0.00     0.019 A 
ATOM     30  C   UNL A   1      41.507  29.238  30.271  1.00  0.00     0.001 A 
ATOM     31  C   UNL A   1      40.805  28.145  30.770  1.00  0.00     0.001 A 
ENDBRANCH   9  23
ENDBRANCH   3   6
ENDBRANCH   1   2
BRANCH   1  32
ATOM     32  C   UNL A   1      41.823  29.148  35.440  1.00  0.00     0.042 C 
BRANCH  32  33
ATOM     33  C   UNL A   1      42.111  27.699  35.113  1.00  0.00     0.118 C 
BRANCH  33  34
ATOM     34  N   UNL A   1      42.999  27.032  36.081  1.00  0.00    -0.352 N 
ATOM     35  C   UNL A   1      43.915  26.014  35.843  1.00  0.00     0.251 C 
ATOM     36  H   UNL A   1      42.934  27.345  37.011  1.00  0.00     0.163 HD
ATOM     37  O   UNL A   1      44.333  25.310  36.754  1.00  0.00    -0.269 OA
BRANCH  35  38
ATOM     38  C   UNL A   1      44.375  25.808  34.457  1.00  0.00     0.039 A 
ATOM     39  C   UNL A   1      44.738  24.566  33.931  1.00  0.00     0.014 A 
ATOM     40  C   UNL A   1      44.326  26.927  33.643  1.00  0.00     0.014 A 
ATOM     41  C   UNL A   1      44.963  24.478  32.557  1.00  0.00     0.010 A 
ATOM     42  C   UNL A   1      44.185  26.756  32.302  1.00  0.00     0.010 A 
ATOM     43  C   UNL A   1      44.654  25.585  31.748  1.00  0.00    -0.014 A 
BRANCH  43  44
ATOM     44  C   UNL A   1      44.718  25.563  30.297  1.00  0.00     0.031 A 
ATOM     45  C   UNL A   1      45.814  26.380  29.744  1.00  0.00     0.074 A 
ATOM     46  C   UNL A   1      43.999  24.714  29.526  1.00  0.00     0.049 A 
ATOM     47  N   UNL A   1      45.706  27.559  29.238  1.00  0.00    -0.248 NA
ATOM     48  C   UNL A   1      47.201  25.934  29.944  1.00  0.00     0.031 C 
ATOM     49  C   UNL A   1      43.114  23.609  29.925  1.00  0.00     0.029 A 
ATOM     50  N   UNL A   1      43.986  24.617  28.173  1.00  0.00    -0.354 N 
ATOM     51  C   UNL A   1      46.982  27.908  28.824  1.00  0.00     0.074 A 
ATOM     52  C   UNL A   1      47.878  26.987  29.478  1.00  0.00     0.031 C 
ATOM     53  C   UNL A   1      42.834  22.833  28.851  1.00  0.00     0.029 A 
ATOM     54  C   UNL A   1      43.360  23.483  27.666  1.00  0.00     0.049 A 
ATOM     55  H   UNL A   1      44.391  25.300  27.591  1.00  0.00     0.167 HD
ATOM     56  C   UNL A   1      47.155  28.736  27.757  1.00  0.00     0.031 A 
ATOM     57  C   UNL A   1      43.282  23.120  26.361  1.00  0.00     0.031 A 
ATOM     58  C   UNL A   1      45.913  29.371  27.381  1.00  0.00     0.049 A 
ATOM     59  C   UNL A   1      43.510  24.345  25.559  1.00  0.00     0.074 A 
ATOM     60  C   UNL A   1      45.000  30.183  28.029  1.00  0.00     0.029 A 
ATOM     61  N   UNL A   1      45.234  28.822  26.315  1.00  0.00    -0.354 N 
ATOM     62  N   UNL A   1      42.679  25.348  25.546  1.00  0.00    -0.248 NA
ATOM     63  C   UNL A   1      44.875  24.658  25.169  1.00  0.00     0.031 C 
ATOM     64  C   UNL A   1      43.721  29.694  27.620  1.00  0.00     0.029 A 
ATOM     65  C   UNL A   1      43.919  28.683  26.678  1.00  0.00     0.049 A 
ATOM     66  H   UNL A   1      45.625  28.573  25.447  1.00  0.00     0.167 HD
ATOM     67  C   UNL A   1      43.489  26.474  25.604  1.00  0.00     0.074 A 
ATOM     68  C   UNL A   1      44.831  25.990  25.270  1.00  0.00     0.031 C 
ATOM     69  C   UNL A   1      43.056  27.624  26.200  1.00  0.00     0.031 A 
BRANCH  56  70
ATOM     70  C   UNL A   1      48.308  28.619  26.791  1.00  0.00    -0.014 A 
ATOM     71  C   UNL A   1      48.318  27.534  25.898  1.00  0.00     0.009 A 
ATOM     72  C   UNL A   1      49.504  29.352  26.909  1.00  0.00     0.009 A 
ATOM     73  C   UNL A   1      49.487  27.150  25.232  1.00  0.00     0.001 A 
ATOM     74  C   UNL A   1      50.662  28.996  26.215  1.00  0.00     0.001 A 
ATOM     75  C   UNL A   1      50.662  27.875  25.400  1.00  0.00     0.000 A 
ENDBRANCH  56  70
BRANCH  57  76
ATOM     76  C   UNL A   1      43.300  21.774  25.747  1.00  0.00    -0.014 A 
ATOM     77  C   UNL A   1      44.430  21.317  25.045  1.00  0.00     0.009 A 
ATOM     78  C   UNL A   1      42.333  20.823  26.116  1.00  0.00     0.009 A 
ATOM     79  C   UNL A   1      44.607  19.954  24.770  1.00  0.00     0.001 A 
ATOM     80  C   UNL A   1      42.512  19.461  25.844  1.00  0.00     0.001 A 
ATOM     81  C   UNL A   1      43.658  19.024  25.186  1.00  0.00     0.000 A 
ENDBRANCH  57  76
BRANCH  69  82
ATOM     82  C   UNL A   1      41.599  27.708  26.597  1.00  0.00    -0.014 A 
ATOM     83  C   UNL A   1      40.922  26.693  27.299  1.00  0.00     0.009 A 
ATOM     84  C   UNL A   1      40.925  28.918  26.378  1.00  0.00     0.009 A 
ATOM     85  C   UNL A   1      39.605  26.877  27.739  1.00  0.00     0.001 A 
ATOM     86  C   UNL A   1      39.619  29.110  26.833  1.00  0.00     0.001 A 
ATOM     87  C   UNL A   1      38.957  28.087  27.508  1.00  0.00     0.000 A 
ENDBRANCH  69  82
ENDBRANCH  43  44
ENDBRANCH  35  38
ENDBRANCH  33  34
ENDBRANCH  32  33
ENDBRANCH   1  32
TORSDOF 14
ENDMDL
