MODEL 1
REMARK VINA RESULT:     -12.2      0.000      0.000
REMARK SMILES O=C(NCCCNC(=O)c1ccc2c(c1)[C@@H](C1CCOCC1)C(=O)N2)c1ccc(-c2c3nc(c(-c4ccccc4)c4ccc([nH]4)c(-c4ccccc4)c4nc(c(-c5ccccc5)c5ccc2[nH]5)C=C4)C=C3)cc1
REMARK SMILES IDX 4 1 3 2 1 3 2 4 26 6 27 7 73 8 28 9 72 10 29 11 30 12 31 13
REMARK SMILES IDX 66 14 32 15 71 16 65 17 67 18 33 19 70 20 64 21 63 22 34 24
REMARK SMILES IDX 56 25 41 26 55 27 42 28 45 29 54 30 68 31 43 32 44 33 53 35
REMARK SMILES IDX 69 36 46 37 35 38 36 39 40 40 37 41 39 42 38 43 57 44 58 45
REMARK SMILES IDX 62 46 59 47 61 48 60 49 47 50 48 51 52 52 49 53 51 54 50 55
REMARK SMILES IDX 5 56 6 57 7 58 8 59 9 61 10 62 11 63 15 64 12 65 14 66 13 67
REMARK SMILES IDX 16 68 25 69 23 70 24 72 17 73 18 74 22 75 19 76 21 77 20 78
REMARK H PARENT 3 5 67 23 45 34 7 60 25 71
REMARK Flexibility Score: inf
ROOT
ATOM      1  C   UNL A   1      38.946  20.332  25.774  1.00  0.00     0.118 C 
ENDROOT
BRANCH   1   2
ATOM      2  N   UNL A   1      40.069  19.400  25.799  1.00  0.00    -0.352 N 
ATOM      3  O   UNL A   1      42.218  18.721  25.899  1.00  0.00    -0.269 OA
ATOM      4  C   UNL A   1      41.397  19.611  26.094  1.00  0.00     0.251 C 
ATOM      5  H   UNL A   1      39.842  18.471  25.566  1.00  0.00     0.163 HD
BRANCH   4   6
ATOM      6  C   UNL A   1      41.835  20.920  26.621  1.00  0.00     0.039 A 
ATOM      7  C   UNL A   1      41.817  21.161  27.992  1.00  0.00     0.014 A 
ATOM      8  C   UNL A   1      42.260  21.923  25.743  1.00  0.00     0.014 A 
ATOM      9  C   UNL A   1      41.995  22.450  28.464  1.00  0.00     0.010 A 
ATOM     10  C   UNL A   1      42.592  23.189  26.241  1.00  0.00     0.010 A 
ATOM     11  C   UNL A   1      42.426  23.473  27.604  1.00  0.00    -0.014 A 
BRANCH  11  12
ATOM     12  C   UNL A   1      42.776  24.785  28.208  1.00  0.00     0.031 A 
ATOM     13  C   UNL A   1      44.196  25.168  28.516  1.00  0.00     0.074 A 
ATOM     14  C   UNL A   1      41.778  25.674  28.396  1.00  0.00     0.049 A 
ATOM     15  N   UNL A   1      44.656  26.315  28.951  1.00  0.00    -0.248 NA
ATOM     16  C   UNL A   1      45.233  24.143  28.321  1.00  0.00     0.031 C 
ATOM     17  C   UNL A   1      40.356  25.408  28.147  1.00  0.00     0.029 A 
ATOM     18  N   UNL A   1      41.802  26.985  28.791  1.00  0.00    -0.354 N 
ATOM     19  C   UNL A   1      46.029  26.149  29.090  1.00  0.00     0.074 A 
ATOM     20  C   UNL A   1      46.324  24.780  28.725  1.00  0.00     0.031 C 
ATOM     21  C   UNL A   1      39.660  26.540  28.311  1.00  0.00     0.029 A 
ATOM     22  C   UNL A   1      40.566  27.585  28.768  1.00  0.00     0.049 A 
ATOM     23  H   UNL A   1      42.624  27.452  29.064  1.00  0.00     0.167 HD
ATOM     24  C   UNL A   1      46.956  27.058  29.478  1.00  0.00     0.031 A 
ATOM     25  C   UNL A   1      40.189  28.832  29.099  1.00  0.00     0.031 A 
ATOM     26  C   UNL A   1      46.654  28.418  29.852  1.00  0.00     0.049 A 
ATOM     27  C   UNL A   1      41.236  29.800  29.562  1.00  0.00     0.074 A 
ATOM     28  C   UNL A   1      47.525  29.416  30.256  1.00  0.00     0.029 A 
ATOM     29  N   UNL A   1      45.381  28.970  29.874  1.00  0.00    -0.354 N 
ATOM     30  N   UNL A   1      42.531  29.630  29.660  1.00  0.00    -0.248 NA
ATOM     31  C   UNL A   1      40.765  31.132  29.959  1.00  0.00     0.031 C 
ATOM     32  C   UNL A   1      46.775  30.553  30.574  1.00  0.00     0.029 A 
ATOM     33  C   UNL A   1      45.442  30.286  30.304  1.00  0.00     0.049 A 
ATOM     34  H   UNL A   1      44.556  28.497  29.620  1.00  0.00     0.167 HD
ATOM     35  C   UNL A   1      43.034  30.838  30.121  1.00  0.00     0.074 A 
ATOM     36  C   UNL A   1      41.907  31.742  30.239  1.00  0.00     0.031 C 
ATOM     37  C   UNL A   1      44.311  31.168  30.429  1.00  0.00     0.031 A 
BRANCH  24  38
ATOM     38  C   UNL A   1      48.393  26.614  29.535  1.00  0.00    -0.014 A 
ATOM     39  C   UNL A   1      49.263  26.818  28.452  1.00  0.00     0.009 A 
ATOM     40  C   UNL A   1      48.904  26.048  30.715  1.00  0.00     0.009 A 
ATOM     41  C   UNL A   1      50.607  26.445  28.542  1.00  0.00     0.001 A 
ATOM     42  C   UNL A   1      50.254  25.702  30.812  1.00  0.00     0.001 A 
ATOM     43  C   UNL A   1      51.102  25.895  29.724  1.00  0.00     0.000 A 
ENDBRANCH  24  38
BRANCH  25  44
ATOM     44  C   UNL A   1      38.753  29.214  29.050  1.00  0.00    -0.014 A 
ATOM     45  C   UNL A   1      37.923  29.060  30.171  1.00  0.00     0.009 A 
ATOM     46  C   UNL A   1      38.201  29.723  27.864  1.00  0.00     0.009 A 
ATOM     47  C   UNL A   1      36.565  29.374  30.090  1.00  0.00     0.001 A 
ATOM     48  C   UNL A   1      36.853  30.076  27.799  1.00  0.00     0.001 A 
ATOM     49  C   UNL A   1      36.033  29.887  28.907  1.00  0.00     0.000 A 
ENDBRANCH  25  44
BRANCH  37  50
ATOM     50  C   UNL A   1      44.547  32.576  30.899  1.00  0.00    -0.014 A 
ATOM     51  C   UNL A   1      44.502  32.908  32.263  1.00  0.00     0.009 A 
ATOM     52  C   UNL A   1      44.809  33.587  29.962  1.00  0.00     0.009 A 
ATOM     53  C   UNL A   1      44.659  34.234  32.673  1.00  0.00     0.001 A 
ATOM     54  C   UNL A   1      45.003  34.905  30.377  1.00  0.00     0.001 A 
ATOM     55  C   UNL A   1      44.912  35.229  31.730  1.00  0.00     0.000 A 
ENDBRANCH  37  50
ENDBRANCH  11  12
ENDBRANCH   4   6
ENDBRANCH   1   2
BRANCH   1  56
ATOM     56  C   UNL A   1      37.840  19.905  24.825  1.00  0.00     0.042 C 
BRANCH  56  57
ATOM     57  C   UNL A   1      36.557  20.698  25.007  1.00  0.00     0.118 C 
BRANCH  57  58
ATOM     58  N   UNL A   1      36.490  21.844  24.110  1.00  0.00    -0.352 N 
ATOM     59  C   UNL A   1      35.403  22.574  23.701  1.00  0.00     0.251 C 
ATOM     60  H   UNL A   1      37.355  22.139  23.744  1.00  0.00     0.163 HD
ATOM     61  O   UNL A   1      35.503  23.364  22.768  1.00  0.00    -0.269 OA
BRANCH  59  62
ATOM     62  C   UNL A   1      34.100  22.389  24.373  1.00  0.00     0.040 A 
ATOM     63  C   UNL A   1      33.344  21.219  24.143  1.00  0.00     0.016 A 
ATOM     64  C   UNL A   1      33.641  23.394  25.234  1.00  0.00     0.020 A 
ATOM     65  C   UNL A   1      32.066  21.085  24.681  1.00  0.00     0.027 A 
ATOM     66  C   UNL A   1      32.377  23.240  25.778  1.00  0.00    -0.011 A 
ATOM     67  C   UNL A   1      31.614  22.110  25.481  1.00  0.00     0.045 A 
ATOM     68  C   UNL A   1      31.593  24.144  26.703  1.00  0.00     0.114 C 
ATOM     69  N   UNL A   1      30.382  22.193  26.100  1.00  0.00    -0.325 N 
ATOM     70  C   UNL A   1      30.269  23.352  26.853  1.00  0.00     0.232 C 
ATOM     71  H   UNL A   1      29.674  21.515  26.018  1.00  0.00     0.169 HD
ATOM     72  O   UNL A   1      29.294  23.649  27.527  1.00  0.00    -0.274 OA
BRANCH  68  73
ATOM     73  C   UNL A   1      31.431  25.590  26.190  1.00  0.00     0.010 C 
ATOM     74  C   UNL A   1      30.759  25.642  24.807  1.00  0.00     0.033 C 
ATOM     75  C   UNL A   1      32.744  26.393  26.158  1.00  0.00     0.033 C 
ATOM     76  C   UNL A   1      30.659  27.073  24.292  1.00  0.00     0.160 C 
ATOM     77  C   UNL A   1      32.514  27.783  25.576  1.00  0.00     0.160 C 
ATOM     78  O   UNL A   1      31.941  27.697  24.275  1.00  0.00    -0.381 OA
ENDBRANCH  68  73
ENDBRANCH  59  62
ENDBRANCH  57  58
ENDBRANCH  56  57
ENDBRANCH   1  56
TORSDOF 11
ENDMDL
MODEL 2
REMARK VINA RESULT:     -12.2      1.665      2.061
REMARK SMILES O=C(NCCCNC(=O)c1ccc2c(c1)[C@@H](C1CCOCC1)C(=O)N2)c1ccc(-c2c3nc(c(-c4ccccc4)c4ccc([nH]4)c(-c4ccccc4)c4nc(c(-c5ccccc5)c5ccc2[nH]5)C=C4)C=C3)cc1
REMARK SMILES IDX 4 1 3 2 1 3 2 4 26 6 27 7 73 8 28 9 72 10 29 11 30 12 31 13
REMARK SMILES IDX 66 14 32 15 71 16 65 17 67 18 33 19 70 20 64 21 63 22 34 24
REMARK SMILES IDX 56 25 41 26 55 27 42 28 45 29 54 30 68 31 43 32 44 33 53 35
REMARK SMILES IDX 69 36 46 37 35 38 36 39 40 40 37 41 39 42 38 43 57 44 58 45
REMARK SMILES IDX 62 46 59 47 61 48 60 49 47 50 48 51 52 52 49 53 51 54 50 55
REMARK SMILES IDX 5 56 6 57 7 58 8 59 9 61 10 62 11 63 15 64 12 65 14 66 13 67
REMARK SMILES IDX 16 68 25 69 23 70 24 72 17 73 18 74 22 75 19 76 21 77 20 78
REMARK H PARENT 3 5 67 23 45 34 7 60 25 71
REMARK Flexibility Score: inf
ROOT
ATOM      1  C   UNL A   1      39.079  19.946  26.035  1.00  0.00     0.118 C 
ENDROOT
BRANCH   1   2
ATOM      2  N   UNL A   1      40.186  18.999  25.945  1.00  0.00    -0.352 N 
ATOM      3  O   UNL A   1      42.319  18.290  25.751  1.00  0.00    -0.269 OA
ATOM      4  C   UNL A   1      41.545  19.206  26.013  1.00  0.00     0.251 C 
ATOM      5  H   UNL A   1      39.918  18.060  25.814  1.00  0.00     0.163 HD
BRANCH   4   6
ATOM      6  C   UNL A   1      42.070  20.539  26.375  1.00  0.00     0.039 A 
ATOM      7  C   UNL A   1      42.272  20.868  27.712  1.00  0.00     0.014 A 
ATOM      8  C   UNL A   1      42.355  21.475  25.376  1.00  0.00     0.014 A 
ATOM      9  C   UNL A   1      42.531  22.182  28.062  1.00  0.00     0.010 A 
ATOM     10  C   UNL A   1      42.770  22.765  25.729  1.00  0.00     0.010 A 
ATOM     11  C   UNL A   1      42.825  23.140  27.079  1.00  0.00    -0.014 A 
BRANCH  11  12
ATOM     12  C   UNL A   1      43.276  24.482  27.530  1.00  0.00     0.031 A 
ATOM     13  C   UNL A   1      44.715  24.907  27.458  1.00  0.00     0.074 A 
ATOM     14  C   UNL A   1      42.330  25.356  27.934  1.00  0.00     0.049 A 
ATOM     15  N   UNL A   1      45.235  26.080  27.723  1.00  0.00    -0.248 NA
ATOM     16  C   UNL A   1      45.701  23.897  27.043  1.00  0.00     0.031 C 
ATOM     17  C   UNL A   1      40.900  25.051  28.059  1.00  0.00     0.029 A 
ATOM     18  N   UNL A   1      42.412  26.683  28.265  1.00  0.00    -0.354 N 
ATOM     19  C   UNL A   1      46.602  25.949  27.518  1.00  0.00     0.074 A 
ATOM     20  C   UNL A   1      46.839  24.573  27.137  1.00  0.00     0.031 C 
ATOM     21  C   UNL A   1      40.234  26.174  28.355  1.00  0.00     0.029 A 
ATOM     22  C   UNL A   1      41.193  27.255  28.534  1.00  0.00     0.049 A 
ATOM     23  H   UNL A   1      43.263  27.178  28.306  1.00  0.00     0.167 HD
ATOM     24  C   UNL A   1      47.569  26.893  27.629  1.00  0.00     0.031 A 
ATOM     25  C   UNL A   1      40.873  28.506  28.906  1.00  0.00     0.031 A 
ATOM     26  C   UNL A   1      47.329  28.259  28.021  1.00  0.00     0.049 A 
ATOM     27  C   UNL A   1      41.972  29.514  29.058  1.00  0.00     0.074 A 
ATOM     28  C   UNL A   1      48.243  29.291  28.158  1.00  0.00     0.029 A 
ATOM     29  N   UNL A   1      46.087  28.785  28.343  1.00  0.00    -0.354 N 
ATOM     30  N   UNL A   1      43.255  29.375  28.832  1.00  0.00    -0.248 NA
ATOM     31  C   UNL A   1      41.576  30.851  29.515  1.00  0.00     0.031 C 
ATOM     32  C   UNL A   1      47.562  30.424  28.616  1.00  0.00     0.029 A 
ATOM     33  C   UNL A   1      46.214  30.119  28.700  1.00  0.00     0.049 A 
ATOM     34  H   UNL A   1      45.239  28.284  28.322  1.00  0.00     0.167 HD
ATOM     35  C   UNL A   1      43.820  30.611  29.111  1.00  0.00     0.074 A 
ATOM     36  C   UNL A   1      42.732  31.496  29.478  1.00  0.00     0.031 C 
ATOM     37  C   UNL A   1      45.123  30.980  29.076  1.00  0.00     0.031 A 
BRANCH  24  38
ATOM     38  C   UNL A   1      48.988  26.481  27.337  1.00  0.00    -0.014 A 
ATOM     39  C   UNL A   1      49.831  26.003  28.353  1.00  0.00     0.009 A 
ATOM     40  C   UNL A   1      49.465  26.503  26.017  1.00  0.00     0.009 A 
ATOM     41  C   UNL A   1      51.129  25.578  28.056  1.00  0.00     0.001 A 
ATOM     42  C   UNL A   1      50.753  26.051  25.718  1.00  0.00     0.001 A 
ATOM     43  C   UNL A   1      51.585  25.595  26.738  1.00  0.00     0.000 A 
ENDBRANCH  24  38
BRANCH  25  44
ATOM     44  C   UNL A   1      39.460  28.856  29.208  1.00  0.00    -0.014 A 
ATOM     45  C   UNL A   1      38.925  28.673  30.492  1.00  0.00     0.009 A 
ATOM     46  C   UNL A   1      38.630  29.364  28.195  1.00  0.00     0.009 A 
ATOM     47  C   UNL A   1      37.581  28.956  30.743  1.00  0.00     0.001 A 
ATOM     48  C   UNL A   1      37.298  29.686  28.460  1.00  0.00     0.001 A 
ATOM     49  C   UNL A   1      36.771  29.468  29.729  1.00  0.00     0.000 A 
ENDBRANCH  25  44
BRANCH  37  50
ATOM     50  C   UNL A   1      45.426  32.411  29.423  1.00  0.00    -0.014 A 
ATOM     51  C   UNL A   1      45.436  33.416  28.442  1.00  0.00     0.009 A 
ATOM     52  C   UNL A   1      45.715  32.758  30.753  1.00  0.00     0.009 A 
ATOM     53  C   UNL A   1      45.783  34.726  28.776  1.00  0.00     0.001 A 
ATOM     54  C   UNL A   1      46.025  34.075  31.090  1.00  0.00     0.001 A 
ATOM     55  C   UNL A   1      46.074  35.055  30.099  1.00  0.00     0.000 A 
ENDBRANCH  37  50
ENDBRANCH  11  12
ENDBRANCH   4   6
ENDBRANCH   1   2
BRANCH   1  56
ATOM     56  C   UNL A   1      38.049  19.763  24.935  1.00  0.00     0.042 C 
BRANCH  56  57
ATOM     57  C   UNL A   1      37.274  21.031  24.623  1.00  0.00     0.118 C 
BRANCH  57  58
ATOM     58  N   UNL A   1      37.925  22.217  25.166  1.00  0.00    -0.352 N 
ATOM     59  C   UNL A   1      37.373  23.329  25.751  1.00  0.00     0.251 C 
ATOM     60  H   UNL A   1      38.907  22.221  25.103  1.00  0.00     0.163 HD
ATOM     61  O   UNL A   1      38.055  24.329  25.945  1.00  0.00    -0.269 OA
BRANCH  59  62
ATOM     62  C   UNL A   1      35.944  23.327  26.126  1.00  0.00     0.040 A 
ATOM     63  C   UNL A   1      35.395  22.229  26.824  1.00  0.00     0.016 A 
ATOM     64  C   UNL A   1      35.156  24.431  25.775  1.00  0.00     0.020 A 
ATOM     65  C   UNL A   1      34.028  22.165  27.082  1.00  0.00     0.027 A 
ATOM     66  C   UNL A   1      33.802  24.365  26.054  1.00  0.00    -0.011 A 
ATOM     67  C   UNL A   1      33.266  23.239  26.680  1.00  0.00     0.045 A 
ATOM     68  C   UNL A   1      32.696  25.358  25.778  1.00  0.00     0.114 C 
ATOM     69  N   UNL A   1      31.899  23.380  26.819  1.00  0.00    -0.325 N 
ATOM     70  C   UNL A   1      31.461  24.599  26.326  1.00  0.00     0.232 C 
ATOM     71  H   UNL A   1      31.310  22.700  27.219  1.00  0.00     0.169 HD
ATOM     72  O   UNL A   1      30.302  24.986  26.361  1.00  0.00    -0.274 OA
BRANCH  68  73
ATOM     73  C   UNL A   1      32.590  25.796  24.303  1.00  0.00     0.010 C 
ATOM     74  C   UNL A   1      32.704  24.605  23.336  1.00  0.00     0.033 C 
ATOM     75  C   UNL A   1      33.596  26.889  23.900  1.00  0.00     0.033 C 
ATOM     76  C   UNL A   1      32.653  25.062  21.884  1.00  0.00     0.160 C 
ATOM     77  C   UNL A   1      33.474  27.215  22.416  1.00  0.00     0.160 C 
ATOM     78  O   UNL A   1      33.654  26.044  21.625  1.00  0.00    -0.381 OA
ENDBRANCH  68  73
ENDBRANCH  59  62
ENDBRANCH  57  58
ENDBRANCH  56  57
ENDBRANCH   1  56
TORSDOF 11
ENDMDL
MODEL 3
REMARK VINA RESULT:     -12.1      4.126      9.305
REMARK SMILES O=C(NCCCNC(=O)c1ccc2c(c1)[C@@H](C1CCOCC1)C(=O)N2)c1ccc(-c2c3nc(c(-c4ccccc4)c4ccc([nH]4)c(-c4ccccc4)c4nc(c(-c5ccccc5)c5ccc2[nH]5)C=C4)C=C3)cc1
REMARK SMILES IDX 4 1 3 2 1 3 2 4 26 6 27 7 73 8 28 9 72 10 29 11 30 12 31 13
REMARK SMILES IDX 66 14 32 15 71 16 65 17 67 18 33 19 70 20 64 21 63 22 34 24
REMARK SMILES IDX 56 25 41 26 55 27 42 28 45 29 54 30 68 31 43 32 44 33 53 35
REMARK SMILES IDX 69 36 46 37 35 38 36 39 40 40 37 41 39 42 38 43 57 44 58 45
REMARK SMILES IDX 62 46 59 47 61 48 60 49 47 50 48 51 52 52 49 53 51 54 50 55
REMARK SMILES IDX 5 56 6 57 7 58 8 59 9 61 10 62 11 63 15 64 12 65 14 66 13 67
REMARK SMILES IDX 16 68 25 69 23 70 24 72 17 73 18 74 22 75 19 76 21 77 20 78
REMARK H PARENT 3 5 67 23 45 34 7 60 25 71
REMARK Flexibility Score: inf
ROOT
ATOM      1  C   UNL A   1      32.719  32.811  27.043  1.00  0.00     0.118 C 
ENDROOT
BRANCH   1   2
ATOM      2  N   UNL A   1      32.433  34.131  27.599  1.00  0.00    -0.352 N 
ATOM      3  O   UNL A   1      32.536  35.851  29.054  1.00  0.00    -0.269 OA
ATOM      4  C   UNL A   1      33.034  34.812  28.633  1.00  0.00     0.251 C 
ATOM      5  H   UNL A   1      31.691  34.610  27.166  1.00  0.00     0.163 HD
BRANCH   4   6
ATOM      6  C   UNL A   1      34.264  34.276  29.253  1.00  0.00     0.039 A 
ATOM      7  C   UNL A   1      35.508  34.589  28.714  1.00  0.00     0.014 A 
ATOM      8  C   UNL A   1      34.179  33.446  30.375  1.00  0.00     0.014 A 
ATOM      9  C   UNL A   1      36.632  33.902  29.141  1.00  0.00     0.010 A 
ATOM     10  C   UNL A   1      35.340  32.872  30.905  1.00  0.00     0.010 A 
ATOM     11  C   UNL A   1      36.574  33.066  30.268  1.00  0.00    -0.014 A 
BRANCH  11  12
ATOM     12  C   UNL A   1      37.851  32.506  30.783  1.00  0.00     0.031 A 
ATOM     13  C   UNL A   1      38.510  33.036  32.025  1.00  0.00     0.074 A 
ATOM     14  C   UNL A   1      38.368  31.436  30.144  1.00  0.00     0.049 A 
ATOM     15  N   UNL A   1      39.571  32.580  32.644  1.00  0.00    -0.248 NA
ATOM     16  C   UNL A   1      37.917  34.226  32.654  1.00  0.00     0.031 C 
ATOM     17  C   UNL A   1      37.822  30.843  28.918  1.00  0.00     0.029 A 
ATOM     18  N   UNL A   1      39.429  30.628  30.455  1.00  0.00    -0.354 N 
ATOM     19  C   UNL A   1      39.778  33.427  33.725  1.00  0.00     0.074 A 
ATOM     20  C   UNL A   1      38.753  34.447  33.661  1.00  0.00     0.031 C 
ATOM     21  C   UNL A   1      38.496  29.723  28.631  1.00  0.00     0.029 A 
ATOM     22  C   UNL A   1      39.579  29.568  29.593  1.00  0.00     0.049 A 
ATOM     23  H   UNL A   1      40.026  30.791  31.221  1.00  0.00     0.167 HD
ATOM     24  C   UNL A   1      40.732  33.356  34.686  1.00  0.00     0.031 A 
ATOM     25  C   UNL A   1      40.498  28.588  29.559  1.00  0.00     0.031 A 
ATOM     26  C   UNL A   1      41.759  32.345  34.738  1.00  0.00     0.049 A 
ATOM     27  C   UNL A   1      41.561  28.562  30.615  1.00  0.00     0.074 A 
ATOM     28  C   UNL A   1      42.767  32.187  35.674  1.00  0.00     0.029 A 
ATOM     29  N   UNL A   1      41.913  31.324  33.812  1.00  0.00    -0.354 N 
ATOM     30  N   UNL A   1      41.722  29.358  31.644  1.00  0.00    -0.248 NA
ATOM     31  C   UNL A   1      42.569  27.501  30.503  1.00  0.00     0.031 C 
ATOM     32  C   UNL A   1      43.562  31.104  35.284  1.00  0.00     0.029 A 
ATOM     33  C   UNL A   1      43.011  30.546  34.143  1.00  0.00     0.049 A 
ATOM     34  H   UNL A   1      41.328  31.174  33.034  1.00  0.00     0.167 HD
ATOM     35  C   UNL A   1      42.844  28.888  32.309  1.00  0.00     0.074 A 
ATOM     36  C   UNL A   1      43.295  27.712  31.591  1.00  0.00     0.031 C 
ATOM     37  C   UNL A   1      43.455  29.388  33.410  1.00  0.00     0.031 A 
BRANCH  24  38
ATOM     38  C   UNL A   1      40.724  34.410  35.761  1.00  0.00    -0.014 A 
ATOM     39  C   UNL A   1      41.446  35.605  35.615  1.00  0.00     0.009 A 
ATOM     40  C   UNL A   1      39.927  34.237  36.904  1.00  0.00     0.009 A 
ATOM     41  C   UNL A   1      41.388  36.594  36.600  1.00  0.00     0.001 A 
ATOM     42  C   UNL A   1      39.848  35.239  37.875  1.00  0.00     0.001 A 
ATOM     43  C   UNL A   1      40.583  36.414  37.725  1.00  0.00     0.000 A 
ENDBRANCH  24  38
BRANCH  25  44
ATOM     44  C   UNL A   1      40.477  27.586  28.461  1.00  0.00    -0.014 A 
ATOM     45  C   UNL A   1      41.152  27.819  27.253  1.00  0.00     0.009 A 
ATOM     46  C   UNL A   1      39.761  26.387  28.616  1.00  0.00     0.009 A 
ATOM     47  C   UNL A   1      41.076  26.890  26.213  1.00  0.00     0.001 A 
ATOM     48  C   UNL A   1      39.723  25.442  27.591  1.00  0.00     0.001 A 
ATOM     49  C   UNL A   1      40.368  25.701  26.385  1.00  0.00     0.000 A 
ENDBRANCH  25  44
BRANCH  37  50
ATOM     50  C   UNL A   1      44.661  28.642  33.908  1.00  0.00    -0.014 A 
ATOM     51  C   UNL A   1      45.955  28.969  33.470  1.00  0.00     0.009 A 
ATOM     52  C   UNL A   1      44.499  27.590  34.823  1.00  0.00     0.009 A 
ATOM     53  C   UNL A   1      47.054  28.221  33.895  1.00  0.00     0.001 A 
ATOM     54  C   UNL A   1      45.604  26.868  35.275  1.00  0.00     0.001 A 
ATOM     55  C   UNL A   1      46.878  27.174  34.799  1.00  0.00     0.000 A 
ENDBRANCH  37  50
ENDBRANCH  11  12
ENDBRANCH   4   6
ENDBRANCH   1   2
BRANCH   1  56
ATOM     56  C   UNL A   1      31.474  31.964  26.851  1.00  0.00     0.042 C 
BRANCH  56  57
ATOM     57  C   UNL A   1      31.755  30.472  26.878  1.00  0.00     0.118 C 
BRANCH  57  58
ATOM     58  N   UNL A   1      33.042  30.168  27.489  1.00  0.00    -0.352 N 
ATOM     59  C   UNL A   1      33.989  29.244  27.125  1.00  0.00     0.251 C 
ATOM     60  H   UNL A   1      33.266  30.707  28.282  1.00  0.00     0.163 HD
ATOM     61  O   UNL A   1      34.911  28.970  27.886  1.00  0.00    -0.269 OA
BRANCH  59  62
ATOM     62  C   UNL A   1      33.882  28.560  25.820  1.00  0.00     0.040 A 
ATOM     63  C   UNL A   1      33.663  29.308  24.643  1.00  0.00     0.016 A 
ATOM     64  C   UNL A   1      34.000  27.165  25.782  1.00  0.00     0.020 A 
ATOM     65  C   UNL A   1      33.448  28.667  23.425  1.00  0.00     0.027 A 
ATOM     66  C   UNL A   1      33.804  26.539  24.563  1.00  0.00    -0.011 A 
ATOM     67  C   UNL A   1      33.517  27.292  23.423  1.00  0.00     0.045 A 
ATOM     68  C   UNL A   1      33.831  25.072  24.200  1.00  0.00     0.114 C 
ATOM     69  N   UNL A   1      33.322  26.456  22.340  1.00  0.00    -0.325 N 
ATOM     70  C   UNL A   1      33.492  25.126  22.688  1.00  0.00     0.232 C 
ATOM     71  H   UNL A   1      33.092  26.767  21.436  1.00  0.00     0.169 HD
ATOM     72  O   UNL A   1      33.410  24.189  21.908  1.00  0.00    -0.274 OA
BRANCH  68  73
ATOM     73  C   UNL A   1      32.890  24.191  25.047  1.00  0.00     0.010 C 
ATOM     74  C   UNL A   1      31.516  24.849  25.260  1.00  0.00     0.033 C 
ATOM     75  C   UNL A   1      33.479  23.772  26.406  1.00  0.00     0.033 C 
ATOM     76  C   UNL A   1      30.620  23.991  26.145  1.00  0.00     0.160 C 
ATOM     77  C   UNL A   1      32.466  22.965  27.209  1.00  0.00     0.160 C 
ATOM     78  O   UNL A   1      31.260  23.702  27.386  1.00  0.00    -0.381 OA
ENDBRANCH  68  73
ENDBRANCH  59  62
ENDBRANCH  57  58
ENDBRANCH  56  57
ENDBRANCH   1  56
TORSDOF 11
ENDMDL
