MODEL 1
REMARK VINA RESULT:     -11.2      0.000      0.000
REMARK SMILES COc1cc(OC)cc(-c2ccc([C@@H](C)C(=O)NCCCNC(=O)c3ccc(-c4c5nc(c(-c6ccccc6)c6ccc([nH]6)c(-c6ccccc6)c6nc(c(-c7ccccc7)c7ccc4[nH]7)C=C6)C=C5)cc3)cc2F)c1
REMARK SMILES IDX 19 1 18 2 16 3 17 4 14 6 15 7 13 8 10 9 11 10 74 11 12 12
REMARK SMILES IDX 73 13 75 14 9 15 3 16 4 17 76 18 5 19 8 20 2 21 1 22 6 23
REMARK SMILES IDX 7 24 20 25 21 26 22 27 23 28 24 30 25 31 26 32 72 33 27 34
REMARK SMILES IDX 71 35 28 36 29 37 30 38 65 39 31 40 70 41 64 42 66 43 32 44
REMARK SMILES IDX 69 45 63 46 62 47 33 49 55 50 40 51 54 52 41 53 44 54 53 55
REMARK SMILES IDX 67 56 42 57 43 58 52 60 68 61 45 62 34 63 35 64 39 65 36 66
REMARK SMILES IDX 38 67 37 68 56 69 57 70 61 71 58 72 60 73 59 74 46 75 47 76
REMARK SMILES IDX 51 77 48 78 50 79 49 80
REMARK H PARENT 18 5 22 29 66 48 44 59
REMARK Flexibility Score: inf
ROOT
ATOM      1  C   UNL A   1      31.882  30.127  26.464  1.00  0.00     0.117 C 
ENDROOT
BRANCH   1   2
ATOM      2  N   UNL A   1      31.295  29.598  25.248  1.00  0.00    -0.356 N 
ATOM      3  C   UNL A   1      31.815  28.871  24.223  1.00  0.00     0.227 C 
ATOM      4  O   UNL A   1      31.047  28.627  23.284  1.00  0.00    -0.274 OA
ATOM      5  H   UNL A   1      30.337  29.802  25.146  1.00  0.00     0.163 HD
BRANCH   3   6
ATOM      6  C   UNL A   1      33.265  28.365  24.171  1.00  0.00     0.105 C 
ATOM      7  C   UNL A   1      34.113  28.975  23.055  1.00  0.00     0.023 C 
BRANCH   6   8
ATOM      8  C   UNL A   1      33.375  26.859  24.343  1.00  0.00    -0.033 A 
ATOM      9  C   UNL A   1      33.751  24.029  24.575  1.00  0.00     0.018 A 
ATOM     10  C   UNL A   1      33.725  24.871  25.701  1.00  0.00     0.012 A 
ATOM     11  C   UNL A   1      33.559  24.646  23.332  1.00  0.00     0.131 A 
ATOM     12  C   UNL A   1      33.505  26.248  25.592  1.00  0.00     0.005 A 
ATOM     13  C   UNL A   1      33.391  26.030  23.211  1.00  0.00     0.044 A 
ATOM     14  F   UNL A   1      33.525  23.915  22.207  1.00  0.00    -0.206 F 
BRANCH   9  15
ATOM     15  C   UNL A   1      33.962  22.572  24.734  1.00  0.00    -0.008 A 
ATOM     16  C   UNL A   1      33.120  20.287  24.922  1.00  0.00     0.123 A 
ATOM     17  C   UNL A   1      34.428  19.809  25.002  1.00  0.00     0.092 A 
ATOM     18  C   UNL A   1      32.891  21.660  24.794  1.00  0.00     0.055 A 
ATOM     19  C   UNL A   1      35.511  20.682  24.937  1.00  0.00     0.123 A 
ATOM     20  C   UNL A   1      35.271  22.051  24.814  1.00  0.00     0.055 A 
BRANCH  16  21
ATOM     21  O   UNL A   1      32.150  19.326  25.022  1.00  0.00    -0.497 OA
ATOM     22  C   UNL A   1      32.607  18.005  25.284  1.00  0.00     0.278 C 
ENDBRANCH  16  21
BRANCH  19  23
ATOM     23  O   UNL A   1      36.742  20.089  25.001  1.00  0.00    -0.497 OA
ATOM     24  C   UNL A   1      37.871  20.953  25.017  1.00  0.00     0.278 C 
ENDBRANCH  19  23
ENDBRANCH   9  15
ENDBRANCH   6   8
ENDBRANCH   3   6
ENDBRANCH   1   2
BRANCH   1  25
ATOM     25  C   UNL A   1      31.498  31.586  26.708  1.00  0.00     0.042 C 
BRANCH  25  26
ATOM     26  C   UNL A   1      32.677  32.551  26.697  1.00  0.00     0.118 C 
BRANCH  26  27
ATOM     27  N   UNL A   1      32.417  33.748  27.484  1.00  0.00    -0.352 N 
ATOM     28  C   UNL A   1      33.060  34.261  28.583  1.00  0.00     0.251 C 
ATOM     29  H   UNL A   1      31.650  34.282  27.173  1.00  0.00     0.163 HD
ATOM     30  O   UNL A   1      32.533  35.179  29.205  1.00  0.00    -0.269 OA
BRANCH  28  31
ATOM     31  C   UNL A   1      34.365  33.727  29.042  1.00  0.00     0.039 A 
ATOM     32  C   UNL A   1      34.400  32.975  30.223  1.00  0.00     0.014 A 
ATOM     33  C   UNL A   1      35.558  34.014  28.375  1.00  0.00     0.014 A 
ATOM     34  C   UNL A   1      35.615  32.476  30.702  1.00  0.00     0.010 A 
ATOM     35  C   UNL A   1      36.757  33.450  28.809  1.00  0.00     0.010 A 
ATOM     36  C   UNL A   1      36.802  32.688  29.985  1.00  0.00    -0.014 A 
BRANCH  36  37
ATOM     37  C   UNL A   1      38.099  32.142  30.461  1.00  0.00     0.031 A 
ATOM     38  C   UNL A   1      38.650  30.871  29.871  1.00  0.00     0.074 A 
ATOM     39  C   UNL A   1      38.756  32.755  31.465  1.00  0.00     0.049 A 
ATOM     40  N   UNL A   1      39.728  30.206  30.201  1.00  0.00    -0.248 NA
ATOM     41  C   UNL A   1      37.873  30.253  28.784  1.00  0.00     0.031 C 
ATOM     42  C   UNL A   1      38.315  33.972  32.149  1.00  0.00     0.029 A 
ATOM     43  N   UNL A   1      39.935  32.430  32.089  1.00  0.00    -0.354 N 
ATOM     44  C   UNL A   1      39.744  29.082  29.384  1.00  0.00     0.074 A 
ATOM     45  C   UNL A   1      38.547  29.132  28.573  1.00  0.00     0.031 C 
ATOM     46  C   UNL A   1      39.223  34.304  33.080  1.00  0.00     0.029 A 
ATOM     47  C   UNL A   1      40.288  33.306  33.086  1.00  0.00     0.049 A 
ATOM     48  H   UNL A   1      40.475  31.644  31.846  1.00  0.00     0.167 HD
ATOM     49  C   UNL A   1      40.677  28.103  29.303  1.00  0.00     0.031 A 
ATOM     50  C   UNL A   1      41.348  33.305  33.916  1.00  0.00     0.031 A 
ATOM     51  C   UNL A   1      41.878  28.059  30.093  1.00  0.00     0.049 A 
ATOM     52  C   UNL A   1      42.372  32.212  33.803  1.00  0.00     0.074 A 
ATOM     53  C   UNL A   1      42.912  27.141  30.040  1.00  0.00     0.029 A 
ATOM     54  N   UNL A   1      42.206  28.977  31.079  1.00  0.00    -0.354 N 
ATOM     55  N   UNL A   1      42.402  31.189  32.983  1.00  0.00    -0.248 NA
ATOM     56  C   UNL A   1      43.515  32.279  34.726  1.00  0.00     0.031 C 
ATOM     57  C   UNL A   1      43.848  27.480  31.024  1.00  0.00     0.029 A 
ATOM     58  C   UNL A   1      43.418  28.636  31.655  1.00  0.00     0.049 A 
ATOM     59  H   UNL A   1      41.658  29.755  31.332  1.00  0.00     0.167 HD
ATOM     60  C   UNL A   1      43.576  30.508  33.272  1.00  0.00     0.074 A 
ATOM     61  C   UNL A   1      44.238  31.239  34.332  1.00  0.00     0.031 C 
ATOM     62  C   UNL A   1      44.063  29.375  32.708  1.00  0.00     0.031 A 
BRANCH  49  63
ATOM     63  C   UNL A   1      40.426  26.990  28.323  1.00  0.00    -0.014 A 
ATOM     64  C   UNL A   1      40.975  27.021  27.031  1.00  0.00     0.009 A 
ATOM     65  C   UNL A   1      39.652  25.883  28.705  1.00  0.00     0.009 A 
ATOM     66  C   UNL A   1      40.722  25.984  26.130  1.00  0.00     0.001 A 
ATOM     67  C   UNL A   1      39.423  24.835  27.811  1.00  0.00     0.001 A 
ATOM     68  C   UNL A   1      39.950  24.891  26.522  1.00  0.00     0.000 A 
ENDBRANCH  49  63
BRANCH  50  69
ATOM     69  C   UNL A   1      41.508  34.393  34.916  1.00  0.00    -0.014 A 
ATOM     70  C   UNL A   1      41.007  34.238  36.217  1.00  0.00     0.009 A 
ATOM     71  C   UNL A   1      42.162  35.587  34.577  1.00  0.00     0.009 A 
ATOM     72  C   UNL A   1      41.138  35.267  37.152  1.00  0.00     0.001 A 
ATOM     73  C   UNL A   1      42.315  36.603  35.522  1.00  0.00     0.001 A 
ATOM     74  C   UNL A   1      41.796  36.446  36.806  1.00  0.00     0.000 A 
ENDBRANCH  50  69
BRANCH  62  75
ATOM     75  C   UNL A   1      45.391  28.878  33.204  1.00  0.00    -0.014 A 
ATOM     76  C   UNL A   1      46.593  29.314  32.625  1.00  0.00     0.009 A 
ATOM     77  C   UNL A   1      45.439  27.990  34.290  1.00  0.00     0.009 A 
ATOM     78  C   UNL A   1      47.816  28.844  33.105  1.00  0.00     0.001 A 
ATOM     79  C   UNL A   1      46.665  27.543  34.785  1.00  0.00     0.001 A 
ATOM     80  C   UNL A   1      47.852  27.964  34.187  1.00  0.00     0.000 A 
ENDBRANCH  62  75
ENDBRANCH  36  37
ENDBRANCH  28  31
ENDBRANCH  26  27
ENDBRANCH  25  26
ENDBRANCH   1  25
TORSDOF 14
ENDMDL
MODEL 2
REMARK VINA RESULT:     -11.2      2.600      6.989
REMARK SMILES COc1cc(OC)cc(-c2ccc([C@@H](C)C(=O)NCCCNC(=O)c3ccc(-c4c5nc(c(-c6ccccc6)c6ccc([nH]6)c(-c6ccccc6)c6nc(c(-c7ccccc7)c7ccc4[nH]7)C=C6)C=C5)cc3)cc2F)c1
REMARK SMILES IDX 19 1 18 2 16 3 17 4 14 6 15 7 13 8 10 9 11 10 74 11 12 12
REMARK SMILES IDX 73 13 75 14 9 15 3 16 4 17 76 18 5 19 8 20 2 21 1 22 6 23
REMARK SMILES IDX 7 24 20 25 21 26 22 27 23 28 24 30 25 31 26 32 72 33 27 34
REMARK SMILES IDX 71 35 28 36 29 37 30 38 65 39 31 40 70 41 64 42 66 43 32 44
REMARK SMILES IDX 69 45 63 46 62 47 33 49 55 50 40 51 54 52 41 53 44 54 53 55
REMARK SMILES IDX 67 56 42 57 43 58 52 60 68 61 45 62 34 63 35 64 39 65 36 66
REMARK SMILES IDX 38 67 37 68 56 69 57 70 61 71 58 72 60 73 59 74 46 75 47 76
REMARK SMILES IDX 51 77 48 78 50 79 49 80
REMARK H PARENT 18 5 22 29 66 48 44 59
REMARK Flexibility Score: inf
ROOT
ATOM      1  C   UNL A   1      31.604  28.779  25.537  1.00  0.00     0.117 C 
ENDROOT
BRANCH   1   2
ATOM      2  N   UNL A   1      31.581  29.320  24.192  1.00  0.00    -0.356 N 
ATOM      3  C   UNL A   1      31.019  28.874  23.036  1.00  0.00     0.227 C 
ATOM      4  O   UNL A   1      31.241  29.552  22.026  1.00  0.00    -0.274 OA
ATOM      5  H   UNL A   1      32.063  30.174  24.097  1.00  0.00     0.163 HD
BRANCH   3   6
ATOM      6  C   UNL A   1      30.159  27.605  22.928  1.00  0.00     0.105 C 
ATOM      7  C   UNL A   1      28.747  27.742  23.497  1.00  0.00     0.023 C 
BRANCH   6   8
ATOM      8  C   UNL A   1      30.912  26.342  23.315  1.00  0.00    -0.033 A 
ATOM      9  C   UNL A   1      32.177  23.863  23.991  1.00  0.00     0.018 A 
ATOM     10  C   UNL A   1      32.655  24.684  22.954  1.00  0.00     0.012 A 
ATOM     11  C   UNL A   1      31.061  24.335  24.695  1.00  0.00     0.131 A 
ATOM     12  C   UNL A   1      32.060  25.912  22.647  1.00  0.00     0.005 A 
ATOM     13  C   UNL A   1      30.429  25.538  24.358  1.00  0.00     0.044 A 
ATOM     14  F   UNL A   1      30.563  23.639  25.729  1.00  0.00    -0.206 F 
BRANCH   9  15
ATOM     15  C   UNL A   1      32.849  22.580  24.302  1.00  0.00    -0.008 A 
ATOM     16  C   UNL A   1      34.813  21.291  24.970  1.00  0.00     0.123 A 
ATOM     17  C   UNL A   1      34.063  20.115  24.914  1.00  0.00     0.092 A 
ATOM     18  C   UNL A   1      34.209  22.513  24.661  1.00  0.00     0.055 A 
ATOM     19  C   UNL A   1      32.714  20.147  24.572  1.00  0.00     0.123 A 
ATOM     20  C   UNL A   1      32.122  21.372  24.260  1.00  0.00     0.055 A 
BRANCH  16  21
ATOM     21  O   UNL A   1      36.131  21.116  25.297  1.00  0.00    -0.497 OA
ATOM     22  C   UNL A   1      37.076  21.660  24.384  1.00  0.00     0.278 C 
ENDBRANCH  16  21
BRANCH  19  23
ATOM     23  O   UNL A   1      32.083  18.933  24.577  1.00  0.00    -0.497 OA
ATOM     24  C   UNL A   1      32.911  17.779  24.498  1.00  0.00     0.278 C 
ENDBRANCH  19  23
ENDBRANCH   9  15
ENDBRANCH   6   8
ENDBRANCH   3   6
ENDBRANCH   1   2
BRANCH   1  25
ATOM     25  C   UNL A   1      32.927  28.087  25.863  1.00  0.00     0.042 C 
BRANCH  25  26
ATOM     26  C   UNL A   1      33.477  28.416  27.245  1.00  0.00     0.118 C 
BRANCH  26  27
ATOM     27  N   UNL A   1      33.471  29.846  27.517  1.00  0.00    -0.352 N 
ATOM     28  C   UNL A   1      34.408  30.655  28.109  1.00  0.00     0.251 C 
ATOM     29  H   UNL A   1      32.654  30.313  27.224  1.00  0.00     0.163 HD
ATOM     30  O   UNL A   1      34.094  31.801  28.417  1.00  0.00    -0.269 OA
BRANCH  28  31
ATOM     31  C   UNL A   1      35.782  30.175  28.394  1.00  0.00     0.039 A 
ATOM     32  C   UNL A   1      36.722  30.187  27.357  1.00  0.00     0.014 A 
ATOM     33  C   UNL A   1      36.138  29.648  29.638  1.00  0.00     0.014 A 
ATOM     34  C   UNL A   1      38.020  29.719  27.580  1.00  0.00     0.010 A 
ATOM     35  C   UNL A   1      37.453  29.255  29.882  1.00  0.00     0.010 A 
ATOM     36  C   UNL A   1      38.405  29.272  28.852  1.00  0.00    -0.014 A 
BRANCH  36  37
ATOM     37  C   UNL A   1      39.788  28.798  29.119  1.00  0.00     0.031 A 
ATOM     38  C   UNL A   1      40.794  29.714  29.764  1.00  0.00     0.074 A 
ATOM     39  C   UNL A   1      40.159  27.563  28.728  1.00  0.00     0.049 A 
ATOM     40  N   UNL A   1      42.061  29.504  30.014  1.00  0.00    -0.248 NA
ATOM     41  C   UNL A   1      40.317  31.050  30.156  1.00  0.00     0.031 C 
ATOM     42  C   UNL A   1      39.295  26.588  28.060  1.00  0.00     0.029 A 
ATOM     43  N   UNL A   1      41.368  26.921  28.831  1.00  0.00    -0.354 N 
ATOM     44  C   UNL A   1      42.538  30.687  30.566  1.00  0.00     0.074 A 
ATOM     45  C   UNL A   1      41.435  31.624  30.575  1.00  0.00     0.031 C 
ATOM     46  C   UNL A   1      39.993  25.464  27.836  1.00  0.00     0.029 A 
ATOM     47  C   UNL A   1      41.362  25.651  28.308  1.00  0.00     0.049 A 
ATOM     48  H   UNL A   1      42.164  27.331  29.241  1.00  0.00     0.167 HD
ATOM     49  C   UNL A   1      43.777  30.966  31.038  1.00  0.00     0.031 A 
ATOM     50  C   UNL A   1      42.348  24.739  28.214  1.00  0.00     0.031 A 
ATOM     51  C   UNL A   1      44.870  30.031  31.051  1.00  0.00     0.049 A 
ATOM     52  C   UNL A   1      43.712  25.070  28.749  1.00  0.00     0.074 A 
ATOM     53  C   UNL A   1      46.144  30.201  31.563  1.00  0.00     0.029 A 
ATOM     54  N   UNL A   1      44.816  28.749  30.527  1.00  0.00    -0.354 N 
ATOM     55  N   UNL A   1      44.129  26.172  29.323  1.00  0.00    -0.248 NA
ATOM     56  C   UNL A   1      44.739  24.024  28.632  1.00  0.00     0.031 C 
ATOM     57  C   UNL A   1      46.875  29.034  31.312  1.00  0.00     0.029 A 
ATOM     58  C   UNL A   1      46.040  28.122  30.687  1.00  0.00     0.049 A 
ATOM     59  H   UNL A   1      44.024  28.344  30.104  1.00  0.00     0.167 HD
ATOM     60  C   UNL A   1      45.456  25.944  29.659  1.00  0.00     0.074 A 
ATOM     61  C   UNL A   1      45.771  24.595  29.239  1.00  0.00     0.031 C 
ATOM     62  C   UNL A   1      46.337  26.779  30.263  1.00  0.00     0.031 A 
BRANCH  49  63
ATOM     63  C   UNL A   1      44.015  32.350  31.578  1.00  0.00    -0.014 A 
ATOM     64  C   UNL A   1      44.490  33.381  30.752  1.00  0.00     0.009 A 
ATOM     65  C   UNL A   1      43.735  32.632  32.924  1.00  0.00     0.009 A 
ATOM     66  C   UNL A   1      44.716  34.657  31.273  1.00  0.00     0.001 A 
ATOM     67  C   UNL A   1      43.936  33.916  33.436  1.00  0.00     0.001 A 
ATOM     68  C   UNL A   1      44.436  34.924  32.613  1.00  0.00     0.000 A 
ENDBRANCH  49  63
BRANCH  50  69
ATOM     69  C   UNL A   1      42.074  23.412  27.605  1.00  0.00    -0.014 A 
ATOM     70  C   UNL A   1      42.370  23.177  26.253  1.00  0.00     0.009 A 
ATOM     71  C   UNL A   1      41.520  22.373  28.369  1.00  0.00     0.009 A 
ATOM     72  C   UNL A   1      42.095  21.937  25.673  1.00  0.00     0.001 A 
ATOM     73  C   UNL A   1      41.271  21.126  27.793  1.00  0.00     0.001 A 
ATOM     74  C   UNL A   1      41.550  20.912  26.445  1.00  0.00     0.000 A 
ENDBRANCH  50  69
BRANCH  62  75
ATOM     75  C   UNL A   1      47.713  26.244  30.536  1.00  0.00    -0.014 A 
ATOM     76  C   UNL A   1      48.692  26.210  29.530  1.00  0.00     0.009 A 
ATOM     77  C   UNL A   1      48.044  25.803  31.826  1.00  0.00     0.009 A 
ATOM     78  C   UNL A   1      49.968  25.715  29.806  1.00  0.00     0.001 A 
ATOM     79  C   UNL A   1      49.328  25.333  32.106  1.00  0.00     0.001 A 
ATOM     80  C   UNL A   1      50.286  25.281  31.094  1.00  0.00     0.000 A 
ENDBRANCH  62  75
ENDBRANCH  36  37
ENDBRANCH  28  31
ENDBRANCH  26  27
ENDBRANCH  25  26
ENDBRANCH   1  25
TORSDOF 14
ENDMDL
MODEL 3
REMARK VINA RESULT:     -11.1      4.456      9.822
REMARK SMILES COc1cc(OC)cc(-c2ccc([C@@H](C)C(=O)NCCCNC(=O)c3ccc(-c4c5nc(c(-c6ccccc6)c6ccc([nH]6)c(-c6ccccc6)c6nc(c(-c7ccccc7)c7ccc4[nH]7)C=C6)C=C5)cc3)cc2F)c1
REMARK SMILES IDX 19 1 18 2 16 3 17 4 14 6 15 7 13 8 10 9 11 10 74 11 12 12
REMARK SMILES IDX 73 13 75 14 9 15 3 16 4 17 76 18 5 19 8 20 2 21 1 22 6 23
REMARK SMILES IDX 7 24 20 25 21 26 22 27 23 28 24 30 25 31 26 32 72 33 27 34
REMARK SMILES IDX 71 35 28 36 29 37 30 38 65 39 31 40 70 41 64 42 66 43 32 44
REMARK SMILES IDX 69 45 63 46 62 47 33 49 55 50 40 51 54 52 41 53 44 54 53 55
REMARK SMILES IDX 67 56 42 57 43 58 52 60 68 61 45 62 34 63 35 64 39 65 36 66
REMARK SMILES IDX 38 67 37 68 56 69 57 70 61 71 58 72 60 73 59 74 46 75 47 76
REMARK SMILES IDX 51 77 48 78 50 79 49 80
REMARK H PARENT 18 5 22 29 66 48 44 59
REMARK Flexibility Score: inf
ROOT
ATOM      1  C   UNL A   1      35.016  33.970  30.644  1.00  0.00     0.117 C 
ENDROOT
BRANCH   1   2
ATOM      2  N   UNL A   1      36.465  34.012  30.592  1.00  0.00    -0.356 N 
ATOM      3  C   UNL A   1      37.423  33.709  31.509  1.00  0.00     0.227 C 
ATOM      4  O   UNL A   1      38.592  33.916  31.164  1.00  0.00    -0.274 OA
ATOM      5  H   UNL A   1      36.824  34.316  29.726  1.00  0.00     0.163 HD
BRANCH   3   6
ATOM      6  C   UNL A   1      37.130  33.150  32.910  1.00  0.00     0.105 C 
ATOM      7  C   UNL A   1      36.769  34.206  33.954  1.00  0.00     0.023 C 
BRANCH   6   8
ATOM      8  C   UNL A   1      38.132  32.095  33.350  1.00  0.00    -0.033 A 
ATOM      9  C   UNL A   1      40.061  30.078  33.993  1.00  0.00     0.018 A 
ATOM     10  C   UNL A   1      40.244  31.424  34.355  1.00  0.00     0.012 A 
ATOM     11  C   UNL A   1      38.871  29.770  33.320  1.00  0.00     0.131 A 
ATOM     12  C   UNL A   1      39.285  32.404  34.074  1.00  0.00     0.005 A 
ATOM     13  C   UNL A   1      37.933  30.754  32.989  1.00  0.00     0.044 A 
ATOM     14  F   UNL A   1      38.593  28.503  32.973  1.00  0.00    -0.206 F 
BRANCH   9  15
ATOM     15  C   UNL A   1      41.088  29.065  34.330  1.00  0.00    -0.008 A 
ATOM     16  C   UNL A   1      42.826  27.473  33.689  1.00  0.00     0.123 A 
ATOM     17  C   UNL A   1      43.051  27.174  35.033  1.00  0.00     0.092 A 
ATOM     18  C   UNL A   1      41.847  28.409  33.342  1.00  0.00     0.055 A 
ATOM     19  C   UNL A   1      42.325  27.812  36.036  1.00  0.00     0.123 A 
ATOM     20  C   UNL A   1      41.347  28.741  35.679  1.00  0.00     0.055 A 
BRANCH  16  21
ATOM     21  O   UNL A   1      43.591  26.759  32.806  1.00  0.00    -0.497 OA
ATOM     22  C   UNL A   1      43.999  25.467  33.239  1.00  0.00     0.278 C 
ENDBRANCH  16  21
BRANCH  19  23
ATOM     23  O   UNL A   1      42.656  27.451  37.313  1.00  0.00    -0.497 OA
ATOM     24  C   UNL A   1      43.204  26.151  37.493  1.00  0.00     0.278 C 
ENDBRANCH  19  23
ENDBRANCH   9  15
ENDBRANCH   6   8
ENDBRANCH   3   6
ENDBRANCH   1   2
BRANCH   1  25
ATOM     25  C   UNL A   1      34.380  34.100  29.262  1.00  0.00     0.042 C 
BRANCH  25  26
ATOM     26  C   UNL A   1      34.958  33.152  28.218  1.00  0.00     0.118 C 
BRANCH  26  27
ATOM     27  N   UNL A   1      34.130  31.970  28.027  1.00  0.00    -0.352 N 
ATOM     28  C   UNL A   1      34.463  30.642  27.939  1.00  0.00     0.251 C 
ATOM     29  H   UNL A   1      33.166  32.156  27.947  1.00  0.00     0.163 HD
ATOM     30  O   UNL A   1      33.611  29.839  27.568  1.00  0.00    -0.269 OA
BRANCH  28  31
ATOM     31  C   UNL A   1      35.824  30.156  28.269  1.00  0.00     0.039 A 
ATOM     32  C   UNL A   1      36.785  30.116  27.251  1.00  0.00     0.014 A 
ATOM     33  C   UNL A   1      36.150  29.672  29.539  1.00  0.00     0.014 A 
ATOM     34  C   UNL A   1      38.072  29.641  27.517  1.00  0.00     0.010 A 
ATOM     35  C   UNL A   1      37.455  29.273  29.824  1.00  0.00     0.010 A 
ATOM     36  C   UNL A   1      38.426  29.239  28.813  1.00  0.00    -0.014 A 
BRANCH  36  37
ATOM     37  C   UNL A   1      39.797  28.757  29.124  1.00  0.00     0.031 A 
ATOM     38  C   UNL A   1      40.773  29.655  29.838  1.00  0.00     0.074 A 
ATOM     39  C   UNL A   1      40.187  27.534  28.715  1.00  0.00     0.049 A 
ATOM     40  N   UNL A   1      42.029  29.439  30.136  1.00  0.00    -0.248 NA
ATOM     41  C   UNL A   1      40.278  30.979  30.248  1.00  0.00     0.031 C 
ATOM     42  C   UNL A   1      39.354  26.579  27.983  1.00  0.00     0.029 A 
ATOM     43  N   UNL A   1      41.392  26.890  28.851  1.00  0.00    -0.354 N 
ATOM     44  C   UNL A   1      42.480  30.606  30.742  1.00  0.00     0.074 A 
ATOM     45  C   UNL A   1      41.376  31.541  30.731  1.00  0.00     0.031 C 
ATOM     46  C   UNL A   1      40.063  25.462  27.757  1.00  0.00     0.029 A 
ATOM     47  C   UNL A   1      41.410  25.636  28.292  1.00  0.00     0.049 A 
ATOM     48  H   UNL A   1      42.168  27.289  29.306  1.00  0.00     0.167 HD
ATOM     49  C   UNL A   1      43.697  30.871  31.274  1.00  0.00     0.031 A 
ATOM     50  C   UNL A   1      42.400  24.727  28.214  1.00  0.00     0.031 A 
ATOM     51  C   UNL A   1      44.790  29.937  31.307  1.00  0.00     0.049 A 
ATOM     52  C   UNL A   1      43.740  25.044  28.816  1.00  0.00     0.074 A 
ATOM     53  C   UNL A   1      46.041  30.093  31.878  1.00  0.00     0.029 A 
ATOM     54  N   UNL A   1      44.761  28.671  30.745  1.00  0.00    -0.354 N 
ATOM     55  N   UNL A   1      44.130  26.129  29.438  1.00  0.00    -0.248 NA
ATOM     56  C   UNL A   1      44.773  24.002  28.713  1.00  0.00     0.031 C 
ATOM     57  C   UNL A   1      46.784  28.934  31.624  1.00  0.00     0.029 A 
ATOM     58  C   UNL A   1      45.978  28.040  30.938  1.00  0.00     0.049 A 
ATOM     59  H   UNL A   1      43.988  28.278  30.276  1.00  0.00     0.167 HD
ATOM     60  C   UNL A   1      45.442  25.892  29.825  1.00  0.00     0.074 A 
ATOM     61  C   UNL A   1      45.778  24.556  29.379  1.00  0.00     0.031 C 
ATOM     62  C   UNL A   1      46.295  26.710  30.489  1.00  0.00     0.031 A 
BRANCH  49  63
ATOM     63  C   UNL A   1      43.909  32.239  31.863  1.00  0.00    -0.014 A 
ATOM     64  C   UNL A   1      44.322  33.319  31.066  1.00  0.00     0.009 A 
ATOM     65  C   UNL A   1      43.668  32.457  33.228  1.00  0.00     0.009 A 
ATOM     66  C   UNL A   1      44.525  34.579  31.632  1.00  0.00     0.001 A 
ATOM     67  C   UNL A   1      43.846  33.725  33.787  1.00  0.00     0.001 A 
ATOM     68  C   UNL A   1      44.284  34.782  32.990  1.00  0.00     0.000 A 
ENDBRANCH  49  63
BRANCH  50  69
ATOM     69  C   UNL A   1      42.155  23.418  27.555  1.00  0.00    -0.014 A 
ATOM     70  C   UNL A   1      41.512  22.384  28.252  1.00  0.00     0.009 A 
ATOM     71  C   UNL A   1      42.559  23.197  26.230  1.00  0.00     0.009 A 
ATOM     72  C   UNL A   1      41.300  21.146  27.642  1.00  0.00     0.001 A 
ATOM     73  C   UNL A   1      42.321  21.967  25.614  1.00  0.00     0.001 A 
ATOM     74  C   UNL A   1      41.699  20.940  26.322  1.00  0.00     0.000 A 
ENDBRANCH  50  69
BRANCH  62  75
ATOM     75  C   UNL A   1      47.659  26.168  30.805  1.00  0.00    -0.014 A 
ATOM     76  C   UNL A   1      48.684  26.173  29.845  1.00  0.00     0.009 A 
ATOM     77  C   UNL A   1      47.932  25.680  32.092  1.00  0.00     0.009 A 
ATOM     78  C   UNL A   1      49.947  25.671  30.161  1.00  0.00     0.001 A 
ATOM     79  C   UNL A   1      49.204  25.203  32.413  1.00  0.00     0.001 A 
ATOM     80  C   UNL A   1      50.207  25.190  31.445  1.00  0.00     0.000 A 
ENDBRANCH  62  75
ENDBRANCH  36  37
ENDBRANCH  28  31
ENDBRANCH  26  27
ENDBRANCH  25  26
ENDBRANCH   1  25
TORSDOF 14
ENDMDL
