MODEL 1
REMARK VINA RESULT:     -11.5      0.000      0.000
REMARK SMILES C[C@@H]1OCC[C@@H]1C(=O)Nc1ccc(C(=O)NCCCNC(=O)c2ccc(-c3c4nc(c(-c5ccccc5)c5ccc([nH]5)c(-c5ccccc5)c5nc(c(-c6ccccc6)c6ccc3[nH]6)C=C5)C=C4)cc2)cc1F
REMARK SMILES IDX 18 1 17 2 16 3 14 4 15 5 13 7 10 8 11 9 72 10 12 11 71 12
REMARK SMILES IDX 73 13 9 14 7 15 8 16 6 18 1 19 2 20 3 21 4 22 5 23 19 24
REMARK SMILES IDX 20 25 21 26 22 28 23 29 24 30 70 31 25 32 69 33 26 34 27 35
REMARK SMILES IDX 28 36 63 37 29 38 68 39 62 40 64 41 30 42 67 43 61 44 60 45
REMARK SMILES IDX 31 47 53 48 38 49 52 50 39 51 42 52 51 53 65 54 40 55 41 56
REMARK SMILES IDX 50 58 66 59 43 60 32 61 33 62 37 63 34 64 36 65 35 66 54 67
REMARK SMILES IDX 55 68 59 69 56 70 58 71 57 72 44 73 45 74 49 75 46 76 48 77
REMARK SMILES IDX 47 78
REMARK H PARENT 16 6 9 17 20 27 64 46 42 57
REMARK Flexibility Score: inf
ROOT
ATOM      1  C   UNL A   1      37.427  19.529  24.929  1.00  0.00     0.042 C 
ENDROOT
BRANCH   1   2
ATOM      2  C   UNL A   1      36.152  20.386  24.892  1.00  0.00     0.118 C 
BRANCH   2   3
ATOM      3  N   UNL A   1      34.942  19.563  24.937  1.00  0.00    -0.352 N 
ATOM      4  C   UNL A   1      33.618  19.826  25.238  1.00  0.00     0.251 C 
ATOM      5  O   UNL A   1      32.803  18.912  25.126  1.00  0.00    -0.269 OA
ATOM      6  H   UNL A   1      35.105  18.621  24.704  1.00  0.00     0.163 HD
BRANCH   4   7
ATOM      7  C   UNL A   1      33.130  21.176  25.631  1.00  0.00     0.042 A 
ATOM      8  C   UNL A   1      31.848  23.589  26.441  1.00  0.00     0.077 A 
ATOM      9  C   UNL A   1      32.721  22.911  27.307  1.00  0.00     0.030 A 
ATOM     10  C   UNL A   1      31.635  22.984  25.216  1.00  0.00     0.147 A 
ATOM     11  C   UNL A   1      33.310  21.681  26.926  1.00  0.00     0.016 A 
ATOM     12  C   UNL A   1      32.400  21.939  24.758  1.00  0.00     0.055 A 
ATOM     13  F   UNL A   1      30.597  23.234  24.427  1.00  0.00    -0.205 F 
BRANCH   8  14
ATOM     14  N   UNL A   1      31.320  24.835  26.850  1.00  0.00    -0.323 N 
ATOM     15  C   UNL A   1      31.407  26.120  26.366  1.00  0.00     0.230 C 
ATOM     16  O   UNL A   1      30.909  27.014  27.059  1.00  0.00    -0.274 OA
ATOM     17  H   UNL A   1      30.765  24.768  27.661  1.00  0.00     0.170 HD
BRANCH  15  18
ATOM     18  C   UNL A   1      32.036  26.445  25.029  1.00  0.00     0.110 C 
ATOM     19  C   UNL A   1      34.012  27.665  26.190  1.00  0.00     0.039 C 
ATOM     20  C   UNL A   1      33.530  26.813  25.025  1.00  0.00     0.127 C 
ATOM     21  O   UNL A   1      33.758  27.556  23.804  1.00  0.00    -0.378 OA
ATOM     22  C   UNL A   1      32.492  27.720  23.150  1.00  0.00     0.161 C 
ATOM     23  C   UNL A   1      31.458  27.615  24.254  1.00  0.00     0.044 C 
ENDBRANCH  15  18
ENDBRANCH   8  14
ENDBRANCH   4   7
ENDBRANCH   2   3
ENDBRANCH   1   2
BRANCH   1  24
ATOM     24  C   UNL A   1      38.607  20.256  25.559  1.00  0.00     0.118 C 
BRANCH  24  25
ATOM     25  N   UNL A   1      39.765  19.385  25.672  1.00  0.00    -0.352 N 
ATOM     26  C   UNL A   1      41.051  19.657  26.055  1.00  0.00     0.251 C 
ATOM     27  H   UNL A   1      39.597  18.444  25.433  1.00  0.00     0.163 HD
ATOM     28  O   UNL A   1      41.913  18.800  25.888  1.00  0.00    -0.269 OA
BRANCH  26  29
ATOM     29  C   UNL A   1      41.418  20.961  26.650  1.00  0.00     0.039 A 
ATOM     30  C   UNL A   1      41.862  21.970  25.790  1.00  0.00     0.014 A 
ATOM     31  C   UNL A   1      41.394  21.185  28.029  1.00  0.00     0.014 A 
ATOM     32  C   UNL A   1      42.249  23.207  26.307  1.00  0.00     0.010 A 
ATOM     33  C   UNL A   1      41.710  22.444  28.539  1.00  0.00     0.010 A 
ATOM     34  C   UNL A   1      42.151  23.464  27.684  1.00  0.00    -0.014 A 
BRANCH  34  35
ATOM     35  C   UNL A   1      42.494  24.802  28.224  1.00  0.00     0.031 A 
ATOM     36  C   UNL A   1      43.907  25.138  28.613  1.00  0.00     0.074 A 
ATOM     37  C   UNL A   1      41.515  25.713  28.385  1.00  0.00     0.049 A 
ATOM     38  N   UNL A   1      44.388  26.265  29.077  1.00  0.00    -0.248 NA
ATOM     39  C   UNL A   1      44.908  24.066  28.489  1.00  0.00     0.031 C 
ATOM     40  C   UNL A   1      40.097  25.492  28.090  1.00  0.00     0.029 A 
ATOM     41  N   UNL A   1      41.562  27.009  28.833  1.00  0.00    -0.354 N 
ATOM     42  C   UNL A   1      45.738  26.035  29.308  1.00  0.00     0.074 A 
ATOM     43  C   UNL A   1      45.992  24.648  28.982  1.00  0.00     0.031 C 
ATOM     44  C   UNL A   1      39.417  26.625  28.325  1.00  0.00     0.029 A 
ATOM     45  C   UNL A   1      40.341  27.636  28.825  1.00  0.00     0.049 A 
ATOM     46  H   UNL A   1      42.393  27.447  29.130  1.00  0.00     0.167 HD
ATOM     47  C   UNL A   1      46.685  26.903  29.737  1.00  0.00     0.031 A 
ATOM     48  C   UNL A   1      40.000  28.889  29.180  1.00  0.00     0.031 A 
ATOM     49  C   UNL A   1      46.431  28.284  30.057  1.00  0.00     0.049 A 
ATOM     50  C   UNL A   1      41.070  29.832  29.654  1.00  0.00     0.074 A 
ATOM     51  C   UNL A   1      47.335  29.261  30.440  1.00  0.00     0.029 A 
ATOM     52  N   UNL A   1      45.180  28.881  30.041  1.00  0.00    -0.354 N 
ATOM     53  N   UNL A   1      42.358  29.621  29.786  1.00  0.00    -0.248 NA
ATOM     54  C   UNL A   1      40.639  31.189  30.014  1.00  0.00     0.031 C 
ATOM     55  C   UNL A   1      46.623  30.433  30.711  1.00  0.00     0.029 A 
ATOM     56  C   UNL A   1      45.284  30.205  30.437  1.00  0.00     0.049 A 
ATOM     57  H   UNL A   1      44.343  28.432  29.785  1.00  0.00     0.167 HD
ATOM     58  C   UNL A   1      42.893  30.826  30.223  1.00  0.00     0.074 A 
ATOM     59  C   UNL A   1      41.795  31.767  30.308  1.00  0.00     0.031 C 
ATOM     60  C   UNL A   1      44.179  31.125  30.530  1.00  0.00     0.031 A 
BRANCH  47  61
ATOM     61  C   UNL A   1      48.088  26.381  29.897  1.00  0.00    -0.014 A 
ATOM     62  C   UNL A   1      48.519  25.805  31.102  1.00  0.00     0.009 A 
ATOM     63  C   UNL A   1      48.977  26.425  28.812  1.00  0.00     0.009 A 
ATOM     64  C   UNL A   1      49.822  25.317  31.229  1.00  0.00     0.001 A 
ATOM     65  C   UNL A   1      50.269  25.909  28.931  1.00  0.00     0.001 A 
ATOM     66  C   UNL A   1      50.694  25.365  30.142  1.00  0.00     0.000 A 
ENDBRANCH  47  61
BRANCH  48  67
ATOM     67  C   UNL A   1      38.583  29.330  29.086  1.00  0.00    -0.014 A 
ATOM     68  C   UNL A   1      37.730  29.240  30.197  1.00  0.00     0.009 A 
ATOM     69  C   UNL A   1      38.077  29.843  27.881  1.00  0.00     0.009 A 
ATOM     70  C   UNL A   1      36.392  29.625  30.094  1.00  0.00     0.001 A 
ATOM     71  C   UNL A   1      36.746  30.257  27.791  1.00  0.00     0.001 A 
ATOM     72  C   UNL A   1      35.902  30.137  28.894  1.00  0.00     0.000 A 
ENDBRANCH  48  67
BRANCH  60  73
ATOM     73  C   UNL A   1      44.465  32.536  30.965  1.00  0.00    -0.014 A 
ATOM     74  C   UNL A   1      44.437  32.901  32.320  1.00  0.00     0.009 A 
ATOM     75  C   UNL A   1      44.782  33.510  30.004  1.00  0.00     0.009 A 
ATOM     76  C   UNL A   1      44.678  34.223  32.700  1.00  0.00     0.001 A 
ATOM     77  C   UNL A   1      45.055  34.822  30.391  1.00  0.00     0.001 A 
ATOM     78  C   UNL A   1      44.989  35.180  31.736  1.00  0.00     0.000 A 
ENDBRANCH  60  73
ENDBRANCH  34  35
ENDBRANCH  26  29
ENDBRANCH  24  25
ENDBRANCH   1  24
TORSDOF 12
ENDMDL
MODEL 2
REMARK VINA RESULT:     -11.5      0.335      5.964
REMARK SMILES C[C@@H]1OCC[C@@H]1C(=O)Nc1ccc(C(=O)NCCCNC(=O)c2ccc(-c3c4nc(c(-c5ccccc5)c5ccc([nH]5)c(-c5ccccc5)c5nc(c(-c6ccccc6)c6ccc3[nH]6)C=C5)C=C4)cc2)cc1F
REMARK SMILES IDX 18 1 17 2 16 3 14 4 15 5 13 7 10 8 11 9 72 10 12 11 71 12
REMARK SMILES IDX 73 13 9 14 7 15 8 16 6 18 1 19 2 20 3 21 4 22 5 23 19 24
REMARK SMILES IDX 20 25 21 26 22 28 23 29 24 30 70 31 25 32 69 33 26 34 27 35
REMARK SMILES IDX 28 36 63 37 29 38 68 39 62 40 64 41 30 42 67 43 61 44 60 45
REMARK SMILES IDX 31 47 53 48 38 49 52 50 39 51 42 52 51 53 65 54 40 55 41 56
REMARK SMILES IDX 50 58 66 59 43 60 32 61 33 62 37 63 34 64 36 65 35 66 54 67
REMARK SMILES IDX 55 68 59 69 56 70 58 71 57 72 44 73 45 74 49 75 46 76 48 77
REMARK SMILES IDX 47 78
REMARK H PARENT 16 6 9 17 20 27 64 46 42 57
REMARK Flexibility Score: inf
ROOT
ATOM      1  C   UNL A   1      37.395  19.556  24.958  1.00  0.00     0.042 C 
ENDROOT
BRANCH   1   2
ATOM      2  C   UNL A   1      36.131  20.431  24.979  1.00  0.00     0.118 C 
BRANCH   2   3
ATOM      3  N   UNL A   1      34.910  19.625  24.960  1.00  0.00    -0.352 N 
ATOM      4  C   UNL A   1      33.579  19.901  25.212  1.00  0.00     0.251 C 
ATOM      5  O   UNL A   1      32.757  19.001  25.049  1.00  0.00    -0.269 OA
ATOM      6  H   UNL A   1      35.070  18.685  24.715  1.00  0.00     0.163 HD
BRANCH   4   7
ATOM      7  C   UNL A   1      33.093  21.250  25.611  1.00  0.00     0.042 A 
ATOM      8  C   UNL A   1      31.818  23.660  26.441  1.00  0.00     0.077 A 
ATOM      9  C   UNL A   1      32.712  22.988  27.290  1.00  0.00     0.030 A 
ATOM     10  C   UNL A   1      31.582  23.050  25.222  1.00  0.00     0.147 A 
ATOM     11  C   UNL A   1      33.298  21.760  26.901  1.00  0.00     0.016 A 
ATOM     12  C   UNL A   1      32.342  22.008  24.752  1.00  0.00     0.055 A 
ATOM     13  F   UNL A   1      30.526  23.294  24.454  1.00  0.00    -0.205 F 
BRANCH   8  14
ATOM     14  N   UNL A   1      31.293  24.905  26.857  1.00  0.00    -0.323 N 
ATOM     15  C   UNL A   1      31.396  26.195  26.390  1.00  0.00     0.230 C 
ATOM     16  O   UNL A   1      30.895  27.084  27.087  1.00  0.00    -0.274 OA
ATOM     17  H   UNL A   1      30.727  24.833  27.660  1.00  0.00     0.170 HD
BRANCH  15  18
ATOM     18  C   UNL A   1      32.045  26.531  25.066  1.00  0.00     0.110 C 
ATOM     19  C   UNL A   1      33.964  27.805  26.263  1.00  0.00     0.039 C 
ATOM     20  C   UNL A   1      33.528  26.936  25.092  1.00  0.00     0.127 C 
ATOM     21  O   UNL A   1      33.764  27.680  23.872  1.00  0.00    -0.378 OA
ATOM     22  C   UNL A   1      32.508  27.810  23.192  1.00  0.00     0.161 C 
ATOM     23  C   UNL A   1      31.454  27.683  24.273  1.00  0.00     0.044 C 
ENDBRANCH  15  18
ENDBRANCH   8  14
ENDBRANCH   4   7
ENDBRANCH   2   3
ENDBRANCH   1   2
BRANCH   1  24
ATOM     24  C   UNL A   1      38.624  20.283  25.483  1.00  0.00     0.118 C 
BRANCH  24  25
ATOM     25  N   UNL A   1      39.745  19.373  25.651  1.00  0.00    -0.352 N 
ATOM     26  C   UNL A   1      41.030  19.607  26.063  1.00  0.00     0.251 C 
ATOM     27  H   UNL A   1      39.548  18.433  25.432  1.00  0.00     0.163 HD
ATOM     28  O   UNL A   1      41.862  18.715  25.942  1.00  0.00    -0.269 OA
BRANCH  26  29
ATOM     29  C   UNL A   1      41.430  20.913  26.634  1.00  0.00     0.039 A 
ATOM     30  C   UNL A   1      41.935  21.881  25.761  1.00  0.00     0.014 A 
ATOM     31  C   UNL A   1      41.377  21.175  28.006  1.00  0.00     0.014 A 
ATOM     32  C   UNL A   1      42.355  23.116  26.256  1.00  0.00     0.010 A 
ATOM     33  C   UNL A   1      41.726  22.434  28.491  1.00  0.00     0.010 A 
ATOM     34  C   UNL A   1      42.229  23.414  27.622  1.00  0.00    -0.014 A 
BRANCH  34  35
ATOM     35  C   UNL A   1      42.608  24.752  28.137  1.00  0.00     0.031 A 
ATOM     36  C   UNL A   1      41.571  25.821  28.344  1.00  0.00     0.074 A 
ATOM     37  C   UNL A   1      43.904  25.010  28.396  1.00  0.00     0.049 A 
ATOM     38  N   UNL A   1      41.723  27.036  28.810  1.00  0.00    -0.248 NA
ATOM     39  C   UNL A   1      40.189  25.496  27.961  1.00  0.00     0.031 C 
ATOM     40  C   UNL A   1      45.011  24.072  28.189  1.00  0.00     0.029 A 
ATOM     41  N   UNL A   1      44.512  26.135  28.892  1.00  0.00    -0.354 N 
ATOM     42  C   UNL A   1      40.464  27.620  28.765  1.00  0.00     0.074 A 
ATOM     43  C   UNL A   1      39.568  26.646  28.181  1.00  0.00     0.031 C 
ATOM     44  C   UNL A   1      46.154  24.645  28.593  1.00  0.00     0.029 A 
ATOM     45  C   UNL A   1      45.870  26.001  29.048  1.00  0.00     0.049 A 
ATOM     46  H   UNL A   1      44.021  26.959  29.116  1.00  0.00     0.167 HD
ATOM     47  C   UNL A   1      40.083  28.850  29.187  1.00  0.00     0.031 A 
ATOM     48  C   UNL A   1      46.786  26.873  29.508  1.00  0.00     0.031 A 
ATOM     49  C   UNL A   1      40.976  29.817  29.771  1.00  0.00     0.049 A 
ATOM     50  C   UNL A   1      46.337  28.231  29.968  1.00  0.00     0.074 A 
ATOM     51  C   UNL A   1      40.676  31.066  30.288  1.00  0.00     0.029 A 
ATOM     52  N   UNL A   1      42.345  29.646  29.909  1.00  0.00    -0.354 N 
ATOM     53  N   UNL A   1      45.128  28.736  29.997  1.00  0.00    -0.248 NA
ATOM     54  C   UNL A   1      47.381  29.134  30.473  1.00  0.00     0.031 C 
ATOM     55  C   UNL A   1      41.871  31.674  30.684  1.00  0.00     0.029 A 
ATOM     56  C   UNL A   1      42.908  30.779  30.474  1.00  0.00     0.049 A 
ATOM     57  H   UNL A   1      42.843  28.838  29.646  1.00  0.00     0.167 HD
ATOM     58  C   UNL A   1      45.262  30.006  30.542  1.00  0.00     0.074 A 
ATOM     59  C   UNL A   1      46.667  30.182  30.853  1.00  0.00     0.031 C 
ATOM     60  C   UNL A   1      44.309  30.944  30.763  1.00  0.00     0.031 A 
BRANCH  47  61
ATOM     61  C   UNL A   1      38.635  29.226  29.020  1.00  0.00    -0.014 A 
ATOM     62  C   UNL A   1      37.730  29.139  30.090  1.00  0.00     0.009 A 
ATOM     63  C   UNL A   1      38.180  29.718  27.787  1.00  0.00     0.009 A 
ATOM     64  C   UNL A   1      36.392  29.502  29.917  1.00  0.00     0.001 A 
ATOM     65  C   UNL A   1      36.849  30.108  27.625  1.00  0.00     0.001 A 
ATOM     66  C   UNL A   1      35.954  29.991  28.688  1.00  0.00     0.000 A 
ENDBRANCH  47  61
BRANCH  48  67
ATOM     67  C   UNL A   1      48.219  26.483  29.571  1.00  0.00    -0.014 A 
ATOM     68  C   UNL A   1      48.735  25.834  30.704  1.00  0.00     0.009 A 
ATOM     69  C   UNL A   1      49.080  26.760  28.498  1.00  0.00     0.009 A 
ATOM     70  C   UNL A   1      50.089  25.499  30.773  1.00  0.00     0.001 A 
ATOM     71  C   UNL A   1      50.427  26.395  28.556  1.00  0.00     0.001 A 
ATOM     72  C   UNL A   1      50.933  25.775  29.698  1.00  0.00     0.000 A 
ENDBRANCH  48  67
BRANCH  60  73
ATOM     73  C   UNL A   1      44.757  32.236  31.391  1.00  0.00    -0.014 A 
ATOM     74  C   UNL A   1      44.795  32.395  32.785  1.00  0.00     0.009 A 
ATOM     75  C   UNL A   1      45.160  33.303  30.573  1.00  0.00     0.009 A 
ATOM     76  C   UNL A   1      45.186  33.611  33.347  1.00  0.00     0.001 A 
ATOM     77  C   UNL A   1      45.583  34.507  31.139  1.00  0.00     0.001 A 
ATOM     78  C   UNL A   1      45.583  34.664  32.523  1.00  0.00     0.000 A 
ENDBRANCH  60  73
ENDBRANCH  34  35
ENDBRANCH  26  29
ENDBRANCH  24  25
ENDBRANCH   1  24
TORSDOF 12
ENDMDL
MODEL 3
REMARK VINA RESULT:     -11.4      2.222      7.732
REMARK SMILES C[C@@H]1OCC[C@@H]1C(=O)Nc1ccc(C(=O)NCCCNC(=O)c2ccc(-c3c4nc(c(-c5ccccc5)c5ccc([nH]5)c(-c5ccccc5)c5nc(c(-c6ccccc6)c6ccc3[nH]6)C=C5)C=C4)cc2)cc1F
REMARK SMILES IDX 18 1 17 2 16 3 14 4 15 5 13 7 10 8 11 9 72 10 12 11 71 12
REMARK SMILES IDX 73 13 9 14 7 15 8 16 6 18 1 19 2 20 3 21 4 22 5 23 19 24
REMARK SMILES IDX 20 25 21 26 22 28 23 29 24 30 70 31 25 32 69 33 26 34 27 35
REMARK SMILES IDX 28 36 63 37 29 38 68 39 62 40 64 41 30 42 67 43 61 44 60 45
REMARK SMILES IDX 31 47 53 48 38 49 52 50 39 51 42 52 51 53 65 54 40 55 41 56
REMARK SMILES IDX 50 58 66 59 43 60 32 61 33 62 37 63 34 64 36 65 35 66 54 67
REMARK SMILES IDX 55 68 59 69 56 70 58 71 57 72 44 73 45 74 49 75 46 76 48 77
REMARK SMILES IDX 47 78
REMARK H PARENT 16 6 9 17 20 27 64 46 42 57
REMARK Flexibility Score: inf
ROOT
ATOM      1  C   UNL A   1      32.763  28.231  26.044  1.00  0.00     0.042 C 
ENDROOT
BRANCH   1   2
ATOM      2  C   UNL A   1      32.896  29.325  24.973  1.00  0.00     0.118 C 
BRANCH   2   3
ATOM      3  N   UNL A   1      31.593  29.728  24.441  1.00  0.00    -0.352 N 
ATOM      4  C   UNL A   1      30.588  29.059  23.769  1.00  0.00     0.251 C 
ATOM      5  O   UNL A   1      29.558  29.675  23.500  1.00  0.00    -0.269 OA
ATOM      6  H   UNL A   1      31.389  30.679  24.595  1.00  0.00     0.163 HD
BRANCH   4   7
ATOM      7  C   UNL A   1      30.672  27.617  23.412  1.00  0.00     0.042 A 
ATOM      8  C   UNL A   1      31.168  24.851  22.933  1.00  0.00     0.077 A 
ATOM      9  C   UNL A   1      30.197  25.259  23.862  1.00  0.00     0.030 A 
ATOM     10  C   UNL A   1      31.872  25.872  22.320  1.00  0.00     0.147 A 
ATOM     11  C   UNL A   1      29.994  26.631  24.143  1.00  0.00     0.016 A 
ATOM     12  C   UNL A   1      31.497  27.190  22.405  1.00  0.00     0.055 A 
ATOM     13  F   UNL A   1      33.048  25.717  21.723  1.00  0.00    -0.205 F 
BRANCH   8  14
ATOM     14  N   UNL A   1      31.303  23.472  22.655  1.00  0.00    -0.323 N 
ATOM     15  C   UNL A   1      32.023  22.445  23.220  1.00  0.00     0.230 C 
ATOM     16  O   UNL A   1      32.005  21.358  22.632  1.00  0.00    -0.274 OA
ATOM     17  H   UNL A   1      30.761  23.181  21.886  1.00  0.00     0.170 HD
BRANCH  15  18
ATOM     18  C   UNL A   1      32.774  22.599  24.525  1.00  0.00     0.110 C 
ATOM     19  C   UNL A   1      34.957  23.216  23.263  1.00  0.00     0.039 C 
ATOM     20  C   UNL A   1      34.082  23.408  24.493  1.00  0.00     0.127 C 
ATOM     21  O   UNL A   1      34.841  22.991  25.652  1.00  0.00    -0.378 OA
ATOM     22  C   UNL A   1      34.110  21.939  26.297  1.00  0.00     0.161 C 
ATOM     23  C   UNL A   1      33.246  21.330  25.210  1.00  0.00     0.044 C 
ENDBRANCH  15  18
ENDBRANCH   8  14
ENDBRANCH   4   7
ENDBRANCH   2   3
ENDBRANCH   1   2
BRANCH   1  24
ATOM     24  C   UNL A   1      33.568  28.534  27.299  1.00  0.00     0.118 C 
BRANCH  24  25
ATOM     25  N   UNL A   1      33.546  29.953  27.612  1.00  0.00    -0.352 N 
ATOM     26  C   UNL A   1      34.482  30.746  28.220  1.00  0.00     0.251 C 
ATOM     27  H   UNL A   1      32.723  30.421  27.342  1.00  0.00     0.163 HD
ATOM     28  O   UNL A   1      34.166  31.883  28.557  1.00  0.00    -0.269 OA
BRANCH  26  29
ATOM     29  C   UNL A   1      35.852  30.255  28.489  1.00  0.00     0.039 A 
ATOM     30  C   UNL A   1      36.788  30.330  27.455  1.00  0.00     0.014 A 
ATOM     31  C   UNL A   1      36.208  29.669  29.707  1.00  0.00     0.014 A 
ATOM     32  C   UNL A   1      38.084  29.850  27.649  1.00  0.00     0.010 A 
ATOM     33  C   UNL A   1      37.522  29.258  29.928  1.00  0.00     0.010 A 
ATOM     34  C   UNL A   1      38.471  29.334  28.897  1.00  0.00    -0.014 A 
BRANCH  34  35
ATOM     35  C   UNL A   1      39.867  28.891  29.126  1.00  0.00     0.031 A 
ATOM     36  C   UNL A   1      40.868  29.803  29.779  1.00  0.00     0.074 A 
ATOM     37  C   UNL A   1      40.238  27.662  28.718  1.00  0.00     0.049 A 
ATOM     38  N   UNL A   1      42.122  29.568  30.079  1.00  0.00    -0.248 NA
ATOM     39  C   UNL A   1      40.415  31.160  30.121  1.00  0.00     0.031 C 
ATOM     40  C   UNL A   1      39.372  26.702  28.028  1.00  0.00     0.029 A 
ATOM     41  N   UNL A   1      41.438  27.007  28.827  1.00  0.00    -0.354 N 
ATOM     42  C   UNL A   1      42.607  30.747  30.632  1.00  0.00     0.074 A 
ATOM     43  C   UNL A   1      41.529  31.711  30.582  1.00  0.00     0.031 C 
ATOM     44  C   UNL A   1      40.057  25.569  27.813  1.00  0.00     0.029 A 
ATOM     45  C   UNL A   1      41.417  25.735  28.310  1.00  0.00     0.049 A 
ATOM     46  H   UNL A   1      42.238  27.410  29.236  1.00  0.00     0.167 HD
ATOM     47  C   UNL A   1      43.832  31.000  31.151  1.00  0.00     0.031 A 
ATOM     48  C   UNL A   1      42.386  24.803  28.245  1.00  0.00     0.031 A 
ATOM     49  C   UNL A   1      44.903  30.038  31.203  1.00  0.00     0.049 A 
ATOM     50  C   UNL A   1      43.737  25.109  28.827  1.00  0.00     0.074 A 
ATOM     51  C   UNL A   1      46.161  30.177  31.764  1.00  0.00     0.029 A 
ATOM     52  N   UNL A   1      44.844  28.761  30.666  1.00  0.00    -0.354 N 
ATOM     53  N   UNL A   1      44.152  26.201  29.423  1.00  0.00    -0.248 NA
ATOM     54  C   UNL A   1      44.748  24.048  28.737  1.00  0.00     0.031 C 
ATOM     55  C   UNL A   1      46.883  29.006  31.516  1.00  0.00     0.029 A 
ATOM     56  C   UNL A   1      46.054  28.113  30.856  1.00  0.00     0.049 A 
ATOM     57  H   UNL A   1      44.059  28.373  30.217  1.00  0.00     0.167 HD
ATOM     58  C   UNL A   1      45.464  25.950  29.799  1.00  0.00     0.074 A 
ATOM     59  C   UNL A   1      45.766  24.594  29.387  1.00  0.00     0.031 C 
ATOM     60  C   UNL A   1      46.343  26.769  30.426  1.00  0.00     0.031 A 
BRANCH  47  61
ATOM     61  C   UNL A   1      44.087  32.380  31.694  1.00  0.00    -0.014 A 
ATOM     62  C   UNL A   1      43.842  32.692  33.041  1.00  0.00     0.009 A 
ATOM     63  C   UNL A   1      44.623  33.372  30.857  1.00  0.00     0.009 A 
ATOM     64  C   UNL A   1      44.094  33.976  33.529  1.00  0.00     0.001 A 
ATOM     65  C   UNL A   1      44.902  34.647  31.355  1.00  0.00     0.001 A 
ATOM     66  C   UNL A   1      44.629  34.950  32.687  1.00  0.00     0.000 A 
ENDBRANCH  47  61
BRANCH  48  67
ATOM     67  C   UNL A   1      42.108  23.483  27.618  1.00  0.00    -0.014 A 
ATOM     68  C   UNL A   1      42.443  23.244  26.276  1.00  0.00     0.009 A 
ATOM     69  C   UNL A   1      41.503  22.456  28.360  1.00  0.00     0.009 A 
ATOM     70  C   UNL A   1      42.150  22.014  25.683  1.00  0.00     0.001 A 
ATOM     71  C   UNL A   1      41.240  21.217  27.773  1.00  0.00     0.001 A 
ATOM     72  C   UNL A   1      41.553  21.001  26.432  1.00  0.00     0.000 A 
ENDBRANCH  48  67
BRANCH  60  73
ATOM     73  C   UNL A   1      47.707  26.207  30.722  1.00  0.00    -0.014 A 
ATOM     74  C   UNL A   1      48.705  26.159  29.737  1.00  0.00     0.009 A 
ATOM     75  C   UNL A   1      47.999  25.734  32.011  1.00  0.00     0.009 A 
ATOM     76  C   UNL A   1      49.954  25.607  30.025  1.00  0.00     0.001 A 
ATOM     77  C   UNL A   1      49.260  25.214  32.305  1.00  0.00     0.001 A 
ATOM     78  C   UNL A   1      50.232  25.139  31.308  1.00  0.00     0.000 A 
ENDBRANCH  60  73
ENDBRANCH  34  35
ENDBRANCH  26  29
ENDBRANCH  24  25
ENDBRANCH   1  24
TORSDOF 12
ENDMDL
