MODEL 1
REMARK VINA RESULT:     -12.4      0.000      0.000
REMARK SMILES O=C(NCCCNC(=O)[C@@H]1CCC[C@@H](C(=O)N2CCN3C(=O)NC[C@@H]3C2)C1)c1ccc(-c2c3nc(c(-c4ccccc4)c4ccc([nH]4)c(-c4ccccc4)c4nc(c(-c5ccccc5)c5ccc2[nH]5)C=C4)C=C3)cc1
REMARK SMILES IDX 5 1 4 2 3 3 1 4 2 5 28 7 29 8 75 9 30 10 74 11 31 12 32 13
REMARK SMILES IDX 33 14 68 15 34 16 73 17 67 18 69 19 35 20 72 21 66 22 65 23
REMARK SMILES IDX 36 25 58 26 43 27 57 28 44 29 47 30 56 31 70 32 45 33 46 34
REMARK SMILES IDX 55 36 71 37 48 38 37 39 38 40 42 41 39 42 41 43 40 44 59 45
REMARK SMILES IDX 60 46 64 47 61 48 63 49 62 50 49 51 50 52 54 53 51 54 53 55
REMARK SMILES IDX 52 56 6 57 7 58 8 59 9 61 10 62 11 63 27 64 12 65 14 66
REMARK SMILES IDX 13 67 15 68 16 69 17 70 18 71 26 72 19 73 25 74 20 75 24 76
REMARK SMILES IDX 21 77 23 78 22 79
REMARK H PARENT 3 6 69 24 47 35 7 60 23 80
REMARK Flexibility Score: inf
ROOT
ATOM      1  C   UNL A   1      37.783  19.732  24.883  1.00  0.00     0.042 C 
ENDROOT
BRANCH   1   2
ATOM      2  C   UNL A   1      38.930  20.251  25.745  1.00  0.00     0.118 C 
BRANCH   2   3
ATOM      3  N   UNL A   1      39.968  19.244  25.902  1.00  0.00    -0.352 N 
ATOM      4  O   UNL A   1      42.066  18.444  25.843  1.00  0.00    -0.269 OA
ATOM      5  C   UNL A   1      41.320  19.396  26.049  1.00  0.00     0.251 C 
ATOM      6  H   UNL A   1      39.650  18.312  25.903  1.00  0.00     0.163 HD
BRANCH   5   7
ATOM      7  C   UNL A   1      41.882  20.696  26.467  1.00  0.00     0.039 A 
ATOM      8  C   UNL A   1      42.257  21.652  25.518  1.00  0.00     0.014 A 
ATOM      9  C   UNL A   1      41.953  20.991  27.830  1.00  0.00     0.014 A 
ATOM     10  C   UNL A   1      42.790  22.869  25.930  1.00  0.00     0.010 A 
ATOM     11  C   UNL A   1      42.419  22.239  28.241  1.00  0.00     0.010 A 
ATOM     12  C   UNL A   1      42.852  23.181  27.295  1.00  0.00    -0.014 A 
BRANCH  12  13
ATOM     13  C   UNL A   1      43.308  24.519  27.736  1.00  0.00     0.031 A 
ATOM     14  C   UNL A   1      42.316  25.571  28.127  1.00  0.00     0.074 A 
ATOM     15  C   UNL A   1      44.626  24.794  27.729  1.00  0.00     0.049 A 
ATOM     16  N   UNL A   1      42.523  26.826  28.435  1.00  0.00    -0.248 NA
ATOM     17  C   UNL A   1      40.904  25.163  28.164  1.00  0.00     0.031 C 
ATOM     18  C   UNL A   1      45.684  23.846  27.369  1.00  0.00     0.029 A 
ATOM     19  N   UNL A   1      45.299  25.953  28.014  1.00  0.00    -0.354 N 
ATOM     20  C   UNL A   1      41.266  27.365  28.674  1.00  0.00     0.074 A 
ATOM     21  C   UNL A   1      40.303  26.308  28.452  1.00  0.00     0.031 C 
ATOM     22  C   UNL A   1      46.872  24.461  27.462  1.00  0.00     0.029 A 
ATOM     23  C   UNL A   1      46.655  25.859  27.817  1.00  0.00     0.049 A 
ATOM     24  H   UNL A   1      44.854  26.774  28.329  1.00  0.00     0.167 HD
ATOM     25  C   UNL A   1      40.948  28.629  29.043  1.00  0.00     0.031 A 
ATOM     26  C   UNL A   1      47.615  26.799  27.875  1.00  0.00     0.031 A 
ATOM     27  C   UNL A   1      41.916  29.677  29.239  1.00  0.00     0.049 A 
ATOM     28  C   UNL A   1      47.236  28.207  28.228  1.00  0.00     0.074 A 
ATOM     29  C   UNL A   1      41.703  30.983  29.645  1.00  0.00     0.029 A 
ATOM     30  N   UNL A   1      43.281  29.542  29.023  1.00  0.00    -0.354 N 
ATOM     31  N   UNL A   1      46.049  28.698  28.493  1.00  0.00    -0.248 NA
ATOM     32  C   UNL A   1      48.326  29.190  28.296  1.00  0.00     0.031 C 
ATOM     33  C   UNL A   1      42.929  31.655  29.607  1.00  0.00     0.029 A 
ATOM     34  C   UNL A   1      43.917  30.749  29.255  1.00  0.00     0.049 A 
ATOM     35  H   UNL A   1      43.729  28.711  28.747  1.00  0.00     0.167 HD
ATOM     36  C   UNL A   1      46.251  30.038  28.789  1.00  0.00     0.074 A 
ATOM     37  C   UNL A   1      47.675  30.283  28.674  1.00  0.00     0.031 C 
ATOM     38  C   UNL A   1      45.337  30.976  29.137  1.00  0.00     0.031 A 
BRANCH  25  39
ATOM     39  C   UNL A   1      39.486  28.955  29.199  1.00  0.00    -0.014 A 
ATOM     40  C   UNL A   1      38.816  28.779  30.421  1.00  0.00     0.009 A 
ATOM     41  C   UNL A   1      38.766  29.448  28.099  1.00  0.00     0.009 A 
ATOM     42  C   UNL A   1      37.447  29.035  30.522  1.00  0.00     0.001 A 
ATOM     43  C   UNL A   1      37.405  29.737  28.212  1.00  0.00     0.001 A 
ATOM     44  C   UNL A   1      36.743  29.515  29.418  1.00  0.00     0.000 A 
ENDBRANCH  25  39
BRANCH  26  45
ATOM     45  C   UNL A   1      49.018  26.422  27.566  1.00  0.00    -0.014 A 
ATOM     46  C   UNL A   1      49.884  25.991  28.580  1.00  0.00     0.009 A 
ATOM     47  C   UNL A   1      49.478  26.433  26.238  1.00  0.00     0.009 A 
ATOM     48  C   UNL A   1      51.186  25.586  28.272  1.00  0.00     0.001 A 
ATOM     49  C   UNL A   1      50.769  25.999  25.930  1.00  0.00     0.001 A 
ATOM     50  C   UNL A   1      51.623  25.581  26.947  1.00  0.00     0.000 A 
ENDBRANCH  26  45
BRANCH  38  51
ATOM     51  C   UNL A   1      45.845  32.351  29.473  1.00  0.00    -0.014 A 
ATOM     52  C   UNL A   1      45.998  33.340  28.489  1.00  0.00     0.009 A 
ATOM     53  C   UNL A   1      46.092  32.681  30.816  1.00  0.00     0.009 A 
ATOM     54  C   UNL A   1      46.404  34.628  28.845  1.00  0.00     0.001 A 
ATOM     55  C   UNL A   1      46.468  33.976  31.170  1.00  0.00     0.001 A 
ATOM     56  C   UNL A   1      46.628  34.947  30.184  1.00  0.00     0.000 A 
ENDBRANCH  38  51
ENDBRANCH  12  13
ENDBRANCH   5   7
ENDBRANCH   2   3
ENDBRANCH   1   2
BRANCH   1  57
ATOM     57  C   UNL A   1      36.522  20.587  25.009  1.00  0.00     0.117 C 
BRANCH  57  58
ATOM     58  N   UNL A   1      35.341  19.750  25.043  1.00  0.00    -0.356 N 
ATOM     59  C   UNL A   1      34.021  20.067  25.058  1.00  0.00     0.223 C 
ATOM     60  H   UNL A   1      35.527  18.783  25.060  1.00  0.00     0.163 HD
ATOM     61  O   UNL A   1      33.230  19.138  25.249  1.00  0.00    -0.275 OA
BRANCH  59  62
ATOM     62  C   UNL A   1      33.505  21.474  24.767  1.00  0.00     0.079 C 
ATOM     63  C   UNL A   1      32.415  21.848  25.772  1.00  0.00     0.013 C 
ATOM     64  C   UNL A   1      33.099  21.755  23.314  1.00  0.00     0.027 C 
ATOM     65  C   UNL A   1      31.964  23.293  25.594  1.00  0.00     0.002 C 
ATOM     66  C   UNL A   1      32.527  23.169  23.093  1.00  0.00     0.079 C 
ATOM     67  C   UNL A   1      31.517  23.578  24.164  1.00  0.00     0.013 C 
BRANCH  66  68
ATOM     68  C   UNL A   1      33.712  24.119  22.951  1.00  0.00     0.225 C 
ATOM     69  O   UNL A   1      34.876  23.734  23.027  1.00  0.00    -0.275 OA
BRANCH  68  70
ATOM     70  N   UNL A   1      33.386  25.372  22.465  1.00  0.00    -0.339 N 
ATOM     71  C   UNL A   1      32.614  25.603  21.231  1.00  0.00     0.141 C 
ATOM     72  C   UNL A   1      33.643  26.545  23.301  1.00  0.00     0.146 C 
ATOM     73  C   UNL A   1      31.350  26.466  21.466  1.00  0.00     0.143 C 
ATOM     74  C   UNL A   1      32.339  27.232  23.654  1.00  0.00     0.125 C 
ATOM     75  N   UNL A   1      31.567  27.508  22.454  1.00  0.00    -0.317 N 
ATOM     76  C   UNL A   1      32.482  28.613  24.281  1.00  0.00     0.144 C 
ATOM     77  C   UNL A   1      30.884  28.705  22.574  1.00  0.00     0.317 C 
ATOM     78  N   UNL A   1      31.378  29.341  23.708  1.00  0.00    -0.336 N 
ATOM     79  O   UNL A   1      30.021  29.141  21.841  1.00  0.00    -0.249 OA
ATOM     80  H   UNL A   1      31.020  30.182  24.073  1.00  0.00     0.165 HD
ENDBRANCH  68  70
ENDBRANCH  66  68
ENDBRANCH  59  62
ENDBRANCH  57  58
ENDBRANCH   1  57
TORSDOF 12
ENDMDL
MODEL 2
REMARK VINA RESULT:     -12.2      1.262      5.979
REMARK SMILES O=C(NCCCNC(=O)[C@@H]1CCC[C@@H](C(=O)N2CCN3C(=O)NC[C@@H]3C2)C1)c1ccc(-c2c3nc(c(-c4ccccc4)c4ccc([nH]4)c(-c4ccccc4)c4nc(c(-c5ccccc5)c5ccc2[nH]5)C=C4)C=C3)cc1
REMARK SMILES IDX 5 1 4 2 3 3 1 4 2 5 28 7 29 8 75 9 30 10 74 11 31 12 32 13
REMARK SMILES IDX 33 14 68 15 34 16 73 17 67 18 69 19 35 20 72 21 66 22 65 23
REMARK SMILES IDX 36 25 58 26 43 27 57 28 44 29 47 30 56 31 70 32 45 33 46 34
REMARK SMILES IDX 55 36 71 37 48 38 37 39 38 40 42 41 39 42 41 43 40 44 59 45
REMARK SMILES IDX 60 46 64 47 61 48 63 49 62 50 49 51 50 52 54 53 51 54 53 55
REMARK SMILES IDX 52 56 6 57 7 58 8 59 9 61 10 62 11 63 27 64 12 65 14 66
REMARK SMILES IDX 13 67 15 68 16 69 17 70 18 71 26 72 19 73 25 74 20 75 24 76
REMARK SMILES IDX 21 77 23 78 22 79
REMARK H PARENT 3 6 69 24 47 35 7 60 23 80
REMARK Flexibility Score: inf
ROOT
ATOM      1  C   UNL A   1      37.540  19.668  24.960  1.00  0.00     0.042 C 
ENDROOT
BRANCH   1   2
ATOM      2  C   UNL A   1      38.786  20.371  25.492  1.00  0.00     0.118 C 
BRANCH   2   3
ATOM      3  N   UNL A   1      39.844  19.416  25.784  1.00  0.00    -0.352 N 
ATOM      4  O   UNL A   1      41.969  18.721  26.000  1.00  0.00    -0.269 OA
ATOM      5  C   UNL A   1      41.157  19.634  26.105  1.00  0.00     0.251 C 
ATOM      6  H   UNL A   1      39.575  18.469  25.747  1.00  0.00     0.163 HD
BRANCH   5   7
ATOM      7  C   UNL A   1      41.595  20.959  26.588  1.00  0.00     0.039 A 
ATOM      8  C   UNL A   1      42.109  21.910  25.702  1.00  0.00     0.014 A 
ATOM      9  C   UNL A   1      41.405  21.280  27.935  1.00  0.00     0.014 A 
ATOM     10  C   UNL A   1      42.522  23.150  26.177  1.00  0.00     0.010 A 
ATOM     11  C   UNL A   1      41.752  22.549  28.396  1.00  0.00     0.010 A 
ATOM     12  C   UNL A   1      42.324  23.488  27.522  1.00  0.00    -0.014 A 
BRANCH  12  13
ATOM     13  C   UNL A   1      42.653  24.847  28.009  1.00  0.00     0.031 A 
ATOM     14  C   UNL A   1      44.046  25.184  28.446  1.00  0.00     0.074 A 
ATOM     15  C   UNL A   1      41.669  25.762  28.105  1.00  0.00     0.049 A 
ATOM     16  N   UNL A   1      44.495  26.281  28.997  1.00  0.00    -0.248 NA
ATOM     17  C   UNL A   1      45.067  24.144  28.248  1.00  0.00     0.031 C 
ATOM     18  C   UNL A   1      40.276  25.547  27.707  1.00  0.00     0.029 A 
ATOM     19  N   UNL A   1      41.686  27.046  28.583  1.00  0.00    -0.354 N 
ATOM     20  C   UNL A   1      45.843  26.055  29.240  1.00  0.00     0.074 A 
ATOM     21  C   UNL A   1      46.132  24.707  28.797  1.00  0.00     0.031 C 
ATOM     22  C   UNL A   1      39.574  26.664  27.952  1.00  0.00     0.029 A 
ATOM     23  C   UNL A   1      40.449  27.642  28.586  1.00  0.00     0.049 A 
ATOM     24  H   UNL A   1      42.505  27.497  28.895  1.00  0.00     0.167 HD
ATOM     25  C   UNL A   1      46.754  26.896  29.785  1.00  0.00     0.031 A 
ATOM     26  C   UNL A   1      40.051  28.828  29.081  1.00  0.00     0.031 A 
ATOM     27  C   UNL A   1      46.447  28.227  30.242  1.00  0.00     0.049 A 
ATOM     28  C   UNL A   1      41.062  29.723  29.733  1.00  0.00     0.074 A 
ATOM     29  C   UNL A   1      47.302  29.173  30.778  1.00  0.00     0.029 A 
ATOM     30  N   UNL A   1      45.179  28.792  30.233  1.00  0.00    -0.354 N 
ATOM     31  N   UNL A   1      42.344  29.516  29.921  1.00  0.00    -0.248 NA
ATOM     32  C   UNL A   1      40.578  31.014  30.239  1.00  0.00     0.031 C 
ATOM     33  C   UNL A   1      46.540  30.283  31.158  1.00  0.00     0.029 A 
ATOM     34  C   UNL A   1      45.223  30.061  30.785  1.00  0.00     0.049 A 
ATOM     35  H   UNL A   1      44.369  28.355  29.884  1.00  0.00     0.167 HD
ATOM     36  C   UNL A   1      42.827  30.662  30.537  1.00  0.00     0.074 A 
ATOM     37  C   UNL A   1      41.700  31.561  30.690  1.00  0.00     0.031 C 
ATOM     38  C   UNL A   1      44.093  30.945  30.929  1.00  0.00     0.031 A 
BRANCH  25  39
ATOM     39  C   UNL A   1      48.154  26.373  29.968  1.00  0.00    -0.014 A 
ATOM     40  C   UNL A   1      48.563  25.758  31.163  1.00  0.00     0.009 A 
ATOM     41  C   UNL A   1      49.082  26.499  28.922  1.00  0.00     0.009 A 
ATOM     42  C   UNL A   1      49.884  25.334  31.326  1.00  0.00     0.001 A 
ATOM     43  C   UNL A   1      50.392  26.042  29.074  1.00  0.00     0.001 A 
ATOM     44  C   UNL A   1      50.796  25.474  30.281  1.00  0.00     0.000 A 
ENDBRANCH  25  39
BRANCH  26  45
ATOM     45  C   UNL A   1      38.618  29.209  28.985  1.00  0.00    -0.014 A 
ATOM     46  C   UNL A   1      37.764  29.068  30.087  1.00  0.00     0.009 A 
ATOM     47  C   UNL A   1      38.114  29.775  27.802  1.00  0.00     0.009 A 
ATOM     48  C   UNL A   1      36.431  29.480  30.004  1.00  0.00     0.001 A 
ATOM     49  C   UNL A   1      36.790  30.213  27.732  1.00  0.00     0.001 A 
ATOM     50  C   UNL A   1      35.949  30.060  28.831  1.00  0.00     0.000 A 
ENDBRANCH  26  45
BRANCH  38  51
ATOM     51  C   UNL A   1      44.351  32.304  31.516  1.00  0.00    -0.014 A 
ATOM     52  C   UNL A   1      44.655  33.410  30.708  1.00  0.00     0.009 A 
ATOM     53  C   UNL A   1      44.202  32.491  32.900  1.00  0.00     0.009 A 
ATOM     54  C   UNL A   1      44.819  34.674  31.279  1.00  0.00     0.001 A 
ATOM     55  C   UNL A   1      44.337  33.761  33.463  1.00  0.00     0.001 A 
ATOM     56  C   UNL A   1      44.650  34.850  32.652  1.00  0.00     0.000 A 
ENDBRANCH  38  51
ENDBRANCH  12  13
ENDBRANCH   5   7
ENDBRANCH   2   3
ENDBRANCH   1   2
BRANCH   1  57
ATOM     57  C   UNL A   1      36.290  20.542  25.056  1.00  0.00     0.117 C 
BRANCH  57  58
ATOM     58  N   UNL A   1      35.095  19.723  25.069  1.00  0.00    -0.356 N 
ATOM     59  C   UNL A   1      33.780  20.060  25.038  1.00  0.00     0.223 C 
ATOM     60  H   UNL A   1      35.267  18.755  25.110  1.00  0.00     0.163 HD
ATOM     61  O   UNL A   1      32.970  19.146  25.221  1.00  0.00    -0.275 OA
BRANCH  59  62
ATOM     62  C   UNL A   1      33.295  21.468  24.705  1.00  0.00     0.079 C 
ATOM     63  C   UNL A   1      32.134  21.850  25.625  1.00  0.00     0.013 C 
ATOM     64  C   UNL A   1      33.001  21.747  23.225  1.00  0.00     0.027 C 
ATOM     65  C   UNL A   1      31.705  23.297  25.410  1.00  0.00     0.002 C 
ATOM     66  C   UNL A   1      32.454  23.162  22.958  1.00  0.00     0.079 C 
ATOM     67  C   UNL A   1      31.369  23.579  23.950  1.00  0.00     0.013 C 
BRANCH  66  68
ATOM     68  C   UNL A   1      33.650  24.107  22.903  1.00  0.00     0.225 C 
ATOM     69  O   UNL A   1      34.808  23.709  23.012  1.00  0.00    -0.275 OA
BRANCH  68  70
ATOM     70  N   UNL A   1      33.355  25.381  22.453  1.00  0.00    -0.339 N 
ATOM     71  C   UNL A   1      32.625  25.666  21.204  1.00  0.00     0.141 C 
ATOM     72  C   UNL A   1      33.598  26.519  23.339  1.00  0.00     0.146 C 
ATOM     73  C   UNL A   1      31.365  26.536  21.431  1.00  0.00     0.143 C 
ATOM     74  C   UNL A   1      32.291  27.210  23.675  1.00  0.00     0.125 C 
ATOM     75  N   UNL A   1      31.562  27.538  22.463  1.00  0.00    -0.317 N 
ATOM     76  C   UNL A   1      32.430  28.565  24.357  1.00  0.00     0.144 C 
ATOM     77  C   UNL A   1      30.889  28.739  22.605  1.00  0.00     0.317 C 
ATOM     78  N   UNL A   1      31.353  29.327  23.777  1.00  0.00    -0.336 N 
ATOM     79  O   UNL A   1      30.054  29.212  21.862  1.00  0.00    -0.249 OA
ATOM     80  H   UNL A   1      30.993  30.159  24.160  1.00  0.00     0.165 HD
ENDBRANCH  68  70
ENDBRANCH  66  68
ENDBRANCH  59  62
ENDBRANCH  57  58
ENDBRANCH   1  57
TORSDOF 12
ENDMDL
MODEL 3
REMARK VINA RESULT:     -12.1      4.478      9.932
REMARK SMILES O=C(NCCCNC(=O)[C@@H]1CCC[C@@H](C(=O)N2CCN3C(=O)NC[C@@H]3C2)C1)c1ccc(-c2c3nc(c(-c4ccccc4)c4ccc([nH]4)c(-c4ccccc4)c4nc(c(-c5ccccc5)c5ccc2[nH]5)C=C4)C=C3)cc1
REMARK SMILES IDX 5 1 4 2 3 3 1 4 2 5 28 7 29 8 75 9 30 10 74 11 31 12 32 13
REMARK SMILES IDX 33 14 68 15 34 16 73 17 67 18 69 19 35 20 72 21 66 22 65 23
REMARK SMILES IDX 36 25 58 26 43 27 57 28 44 29 47 30 56 31 70 32 45 33 46 34
REMARK SMILES IDX 55 36 71 37 48 38 37 39 38 40 42 41 39 42 41 43 40 44 59 45
REMARK SMILES IDX 60 46 64 47 61 48 63 49 62 50 49 51 50 52 54 53 51 54 53 55
REMARK SMILES IDX 52 56 6 57 7 58 8 59 9 61 10 62 11 63 27 64 12 65 14 66
REMARK SMILES IDX 13 67 15 68 16 69 17 70 18 71 26 72 19 73 25 74 20 75 24 76
REMARK SMILES IDX 21 77 23 78 22 79
REMARK H PARENT 3 6 69 24 47 35 7 60 23 80
REMARK Flexibility Score: inf
ROOT
ATOM      1  C   UNL A   1      31.371  31.796  26.487  1.00  0.00     0.042 C 
ENDROOT
BRANCH   1   2
ATOM      2  C   UNL A   1      32.616  32.332  27.187  1.00  0.00     0.118 C 
BRANCH   2   3
ATOM      3  N   UNL A   1      32.468  33.742  27.516  1.00  0.00    -0.352 N 
ATOM      4  O   UNL A   1      32.614  35.562  28.825  1.00  0.00    -0.269 OA
ATOM      5  C   UNL A   1      33.091  34.485  28.482  1.00  0.00     0.251 C 
ATOM      6  H   UNL A   1      31.824  34.236  26.960  1.00  0.00     0.163 HD
BRANCH   5   7
ATOM      7  C   UNL A   1      34.342  34.002  29.102  1.00  0.00     0.039 A 
ATOM      8  C   UNL A   1      34.309  33.184  30.236  1.00  0.00     0.014 A 
ATOM      9  C   UNL A   1      35.558  34.305  28.487  1.00  0.00     0.014 A 
ATOM     10  C   UNL A   1      35.497  32.743  30.809  1.00  0.00     0.010 A 
ATOM     11  C   UNL A   1      36.744  33.803  29.021  1.00  0.00     0.010 A 
ATOM     12  C   UNL A   1      36.722  33.029  30.192  1.00  0.00    -0.014 A 
BRANCH  12  13
ATOM     13  C   UNL A   1      37.981  32.466  30.732  1.00  0.00     0.031 A 
ATOM     14  C   UNL A   1      38.593  31.244  30.117  1.00  0.00     0.074 A 
ATOM     15  C   UNL A   1      38.538  33.035  31.816  1.00  0.00     0.049 A 
ATOM     16  N   UNL A   1      39.627  30.550  30.517  1.00  0.00    -0.248 NA
ATOM     17  C   UNL A   1      37.950  30.727  28.900  1.00  0.00     0.031 C 
ATOM     18  C   UNL A   1      38.032  34.230  32.497  1.00  0.00     0.029 A 
ATOM     19  N   UNL A   1      39.641  32.677  32.547  1.00  0.00    -0.354 N 
ATOM     20  C   UNL A   1      39.742  29.497  29.619  1.00  0.00     0.074 A 
ATOM     21  C   UNL A   1      38.659  29.632  28.669  1.00  0.00     0.031 C 
ATOM     22  C   UNL A   1      38.825  34.508  33.542  1.00  0.00     0.029 A 
ATOM     23  C   UNL A   1      39.850  33.475  33.645  1.00  0.00     0.049 A 
ATOM     24  H   UNL A   1      40.226  31.920  32.310  1.00  0.00     0.167 HD
ATOM     25  C   UNL A   1      40.668  28.508  29.594  1.00  0.00     0.031 A 
ATOM     26  C   UNL A   1      40.740  33.369  34.648  1.00  0.00     0.031 A 
ATOM     27  C   UNL A   1      41.727  28.374  30.560  1.00  0.00     0.049 A 
ATOM     28  C   UNL A   1      41.721  32.234  34.634  1.00  0.00     0.074 A 
ATOM     29  C   UNL A   1      42.737  27.430  30.607  1.00  0.00     0.029 A 
ATOM     30  N   UNL A   1      41.901  29.201  31.662  1.00  0.00    -0.354 N 
ATOM     31  N   UNL A   1      41.848  31.266  33.758  1.00  0.00    -0.248 NA
ATOM     32  C   UNL A   1      42.683  32.174  35.743  1.00  0.00     0.031 C 
ATOM     33  C   UNL A   1      43.479  27.643  31.774  1.00  0.00     0.029 A 
ATOM     34  C   UNL A   1      42.981  28.768  32.412  1.00  0.00     0.049 A 
ATOM     35  H   UNL A   1      41.340  29.981  31.877  1.00  0.00     0.167 HD
ATOM     36  C   UNL A   1      42.922  30.502  34.189  1.00  0.00     0.074 A 
ATOM     37  C   UNL A   1      43.413  31.119  35.406  1.00  0.00     0.031 C 
ATOM     38  C   UNL A   1      43.458  29.395  33.620  1.00  0.00     0.031 A 
BRANCH  25  39
ATOM     39  C   UNL A   1      40.533  27.464  28.518  1.00  0.00    -0.014 A 
ATOM     40  C   UNL A   1      41.163  27.602  27.271  1.00  0.00     0.009 A 
ATOM     41  C   UNL A   1      39.757  26.319  28.759  1.00  0.00     0.009 A 
ATOM     42  C   UNL A   1      40.974  26.646  26.271  1.00  0.00     0.001 A 
ATOM     43  C   UNL A   1      39.597  25.347  27.770  1.00  0.00     0.001 A 
ATOM     44  C   UNL A   1      40.193  25.518  26.522  1.00  0.00     0.000 A 
ENDBRANCH  25  39
BRANCH  26  45
ATOM     45  C   UNL A   1      40.713  34.365  35.750  1.00  0.00    -0.014 A 
ATOM     46  C   UNL A   1      41.450  35.553  35.660  1.00  0.00     0.009 A 
ATOM     47  C   UNL A   1      39.895  34.154  36.873  1.00  0.00     0.009 A 
ATOM     48  C   UNL A   1      41.375  36.508  36.677  1.00  0.00     0.001 A 
ATOM     49  C   UNL A   1      39.800  35.124  37.873  1.00  0.00     0.001 A 
ATOM     50  C   UNL A   1      40.543  36.297  37.777  1.00  0.00     0.000 A 
ENDBRANCH  26  45
BRANCH  38  51
ATOM     51  C   UNL A   1      44.675  28.799  34.271  1.00  0.00    -0.014 A 
ATOM     52  C   UNL A   1      45.969  29.248  33.964  1.00  0.00     0.009 A 
ATOM     53  C   UNL A   1      44.510  27.828  35.272  1.00  0.00     0.009 A 
ATOM     54  C   UNL A   1      47.074  28.724  34.638  1.00  0.00     0.001 A 
ATOM     55  C   UNL A   1      45.614  27.328  35.964  1.00  0.00     0.001 A 
ATOM     56  C   UNL A   1      46.895  27.773  35.644  1.00  0.00     0.000 A 
ENDBRANCH  38  51
ENDBRANCH  12  13
ENDBRANCH   5   7
ENDBRANCH   2   3
ENDBRANCH   1   2
BRANCH   1  57
ATOM     57  C   UNL A   1      31.615  30.448  25.809  1.00  0.00     0.117 C 
BRANCH  57  58
ATOM     58  N   UNL A   1      30.766  30.301  24.645  1.00  0.00    -0.356 N 
ATOM     59  C   UNL A   1      30.595  29.261  23.789  1.00  0.00     0.223 C 
ATOM     60  H   UNL A   1      30.220  31.094  24.438  1.00  0.00     0.163 HD
ATOM     61  O   UNL A   1      29.913  29.479  22.782  1.00  0.00    -0.275 OA
BRANCH  59  62
ATOM     62  C   UNL A   1      31.128  27.860  24.073  1.00  0.00     0.079 C 
ATOM     63  C   UNL A   1      32.238  27.513  23.079  1.00  0.00     0.013 C 
ATOM     64  C   UNL A   1      30.075  26.751  24.203  1.00  0.00     0.027 C 
ATOM     65  C   UNL A   1      32.883  26.172  23.409  1.00  0.00     0.002 C 
ATOM     66  C   UNL A   1      30.674  25.350  24.425  1.00  0.00     0.079 C 
ATOM     67  C   UNL A   1      31.853  25.052  23.500  1.00  0.00     0.013 C 
BRANCH  66  68
ATOM     68  C   UNL A   1      30.995  25.225  25.911  1.00  0.00     0.225 C 
ATOM     69  O   UNL A   1      30.672  26.085  26.728  1.00  0.00    -0.275 OA
BRANCH  68  70
ATOM     70  N   UNL A   1      31.422  23.970  26.302  1.00  0.00    -0.339 N 
ATOM     71  C   UNL A   1      30.673  22.726  26.045  1.00  0.00     0.141 C 
ATOM     72  C   UNL A   1      32.777  23.815  26.831  1.00  0.00     0.146 C 
ATOM     73  C   UNL A   1      31.506  21.672  25.276  1.00  0.00     0.143 C 
ATOM     74  C   UNL A   1      33.596  22.922  25.920  1.00  0.00     0.125 C 
ATOM     75  N   UNL A   1      32.901  21.671  25.674  1.00  0.00    -0.317 N 
ATOM     76  C   UNL A   1      34.928  22.457  26.494  1.00  0.00     0.144 C 
ATOM     77  C   UNL A   1      33.799  20.621  25.581  1.00  0.00     0.317 C 
ATOM     78  N   UNL A   1      35.033  21.105  26.004  1.00  0.00    -0.336 N 
ATOM     79  O   UNL A   1      33.576  19.488  25.210  1.00  0.00    -0.249 OA
ATOM     80  H   UNL A   1      35.870  20.590  25.974  1.00  0.00     0.165 HD
ENDBRANCH  68  70
ENDBRANCH  66  68
ENDBRANCH  59  62
ENDBRANCH  57  58
ENDBRANCH   1  57
TORSDOF 12
ENDMDL
