MODEL 1
REMARK VINA RESULT:     -10.3      0.000      0.000
REMARK SMILES C[C@@H](CC(=O)NCCCNC(=O)c1ccc(-c2c3nc(c(-c4ccccc4)c4ccc([nH]4)c(-c4ccccc4)c4nc(c(-c5ccccc5)c5ccc2[nH]5)C=C4)C=C3)cc1)CC(=O)N1C[C@H](C)[C@@H](C)C1
REMARK SMILES IDX 7 1 6 2 4 3 5 4 3 6 2 7 1 8 61 9 62 10 63 11 64 12 65 13
REMARK SMILES IDX 70 14 66 15 68 16 67 17 69 18 8 19 9 20 10 21 11 22 12 24
REMARK SMILES IDX 13 25 14 26 60 27 15 28 59 29 16 30 17 31 18 32 53 33 19 34
REMARK SMILES IDX 58 35 52 36 54 37 20 38 57 39 51 40 50 41 21 43 43 44 28 45
REMARK SMILES IDX 42 46 29 47 32 48 41 49 55 50 30 51 31 52 40 54 56 55 33 56
REMARK SMILES IDX 22 57 23 58 27 59 24 60 26 61 25 62 44 63 45 64 49 65 46 66
REMARK SMILES IDX 48 67 47 68 34 69 35 70 39 71 36 72 38 73 37 74
REMARK H PARENT 6 5 10 23 54 42 32 53
REMARK Flexibility Score: inf
ROOT
ATOM      1  C   UNL A   1      35.812  20.343  24.983  1.00  0.00     0.117 C 
ENDROOT
BRANCH   1   2
ATOM      2  N   UNL A   1      34.640  19.536  25.269  1.00  0.00    -0.356 N 
ATOM      3  C   UNL A   1      33.329  19.731  24.962  1.00  0.00     0.220 C 
ATOM      4  O   UNL A   1      32.514  18.898  25.365  1.00  0.00    -0.275 OA
ATOM      5  H   UNL A   1      34.824  18.707  25.770  1.00  0.00     0.163 HD
BRANCH   3   6
ATOM      6  C   UNL A   1      32.875  20.937  24.155  1.00  0.00     0.103 C 
BRANCH   6   7
ATOM      7  C   UNL A   1      32.693  22.279  24.913  1.00  0.00     0.004 C 
ATOM      8  C   UNL A   1      31.342  22.297  25.625  1.00  0.00     0.009 C 
BRANCH   7   9
ATOM      9  C   UNL A   1      32.956  23.505  24.029  1.00  0.00     0.104 C 
BRANCH   9  10
ATOM     10  C   UNL A   1      33.749  24.657  24.625  1.00  0.00     0.222 C 
ATOM     11  O   UNL A   1      34.936  24.537  24.922  1.00  0.00    -0.275 OA
ATOM     12  N   UNL A   1      33.089  25.875  24.637  1.00  0.00    -0.342 N 
ATOM     13  C   UNL A   1      33.784  27.106  24.302  1.00  0.00     0.123 C 
ATOM     14  C   UNL A   1      31.958  26.138  25.512  1.00  0.00     0.123 C 
ATOM     15  C   UNL A   1      33.197  28.175  25.225  1.00  0.00     0.010 C 
ATOM     16  C   UNL A   1      31.778  27.656  25.518  1.00  0.00     0.010 C 
ATOM     17  C   UNL A   1      34.035  28.295  26.497  1.00  0.00     0.010 C 
ATOM     18  C   UNL A   1      30.758  28.099  24.468  1.00  0.00     0.010 C 
ENDBRANCH   9  10
ENDBRANCH   7   9
ENDBRANCH   6   7
ENDBRANCH   3   6
ENDBRANCH   1   2
BRANCH   1  19
ATOM     19  C   UNL A   1      37.092  19.510  24.963  1.00  0.00     0.042 C 
BRANCH  19  20
ATOM     20  C   UNL A   1      38.377  20.281  25.247  1.00  0.00     0.118 C 
BRANCH  20  21
ATOM     21  N   UNL A   1      39.497  19.396  25.506  1.00  0.00    -0.352 N 
ATOM     22  C   UNL A   1      40.748  19.651  26.010  1.00  0.00     0.251 C 
ATOM     23  H   UNL A   1      39.332  18.452  25.282  1.00  0.00     0.163 HD
ATOM     24  O   UNL A   1      41.597  18.765  25.941  1.00  0.00    -0.269 OA
BRANCH  22  25
ATOM     25  C   UNL A   1      41.112  20.956  26.620  1.00  0.00     0.039 A 
ATOM     26  C   UNL A   1      41.540  21.981  25.767  1.00  0.00     0.014 A 
ATOM     27  C   UNL A   1      41.131  21.170  28.001  1.00  0.00     0.014 A 
ATOM     28  C   UNL A   1      41.949  23.212  26.286  1.00  0.00     0.010 A 
ATOM     29  C   UNL A   1      41.477  22.424  28.518  1.00  0.00     0.010 A 
ATOM     30  C   UNL A   1      41.903  23.456  27.667  1.00  0.00    -0.014 A 
BRANCH  30  31
ATOM     31  C   UNL A   1      42.293  24.783  28.211  1.00  0.00     0.031 A 
ATOM     32  C   UNL A   1      43.718  25.082  28.592  1.00  0.00     0.074 A 
ATOM     33  C   UNL A   1      41.349  25.728  28.394  1.00  0.00     0.049 A 
ATOM     34  N   UNL A   1      44.234  26.199  29.046  1.00  0.00    -0.248 NA
ATOM     35  C   UNL A   1      44.685  23.982  28.470  1.00  0.00     0.031 C 
ATOM     36  C   UNL A   1      39.920  25.558  28.126  1.00  0.00     0.029 A 
ATOM     37  N   UNL A   1      41.452  27.018  28.849  1.00  0.00    -0.354 N 
ATOM     38  C   UNL A   1      45.576  25.930  29.282  1.00  0.00     0.074 A 
ATOM     39  C   UNL A   1      45.787  24.535  28.958  1.00  0.00     0.031 C 
ATOM     40  C   UNL A   1      39.283  26.707  28.399  1.00  0.00     0.029 A 
ATOM     41  C   UNL A   1      40.253  27.687  28.877  1.00  0.00     0.049 A 
ATOM     42  H   UNL A   1      42.304  27.426  29.129  1.00  0.00     0.167 HD
ATOM     43  C   UNL A   1      46.551  26.766  29.715  1.00  0.00     0.031 A 
ATOM     44  C   UNL A   1      39.962  28.951  29.240  1.00  0.00     0.031 A 
ATOM     45  C   UNL A   1      46.355  28.159  30.024  1.00  0.00     0.049 A 
ATOM     46  C   UNL A   1      41.063  29.873  29.674  1.00  0.00     0.074 A 
ATOM     47  C   UNL A   1      47.301  29.104  30.387  1.00  0.00     0.029 A 
ATOM     48  N   UNL A   1      45.130  28.805  30.015  1.00  0.00    -0.354 N 
ATOM     49  N   UNL A   1      42.344  29.627  29.798  1.00  0.00    -0.248 NA
ATOM     50  C   UNL A   1      40.678  31.254  29.999  1.00  0.00     0.031 C 
ATOM     51  C   UNL A   1      46.640  30.312  30.642  1.00  0.00     0.029 A 
ATOM     52  C   UNL A   1      45.289  30.129  30.393  1.00  0.00     0.049 A 
ATOM     53  H   UNL A   1      44.272  28.385  29.776  1.00  0.00     0.167 HD
ATOM     54  C   UNL A   1      42.920  30.823  30.206  1.00  0.00     0.074 A 
ATOM     55  C   UNL A   1      41.853  31.799  30.284  1.00  0.00     0.031 C 
ATOM     56  C   UNL A   1      44.219  31.087  30.491  1.00  0.00     0.031 A 
BRANCH  43  57
ATOM     57  C   UNL A   1      47.926  26.186  29.895  1.00  0.00    -0.014 A 
ATOM     58  C   UNL A   1      48.807  26.046  28.810  1.00  0.00     0.009 A 
ATOM     59  C   UNL A   1      48.356  25.794  31.173  1.00  0.00     0.009 A 
ATOM     60  C   UNL A   1      50.073  25.487  28.995  1.00  0.00     0.001 A 
ATOM     61  C   UNL A   1      49.633  25.260  31.358  1.00  0.00     0.001 A 
ATOM     62  C   UNL A   1      50.486  25.096  30.268  1.00  0.00     0.000 A 
ENDBRANCH  43  57
BRANCH  44  63
ATOM     63  C   UNL A   1      38.556  29.423  29.177  1.00  0.00    -0.014 A 
ATOM     64  C   UNL A   1      38.038  29.962  27.991  1.00  0.00     0.009 A 
ATOM     65  C   UNL A   1      37.720  29.311  30.298  1.00  0.00     0.009 A 
ATOM     66  C   UNL A   1      36.712  30.396  27.933  1.00  0.00     0.001 A 
ATOM     67  C   UNL A   1      36.388  29.723  30.230  1.00  0.00     0.001 A 
ATOM     68  C   UNL A   1      35.887  30.270  29.050  1.00  0.00     0.000 A 
ENDBRANCH  44  63
BRANCH  56  69
ATOM     69  C   UNL A   1      44.551  32.489  30.916  1.00  0.00    -0.014 A 
ATOM     70  C   UNL A   1      44.545  32.855  32.271  1.00  0.00     0.009 A 
ATOM     71  C   UNL A   1      44.886  33.452  29.951  1.00  0.00     0.009 A 
ATOM     72  C   UNL A   1      44.831  34.169  32.648  1.00  0.00     0.001 A 
ATOM     73  C   UNL A   1      45.195  34.758  30.333  1.00  0.00     0.001 A 
ATOM     74  C   UNL A   1      45.159  35.119  31.680  1.00  0.00     0.000 A 
ENDBRANCH  56  69
ENDBRANCH  30  31
ENDBRANCH  22  25
ENDBRANCH  20  21
ENDBRANCH  19  20
ENDBRANCH   1  19
TORSDOF 13
ENDMDL
MODEL 2
REMARK VINA RESULT:     -10.2      4.152      9.887
REMARK SMILES C[C@@H](CC(=O)NCCCNC(=O)c1ccc(-c2c3nc(c(-c4ccccc4)c4ccc([nH]4)c(-c4ccccc4)c4nc(c(-c5ccccc5)c5ccc2[nH]5)C=C4)C=C3)cc1)CC(=O)N1C[C@H](C)[C@@H](C)C1
REMARK SMILES IDX 7 1 6 2 4 3 5 4 3 6 2 7 1 8 61 9 62 10 63 11 64 12 65 13
REMARK SMILES IDX 70 14 66 15 68 16 67 17 69 18 8 19 9 20 10 21 11 22 12 24
REMARK SMILES IDX 13 25 14 26 60 27 15 28 59 29 16 30 17 31 18 32 53 33 19 34
REMARK SMILES IDX 58 35 52 36 54 37 20 38 57 39 51 40 50 41 21 43 43 44 28 45
REMARK SMILES IDX 42 46 29 47 32 48 41 49 55 50 30 51 31 52 40 54 56 55 33 56
REMARK SMILES IDX 22 57 23 58 27 59 24 60 26 61 25 62 44 63 45 64 49 65 46 66
REMARK SMILES IDX 48 67 47 68 34 69 35 70 39 71 36 72 38 73 37 74
REMARK H PARENT 6 5 10 23 54 42 32 53
REMARK Flexibility Score: inf
ROOT
ATOM      1  C   UNL A   1      34.547  35.503  28.410  1.00  0.00     0.117 C 
ENDROOT
BRANCH   1   2
ATOM      2  N   UNL A   1      33.325  35.999  29.014  1.00  0.00    -0.356 N 
ATOM      3  C   UNL A   1      32.901  35.981  30.307  1.00  0.00     0.220 C 
ATOM      4  O   UNL A   1      31.784  36.441  30.551  1.00  0.00    -0.275 OA
ATOM      5  H   UNL A   1      32.696  36.419  28.382  1.00  0.00     0.163 HD
BRANCH   3   6
ATOM      6  C   UNL A   1      33.768  35.410  31.417  1.00  0.00     0.103 C 
BRANCH   6   7
ATOM      7  C   UNL A   1      33.796  36.171  32.768  1.00  0.00     0.004 C 
ATOM      8  C   UNL A   1      33.987  37.666  32.521  1.00  0.00     0.009 C 
BRANCH   7   9
ATOM      9  C   UNL A   1      34.784  35.568  33.775  1.00  0.00     0.104 C 
BRANCH   9  10
ATOM     10  C   UNL A   1      35.177  34.109  33.603  1.00  0.00     0.222 C 
ATOM     11  O   UNL A   1      34.455  33.196  33.997  1.00  0.00    -0.275 OA
ATOM     12  N   UNL A   1      36.303  33.897  32.825  1.00  0.00    -0.342 N 
ATOM     13  C   UNL A   1      36.353  32.810  31.862  1.00  0.00     0.123 C 
ATOM     14  C   UNL A   1      37.638  34.253  33.274  1.00  0.00     0.123 C 
ATOM     15  C   UNL A   1      37.791  32.291  31.899  1.00  0.00     0.010 C 
ATOM     16  C   UNL A   1      38.604  33.520  32.344  1.00  0.00     0.010 C 
ATOM     17  C   UNL A   1      37.912  31.136  32.893  1.00  0.00     0.010 C 
ATOM     18  C   UNL A   1      39.026  34.405  31.171  1.00  0.00     0.010 C 
ENDBRANCH   9  10
ENDBRANCH   7   9
ENDBRANCH   6   7
ENDBRANCH   3   6
ENDBRANCH   1   2
BRANCH   1  19
ATOM     19  C   UNL A   1      34.352  34.136  27.756  1.00  0.00     0.042 C 
BRANCH  19  20
ATOM     20  C   UNL A   1      34.888  32.950  28.550  1.00  0.00     0.118 C 
BRANCH  20  21
ATOM     21  N   UNL A   1      34.125  31.740  28.302  1.00  0.00    -0.352 N 
ATOM     22  C   UNL A   1      34.533  30.451  28.070  1.00  0.00     0.251 C 
ATOM     23  H   UNL A   1      33.149  31.866  28.299  1.00  0.00     0.163 HD
ATOM     24  O   UNL A   1      33.701  29.636  27.679  1.00  0.00    -0.269 OA
BRANCH  22  25
ATOM     25  C   UNL A   1      35.940  30.012  28.262  1.00  0.00     0.039 A 
ATOM     26  C   UNL A   1      36.304  29.510  29.518  1.00  0.00     0.014 A 
ATOM     27  C   UNL A   1      36.924  30.164  27.280  1.00  0.00     0.014 A 
ATOM     28  C   UNL A   1      37.625  29.133  29.776  1.00  0.00     0.010 A 
ATOM     29  C   UNL A   1      38.232  29.725  27.516  1.00  0.00     0.010 A 
ATOM     30  C   UNL A   1      38.601  29.217  28.771  1.00  0.00    -0.014 A 
BRANCH  30  31
ATOM     31  C   UNL A   1      39.994  28.770  29.036  1.00  0.00     0.031 A 
ATOM     32  C   UNL A   1      40.463  27.397  28.633  1.00  0.00     0.074 A 
ATOM     33  C   UNL A   1      40.845  29.598  29.675  1.00  0.00     0.049 A 
ATOM     34  N   UNL A   1      41.654  26.863  28.758  1.00  0.00    -0.248 NA
ATOM     35  C   UNL A   1      39.463  26.501  28.036  1.00  0.00     0.031 C 
ATOM     36  C   UNL A   1      40.511  30.932  30.176  1.00  0.00     0.029 A 
ATOM     37  N   UNL A   1      42.165  29.435  30.011  1.00  0.00    -0.354 N 
ATOM     38  C   UNL A   1      41.541  25.566  28.274  1.00  0.00     0.074 A 
ATOM     39  C   UNL A   1      40.158  25.380  27.890  1.00  0.00     0.031 C 
ATOM     40  C   UNL A   1      41.603  31.476  30.734  1.00  0.00     0.029 A 
ATOM     41  C   UNL A   1      42.706  30.525  30.647  1.00  0.00     0.049 A 
ATOM     42  H   UNL A   1      42.676  28.616  29.814  1.00  0.00     0.167 HD
ATOM     43  C   UNL A   1      42.500  24.616  28.146  1.00  0.00     0.031 A 
ATOM     44  C   UNL A   1      43.954  30.744  31.106  1.00  0.00     0.031 A 
ATOM     45  C   UNL A   1      43.882  24.796  28.510  1.00  0.00     0.049 A 
ATOM     46  C   UNL A   1      45.011  29.696  30.914  1.00  0.00     0.074 A 
ATOM     47  C   UNL A   1      44.941  23.921  28.336  1.00  0.00     0.029 A 
ATOM     48  N   UNL A   1      44.396  25.924  29.128  1.00  0.00    -0.354 N 
ATOM     49  N   UNL A   1      44.908  28.510  30.365  1.00  0.00    -0.248 NA
ATOM     50  C   UNL A   1      46.362  30.028  31.389  1.00  0.00     0.031 C 
ATOM     51  C   UNL A   1      46.088  24.502  28.891  1.00  0.00     0.029 A 
ATOM     52  C   UNL A   1      45.750  25.758  29.369  1.00  0.00     0.049 A 
ATOM     53  H   UNL A   1      43.874  26.726  29.362  1.00  0.00     0.167 HD
ATOM     54  C   UNL A   1      46.181  27.958  30.419  1.00  0.00     0.074 A 
ATOM     55  C   UNL A   1      47.044  28.948  31.031  1.00  0.00     0.031 C 
ATOM     56  C   UNL A   1      46.595  26.738  29.999  1.00  0.00     0.031 A 
BRANCH  43  57
ATOM     57  C   UNL A   1      42.079  23.281  27.598  1.00  0.00    -0.014 A 
ATOM     58  C   UNL A   1      42.155  22.999  26.225  1.00  0.00     0.009 A 
ATOM     59  C   UNL A   1      41.619  22.283  28.471  1.00  0.00     0.009 A 
ATOM     60  C   UNL A   1      41.741  21.759  25.733  1.00  0.00     0.001 A 
ATOM     61  C   UNL A   1      41.230  21.035  27.979  1.00  0.00     0.001 A 
ATOM     62  C   UNL A   1      41.281  20.779  26.610  1.00  0.00     0.000 A 
ENDBRANCH  43  57
BRANCH  44  63
ATOM     63  C   UNL A   1      44.272  32.032  31.771  1.00  0.00    -0.014 A 
ATOM     64  C   UNL A   1      44.155  32.163  33.162  1.00  0.00     0.009 A 
ATOM     65  C   UNL A   1      44.718  33.128  31.016  1.00  0.00     0.009 A 
ATOM     66  C   UNL A   1      44.464  33.374  33.784  1.00  0.00     0.001 A 
ATOM     67  C   UNL A   1      45.049  34.330  31.644  1.00  0.00     0.001 A 
ATOM     68  C   UNL A   1      44.916  34.454  33.026  1.00  0.00     0.000 A 
ENDBRANCH  44  63
BRANCH  56  69
ATOM     69  C   UNL A   1      48.049  26.410  30.192  1.00  0.00    -0.014 A 
ATOM     70  C   UNL A   1      48.991  26.680  29.187  1.00  0.00     0.009 A 
ATOM     71  C   UNL A   1      48.483  25.838  31.398  1.00  0.00     0.009 A 
ATOM     72  C   UNL A   1      50.335  26.347  29.372  1.00  0.00     0.001 A 
ATOM     73  C   UNL A   1      49.831  25.529  31.589  1.00  0.00     0.001 A 
ATOM     74  C   UNL A   1      50.754  25.775  30.573  1.00  0.00     0.000 A 
ENDBRANCH  56  69
ENDBRANCH  30  31
ENDBRANCH  22  25
ENDBRANCH  20  21
ENDBRANCH  19  20
ENDBRANCH   1  19
TORSDOF 13
ENDMDL
MODEL 3
REMARK VINA RESULT:     -10.2      1.186      6.355
REMARK SMILES C[C@@H](CC(=O)NCCCNC(=O)c1ccc(-c2c3nc(c(-c4ccccc4)c4ccc([nH]4)c(-c4ccccc4)c4nc(c(-c5ccccc5)c5ccc2[nH]5)C=C4)C=C3)cc1)CC(=O)N1C[C@H](C)[C@@H](C)C1
REMARK SMILES IDX 7 1 6 2 4 3 5 4 3 6 2 7 1 8 61 9 62 10 63 11 64 12 65 13
REMARK SMILES IDX 70 14 66 15 68 16 67 17 69 18 8 19 9 20 10 21 11 22 12 24
REMARK SMILES IDX 13 25 14 26 60 27 15 28 59 29 16 30 17 31 18 32 53 33 19 34
REMARK SMILES IDX 58 35 52 36 54 37 20 38 57 39 51 40 50 41 21 43 43 44 28 45
REMARK SMILES IDX 42 46 29 47 32 48 41 49 55 50 30 51 31 52 40 54 56 55 33 56
REMARK SMILES IDX 22 57 23 58 27 59 24 60 26 61 25 62 44 63 45 64 49 65 46 66
REMARK SMILES IDX 48 67 47 68 34 69 35 70 39 71 36 72 38 73 37 74
REMARK H PARENT 6 5 10 23 54 42 32 53
REMARK Flexibility Score: inf
ROOT
ATOM      1  C   UNL A   1      36.198  20.280  24.829  1.00  0.00     0.117 C 
ENDROOT
BRANCH   1   2
ATOM      2  N   UNL A   1      34.994  19.504  25.066  1.00  0.00    -0.356 N 
ATOM      3  C   UNL A   1      33.684  19.872  25.063  1.00  0.00     0.220 C 
ATOM      4  O   UNL A   1      32.846  19.011  25.340  1.00  0.00    -0.275 OA
ATOM      5  H   UNL A   1      35.153  18.552  25.263  1.00  0.00     0.163 HD
BRANCH   3   6
ATOM      6  C   UNL A   1      33.261  21.295  24.737  1.00  0.00     0.103 C 
BRANCH   6   7
ATOM      7  C   UNL A   1      32.864  22.214  25.921  1.00  0.00     0.004 C 
ATOM      8  C   UNL A   1      33.589  21.771  27.191  1.00  0.00     0.009 C 
BRANCH   7   9
ATOM      9  C   UNL A   1      31.346  22.361  26.083  1.00  0.00     0.104 C 
BRANCH   9  10
ATOM     10  C   UNL A   1      30.744  23.749  25.939  1.00  0.00     0.222 C 
ATOM     11  O   UNL A   1      30.019  24.231  26.807  1.00  0.00    -0.275 OA
ATOM     12  N   UNL A   1      31.215  24.479  24.860  1.00  0.00    -0.342 N 
ATOM     13  C   UNL A   1      31.510  25.896  24.988  1.00  0.00     0.123 C 
ATOM     14  C   UNL A   1      30.881  24.141  23.487  1.00  0.00     0.123 C 
ATOM     15  C   UNL A   1      31.096  26.526  23.657  1.00  0.00     0.010 C 
ATOM     16  C   UNL A   1      31.242  25.370  22.652  1.00  0.00     0.010 C 
ATOM     17  C   UNL A   1      29.657  27.034  23.737  1.00  0.00     0.010 C 
ATOM     18  C   UNL A   1      32.656  25.258  22.081  1.00  0.00     0.010 C 
ENDBRANCH   9  10
ENDBRANCH   7   9
ENDBRANCH   6   7
ENDBRANCH   3   6
ENDBRANCH   1   2
BRANCH   1  19
ATOM     19  C   UNL A   1      37.464  19.444  25.002  1.00  0.00     0.042 C 
BRANCH  19  20
ATOM     20  C   UNL A   1      38.691  20.209  25.489  1.00  0.00     0.118 C 
BRANCH  20  21
ATOM     21  N   UNL A   1      39.829  19.334  25.701  1.00  0.00    -0.352 N 
ATOM     22  C   UNL A   1      41.119  19.611  26.077  1.00  0.00     0.251 C 
ATOM     23  H   UNL A   1      39.644  18.379  25.549  1.00  0.00     0.163 HD
ATOM     24  O   UNL A   1      41.959  18.719  25.986  1.00  0.00    -0.269 OA
BRANCH  22  25
ATOM     25  C   UNL A   1      41.536  20.949  26.574  1.00  0.00     0.039 A 
ATOM     26  C   UNL A   1      41.406  21.208  27.943  1.00  0.00     0.014 A 
ATOM     27  C   UNL A   1      41.962  21.975  25.725  1.00  0.00     0.014 A 
ATOM     28  C   UNL A   1      41.729  22.465  28.461  1.00  0.00     0.010 A 
ATOM     29  C   UNL A   1      42.349  23.213  26.252  1.00  0.00     0.010 A 
ATOM     30  C   UNL A   1      42.225  23.477  27.624  1.00  0.00    -0.014 A 
BRANCH  30  31
ATOM     31  C   UNL A   1      42.613  24.797  28.188  1.00  0.00     0.031 A 
ATOM     32  C   UNL A   1      41.587  25.869  28.440  1.00  0.00     0.074 A 
ATOM     33  C   UNL A   1      43.911  25.049  28.449  1.00  0.00     0.049 A 
ATOM     34  N   UNL A   1      41.752  27.062  28.961  1.00  0.00    -0.248 NA
ATOM     35  C   UNL A   1      40.205  25.576  28.038  1.00  0.00     0.031 C 
ATOM     36  C   UNL A   1      45.019  24.127  28.198  1.00  0.00     0.029 A 
ATOM     37  N   UNL A   1      44.514  26.160  28.985  1.00  0.00    -0.354 N 
ATOM     38  C   UNL A   1      40.501  27.666  28.929  1.00  0.00     0.074 A 
ATOM     39  C   UNL A   1      39.596  26.725  28.304  1.00  0.00     0.031 C 
ATOM     40  C   UNL A   1      46.165  24.699  28.601  1.00  0.00     0.029 A 
ATOM     41  C   UNL A   1      45.875  26.032  29.120  1.00  0.00     0.049 A 
ATOM     42  H   UNL A   1      44.020  26.970  29.248  1.00  0.00     0.167 HD
ATOM     43  C   UNL A   1      40.131  28.887  29.388  1.00  0.00     0.031 A 
ATOM     44  C   UNL A   1      46.792  26.886  29.613  1.00  0.00     0.031 A 
ATOM     45  C   UNL A   1      41.020  29.824  30.027  1.00  0.00     0.049 A 
ATOM     46  C   UNL A   1      46.355  28.214  30.158  1.00  0.00     0.074 A 
ATOM     47  C   UNL A   1      40.716  31.046  30.601  1.00  0.00     0.029 A 
ATOM     48  N   UNL A   1      42.386  29.646  30.167  1.00  0.00    -0.354 N 
ATOM     49  N   UNL A   1      45.151  28.730  30.207  1.00  0.00    -0.248 NA
ATOM     50  C   UNL A   1      47.403  29.070  30.731  1.00  0.00     0.031 C 
ATOM     51  C   UNL A   1      41.908  31.630  31.049  1.00  0.00     0.029 A 
ATOM     52  C   UNL A   1      42.946  30.748  30.793  1.00  0.00     0.049 A 
ATOM     53  H   UNL A   1      42.886  28.853  29.866  1.00  0.00     0.167 HD
ATOM     54  C   UNL A   1      45.294  29.964  30.826  1.00  0.00     0.074 A 
ATOM     55  C   UNL A   1      46.697  30.110  31.155  1.00  0.00     0.031 C 
ATOM     56  C   UNL A   1      44.345  30.894  31.096  1.00  0.00     0.031 A 
BRANCH  43  57
ATOM     57  C   UNL A   1      38.694  29.286  29.202  1.00  0.00    -0.014 A 
ATOM     58  C   UNL A   1      37.757  29.146  30.240  1.00  0.00     0.009 A 
ATOM     59  C   UNL A   1      38.274  29.831  27.979  1.00  0.00     0.009 A 
ATOM     60  C   UNL A   1      36.423  29.504  30.041  1.00  0.00     0.001 A 
ATOM     61  C   UNL A   1      36.944  30.213  27.792  1.00  0.00     0.001 A 
ATOM     62  C   UNL A   1      36.017  30.039  28.819  1.00  0.00     0.000 A 
ENDBRANCH  43  57
BRANCH  44  63
ATOM     63  C   UNL A   1      48.222  26.489  29.636  1.00  0.00    -0.014 A 
ATOM     64  C   UNL A   1      48.748  25.787  30.730  1.00  0.00     0.009 A 
ATOM     65  C   UNL A   1      49.059  26.789  28.551  1.00  0.00     0.009 A 
ATOM     66  C   UNL A   1      50.091  25.407  30.744  1.00  0.00     0.001 A 
ATOM     67  C   UNL A   1      50.396  26.386  28.557  1.00  0.00     0.001 A 
ATOM     68  C   UNL A   1      50.912  25.701  29.656  1.00  0.00     0.000 A 
ENDBRANCH  44  63
BRANCH  56  69
ATOM     69  C   UNL A   1      44.802  32.152  31.780  1.00  0.00    -0.014 A 
ATOM     70  C   UNL A   1      45.204  33.274  31.038  1.00  0.00     0.009 A 
ATOM     71  C   UNL A   1      44.817  32.220  33.182  1.00  0.00     0.009 A 
ATOM     72  C   UNL A   1      45.649  34.427  31.688  1.00  0.00     0.001 A 
ATOM     73  C   UNL A   1      45.240  33.383  33.828  1.00  0.00     0.001 A 
ATOM     74  C   UNL A   1      45.664  34.482  33.082  1.00  0.00     0.000 A 
ENDBRANCH  56  69
ENDBRANCH  30  31
ENDBRANCH  22  25
ENDBRANCH  20  21
ENDBRANCH  19  20
ENDBRANCH   1  19
TORSDOF 13
ENDMDL
