MODEL 1
REMARK VINA RESULT:     -11.3      0.000      0.000
REMARK SMILES C[C@@H](C(=O)NCCCNC(=O)c1ccc(-c2c3nc(c(-c4ccccc4)c4ccc([nH]4)c(-c4ccccc4)c4nc(c(-c5ccccc5)c5ccc2[nH]5)C=C4)C=C3)cc1)c1cc(/C=C/S(C)(=O)=O)cc(C(=O)c2ccccc2)c1
REMARK SMILES IDX 6 1 5 2 3 3 4 4 2 6 1 7 60 8 61 9 79 10 62 11 70 12 69 13
REMARK SMILES IDX 63 14 64 15 65 16 66 17 67 18 68 19 71 20 72 21 73 22 74 23
REMARK SMILES IDX 78 24 75 25 77 26 76 27 7 28 8 29 9 30 10 31 11 33 12 34
REMARK SMILES IDX 13 35 59 36 14 37 58 38 15 39 16 40 17 41 52 42 18 43 57 44
REMARK SMILES IDX 51 45 53 46 19 47 56 48 50 49 49 50 20 52 42 53 27 54 41 55
REMARK SMILES IDX 28 56 31 57 40 58 54 59 29 60 30 61 39 63 55 64 32 65 21 66
REMARK SMILES IDX 22 67 26 68 23 69 25 70 24 71 43 72 44 73 48 74 45 75 47 76
REMARK SMILES IDX 46 77 33 78 34 79 38 80 35 81 37 82 36 83
REMARK H PARENT 5 5 9 32 53 51 31 62
REMARK Flexibility Score: inf
ROOT
ATOM      1  C   UNL A   1      34.876  23.570  24.125  1.00  0.00     0.117 C 
ENDROOT
BRANCH   1   2
ATOM      2  N   UNL A   1      34.559  24.453  23.020  1.00  0.00    -0.356 N 
ATOM      3  C   UNL A   1      33.383  25.039  22.664  1.00  0.00     0.227 C 
ATOM      4  O   UNL A   1      33.407  25.731  21.644  1.00  0.00    -0.274 OA
ATOM      5  H   UNL A   1      35.319  24.663  22.431  1.00  0.00     0.163 HD
BRANCH   3   6
ATOM      6  C   UNL A   1      32.131  24.851  23.538  1.00  0.00     0.105 C 
ATOM      7  C   UNL A   1      30.953  24.239  22.771  1.00  0.00     0.023 C 
BRANCH   6   8
ATOM      8  C   UNL A   1      31.615  26.138  24.174  1.00  0.00    -0.035 A 
ATOM      9  C   UNL A   1      30.797  27.006  23.436  1.00  0.00     0.012 A 
ATOM     10  C   UNL A   1      32.068  26.549  25.433  1.00  0.00     0.016 A 
ATOM     11  C   UNL A   1      30.457  28.280  23.918  1.00  0.00    -0.024 A 
ATOM     12  C   UNL A   1      31.761  27.816  25.933  1.00  0.00     0.023 A 
ATOM     13  C   UNL A   1      30.945  28.672  25.178  1.00  0.00     0.020 A 
BRANCH  11  14
ATOM     14  C   UNL A   1      29.658  29.240  23.127  1.00  0.00     0.020 C 
ATOM     15  C   UNL A   1      29.357  30.491  23.511  1.00  0.00     0.106 C 
BRANCH  15  16
ATOM     16  S   UNL A   1      28.340  31.498  22.529  1.00  0.00     0.168 S 
ATOM     17  C   UNL A   1      28.015  30.418  21.155  1.00  0.00     0.163 C 
ATOM     18  O   UNL A   1      27.080  31.685  23.227  1.00  0.00    -0.225 OA
ATOM     19  O   UNL A   1      29.081  32.631  22.017  1.00  0.00    -0.225 OA
ENDBRANCH  15  16
ENDBRANCH  11  14
BRANCH  12  20
ATOM     20  C   UNL A   1      32.296  28.271  27.251  1.00  0.00     0.193 C 
ATOM     21  O   UNL A   1      31.886  27.769  28.293  1.00  0.00    -0.289 OA
BRANCH  20  22
ATOM     22  C   UNL A   1      33.352  29.314  27.325  1.00  0.00     0.022 A 
ATOM     23  C   UNL A   1      32.965  30.644  27.500  1.00  0.00     0.012 A 
ATOM     24  C   UNL A   1      34.711  28.978  27.255  1.00  0.00     0.012 A 
ATOM     25  C   UNL A   1      33.937  31.633  27.660  1.00  0.00     0.001 A 
ATOM     26  C   UNL A   1      35.679  29.971  27.423  1.00  0.00     0.001 A 
ATOM     27  C   UNL A   1      35.292  31.294  27.632  1.00  0.00     0.000 A 
ENDBRANCH  20  22
ENDBRANCH  12  20
ENDBRANCH   6   8
ENDBRANCH   3   6
ENDBRANCH   1   2
BRANCH   1  28
ATOM     28  C   UNL A   1      36.383  23.473  24.354  1.00  0.00     0.042 C 
BRANCH  28  29
ATOM     29  C   UNL A   1      36.796  23.436  25.822  1.00  0.00     0.118 C 
BRANCH  29  30
ATOM     30  N   UNL A   1      37.898  22.522  26.068  1.00  0.00    -0.352 N 
ATOM     31  C   UNL A   1      39.193  22.762  26.444  1.00  0.00     0.251 C 
ATOM     32  H   UNL A   1      37.677  21.570  25.943  1.00  0.00     0.163 HD
ATOM     33  O   UNL A   1      40.008  21.846  26.388  1.00  0.00    -0.269 OA
BRANCH  31  34
ATOM     34  C   UNL A   1      39.627  24.101  26.900  1.00  0.00     0.039 A 
ATOM     35  C   UNL A   1      39.455  24.423  28.250  1.00  0.00     0.014 A 
ATOM     36  C   UNL A   1      40.140  25.058  26.020  1.00  0.00     0.014 A 
ATOM     37  C   UNL A   1      39.840  25.679  28.721  1.00  0.00     0.010 A 
ATOM     38  C   UNL A   1      40.599  26.284  26.506  1.00  0.00     0.010 A 
ATOM     39  C   UNL A   1      40.447  26.609  27.861  1.00  0.00    -0.014 A 
BRANCH  39  40
ATOM     40  C   UNL A   1      40.941  27.906  28.391  1.00  0.00     0.031 A 
ATOM     41  C   UNL A   1      42.408  28.239  28.384  1.00  0.00     0.074 A 
ATOM     42  C   UNL A   1      40.056  28.786  28.897  1.00  0.00     0.049 A 
ATOM     43  N   UNL A   1      43.002  29.344  28.759  1.00  0.00    -0.248 NA
ATOM     44  C   UNL A   1      43.330  27.192  27.917  1.00  0.00     0.031 C 
ATOM     45  C   UNL A   1      38.612  28.563  29.008  1.00  0.00     0.029 A 
ATOM     46  N   UNL A   1      40.236  30.051  29.399  1.00  0.00    -0.354 N 
ATOM     47  C   UNL A   1      44.362  29.127  28.573  1.00  0.00     0.074 A 
ATOM     48  C   UNL A   1      44.510  27.765  28.108  1.00  0.00     0.031 C 
ATOM     49  C   UNL A   1      38.034  29.670  29.499  1.00  0.00     0.029 A 
ATOM     50  C   UNL A   1      39.066  30.664  29.774  1.00  0.00     0.049 A 
ATOM     51  H   UNL A   1      41.119  30.477  29.482  1.00  0.00     0.167 HD
ATOM     52  C   UNL A   1      45.393  29.989  28.751  1.00  0.00     0.031 A 
ATOM     53  C   UNL A   1      38.843  31.892  30.278  1.00  0.00     0.031 A 
ATOM     54  C   UNL A   1      45.248  31.342  29.222  1.00  0.00     0.049 A 
ATOM     55  C   UNL A   1      40.005  32.823  30.477  1.00  0.00     0.074 A 
ATOM     56  C   UNL A   1      46.227  32.307  29.391  1.00  0.00     0.029 A 
ATOM     57  N   UNL A   1      44.048  31.921  29.606  1.00  0.00    -0.354 N 
ATOM     58  N   UNL A   1      41.276  32.627  30.221  1.00  0.00    -0.248 NA
ATOM     59  C   UNL A   1      39.696  34.152  31.020  1.00  0.00     0.031 C 
ATOM     60  C   UNL A   1      45.627  33.449  29.933  1.00  0.00     0.029 A 
ATOM     61  C   UNL A   1      44.265  33.219  30.039  1.00  0.00     0.049 A 
ATOM     62  H   UNL A   1      43.171  31.475  29.575  1.00  0.00     0.167 HD
ATOM     63  C   UNL A   1      41.915  33.814  30.554  1.00  0.00     0.074 A 
ATOM     64  C   UNL A   1      40.888  34.732  30.999  1.00  0.00     0.031 C 
ATOM     65  C   UNL A   1      43.236  34.116  30.499  1.00  0.00     0.031 A 
BRANCH  52  66
ATOM     66  C   UNL A   1      46.778  29.485  28.442  1.00  0.00    -0.014 A 
ATOM     67  C   UNL A   1      47.338  29.637  27.162  1.00  0.00     0.009 A 
ATOM     68  C   UNL A   1      47.550  28.889  29.450  1.00  0.00     0.009 A 
ATOM     69  C   UNL A   1      48.625  29.168  26.890  1.00  0.00     0.001 A 
ATOM     70  C   UNL A   1      48.849  28.449  29.184  1.00  0.00     0.001 A 
ATOM     71  C   UNL A   1      49.381  28.580  27.903  1.00  0.00     0.000 A 
ENDBRANCH  52  66
BRANCH  53  72
ATOM     72  C   UNL A   1      37.459  32.319  30.613  1.00  0.00    -0.014 A 
ATOM     73  C   UNL A   1      36.732  31.663  31.619  1.00  0.00     0.009 A 
ATOM     74  C   UNL A   1      36.856  33.383  29.925  1.00  0.00     0.009 A 
ATOM     75  C   UNL A   1      35.419  32.045  31.906  1.00  0.00     0.001 A 
ATOM     76  C   UNL A   1      35.556  33.784  30.237  1.00  0.00     0.001 A 
ATOM     77  C   UNL A   1      34.835  33.108  31.220  1.00  0.00     0.000 A 
ENDBRANCH  53  72
BRANCH  65  78
ATOM     78  C   UNL A   1      43.633  35.505  30.918  1.00  0.00    -0.014 A 
ATOM     79  C   UNL A   1      43.706  36.555  29.987  1.00  0.00     0.009 A 
ATOM     80  C   UNL A   1      43.936  35.768  32.262  1.00  0.00     0.009 A 
ATOM     81  C   UNL A   1      44.121  37.826  30.388  1.00  0.00     0.001 A 
ATOM     82  C   UNL A   1      44.318  37.047  32.666  1.00  0.00     0.001 A 
ATOM     83  C   UNL A   1      44.424  38.072  31.726  1.00  0.00     0.000 A 
ENDBRANCH  65  78
ENDBRANCH  39  40
ENDBRANCH  31  34
ENDBRANCH  29  30
ENDBRANCH  28  29
ENDBRANCH   1  28
TORSDOF 15
ENDMDL
MODEL 2
REMARK VINA RESULT:     -11.2      3.940      8.658
REMARK SMILES C[C@@H](C(=O)NCCCNC(=O)c1ccc(-c2c3nc(c(-c4ccccc4)c4ccc([nH]4)c(-c4ccccc4)c4nc(c(-c5ccccc5)c5ccc2[nH]5)C=C4)C=C3)cc1)c1cc(/C=C/S(C)(=O)=O)cc(C(=O)c2ccccc2)c1
REMARK SMILES IDX 6 1 5 2 3 3 4 4 2 6 1 7 60 8 61 9 79 10 62 11 70 12 69 13
REMARK SMILES IDX 63 14 64 15 65 16 66 17 67 18 68 19 71 20 72 21 73 22 74 23
REMARK SMILES IDX 78 24 75 25 77 26 76 27 7 28 8 29 9 30 10 31 11 33 12 34
REMARK SMILES IDX 13 35 59 36 14 37 58 38 15 39 16 40 17 41 52 42 18 43 57 44
REMARK SMILES IDX 51 45 53 46 19 47 56 48 50 49 49 50 20 52 42 53 27 54 41 55
REMARK SMILES IDX 28 56 31 57 40 58 54 59 29 60 30 61 39 63 55 64 32 65 21 66
REMARK SMILES IDX 22 67 26 68 23 69 25 70 24 71 43 72 44 73 48 74 45 75 47 76
REMARK SMILES IDX 46 77 33 78 34 79 38 80 35 81 37 82 36 83
REMARK H PARENT 5 5 9 32 53 51 31 62
REMARK Flexibility Score: inf
ROOT
ATOM      1  C   UNL A   1      32.306  25.845  26.481  1.00  0.00     0.117 C 
ENDROOT
BRANCH   1   2
ATOM      2  N   UNL A   1      31.035  25.245  26.832  1.00  0.00    -0.356 N 
ATOM      3  C   UNL A   1      30.692  23.939  27.011  1.00  0.00     0.227 C 
ATOM      4  O   UNL A   1      29.510  23.720  27.284  1.00  0.00    -0.274 OA
ATOM      5  H   UNL A   1      30.299  25.886  26.962  1.00  0.00     0.163 HD
BRANCH   3   6
ATOM      6  C   UNL A   1      31.761  22.839  26.906  1.00  0.00     0.105 C 
ATOM      7  C   UNL A   1      33.121  23.271  27.467  1.00  0.00     0.023 C 
BRANCH   6   8
ATOM      8  C   UNL A   1      32.014  22.349  25.483  1.00  0.00    -0.035 A 
ATOM      9  C   UNL A   1      32.180  20.980  25.231  1.00  0.00     0.012 A 
ATOM     10  C   UNL A   1      32.236  23.256  24.440  1.00  0.00     0.016 A 
ATOM     11  C   UNL A   1      32.594  20.510  23.974  1.00  0.00    -0.024 A 
ATOM     12  C   UNL A   1      32.666  22.822  23.185  1.00  0.00     0.023 A 
ATOM     13  C   UNL A   1      32.830  21.448  22.954  1.00  0.00     0.020 A 
BRANCH  11  14
ATOM     14  C   UNL A   1      32.847  19.079  23.708  1.00  0.00     0.020 C 
ATOM     15  C   UNL A   1      33.410  18.222  24.576  1.00  0.00     0.106 C 
BRANCH  15  16
ATOM     16  S   UNL A   1      33.731  16.579  24.118  1.00  0.00     0.168 S 
ATOM     17  C   UNL A   1      35.198  16.242  25.064  1.00  0.00     0.163 C 
ATOM     18  O   UNL A   1      32.675  15.744  24.663  1.00  0.00    -0.225 OA
ATOM     19  O   UNL A   1      34.096  16.498  22.719  1.00  0.00    -0.225 OA
ENDBRANCH  15  16
ENDBRANCH  11  14
BRANCH  12  20
ATOM     20  C   UNL A   1      32.958  23.800  22.094  1.00  0.00     0.193 C 
ATOM     21  O   UNL A   1      33.364  23.410  21.004  1.00  0.00    -0.289 OA
BRANCH  20  22
ATOM     22  C   UNL A   1      32.738  25.255  22.297  1.00  0.00     0.022 A 
ATOM     23  C   UNL A   1      33.809  26.038  22.735  1.00  0.00     0.012 A 
ATOM     24  C   UNL A   1      31.496  25.847  22.027  1.00  0.00     0.012 A 
ATOM     25  C   UNL A   1      33.653  27.421  22.852  1.00  0.00     0.001 A 
ATOM     26  C   UNL A   1      31.349  27.231  22.138  1.00  0.00     0.001 A 
ATOM     27  C   UNL A   1      32.428  28.017  22.542  1.00  0.00     0.000 A 
ENDBRANCH  20  22
ENDBRANCH  12  20
ENDBRANCH   6   8
ENDBRANCH   3   6
ENDBRANCH   1   2
BRANCH   1  28
ATOM     28  C   UNL A   1      32.229  27.371  26.491  1.00  0.00     0.042 C 
BRANCH  28  29
ATOM     29  C   UNL A   1      33.559  28.067  26.766  1.00  0.00     0.118 C 
BRANCH  29  30
ATOM     30  N   UNL A   1      33.405  29.494  26.992  1.00  0.00    -0.352 N 
ATOM     31  C   UNL A   1      34.220  30.392  27.628  1.00  0.00     0.251 C 
ATOM     32  H   UNL A   1      32.576  29.879  26.626  1.00  0.00     0.163 HD
ATOM     33  O   UNL A   1      33.786  31.512  27.882  1.00  0.00    -0.269 OA
BRANCH  31  34
ATOM     34  C   UNL A   1      35.600  30.035  28.024  1.00  0.00     0.039 A 
ATOM     35  C   UNL A   1      35.818  29.610  29.338  1.00  0.00     0.014 A 
ATOM     36  C   UNL A   1      36.683  30.164  27.150  1.00  0.00     0.014 A 
ATOM     37  C   UNL A   1      37.106  29.273  29.757  1.00  0.00     0.010 A 
ATOM     38  C   UNL A   1      37.957  29.751  27.544  1.00  0.00     0.010 A 
ATOM     39  C   UNL A   1      38.182  29.308  28.855  1.00  0.00    -0.014 A 
BRANCH  39  40
ATOM     40  C   UNL A   1      39.531  28.855  29.282  1.00  0.00     0.031 A 
ATOM     41  C   UNL A   1      40.380  29.699  30.193  1.00  0.00     0.074 A 
ATOM     42  C   UNL A   1      39.998  27.675  28.832  1.00  0.00     0.049 A 
ATOM     43  N   UNL A   1      41.556  29.430  30.704  1.00  0.00    -0.248 NA
ATOM     44  C   UNL A   1      39.856  31.023  30.563  1.00  0.00     0.031 C 
ATOM     45  C   UNL A   1      39.295  26.786  27.904  1.00  0.00     0.029 A 
ATOM     46  N   UNL A   1      41.168  27.012  29.104  1.00  0.00    -0.354 N 
ATOM     47  C   UNL A   1      41.909  30.546  31.453  1.00  0.00     0.074 A 
ATOM     48  C   UNL A   1      40.852  31.519  31.282  1.00  0.00     0.031 C 
ATOM     49  C   UNL A   1      40.024  25.675  27.722  1.00  0.00     0.029 A 
ATOM     50  C   UNL A   1      41.262  25.789  28.486  1.00  0.00     0.049 A 
ATOM     51  H   UNL A   1      41.873  27.377  29.685  1.00  0.00     0.167 HD
ATOM     52  C   UNL A   1      43.003  30.737  32.230  1.00  0.00     0.031 A 
ATOM     53  C   UNL A   1      42.232  24.857  28.531  1.00  0.00     0.031 A 
ATOM     54  C   UNL A   1      44.060  29.773  32.394  1.00  0.00     0.049 A 
ATOM     55  C   UNL A   1      43.440  25.099  29.390  1.00  0.00     0.074 A 
ATOM     56  C   UNL A   1      45.187  29.855  33.196  1.00  0.00     0.029 A 
ATOM     57  N   UNL A   1      44.127  28.553  31.740  1.00  0.00    -0.354 N 
ATOM     58  N   UNL A   1      43.720  26.128  30.153  1.00  0.00    -0.248 NA
ATOM     59  C   UNL A   1      44.458  24.040  29.406  1.00  0.00     0.031 C 
ATOM     60  C   UNL A   1      45.962  28.711  32.980  1.00  0.00     0.029 A 
ATOM     61  C   UNL A   1      45.287  27.885  32.096  1.00  0.00     0.049 A 
ATOM     62  H   UNL A   1      43.447  28.210  31.114  1.00  0.00     0.167 HD
ATOM     63  C   UNL A   1      44.936  25.832  30.755  1.00  0.00     0.074 A 
ATOM     64  C   UNL A   1      45.323  24.515  30.291  1.00  0.00     0.031 C 
ATOM     65  C   UNL A   1      45.670  26.584  31.611  1.00  0.00     0.031 A 
BRANCH  52  66
ATOM     66  C   UNL A   1      43.115  32.050  32.959  1.00  0.00    -0.014 A 
ATOM     67  C   UNL A   1      43.748  33.158  32.369  1.00  0.00     0.009 A 
ATOM     68  C   UNL A   1      42.546  32.196  34.232  1.00  0.00     0.009 A 
ATOM     69  C   UNL A   1      43.842  34.370  33.056  1.00  0.00     0.001 A 
ATOM     70  C   UNL A   1      42.613  33.419  34.905  1.00  0.00     0.001 A 
ATOM     71  C   UNL A   1      43.269  34.501  34.320  1.00  0.00     0.000 A 
ENDBRANCH  52  66
BRANCH  53  72
ATOM     72  C   UNL A   1      42.093  23.599  27.750  1.00  0.00    -0.014 A 
ATOM     73  C   UNL A   1      42.540  23.528  26.421  1.00  0.00     0.009 A 
ATOM     74  C   UNL A   1      41.506  22.464  28.330  1.00  0.00     0.009 A 
ATOM     75  C   UNL A   1      42.374  22.355  25.681  1.00  0.00     0.001 A 
ATOM     76  C   UNL A   1      41.373  21.282  27.599  1.00  0.00     0.001 A 
ATOM     77  C   UNL A   1      41.796  21.232  26.272  1.00  0.00     0.000 A 
ENDBRANCH  53  72
BRANCH  65  78
ATOM     78  C   UNL A   1      46.956  25.985  32.111  1.00  0.00    -0.014 A 
ATOM     79  C   UNL A   1      48.160  26.149  31.406  1.00  0.00     0.009 A 
ATOM     80  C   UNL A   1      46.965  25.249  33.306  1.00  0.00     0.009 A 
ATOM     81  C   UNL A   1      49.334  25.547  31.862  1.00  0.00     0.001 A 
ATOM     82  C   UNL A   1      48.147  24.677  33.778  1.00  0.00     0.001 A 
ATOM     83  C   UNL A   1      49.327  24.814  33.048  1.00  0.00     0.000 A 
ENDBRANCH  65  78
ENDBRANCH  39  40
ENDBRANCH  31  34
ENDBRANCH  29  30
ENDBRANCH  28  29
ENDBRANCH   1  28
TORSDOF 15
ENDMDL
MODEL 3
REMARK VINA RESULT:     -11.2      3.816      8.958
REMARK SMILES C[C@@H](C(=O)NCCCNC(=O)c1ccc(-c2c3nc(c(-c4ccccc4)c4ccc([nH]4)c(-c4ccccc4)c4nc(c(-c5ccccc5)c5ccc2[nH]5)C=C4)C=C3)cc1)c1cc(/C=C/S(C)(=O)=O)cc(C(=O)c2ccccc2)c1
REMARK SMILES IDX 6 1 5 2 3 3 4 4 2 6 1 7 60 8 61 9 79 10 62 11 70 12 69 13
REMARK SMILES IDX 63 14 64 15 65 16 66 17 67 18 68 19 71 20 72 21 73 22 74 23
REMARK SMILES IDX 78 24 75 25 77 26 76 27 7 28 8 29 9 30 10 31 11 33 12 34
REMARK SMILES IDX 13 35 59 36 14 37 58 38 15 39 16 40 17 41 52 42 18 43 57 44
REMARK SMILES IDX 51 45 53 46 19 47 56 48 50 49 49 50 20 52 42 53 27 54 41 55
REMARK SMILES IDX 28 56 31 57 40 58 54 59 29 60 30 61 39 63 55 64 32 65 21 66
REMARK SMILES IDX 22 67 26 68 23 69 25 70 24 71 43 72 44 73 48 74 45 75 47 76
REMARK SMILES IDX 46 77 33 78 34 79 38 80 35 81 37 82 36 83
REMARK H PARENT 5 5 9 32 53 51 31 62
REMARK Flexibility Score: inf
ROOT
ATOM      1  C   UNL A   1      35.486  33.232  32.258  1.00  0.00     0.117 C 
ENDROOT
BRANCH   1   2
ATOM      2  N   UNL A   1      35.375  33.755  30.912  1.00  0.00    -0.356 N 
ATOM      3  C   UNL A   1      36.263  33.740  29.879  1.00  0.00     0.227 C 
ATOM      4  O   UNL A   1      35.899  34.294  28.840  1.00  0.00    -0.274 OA
ATOM      5  H   UNL A   1      34.517  34.194  30.710  1.00  0.00     0.163 HD
BRANCH   3   6
ATOM      6  C   UNL A   1      37.617  33.026  30.036  1.00  0.00     0.105 C 
ATOM      7  C   UNL A   1      38.793  33.850  29.499  1.00  0.00     0.023 C 
BRANCH   6   8
ATOM      8  C   UNL A   1      37.687  31.666  29.348  1.00  0.00    -0.035 A 
ATOM      9  C   UNL A   1      36.576  31.176  28.647  1.00  0.00     0.012 A 
ATOM     10  C   UNL A   1      38.790  30.824  29.533  1.00  0.00     0.016 A 
ATOM     11  C   UNL A   1      36.538  29.859  28.161  1.00  0.00    -0.024 A 
ATOM     12  C   UNL A   1      38.776  29.505  29.077  1.00  0.00     0.023 A 
ATOM     13  C   UNL A   1      37.654  29.032  28.381  1.00  0.00     0.020 A 
BRANCH  11  14
ATOM     14  C   UNL A   1      35.350  29.300  27.484  1.00  0.00     0.020 C 
ATOM     15  C   UNL A   1      34.334  30.025  26.987  1.00  0.00     0.106 C 
BRANCH  15  16
ATOM     16  S   UNL A   1      32.950  29.247  26.285  1.00  0.00     0.168 S 
ATOM     17  C   UNL A   1      33.516  27.564  26.192  1.00  0.00     0.163 C 
ATOM     18  O   UNL A   1      31.873  29.278  27.258  1.00  0.00    -0.225 OA
ATOM     19  O   UNL A   1      32.739  29.703  24.927  1.00  0.00    -0.225 OA
ENDBRANCH  15  16
ENDBRANCH  11  14
BRANCH  12  20
ATOM     20  C   UNL A   1      39.933  28.594  29.329  1.00  0.00     0.193 C 
ATOM     21  O   UNL A   1      40.005  27.959  30.376  1.00  0.00    -0.289 OA
BRANCH  20  22
ATOM     22  C   UNL A   1      40.999  28.418  28.309  1.00  0.00     0.022 A 
ATOM     23  C   UNL A   1      41.875  27.338  28.438  1.00  0.00     0.012 A 
ATOM     24  C   UNL A   1      41.111  29.290  27.218  1.00  0.00     0.012 A 
ATOM     25  C   UNL A   1      42.831  27.100  27.448  1.00  0.00     0.001 A 
ATOM     26  C   UNL A   1      42.063  29.042  26.227  1.00  0.00     0.001 A 
ATOM     27  C   UNL A   1      42.916  27.944  26.339  1.00  0.00     0.000 A 
ENDBRANCH  20  22
ENDBRANCH  12  20
ENDBRANCH   6   8
ENDBRANCH   3   6
ENDBRANCH   1   2
BRANCH   1  28
ATOM     28  C   UNL A   1      35.798  34.336  33.267  1.00  0.00     0.042 C 
BRANCH  28  29
ATOM     29  C   UNL A   1      37.165  34.211  33.934  1.00  0.00     0.118 C 
BRANCH  29  30
ATOM     30  N   UNL A   1      37.119  33.424  35.155  1.00  0.00    -0.352 N 
ATOM     31  C   UNL A   1      37.774  32.273  35.503  1.00  0.00     0.251 C 
ATOM     32  H   UNL A   1      36.515  33.779  35.849  1.00  0.00     0.163 HD
ATOM     33  O   UNL A   1      37.420  31.669  36.512  1.00  0.00    -0.269 OA
BRANCH  31  34
ATOM     34  C   UNL A   1      38.885  31.741  34.683  1.00  0.00     0.039 A 
ATOM     35  C   UNL A   1      38.567  30.905  33.609  1.00  0.00     0.014 A 
ATOM     36  C   UNL A   1      40.225  32.001  34.986  1.00  0.00     0.014 A 
ATOM     37  C   UNL A   1      39.584  30.372  32.816  1.00  0.00     0.010 A 
ATOM     38  C   UNL A   1      41.237  31.534  34.145  1.00  0.00     0.010 A 
ATOM     39  C   UNL A   1      40.927  30.709  33.056  1.00  0.00    -0.014 A 
BRANCH  39  40
ATOM     40  C   UNL A   1      41.994  30.215  32.148  1.00  0.00     0.031 A 
ATOM     41  C   UNL A   1      42.639  28.873  32.365  1.00  0.00     0.074 A 
ATOM     42  C   UNL A   1      42.394  30.994  31.124  1.00  0.00     0.049 A 
ATOM     43  N   UNL A   1      43.546  28.270  31.638  1.00  0.00    -0.248 NA
ATOM     44  C   UNL A   1      42.231  28.120  33.561  1.00  0.00     0.031 C 
ATOM     45  C   UNL A   1      41.885  32.337  30.835  1.00  0.00     0.029 A 
ATOM     46  N   UNL A   1      43.311  30.765  30.129  1.00  0.00    -0.354 N 
ATOM     47  C   UNL A   1      43.815  27.070  32.286  1.00  0.00     0.074 A 
ATOM     48  C   UNL A   1      43.020  27.057  33.495  1.00  0.00     0.031 C 
ATOM     49  C   UNL A   1      42.460  32.791  29.711  1.00  0.00     0.029 A 
ATOM     50  C   UNL A   1      43.405  31.793  29.223  1.00  0.00     0.049 A 
ATOM     51  H   UNL A   1      43.849  29.943  30.070  1.00  0.00     0.167 HD
ATOM     52  C   UNL A   1      44.633  26.060  31.900  1.00  0.00     0.031 A 
ATOM     53  C   UNL A   1      44.163  31.919  28.118  1.00  0.00     0.031 A 
ATOM     54  C   UNL A   1      45.430  26.075  30.701  1.00  0.00     0.049 A 
ATOM     55  C   UNL A   1      45.070  30.790  27.719  1.00  0.00     0.074 A 
ATOM     56  C   UNL A   1      46.255  25.081  30.200  1.00  0.00     0.029 A 
ATOM     57  N   UNL A   1      45.510  27.140  29.818  1.00  0.00    -0.354 N 
ATOM     58  N   UNL A   1      45.252  29.630  28.303  1.00  0.00    -0.248 NA
ATOM     59  C   UNL A   1      45.862  30.984  26.498  1.00  0.00     0.031 C 
ATOM     60  C   UNL A   1      46.877  25.568  29.046  1.00  0.00     0.029 A 
ATOM     61  C   UNL A   1      46.391  26.840  28.792  1.00  0.00     0.049 A 
ATOM     62  H   UNL A   1      45.013  27.986  29.907  1.00  0.00     0.167 HD
ATOM     63  C   UNL A   1      46.166  28.948  27.509  1.00  0.00     0.074 A 
ATOM     64  C   UNL A   1      46.473  29.813  26.389  1.00  0.00     0.031 C 
ATOM     65  C   UNL A   1      46.704  27.718  27.693  1.00  0.00     0.031 A 
BRANCH  52  66
ATOM     66  C   UNL A   1      44.711  24.851  32.794  1.00  0.00    -0.014 A 
ATOM     67  C   UNL A   1      45.670  24.764  33.818  1.00  0.00     0.009 A 
ATOM     68  C   UNL A   1      43.790  23.804  32.641  1.00  0.00     0.009 A 
ATOM     69  C   UNL A   1      45.728  23.638  34.642  1.00  0.00     0.001 A 
ATOM     70  C   UNL A   1      43.830  22.692  33.486  1.00  0.00     0.001 A 
ATOM     71  C   UNL A   1      44.805  22.606  34.479  1.00  0.00     0.000 A 
ENDBRANCH  52  66
BRANCH  53  72
ATOM     72  C   UNL A   1      44.083  33.157  27.299  1.00  0.00    -0.014 A 
ATOM     73  C   UNL A   1      44.599  34.370  27.782  1.00  0.00     0.009 A 
ATOM     74  C   UNL A   1      43.485  33.132  26.029  1.00  0.00     0.009 A 
ATOM     75  C   UNL A   1      44.489  35.538  27.023  1.00  0.00     0.001 A 
ATOM     76  C   UNL A   1      43.408  34.294  25.259  1.00  0.00     0.001 A 
ATOM     77  C   UNL A   1      43.900  35.498  25.761  1.00  0.00     0.000 A 
ENDBRANCH  53  72
BRANCH  65  78
ATOM     78  C   UNL A   1      47.669  27.235  26.645  1.00  0.00    -0.014 A 
ATOM     79  C   UNL A   1      47.226  26.527  25.516  1.00  0.00     0.009 A 
ATOM     80  C   UNL A   1      49.041  27.494  26.788  1.00  0.00     0.009 A 
ATOM     81  C   UNL A   1      48.142  26.047  24.577  1.00  0.00     0.001 A 
ATOM     82  C   UNL A   1      49.951  27.043  25.831  1.00  0.00     0.001 A 
ATOM     83  C   UNL A   1      49.503  26.308  24.735  1.00  0.00     0.000 A 
ENDBRANCH  65  78
ENDBRANCH  39  40
ENDBRANCH  31  34
ENDBRANCH  29  30
ENDBRANCH  28  29
ENDBRANCH   1  28
TORSDOF 15
ENDMDL
